MODEL        1
REMARK 921   NORMALIZED FREE ENERGY PREDICTED BY IDOCK:   -6.13 KCAL/MOL
REMARK 922        TOTAL FREE ENERGY PREDICTED BY IDOCK:  -12.25 KCAL/MOL
REMARK 923 INTER-LIGAND FREE ENERGY PREDICTED BY IDOCK:  -10.07 KCAL/MOL
REMARK 924 INTRA-LIGAND FREE ENERGY PREDICTED BY IDOCK:   -2.18 KCAL/MOL
REMARK 927      BINDING AFFINITY PREDICTED BY RF-SCORE:    0.00 PKD
ROOT
HETATM    1  C   UNL     1     -13.138  10.997  71.897  1.00  0.00    -0.525 C  
HETATM    2  C   UNL     1     -13.520   9.642  72.440  1.00  0.00    -0.421 C  
ENDROOT
BRANCH   2   3
HETATM    3  C   UNL     1     -14.035   8.696  71.331  1.00  0.00    -0.329 C  
BRANCH   3   4
HETATM    4  C   UNL     1     -13.833   7.219  71.702  1.00  0.00    -0.461 C  
BRANCH   4   5
HETATM    5  C   UNL     1     -12.407   6.738  71.405  1.00  0.00    -0.403 C  
BRANCH   5   6
HETATM    6  C   UNL     1     -11.400   7.209  72.467  1.00  0.00    -0.318 C  
BRANCH   6   7
HETATM    7  C   UNL     1     -10.117   6.364  72.416  1.00  0.00    -0.191 C  
BRANCH   7   8
HETATM    8  C   UNL     1     -10.342   4.859  72.223  1.00  0.00    -0.267 C  
BRANCH   8   9
HETATM    9  C   UNL     1      -9.333   4.149  71.334  1.00  0.00    -0.211 C  
BRANCH   9  10
HETATM   10  C   UNL     1      -9.620   4.235  69.839  1.00  0.00    -0.279 C  
BRANCH  10  11
HETATM   11  C   UNL     1      -8.620   4.711  68.748  1.00  0.00    -0.085 C  
HETATM   12  O   UNL     1      -7.510   4.173  68.718  1.00  0.00    -0.055 OA 
BRANCH  11  13
HETATM   13  O   UNL     1      -8.905   5.845  67.992  1.00  0.00    -0.111 OA 
BRANCH  13  14
HETATM   14  C   UNL     1     -10.102   6.697  68.456  1.00  0.00    -0.161 C  
HETATM   15  C   UNL     1     -10.796   6.849  67.097  1.00  0.00    -0.447 C  
HETATM   16  C   UNL     1      -9.766   7.793  66.469  1.00  0.00    -0.265 C  
HETATM   17  C   UNL     1      -9.968   8.940  67.425  1.00  0.00    -0.267 C  
HETATM   18  C   UNL     1      -9.818  10.370  66.905  1.00  0.00    -0.236 C  
HETATM   19  C   UNL     1     -10.332  10.256  65.449  1.00  0.00    -0.233 C  
HETATM   20  C   UNL     1     -10.839  11.481  64.787  1.00  0.00    -0.360 C  
HETATM   21  C   UNL     1     -11.780  12.245  65.737  1.00  0.00    -0.445 C  
HETATM   22  C   UNL     1     -12.758  12.962  65.189  1.00  0.00    -0.443 C  
HETATM   23  C   UNL     1     -11.999  13.953  64.377  1.00  0.00    -0.450 C  
HETATM   24  O   UNL     1     -12.374  14.250  63.261  1.00  0.00    -0.616 OA 
HETATM   25  C   UNL     1     -10.719  14.520  65.066  1.00  0.00    -0.444 C  
HETATM   26  C   UNL     1     -10.089  13.720  66.330  1.00  0.00    -0.304 C  
HETATM   27  C   UNL     1     -11.089  12.713  67.029  1.00  0.00    -0.322 C  
HETATM   28  C   UNL     1     -11.928  13.594  67.968  1.00  0.00    -0.385 C  
HETATM   29  C   UNL     1     -10.761  11.292  67.735  1.00  0.00    -0.265 C  
HETATM   30  C   UNL     1     -10.527  10.976  69.265  1.00  0.00    -0.210 C  
HETATM   31  C   UNL     1     -10.778   9.378  69.631  1.00  0.00    -0.251 C  
HETATM   32  C   UNL     1      -9.789   8.361  68.852  1.00  0.00    -0.184 C  
HETATM   33  C   UNL     1      -8.506   8.377  69.685  1.00  0.00    -0.127 C  
ENDBRANCH  13  14
ENDBRANCH  11  13
ENDBRANCH  10  11
ENDBRANCH   9  10
ENDBRANCH   8   9
ENDBRANCH   7   8
ENDBRANCH   6   7
ENDBRANCH   5   6
ENDBRANCH   4   5
ENDBRANCH   3   4
ENDBRANCH   2   3
TORSDOF 11
ENDMDL
MODEL        2
REMARK 921   NORMALIZED FREE ENERGY PREDICTED BY IDOCK:   -6.12 KCAL/MOL
REMARK 922        TOTAL FREE ENERGY PREDICTED BY IDOCK:  -12.23 KCAL/MOL
REMARK 923 INTER-LIGAND FREE ENERGY PREDICTED BY IDOCK:  -10.63 KCAL/MOL
REMARK 924 INTRA-LIGAND FREE ENERGY PREDICTED BY IDOCK:   -1.61 KCAL/MOL
REMARK 927      BINDING AFFINITY PREDICTED BY RF-SCORE:    0.00 PKD
ROOT
HETATM    1  C   UNL     1     -11.781  16.034  71.731  1.00  0.00    -0.593 C  
HETATM    2  C   UNL     1     -12.894  15.817  72.725  1.00  0.00    -0.569 C  
ENDROOT
BRANCH   2   3
HETATM    3  C   UNL     1     -13.999  14.892  72.165  1.00  0.00    -0.598 C  
BRANCH   3   4
HETATM    4  C   UNL     1     -13.773  13.426  72.564  1.00  0.00    -0.636 C  
BRANCH   4   5
HETATM    5  C   UNL     1     -12.883  12.684  71.561  1.00  0.00    -0.368 C  
BRANCH   5   6
HETATM    6  C   UNL     1     -13.130  11.166  71.571  1.00  0.00    -0.489 C  
BRANCH   6   7
HETATM    7  C   UNL     1     -12.311  10.471  70.473  1.00  0.00    -0.432 C  
BRANCH   7   8
HETATM    8  C   UNL     1     -11.078   9.707  70.973  1.00  0.00    -0.438 C  
BRANCH   8   9
HETATM    9  C   UNL     1      -9.891   9.674  70.025  1.00  0.00    -0.286 C  
BRANCH   9  10
HETATM   10  C   UNL     1     -10.094   8.838  68.767  1.00  0.00    -0.213 C  
BRANCH  10  11
HETATM   11  C   UNL     1     -10.392   9.392  67.345  1.00  0.00    -0.263 C  
HETATM   12  O   UNL     1      -9.943   8.763  66.382  1.00  0.00    -0.267 OA 
BRANCH  11  13
HETATM   13  O   UNL     1     -10.950  10.658  67.195  1.00  0.00    -0.285 OA 
BRANCH  13  14
HETATM   14  C   UNL     1     -10.210  11.627  66.253  1.00  0.00    -0.227 C  
HETATM   15  C   UNL     1      -9.039  11.974  67.179  1.00  0.00    -0.186 C  
HETATM   16  C   UNL     1      -9.838  12.813  68.181  1.00  0.00    -0.226 C  
HETATM   17  C   UNL     1     -10.241  13.903  67.222  1.00  0.00    -0.249 C  
HETATM   18  C   UNL     1     -10.376  15.334  67.742  1.00  0.00    -0.244 C  
HETATM   19  C   UNL     1      -9.283  15.399  68.836  1.00  0.00    -0.216 C  
HETATM   20  C   UNL     1      -8.740  16.729  69.205  1.00  0.00    -0.092 C  
HETATM   21  C   UNL     1      -8.421  17.540  67.935  1.00  0.00    -0.230 C  
HETATM   22  C   UNL     1      -7.428  18.423  68.002  1.00  0.00    -0.263 C  
HETATM   23  C   UNL     1      -7.914  19.360  69.052  1.00  0.00    -0.266 C  
HETATM   24  O   UNL     1      -7.153  19.787  69.896  1.00  0.00    -0.232 OA 
HETATM   25  C   UNL     1      -9.436  19.693  68.976  1.00  0.00    -0.333 C  
HETATM   26  C   UNL     1     -10.410  18.723  68.114  1.00  0.00    -0.419 C  
HETATM   27  C   UNL     1      -9.658  17.812  67.061  1.00  0.00    -0.284 C  
HETATM   28  C   UNL     1      -9.445  18.726  65.845  1.00  0.00     0.111 C  
HETATM   29  C   UNL     1     -10.030  16.311  66.579  1.00  0.00    -0.290 C  
HETATM   30  C   UNL     1     -10.838  15.852  65.302  1.00  0.00    -0.401 C  
HETATM   31  C   UNL     1     -10.521  14.280  64.878  1.00  0.00    -0.454 C  
HETATM   32  C   UNL     1     -10.916  13.200  66.015  1.00  0.00    -0.295 C  
HETATM   33  C   UNL     1     -12.416  12.978  65.815  1.00  0.00    -0.394 C  
ENDBRANCH  13  14
ENDBRANCH  11  13
ENDBRANCH  10  11
ENDBRANCH   9  10
ENDBRANCH   8   9
ENDBRANCH   7   8
ENDBRANCH   6   7
ENDBRANCH   5   6
ENDBRANCH   4   5
ENDBRANCH   3   4
ENDBRANCH   2   3
TORSDOF 11
ENDMDL
MODEL        3
REMARK 921   NORMALIZED FREE ENERGY PREDICTED BY IDOCK:   -6.11 KCAL/MOL
REMARK 922        TOTAL FREE ENERGY PREDICTED BY IDOCK:  -12.22 KCAL/MOL
REMARK 923 INTER-LIGAND FREE ENERGY PREDICTED BY IDOCK:  -10.33 KCAL/MOL
REMARK 924 INTRA-LIGAND FREE ENERGY PREDICTED BY IDOCK:   -1.89 KCAL/MOL
REMARK 927      BINDING AFFINITY PREDICTED BY RF-SCORE:    0.00 PKD
ROOT
HETATM    1  C   UNL     1     -12.367  14.658  71.388  1.00  0.00    -0.411 C  
HETATM    2  C   UNL     1     -13.354  14.148  72.409  1.00  0.00    -0.591 C  
ENDROOT
BRANCH   2   3
HETATM    3  C   UNL     1     -13.606  12.630  72.265  1.00  0.00    -0.508 C  
BRANCH   3   4
HETATM    4  C   UNL     1     -12.680  11.995  71.214  1.00  0.00    -0.382 C  
BRANCH   4   5
HETATM    5  C   UNL     1     -13.120  10.575  70.838  1.00  0.00    -0.390 C  
BRANCH   5   6
HETATM    6  C   UNL     1     -12.751   9.545  71.918  1.00  0.00    -0.496 C  
BRANCH   6   7
HETATM    7  C   UNL     1     -13.582   8.263  71.757  1.00  0.00    -0.393 C  
BRANCH   7   8
HETATM    8  C   UNL     1     -12.830   7.078  71.140  1.00  0.00    -0.328 C  
BRANCH   8   9
HETATM    9  C   UNL     1     -12.033   6.221  72.110  1.00  0.00    -0.338 C  
BRANCH   9  10
HETATM   10  C   UNL     1     -10.713   5.689  71.564  1.00  0.00    -0.306 C  
BRANCH  10  11
HETATM   11  C   UNL     1      -9.440   6.535  71.277  1.00  0.00    -0.166 C  
HETATM   12  O   UNL     1      -8.352   6.063  71.617  1.00  0.00    -0.124 OA 
BRANCH  11  13
HETATM   13  O   UNL     1      -9.565   7.857  70.857  1.00  0.00    -0.160 OA 
BRANCH  13  14
HETATM   14  C   UNL     1      -8.766   8.256  69.601  1.00  0.00    -0.138 C  
HETATM   15  C   UNL     1      -8.520   9.726  69.962  1.00  0.00    -0.229 C  
HETATM   16  C   UNL     1      -9.962  10.206  69.772  1.00  0.00    -0.258 C  
HETATM   17  C   UNL     1     -10.056   9.915  68.296  1.00  0.00    -0.185 C  
HETATM   18  C   UNL     1     -10.904  10.831  67.414  1.00  0.00    -0.345 C  
HETATM   19  C   UNL     1     -10.726  12.212  68.092  1.00  0.00    -0.238 C  
HETATM   20  C   UNL     1     -10.941  13.428  67.272  1.00  0.00    -0.286 C  
HETATM   21  C   UNL     1     -10.223  13.285  65.916  1.00  0.00    -0.295 C  
HETATM   22  C   UNL     1      -9.786  14.398  65.332  1.00  0.00    -0.265 C  
HETATM   23  C   UNL     1     -11.050  15.156  65.121  1.00  0.00    -0.403 C  
HETATM   24  O   UNL     1     -11.092  16.351  65.329  1.00  0.00    -0.240 OA 
HETATM   25  C   UNL     1     -12.262  14.290  64.657  1.00  0.00    -0.470 C  
HETATM   26  C   UNL     1     -12.200  12.681  64.861  1.00  0.00    -0.531 C  
HETATM   27  C   UNL     1     -10.742  12.106  65.076  1.00  0.00    -0.338 C  
HETATM   28  C   UNL     1     -10.167  11.977  63.657  1.00  0.00    -0.470 C  
HETATM   29  C   UNL     1     -10.278  10.849  65.987  1.00  0.00    -0.311 C  
HETATM   30  C   UNL     1     -10.013   9.354  65.554  1.00  0.00    -0.129 C  
HETATM   31  C   UNL     1      -9.039   8.544  66.623  1.00  0.00    -0.203 C  
HETATM   32  C   UNL     1      -9.654   8.428  68.115  1.00  0.00    -0.158 C  
HETATM   33  C   UNL     1     -10.605   7.232  68.035  1.00  0.00    -0.247 C  
ENDBRANCH  13  14
ENDBRANCH  11  13
ENDBRANCH  10  11
ENDBRANCH   9  10
ENDBRANCH   8   9
ENDBRANCH   7   8
ENDBRANCH   6   7
ENDBRANCH   5   6
ENDBRANCH   4   5
ENDBRANCH   3   4
ENDBRANCH   2   3
TORSDOF 11
ENDMDL
MODEL        4
REMARK 921   NORMALIZED FREE ENERGY PREDICTED BY IDOCK:   -6.08 KCAL/MOL
REMARK 922        TOTAL FREE ENERGY PREDICTED BY IDOCK:  -12.18 KCAL/MOL
REMARK 923 INTER-LIGAND FREE ENERGY PREDICTED BY IDOCK:  -10.93 KCAL/MOL
REMARK 924 INTRA-LIGAND FREE ENERGY PREDICTED BY IDOCK:   -1.25 KCAL/MOL
REMARK 927      BINDING AFFINITY PREDICTED BY RF-SCORE:    0.00 PKD
ROOT
HETATM    1  C   UNL     1     -12.466  15.669  73.970  1.00  0.00    -0.785 C  
HETATM    2  C   UNL     1     -13.566  15.839  72.951  1.00  0.00    -0.660 C  
ENDROOT
BRANCH   2   3
HETATM    3  C   UNL     1     -13.476  14.789  71.820  1.00  0.00    -0.470 C  
BRANCH   3   4
HETATM    4  C   UNL     1     -13.735  13.366  72.340  1.00  0.00    -0.698 C  
BRANCH   4   5
HETATM    5  C   UNL     1     -12.906  12.316  71.592  1.00  0.00    -0.378 C  
BRANCH   5   6
HETATM    6  C   UNL     1     -13.286  10.880  71.989  1.00  0.00    -0.456 C  
BRANCH   6   7
HETATM    7  C   UNL     1     -12.768   9.871  70.953  1.00  0.00    -0.376 C  
BRANCH   7   8
HETATM    8  C   UNL     1     -11.244   9.703  70.919  1.00  0.00    -0.422 C  
BRANCH   8   9
HETATM    9  C   UNL     1     -10.687   8.964  69.713  1.00  0.00    -0.230 C  
BRANCH   9  10
HETATM   10  C   UNL     1     -10.061   9.855  68.645  1.00  0.00    -0.191 C  
BRANCH  10  11
HETATM   11  C   UNL     1     -10.683  11.158  68.068  1.00  0.00    -0.211 C  
HETATM   12  O   UNL     1     -11.847  11.102  67.661  1.00  0.00    -0.612 OA 
BRANCH  11  13
HETATM   13  O   UNL     1      -9.876  12.266  67.828  1.00  0.00    -0.192 OA 
BRANCH  13  14
HETATM   14  C   UNL     1     -10.567  13.497  67.211  1.00  0.00    -0.263 C  
HETATM   15  C   UNL     1      -9.545  13.784  66.104  1.00  0.00    -0.234 C  
HETATM   16  C   UNL     1      -8.421  14.286  67.016  1.00  0.00    -0.190 C  
HETATM   17  C   UNL     1      -9.148  15.495  67.548  1.00  0.00    -0.198 C  
HETATM   18  C   UNL     1      -8.346  16.755  67.874  1.00  0.00    -0.196 C  
HETATM   19  C   UNL     1      -7.221  16.724  66.810  1.00  0.00    -0.270 C  
HETATM   20  C   UNL     1      -6.564  18.003  66.448  1.00  0.00    -0.256 C  
HETATM   21  C   UNL     1      -7.625  19.097  66.224  1.00  0.00    -0.290 C  
HETATM   22  C   UNL     1      -7.337  20.063  65.355  1.00  0.00    -0.194 C  
HETATM   23  C   UNL     1      -6.134  20.689  65.971  1.00  0.00    -0.223 C  
HETATM   24  O   UNL     1      -5.192  21.020  65.280  1.00  0.00    -0.192 OA 
HETATM   25  C   UNL     1      -6.197  20.838  67.523  1.00  0.00    -0.333 C  
HETATM   26  C   UNL     1      -7.278  19.957  68.352  1.00  0.00    -0.331 C  
HETATM   27  C   UNL     1      -8.468  19.391  67.477  1.00  0.00    -0.328 C  
HETATM   28  C   UNL     1      -9.458  20.561  67.372  1.00  0.00    -0.551 C  
HETATM   29  C   UNL     1      -9.267  17.991  67.646  1.00  0.00    -0.259 C  
HETATM   30  C   UNL     1     -10.640  17.715  68.373  1.00  0.00    -0.318 C  
HETATM   31  C   UNL     1     -11.370  16.321  67.850  1.00  0.00    -0.141 C  
HETATM   32  C   UNL     1     -10.499  14.984  68.112  1.00  0.00    -0.245 C  
HETATM   33  C   UNL     1     -10.797  14.623  69.569  1.00  0.00    -0.238 C  
ENDBRANCH  13  14
ENDBRANCH  11  13
ENDBRANCH  10  11
ENDBRANCH   9  10
ENDBRANCH   8   9
ENDBRANCH   7   8
ENDBRANCH   6   7
ENDBRANCH   5   6
ENDBRANCH   4   5
ENDBRANCH   3   4
ENDBRANCH   2   3
TORSDOF 11
ENDMDL
MODEL        5
REMARK 921   NORMALIZED FREE ENERGY PREDICTED BY IDOCK:   -6.08 KCAL/MOL
REMARK 922        TOTAL FREE ENERGY PREDICTED BY IDOCK:  -12.17 KCAL/MOL
REMARK 923 INTER-LIGAND FREE ENERGY PREDICTED BY IDOCK:   -9.73 KCAL/MOL
REMARK 924 INTRA-LIGAND FREE ENERGY PREDICTED BY IDOCK:   -2.44 KCAL/MOL
REMARK 927      BINDING AFFINITY PREDICTED BY RF-SCORE:    0.00 PKD
ROOT
HETATM    1  C   UNL     1     -14.044   8.561  71.463  1.00  0.00    -0.428 C  
HETATM    2  C   UNL     1     -13.481   9.715  72.255  1.00  0.00    -0.488 C  
ENDROOT
BRANCH   2   3
HETATM    3  C   UNL     1     -13.090  10.905  71.349  1.00  0.00    -0.457 C  
BRANCH   3   4
HETATM    4  C   UNL     1     -13.239  12.250  72.078  1.00  0.00    -0.508 C  
BRANCH   4   5
HETATM    5  C   UNL     1     -12.880  13.438  71.178  1.00  0.00    -0.372 C  
BRANCH   5   6
HETATM    6  C   UNL     1     -12.651  14.730  71.981  1.00  0.00    -0.401 C  
BRANCH   6   7
HETATM    7  C   UNL     1     -11.716  15.685  71.225  1.00  0.00    -0.478 C  
BRANCH   7   8
HETATM    8  C   UNL     1     -11.877  15.675  69.700  1.00  0.00    -0.377 C  
BRANCH   8   9
HETATM    9  C   UNL     1     -10.661  15.222  68.909  1.00  0.00    -0.242 C  
BRANCH   9  10
HETATM   10  C   UNL     1     -10.834  15.240  67.394  1.00  0.00    -0.304 C  
BRANCH  10  11
HETATM   11  C   UNL     1     -11.036  13.994  66.487  1.00  0.00    -0.306 C  
HETATM   12  O   UNL     1     -12.001  13.998  65.718  1.00  0.00    -0.367 OA 
BRANCH  11  13
HETATM   13  O   UNL     1     -10.280  12.845  66.706  1.00  0.00    -0.235 OA 
BRANCH  13  14
HETATM   14  C   UNL     1     -11.051  11.511  66.737  1.00  0.00    -0.302 C  
HETATM   15  C   UNL     1     -11.667  11.651  68.134  1.00  0.00    -0.365 C  
HETATM   16  C   UNL     1     -10.371  11.460  68.926  1.00  0.00    -0.203 C  
HETATM   17  C   UNL     1     -10.097  10.046  68.485  1.00  0.00    -0.187 C  
HETATM   18  C   UNL     1      -9.426   9.083  69.464  1.00  0.00    -0.164 C  
HETATM   19  C   UNL     1      -9.979   9.552  70.832  1.00  0.00    -0.308 C  
HETATM   20  C   UNL     1      -9.997   8.579  71.951  1.00  0.00    -0.365 C  
HETATM   21  C   UNL     1     -10.553   7.227  71.468  1.00  0.00    -0.223 C  
HETATM   22  C   UNL     1     -11.196   6.474  72.357  1.00  0.00    -0.310 C  
HETATM   23  C   UNL     1     -10.136   6.215  73.370  1.00  0.00    -0.198 C  
HETATM   24  O   UNL     1     -10.396   6.255  74.555  1.00  0.00    -0.316 OA 
HETATM   25  C   UNL     1      -8.721   5.931  72.778  1.00  0.00    -0.125 C  
HETATM   26  C   UNL     1      -8.414   6.355  71.242  1.00  0.00    -0.123 C  
HETATM   27  C   UNL     1      -9.705   6.584  70.357  1.00  0.00    -0.186 C  
HETATM   28  C   UNL     1     -10.121   5.173  69.914  1.00  0.00    -0.342 C  
HETATM   29  C   UNL     1      -9.925   7.640  69.150  1.00  0.00    -0.181 C  
HETATM   30  C   UNL     1      -9.793   7.409  67.593  1.00  0.00    -0.194 C  
HETATM   31  C   UNL     1     -10.626   8.538  66.708  1.00  0.00    -0.227 C  
HETATM   32  C   UNL     1     -10.118  10.057  66.934  1.00  0.00    -0.287 C  
HETATM   33  C   UNL     1      -8.906  10.188  66.010  1.00  0.00    -0.160 C  
ENDBRANCH  13  14
ENDBRANCH  11  13
ENDBRANCH  10  11
ENDBRANCH   9  10
ENDBRANCH   8   9
ENDBRANCH   7   8
ENDBRANCH   6   7
ENDBRANCH   5   6
ENDBRANCH   4   5
ENDBRANCH   3   4
ENDBRANCH   2   3
TORSDOF 11
ENDMDL
MODEL        6
REMARK 921   NORMALIZED FREE ENERGY PREDICTED BY IDOCK:   -5.91 KCAL/MOL
REMARK 922        TOTAL FREE ENERGY PREDICTED BY IDOCK:  -11.90 KCAL/MOL
REMARK 923 INTER-LIGAND FREE ENERGY PREDICTED BY IDOCK:  -10.11 KCAL/MOL
REMARK 924 INTRA-LIGAND FREE ENERGY PREDICTED BY IDOCK:   -1.79 KCAL/MOL
REMARK 927      BINDING AFFINITY PREDICTED BY RF-SCORE:    0.00 PKD
ROOT
HETATM    1  C   UNL     1     -12.534  15.633  74.349  1.00  0.00    -0.790 C  
HETATM    2  C   UNL     1     -13.305  15.467  73.063  1.00  0.00    -0.650 C  
ENDROOT
BRANCH   2   3
HETATM    3  C   UNL     1     -13.263  14.011  72.544  1.00  0.00    -0.602 C  
BRANCH   3   4
HETATM    4  C   UNL     1     -12.688  13.928  71.122  1.00  0.00    -0.441 C  
BRANCH   4   5
HETATM    5  C   UNL     1     -11.633  15.010  70.860  1.00  0.00    -0.364 C  
BRANCH   5   6
HETATM    6  C   UNL     1     -11.903  15.787  69.561  1.00  0.00    -0.359 C  
BRANCH   6   7
HETATM    7  C   UNL     1     -10.853  16.889  69.354  1.00  0.00    -0.186 C  
BRANCH   7   8
HETATM    8  C   UNL     1      -9.510  16.405  68.794  1.00  0.00    -0.247 C  
BRANCH   8   9
HETATM    9  C   UNL     1      -9.036  17.093  67.524  1.00  0.00    -0.221 C  
BRANCH   9  10
HETATM   10  C   UNL     1      -9.995  16.996  66.343  1.00  0.00    -0.318 C  
BRANCH  10  11
HETATM   11  C   UNL     1     -10.567  15.681  65.742  1.00  0.00    -0.361 C  
HETATM   12  O   UNL     1     -10.865  15.684  64.544  1.00  0.00    -0.394 OA 
BRANCH  11  13
HETATM   13  O   UNL     1     -10.926  14.631  66.583  1.00  0.00    -0.310 OA 
BRANCH  13  14
HETATM   14  C   UNL     1     -10.426  13.229  66.183  1.00  0.00    -0.293 C  
HETATM   15  C   UNL     1     -11.695  12.441  66.529  1.00  0.00    -0.443 C  
HETATM   16  C   UNL     1     -11.577  12.564  68.052  1.00  0.00    -0.395 C  
HETATM   17  C   UNL     1     -10.288  11.798  68.194  1.00  0.00    -0.213 C  
HETATM   18  C   UNL     1     -10.066  10.951  69.448  1.00  0.00    -0.116 C  
HETATM   19  C   UNL     1     -11.496  10.458  69.780  1.00  0.00    -0.348 C  
HETATM   20  C   UNL     1     -11.641   9.219  70.581  1.00  0.00    -0.305 C  
HETATM   21  C   UNL     1     -10.699   8.127  70.039  1.00  0.00    -0.243 C  
HETATM   22  C   UNL     1     -11.082   6.860  70.180  1.00  0.00    -0.344 C  
HETATM   23  C   UNL     1     -11.165   6.722  71.661  1.00  0.00    -0.255 C  
HETATM   24  O   UNL     1     -12.086   6.117  72.171  1.00  0.00    -0.327 OA 
HETATM   25  C   UNL     1     -10.019   7.429  72.448  1.00  0.00    -0.221 C  
HETATM   26  C   UNL     1      -9.135   8.564  71.698  1.00  0.00    -0.296 C  
HETATM   27  C   UNL     1      -9.212   8.513  70.118  1.00  0.00    -0.159 C  
HETATM   28  C   UNL     1      -8.204   7.425  69.719  1.00  0.00    -0.129 C  
HETATM   29  C   UNL     1      -9.157   9.743  69.066  1.00  0.00    -0.157 C  
HETATM   30  C   UNL     1      -7.922  10.302  68.256  1.00  0.00    -0.106 C  
HETATM   31  C   UNL     1      -8.375  11.159  66.911  1.00  0.00    -0.147 C  
HETATM   32  C   UNL     1      -9.270  12.467  67.235  1.00  0.00    -0.187 C  
HETATM   33  C   UNL     1      -8.243  13.540  67.604  1.00  0.00    -0.178 C  
ENDBRANCH  13  14
ENDBRANCH  11  13
ENDBRANCH  10  11
ENDBRANCH   9  10
ENDBRANCH   8   9
ENDBRANCH   7   8
ENDBRANCH   6   7
ENDBRANCH   5   6
ENDBRANCH   4   5
ENDBRANCH   3   4
ENDBRANCH   2   3
TORSDOF 11
ENDMDL
MODEL        7
REMARK 921   NORMALIZED FREE ENERGY PREDICTED BY IDOCK:   -5.86 KCAL/MOL
REMARK 922        TOTAL FREE ENERGY PREDICTED BY IDOCK:  -11.81 KCAL/MOL
REMARK 923 INTER-LIGAND FREE ENERGY PREDICTED BY IDOCK:   -9.39 KCAL/MOL
REMARK 924 INTRA-LIGAND FREE ENERGY PREDICTED BY IDOCK:   -2.43 KCAL/MOL
REMARK 927      BINDING AFFINITY PREDICTED BY RF-SCORE:    0.00 PKD
ROOT
HETATM    1  C   UNL     1     -11.352  15.611  71.022  1.00  0.00    -0.426 C  
HETATM    2  C   UNL     1     -12.487  14.617  71.012  1.00  0.00    -0.399 C  
ENDROOT
BRANCH   2   3
HETATM    3  C   UNL     1     -12.198  13.415  70.083  1.00  0.00    -0.385 C  
BRANCH   3   4
HETATM    4  C   UNL     1     -12.526  12.077  70.763  1.00  0.00    -0.372 C  
BRANCH   4   5
HETATM    5  C   UNL     1     -11.931  10.883  70.008  1.00  0.00    -0.429 C  
BRANCH   5   6
HETATM    6  C   UNL     1     -11.080   9.981  70.918  1.00  0.00    -0.385 C  
BRANCH   6   7
HETATM    7  C   UNL     1     -11.761   8.620  71.129  1.00  0.00    -0.334 C  
BRANCH   7   8
HETATM    8  C   UNL     1     -11.148   7.461  70.335  1.00  0.00    -0.284 C  
BRANCH   8   9
HETATM    9  C   UNL     1      -9.951   7.813  69.466  1.00  0.00    -0.187 C  
BRANCH   9  10
HETATM   10  C   UNL     1     -10.199   7.731  67.964  1.00  0.00    -0.249 C  
BRANCH  10  11
HETATM   11  C   UNL     1      -9.922   8.862  66.934  1.00  0.00    -0.247 C  
HETATM   12  O   UNL     1      -9.785   8.536  65.751  1.00  0.00    -0.118 OA 
BRANCH  11  13
HETATM   13  O   UNL     1      -9.627  10.149  67.376  1.00  0.00    -0.151 OA 
BRANCH  13  14
HETATM   14  C   UNL     1      -9.394  11.213  66.286  1.00  0.00    -0.195 C  
HETATM   15  C   UNL     1      -8.097  11.811  66.844  1.00  0.00    -0.160 C  
HETATM   16  C   UNL     1      -8.723  12.510  68.055  1.00  0.00    -0.186 C  
HETATM   17  C   UNL     1      -9.590  13.469  67.281  1.00  0.00    -0.235 C  
HETATM   18  C   UNL     1      -9.847  14.862  67.855  1.00  0.00    -0.214 C  
HETATM   19  C   UNL     1      -8.521  15.175  68.589  1.00  0.00    -0.170 C  
HETATM   20  C   UNL     1      -8.166  16.596  68.819  1.00  0.00    -0.249 C  
HETATM   21  C   UNL     1      -8.391  17.412  67.532  1.00  0.00    -0.212 C  
HETATM   22  C   UNL     1      -7.614  18.473  67.334  1.00  0.00    -0.224 C  
HETATM   23  C   UNL     1      -7.952  19.331  68.503  1.00  0.00    -0.361 C  
HETATM   24  O   UNL     1      -7.079  19.925  69.102  1.00  0.00    -0.327 OA 
HETATM   25  C   UNL     1      -9.466  19.359  68.877  1.00  0.00    -0.448 C  
HETATM   26  C   UNL     1     -10.436  18.189  68.308  1.00  0.00    -0.333 C  
HETATM   27  C   UNL     1      -9.856  17.409  67.060  1.00  0.00    -0.286 C  
HETATM   28  C   UNL     1     -10.184  18.307  65.858  1.00  0.00    -0.236 C  
HETATM   29  C   UNL     1     -10.049  15.850  66.666  1.00  0.00    -0.287 C  
HETATM   30  C   UNL     1     -11.084  15.200  65.665  1.00  0.00    -0.334 C  
HETATM   31  C   UNL     1     -10.600  13.708  65.127  1.00  0.00    -0.371 C  
HETATM   32  C   UNL     1     -10.431  12.609  66.302  1.00  0.00    -0.270 C  
HETATM   33  C   UNL     1     -11.852  12.092  66.537  1.00  0.00    -0.322 C  
ENDBRANCH  13  14
ENDBRANCH  11  13
ENDBRANCH  10  11
ENDBRANCH   9  10
ENDBRANCH   8   9
ENDBRANCH   7   8
ENDBRANCH   6   7
ENDBRANCH   5   6
ENDBRANCH   4   5
ENDBRANCH   3   4
ENDBRANCH   2   3
TORSDOF 11
ENDMDL
MODEL        8
REMARK 921   NORMALIZED FREE ENERGY PREDICTED BY IDOCK:   -5.85 KCAL/MOL
REMARK 922        TOTAL FREE ENERGY PREDICTED BY IDOCK:  -11.79 KCAL/MOL
REMARK 923 INTER-LIGAND FREE ENERGY PREDICTED BY IDOCK:   -9.32 KCAL/MOL
REMARK 924 INTRA-LIGAND FREE ENERGY PREDICTED BY IDOCK:   -2.47 KCAL/MOL
REMARK 927      BINDING AFFINITY PREDICTED BY RF-SCORE:    0.00 PKD
ROOT
HETATM    1  C   UNL     1      -9.760   4.823  67.795  1.00  0.00    -0.202 C  
HETATM    2  C   UNL     1     -10.814   5.893  67.936  1.00  0.00    -0.323 C  
ENDROOT
BRANCH   2   3
HETATM    3  C   UNL     1     -10.520   7.119  67.041  1.00  0.00    -0.392 C  
BRANCH   3   4
HETATM    4  C   UNL     1      -9.047   7.167  66.605  1.00  0.00    -0.175 C  
BRANCH   4   5
HETATM    5  C   UNL     1      -8.715   8.449  65.832  1.00  0.00    -0.197 C  
BRANCH   5   6
HETATM    6  C   UNL     1      -9.910   9.413  65.758  1.00  0.00    -0.345 C  
BRANCH   6   7
HETATM    7  C   UNL     1      -9.743  10.403  64.596  1.00  0.00    -0.392 C  
BRANCH   7   8
HETATM    8  C   UNL     1     -10.915  11.372  64.398  1.00  0.00    -0.371 C  
BRANCH   8   9
HETATM    9  C   UNL     1     -10.581  12.683  63.704  1.00  0.00    -0.378 C  
BRANCH   9  10
HETATM   10  C   UNL     1     -10.943  13.938  64.491  1.00  0.00    -0.379 C  
BRANCH  10  11
HETATM   11  C   UNL     1     -10.061  14.617  65.576  1.00  0.00    -0.377 C  
HETATM   12  O   UNL     1      -9.888  15.836  65.489  1.00  0.00    -0.325 OA 
BRANCH  11  13
HETATM   13  O   UNL     1      -9.331  13.836  66.467  1.00  0.00    -0.269 OA 
BRANCH  13  14
HETATM   14  C   UNL     1      -9.781  13.872  67.940  1.00  0.00    -0.231 C  
HETATM   15  C   UNL     1      -8.567  13.163  68.553  1.00  0.00    -0.056 C  
HETATM   16  C   UNL     1      -8.872  11.766  68.003  1.00  0.00    -0.164 C  
HETATM   17  C   UNL     1     -10.171  11.564  68.739  1.00  0.00    -0.204 C  
HETATM   18  C   UNL     1     -10.549  10.156  69.199  1.00  0.00    -0.247 C  
HETATM   19  C   UNL     1      -9.173   9.527  69.527  1.00  0.00    -0.198 C  
HETATM   20  C   UNL     1      -9.131   8.392  70.480  1.00  0.00    -0.163 C  
HETATM   21  C   UNL     1     -10.001   8.703  71.712  1.00  0.00    -0.371 C  
HETATM   22  C   UNL     1      -9.641   8.158  72.872  1.00  0.00    -0.345 C  
HETATM   23  C   UNL     1      -9.743   6.702  72.577  1.00  0.00    -0.157 C  
HETATM   24  O   UNL     1      -8.894   5.933  72.979  1.00  0.00    -0.124 OA 
HETATM   25  C   UNL     1     -10.977   6.295  71.713  1.00  0.00    -0.305 C  
HETATM   26  C   UNL     1     -11.757   7.441  70.871  1.00  0.00    -0.325 C  
HETATM   27  C   UNL     1     -11.485   8.918  71.369  1.00  0.00    -0.381 C  
HETATM   28  C   UNL     1     -12.438   9.103  72.560  1.00  0.00    -0.260 C  
HETATM   29  C   UNL     1     -11.406  10.279  70.495  1.00  0.00    -0.422 C  
HETATM   30  C   UNL     1     -12.530  11.357  70.233  1.00  0.00    -0.312 C  
HETATM   31  C   UNL     1     -11.911  12.828  69.783  1.00  0.00    -0.362 C  
HETATM   32  C   UNL     1     -11.061  12.790  68.408  1.00  0.00    -0.293 C  
HETATM   33  C   UNL     1     -12.123  12.872  67.309  1.00  0.00    -0.275 C  
ENDBRANCH  13  14
ENDBRANCH  11  13
ENDBRANCH  10  11
ENDBRANCH   9  10
ENDBRANCH   8   9
ENDBRANCH   7   8
ENDBRANCH   6   7
ENDBRANCH   5   6
ENDBRANCH   4   5
ENDBRANCH   3   4
ENDBRANCH   2   3
TORSDOF 11
ENDMDL
MODEL        9
REMARK 921   NORMALIZED FREE ENERGY PREDICTED BY IDOCK:   -5.79 KCAL/MOL
REMARK 922        TOTAL FREE ENERGY PREDICTED BY IDOCK:  -11.70 KCAL/MOL
REMARK 923 INTER-LIGAND FREE ENERGY PREDICTED BY IDOCK:   -9.11 KCAL/MOL
REMARK 924 INTRA-LIGAND FREE ENERGY PREDICTED BY IDOCK:   -2.59 KCAL/MOL
REMARK 927      BINDING AFFINITY PREDICTED BY RF-SCORE:    0.00 PKD
ROOT
HETATM    1  C   UNL     1     -13.345   9.594  71.467  1.00  0.00    -0.468 C  
HETATM    2  C   UNL     1     -12.095  10.437  71.417  1.00  0.00    -0.424 C  
ENDROOT
BRANCH   2   3
HETATM    3  C   UNL     1     -12.262  11.668  70.497  1.00  0.00    -0.451 C  
BRANCH   3   4
HETATM    4  C   UNL     1     -11.985  11.322  69.025  1.00  0.00    -0.393 C  
BRANCH   4   5
HETATM    5  C   UNL     1     -11.815  12.576  68.159  1.00  0.00    -0.371 C  
BRANCH   5   6
HETATM    6  C   UNL     1     -11.705  12.240  66.662  1.00  0.00    -0.417 C  
BRANCH   6   7
HETATM    7  C   UNL     1     -12.321  13.356  65.805  1.00  0.00    -0.513 C  
BRANCH   7   8
HETATM    8  C   UNL     1     -11.933  13.320  64.321  1.00  0.00    -0.477 C  
BRANCH   8   9
HETATM    9  C   UNL     1     -11.812  11.937  63.702  1.00  0.00    -0.573 C  
BRANCH   9  10
HETATM   10  C   UNL     1     -10.416  11.572  63.210  1.00  0.00    -0.421 C  
BRANCH  10  11
HETATM   11  C   UNL     1      -9.403  10.651  63.949  1.00  0.00    -0.267 C  
HETATM   12  O   UNL     1      -8.303  10.473  63.419  1.00  0.00    -0.165 OA 
BRANCH  11  13
HETATM   13  O   UNL     1      -9.819   9.898  65.043  1.00  0.00    -0.317 OA 
BRANCH  13  14
HETATM   14  C   UNL     1      -8.721   9.126  65.801  1.00  0.00    -0.165 C  
HETATM   15  C   UNL     1      -9.480   7.807  65.992  1.00  0.00    -0.058 C  
HETATM   16  C   UNL     1     -10.488   8.321  67.023  1.00  0.00    -0.384 C  
HETATM   17  C   UNL     1      -9.490   8.649  68.103  1.00  0.00    -0.152 C  
HETATM   18  C   UNL     1      -9.899   8.473  69.566  1.00  0.00    -0.187 C  
HETATM   19  C   UNL     1     -10.856   7.257  69.505  1.00  0.00    -0.224 C  
HETATM   20  C   UNL     1     -11.047   6.455  70.737  1.00  0.00    -0.365 C  
HETATM   21  C   UNL     1      -9.685   6.162  71.394  1.00  0.00    -0.187 C  
HETATM   22  C   UNL     1      -9.567   5.033  72.087  1.00  0.00    -0.191 C  
HETATM   23  C   UNL     1     -10.581   5.219  73.162  1.00  0.00    -0.234 C  
HETATM   24  O   UNL     1     -11.296   4.298  73.499  1.00  0.00    -0.283 OA 
HETATM   25  C   UNL     1     -10.645   6.660  73.757  1.00  0.00    -0.302 C  
HETATM   26  C   UNL     1      -9.982   7.883  72.923  1.00  0.00    -0.360 C  
HETATM   27  C   UNL     1      -8.934   7.434  71.826  1.00  0.00    -0.135 C  
HETATM   28  C   UNL     1      -7.628   7.220  72.607  1.00  0.00    -0.090 C  
HETATM   29  C   UNL     1      -8.625   8.113  70.388  1.00  0.00    -0.131 C  
HETATM   30  C   UNL     1      -7.489   9.139  69.999  1.00  0.00    -0.077 C  
HETATM   31  C   UNL     1      -7.168   9.149  68.373  1.00  0.00    -0.077 C  
HETATM   32  C   UNL     1      -8.430   9.577  67.456  1.00  0.00    -0.126 C  
HETATM   33  C   UNL     1      -8.417  11.107  67.494  1.00  0.00    -0.126 C  
ENDBRANCH  13  14
ENDBRANCH  11  13
ENDBRANCH  10  11
ENDBRANCH   9  10
ENDBRANCH   8   9
ENDBRANCH   7   8
ENDBRANCH   6   7
ENDBRANCH   5   6
ENDBRANCH   4   5
ENDBRANCH   3   4
ENDBRANCH   2   3
TORSDOF 11
ENDMDL
MODEL       10
REMARK 921   NORMALIZED FREE ENERGY PREDICTED BY IDOCK:   -5.74 KCAL/MOL
REMARK 922        TOTAL FREE ENERGY PREDICTED BY IDOCK:  -11.61 KCAL/MOL
REMARK 923 INTER-LIGAND FREE ENERGY PREDICTED BY IDOCK:  -10.10 KCAL/MOL
REMARK 924 INTRA-LIGAND FREE ENERGY PREDICTED BY IDOCK:   -1.51 KCAL/MOL
REMARK 927      BINDING AFFINITY PREDICTED BY RF-SCORE:    0.00 PKD
ROOT
HETATM    1  C   UNL     1     -13.926  14.053  72.123  1.00  0.00    -0.633 C  
HETATM    2  C   UNL     1     -13.222  14.894  71.087  1.00  0.00    -0.476 C  
ENDROOT
BRANCH   2   3
HETATM    3  C   UNL     1     -12.292  14.048  70.187  1.00  0.00    -0.409 C  
BRANCH   3   4
HETATM    4  C   UNL     1     -11.679  14.885  69.053  1.00  0.00    -0.347 C  
BRANCH   4   5
HETATM    5  C   UNL     1     -12.112  14.388  67.668  1.00  0.00    -0.312 C  
BRANCH   5   6
HETATM    6  C   UNL     1     -11.191  14.903  66.550  1.00  0.00    -0.335 C  
BRANCH   6   7
HETATM    7  C   UNL     1     -11.772  14.571  65.167  1.00  0.00    -0.376 C  
BRANCH   7   8
HETATM    8  C   UNL     1     -12.658  13.320  65.121  1.00  0.00    -0.512 C  
BRANCH   8   9
HETATM    9  C   UNL     1     -12.290  12.287  64.069  1.00  0.00    -0.569 C  
BRANCH   9  10
HETATM   10  C   UNL     1     -10.794  12.118  63.828  1.00  0.00    -0.490 C  
BRANCH  10  11
HETATM   11  C   UNL     1     -10.002  10.784  63.930  1.00  0.00    -0.343 C  
HETATM   12  O   UNL     1      -9.291  10.468  62.973  1.00  0.00    -0.260 OA 
BRANCH  11  13
HETATM   13  O   UNL     1     -10.270   9.894  64.967  1.00  0.00    -0.221 OA 
BRANCH  13  14
HETATM   14  C   UNL     1      -9.357   9.989  66.206  1.00  0.00    -0.168 C  
HETATM   15  C   UNL     1      -8.859   8.539  66.217  1.00  0.00    -0.187 C  
HETATM   16  C   UNL     1     -10.177   7.894  66.655  1.00  0.00    -0.303 C  
HETATM   17  C   UNL     1     -10.259   8.554  68.007  1.00  0.00    -0.264 C  
HETATM   18  C   UNL     1     -10.884   7.782  69.169  1.00  0.00    -0.066 C  
HETATM   19  C   UNL     1     -10.482   6.320  68.858  1.00  0.00    -0.280 C  
HETATM   20  C   UNL     1     -10.433   5.353  69.981  1.00  0.00    -0.373 C  
HETATM   21  C   UNL     1      -9.696   5.975  71.182  1.00  0.00    -0.206 C  
HETATM   22  C   UNL     1      -9.035   5.151  71.992  1.00  0.00    -0.145 C  
HETATM   23  C   UNL     1     -10.126   4.278  72.506  1.00  0.00    -0.172 C  
HETATM   24  O   UNL     1      -9.955   3.082  72.619  1.00  0.00    -0.134 OA 
HETATM   25  C   UNL     1     -11.457   5.022  72.839  1.00  0.00    -0.306 C  
HETATM   26  C   UNL     1     -11.704   6.502  72.221  1.00  0.00    -0.320 C  
HETATM   27  C   UNL     1     -10.388   7.234  71.733  1.00  0.00    -0.215 C  
HETATM   28  C   UNL     1      -9.787   7.836  73.012  1.00  0.00    -0.344 C  
HETATM   29  C   UNL     1     -10.205   8.256  70.490  1.00  0.00    -0.213 C  
HETATM   30  C   UNL     1     -10.203   9.835  70.496  1.00  0.00    -0.321 C  
HETATM   31  C   UNL     1      -9.443  10.477  69.169  1.00  0.00    -0.205 C  
HETATM   32  C   UNL     1     -10.133  10.080  67.760  1.00  0.00    -0.222 C  
HETATM   33  C   UNL     1     -11.285  11.076  67.614  1.00  0.00    -0.373 C  
ENDBRANCH  13  14
ENDBRANCH  11  13
ENDBRANCH  10  11
ENDBRANCH   9  10
ENDBRANCH   8   9
ENDBRANCH   7   8
ENDBRANCH   6   7
ENDBRANCH   5   6
ENDBRANCH   4   5
ENDBRANCH   3   4
ENDBRANCH   2   3
TORSDOF 11
ENDMDL
MODEL       11
REMARK 921   NORMALIZED FREE ENERGY PREDICTED BY IDOCK:   -5.70 KCAL/MOL
REMARK 922        TOTAL FREE ENERGY PREDICTED BY IDOCK:  -11.56 KCAL/MOL
REMARK 923 INTER-LIGAND FREE ENERGY PREDICTED BY IDOCK:   -9.44 KCAL/MOL
REMARK 924 INTRA-LIGAND FREE ENERGY PREDICTED BY IDOCK:   -2.12 KCAL/MOL
REMARK 927      BINDING AFFINITY PREDICTED BY RF-SCORE:    0.00 PKD
ROOT
HETATM    1  C   UNL     1     -14.318  14.562  71.908  1.00  0.00    -0.647 C  
HETATM    2  C   UNL     1     -13.179  15.343  71.300  1.00  0.00    -0.585 C  
ENDROOT
BRANCH   2   3
HETATM    3  C   UNL     1     -11.934  14.459  71.057  1.00  0.00    -0.389 C  
BRANCH   3   4
HETATM    4  C   UNL     1     -12.039  13.674  69.740  1.00  0.00    -0.396 C  
BRANCH   4   5
HETATM    5  C   UNL     1     -10.730  13.703  68.943  1.00  0.00    -0.237 C  
BRANCH   5   6
HETATM    6  C   UNL     1     -10.939  14.177  67.495  1.00  0.00    -0.292 C  
BRANCH   6   7
HETATM    7  C   UNL     1     -12.285  13.682  66.946  1.00  0.00    -0.398 C  
BRANCH   7   8
HETATM    8  C   UNL     1     -12.494  13.910  65.444  1.00  0.00    -0.528 C  
BRANCH   8   9
HETATM    9  C   UNL     1     -12.691  12.657  64.606  1.00  0.00    -0.458 C  
BRANCH   9  10
HETATM   10  C   UNL     1     -11.585  12.380  63.593  1.00  0.00    -0.580 C  
BRANCH  10  11
HETATM   11  C   UNL     1     -10.084  12.151  63.925  1.00  0.00    -0.361 C  
HETATM   12  O   UNL     1      -9.332  11.854  62.992  1.00  0.00    -0.326 OA 
BRANCH  11  13
HETATM   13  O   UNL     1      -9.670  12.071  65.252  1.00  0.00    -0.235 OA 
BRANCH  13  14
HETATM   14  C   UNL     1      -8.826  10.840  65.635  1.00  0.00    -0.190 C  
HETATM   15  C   UNL     1      -9.968   9.823  65.748  1.00  0.00    -0.349 C  
HETATM   16  C   UNL     1     -10.587  10.384  67.032  1.00  0.00    -0.305 C  
HETATM   17  C   UNL     1      -9.405  10.124  67.930  1.00  0.00    -0.151 C  
HETATM   18  C   UNL     1      -9.655   9.761  69.394  1.00  0.00    -0.218 C  
HETATM   19  C   UNL     1     -10.977   8.959  69.322  1.00  0.00    -0.026 C  
HETATM   20  C   UNL     1     -11.276   8.002  70.414  1.00  0.00    -0.230 C  
HETATM   21  C   UNL     1     -10.031   7.151  70.727  1.00  0.00    -0.194 C  
HETATM   22  C   UNL     1     -10.229   5.917  71.182  1.00  0.00    -0.266 C  
HETATM   23  C   UNL     1     -10.962   6.167  72.454  1.00  0.00    -0.259 C  
HETATM   24  O   UNL     1     -11.905   5.469  72.767  1.00  0.00    -0.271 OA 
HETATM   25  C   UNL     1     -10.437   7.379  73.283  1.00  0.00    -0.424 C  
HETATM   26  C   UNL     1      -9.501   8.484  72.552  1.00  0.00    -0.328 C  
HETATM   27  C   UNL     1      -8.831   7.986  71.208  1.00  0.00    -0.163 C  
HETATM   28  C   UNL     1      -7.594   7.197  71.664  1.00  0.00    -0.087 C  
HETATM   29  C   UNL     1      -8.493   8.838  69.872  1.00  0.00    -0.131 C  
HETATM   30  C   UNL     1      -7.131   9.510  69.443  1.00  0.00    -0.055 C  
HETATM   31  C   UNL     1      -7.042   9.785  67.810  1.00  0.00    -0.087 C  
HETATM   32  C   UNL     1      -8.180  10.789  67.249  1.00  0.00    -0.121 C  
HETATM   33  C   UNL     1      -7.625  12.184  67.541  1.00  0.00    -0.151 C  
ENDBRANCH  13  14
ENDBRANCH  11  13
ENDBRANCH  10  11
ENDBRANCH   9  10
ENDBRANCH   8   9
ENDBRANCH   7   8
ENDBRANCH   6   7
ENDBRANCH   5   6
ENDBRANCH   4   5
ENDBRANCH   3   4
ENDBRANCH   2   3
TORSDOF 11
ENDMDL
MODEL       12
REMARK 921   NORMALIZED FREE ENERGY PREDICTED BY IDOCK:   -5.70 KCAL/MOL
REMARK 922        TOTAL FREE ENERGY PREDICTED BY IDOCK:  -11.55 KCAL/MOL
REMARK 923 INTER-LIGAND FREE ENERGY PREDICTED BY IDOCK:   -9.02 KCAL/MOL
REMARK 924 INTRA-LIGAND FREE ENERGY PREDICTED BY IDOCK:   -2.52 KCAL/MOL
REMARK 927      BINDING AFFINITY PREDICTED BY RF-SCORE:    0.00 PKD
ROOT
HETATM    1  C   UNL     1     -12.132  14.072  70.458  1.00  0.00    -0.424 C  
HETATM    2  C   UNL     1     -13.196  13.690  71.457  1.00  0.00    -0.409 C  
ENDROOT
BRANCH   2   3
HETATM    3  C   UNL     1     -13.192  12.173  71.756  1.00  0.00    -0.423 C  
BRANCH   3   4
HETATM    4  C   UNL     1     -12.370  11.389  70.720  1.00  0.00    -0.483 C  
BRANCH   4   5
HETATM    5  C   UNL     1     -12.278   9.897  71.064  1.00  0.00    -0.446 C  
BRANCH   5   6
HETATM    6  C   UNL     1     -10.823   9.423  71.216  1.00  0.00    -0.431 C  
BRANCH   6   7
HETATM    7  C   UNL     1     -10.766   7.911  71.485  1.00  0.00    -0.267 C  
BRANCH   7   8
HETATM    8  C   UNL     1     -11.685   7.062  70.598  1.00  0.00    -0.384 C  
BRANCH   8   9
HETATM    9  C   UNL     1     -10.996   6.265  69.502  1.00  0.00    -0.445 C  
BRANCH   9  10
HETATM   10  C   UNL     1      -9.475   6.222  69.598  1.00  0.00    -0.157 C  
BRANCH  10  11
HETATM   11  C   UNL     1      -8.483   6.972  68.665  1.00  0.00    -0.121 C  
HETATM   12  O   UNL     1      -7.664   6.294  68.039  1.00  0.00    -0.100 OA 
BRANCH  11  13
HETATM   13  O   UNL     1      -8.395   8.361  68.717  1.00  0.00    -0.115 OA 
BRANCH  13  14
HETATM   14  C   UNL     1      -8.407   9.100  67.365  1.00  0.00    -0.115 C  
HETATM   15  C   UNL     1      -7.283  10.101  67.658  1.00  0.00    -0.088 C  
HETATM   16  C   UNL     1      -8.056  10.956  68.667  1.00  0.00    -0.143 C  
HETATM   17  C   UNL     1      -9.116  11.444  67.713  1.00  0.00    -0.158 C  
HETATM   18  C   UNL     1      -9.687  12.850  67.898  1.00  0.00    -0.218 C  
HETATM   19  C   UNL     1      -8.469  13.640  68.437  1.00  0.00    -0.147 C  
HETATM   20  C   UNL     1      -8.449  15.111  68.247  1.00  0.00    -0.152 C  
HETATM   21  C   UNL     1      -8.849  15.463  66.802  1.00  0.00    -0.300 C  
HETATM   22  C   UNL     1      -8.333  16.570  66.274  1.00  0.00    -0.364 C  
HETATM   23  C   UNL     1      -8.862  17.624  67.182  1.00  0.00    -0.244 C  
HETATM   24  O   UNL     1      -8.150  18.540  67.541  1.00  0.00    -0.248 OA 
HETATM   25  C   UNL     1     -10.344  17.422  67.625  1.00  0.00    -0.355 C  
HETATM   26  C   UNL     1     -11.020  15.956  67.457  1.00  0.00    -0.280 C  
HETATM   27  C   UNL     1     -10.272  15.005  66.438  1.00  0.00    -0.286 C  
HETATM   28  C   UNL     1     -10.793  15.435  65.058  1.00  0.00    -0.462 C  
HETATM   29  C   UNL     1     -10.104  13.395  66.500  1.00  0.00    -0.280 C  
HETATM   30  C   UNL     1     -10.959  12.280  65.779  1.00  0.00    -0.338 C  
HETATM   31  C   UNL     1     -10.146  10.842  65.642  1.00  0.00    -0.327 C  
HETATM   32  C   UNL     1      -9.736  10.181  67.061  1.00  0.00    -0.224 C  
HETATM   33  C   UNL     1     -11.002   9.452  67.514  1.00  0.00    -0.088 C  
ENDBRANCH  13  14
ENDBRANCH  11  13
ENDBRANCH  10  11
ENDBRANCH   9  10
ENDBRANCH   8   9
ENDBRANCH   7   8
ENDBRANCH   6   7
ENDBRANCH   5   6
ENDBRANCH   4   5
ENDBRANCH   3   4
ENDBRANCH   2   3
TORSDOF 11
ENDMDL
MODEL       13
REMARK 921   NORMALIZED FREE ENERGY PREDICTED BY IDOCK:   -5.67 KCAL/MOL
REMARK 922        TOTAL FREE ENERGY PREDICTED BY IDOCK:  -11.49 KCAL/MOL
REMARK 923 INTER-LIGAND FREE ENERGY PREDICTED BY IDOCK:   -9.95 KCAL/MOL
REMARK 924 INTRA-LIGAND FREE ENERGY PREDICTED BY IDOCK:   -1.55 KCAL/MOL
REMARK 927      BINDING AFFINITY PREDICTED BY RF-SCORE:    0.00 PKD
ROOT
HETATM    1  C   UNL     1     -10.422  19.156  67.217  1.00  0.00    -0.549 C  
HETATM    2  C   UNL     1     -10.362  17.649  67.237  1.00  0.00    -0.354 C  
ENDROOT
BRANCH   2   3
HETATM    3  C   UNL     1     -10.389  17.049  65.812  1.00  0.00    -0.275 C  
BRANCH   3   4
HETATM    4  C   UNL     1     -10.104  15.539  65.824  1.00  0.00    -0.388 C  
BRANCH   4   5
HETATM    5  C   UNL     1     -10.634  14.859  67.092  1.00  0.00    -0.285 C  
BRANCH   5   6
HETATM    6  C   UNL     1     -12.019  14.228  66.880  1.00  0.00    -0.467 C  
BRANCH   6   7
HETATM    7  C   UNL     1     -12.326  14.070  65.383  1.00  0.00    -0.495 C  
BRANCH   7   8
HETATM    8  C   UNL     1     -12.507  12.623  64.909  1.00  0.00    -0.564 C  
BRANCH   8   9
HETATM    9  C   UNL     1     -11.661  12.207  63.716  1.00  0.00    -0.576 C  
BRANCH   9  10
HETATM   10  C   UNL     1     -10.220  11.834  64.048  1.00  0.00    -0.387 C  
BRANCH  10  11
HETATM   11  C   UNL     1      -9.672  10.390  64.223  1.00  0.00    -0.326 C  
HETATM   12  O   UNL     1      -9.041   9.901  63.281  1.00  0.00    -0.247 OA 
BRANCH  11  13
HETATM   13  O   UNL     1     -10.075   9.621  65.311  1.00  0.00    -0.237 OA 
BRANCH  13  14
HETATM   14  C   UNL     1      -9.231   9.751  66.594  1.00  0.00    -0.150 C  
HETATM   15  C   UNL     1      -8.659   8.329  66.621  1.00  0.00    -0.135 C  
HETATM   16  C   UNL     1      -9.963   7.613  66.988  1.00  0.00    -0.310 C  
HETATM   17  C   UNL     1     -10.146   8.256  68.338  1.00  0.00    -0.227 C  
HETATM   18  C   UNL     1     -10.786   7.443  69.463  1.00  0.00    -0.201 C  
HETATM   19  C   UNL     1     -10.295   6.006  69.163  1.00  0.00    -0.289 C  
HETATM   20  C   UNL     1     -10.251   5.033  70.281  1.00  0.00    -0.328 C  
HETATM   21  C   UNL     1      -9.608   5.681  71.522  1.00  0.00    -0.184 C  
HETATM   22  C   UNL     1      -8.946   4.885  72.358  1.00  0.00    -0.140 C  
HETATM   23  C   UNL     1     -10.015   3.953  72.812  1.00  0.00    -0.151 C  
HETATM   24  O   UNL     1      -9.787   2.766  72.926  1.00  0.00    -0.109 OA 
HETATM   25  C   UNL     1     -11.397   4.624  73.082  1.00  0.00    -0.355 C  
HETATM   26  C   UNL     1     -11.689   6.095  72.462  1.00  0.00    -0.259 C  
HETATM   27  C   UNL     1     -10.391   6.898  72.045  1.00  0.00    -0.220 C  
HETATM   28  C   UNL     1      -9.885   7.519  73.356  1.00  0.00    -0.365 C  
HETATM   29  C   UNL     1     -10.199   7.939  70.819  1.00  0.00    -0.202 C  
HETATM   30  C   UNL     1     -10.279   9.516  70.835  1.00  0.00    -0.356 C  
HETATM   31  C   UNL     1      -9.489  10.208  69.552  1.00  0.00    -0.235 C  
HETATM   32  C   UNL     1     -10.086   9.788  68.108  1.00  0.00    -0.193 C  
HETATM   33  C   UNL     1     -11.280  10.725  67.911  1.00  0.00    -0.386 C  
ENDBRANCH  13  14
ENDBRANCH  11  13
ENDBRANCH  10  11
ENDBRANCH   9  10
ENDBRANCH   8   9
ENDBRANCH   7   8
ENDBRANCH   6   7
ENDBRANCH   5   6
ENDBRANCH   4   5
ENDBRANCH   3   4
ENDBRANCH   2   3
TORSDOF 11
ENDMDL
MODEL       14
REMARK 921   NORMALIZED FREE ENERGY PREDICTED BY IDOCK:   -5.66 KCAL/MOL
REMARK 922        TOTAL FREE ENERGY PREDICTED BY IDOCK:  -11.48 KCAL/MOL
REMARK 923 INTER-LIGAND FREE ENERGY PREDICTED BY IDOCK:   -8.58 KCAL/MOL
REMARK 924 INTRA-LIGAND FREE ENERGY PREDICTED BY IDOCK:   -2.91 KCAL/MOL
REMARK 927      BINDING AFFINITY PREDICTED BY RF-SCORE:    0.00 PKD
ROOT
HETATM    1  C   UNL     1     -12.256  13.519  70.601  1.00  0.00    -0.434 C  
HETATM    2  C   UNL     1     -12.116  12.043  70.328  1.00  0.00    -0.395 C  
ENDROOT
BRANCH   2   3
HETATM    3  C   UNL     1     -12.802  11.184  71.415  1.00  0.00    -0.544 C  
BRANCH   3   4
HETATM    4  C   UNL     1     -12.216   9.764  71.475  1.00  0.00    -0.493 C  
BRANCH   4   5
HETATM    5  C   UNL     1     -10.782   9.707  70.934  1.00  0.00    -0.402 C  
BRANCH   5   6
HETATM    6  C   UNL     1     -10.311   8.265  70.682  1.00  0.00    -0.220 C  
BRANCH   6   7
HETATM    7  C   UNL     1     -11.510   7.322  70.497  1.00  0.00    -0.310 C  
BRANCH   7   8
HETATM    8  C   UNL     1     -11.156   5.917  69.995  1.00  0.00    -0.411 C  
BRANCH   8   9
HETATM    9  C   UNL     1      -9.742   5.445  70.292  1.00  0.00    -0.254 C  
BRANCH   9  10
HETATM   10  C   UNL     1      -8.924   5.052  69.066  1.00  0.00    -0.125 C  
BRANCH  10  11
HETATM   11  C   UNL     1      -7.799   5.903  68.412  1.00  0.00    -0.105 C  
HETATM   12  O   UNL     1      -6.806   5.306  67.987  1.00  0.00    -0.057 OA 
BRANCH  11  13
HETATM   13  O   UNL     1      -7.831   7.291  68.513  1.00  0.00    -0.117 OA 
BRANCH  13  14
HETATM   14  C   UNL     1      -7.793   8.076  67.187  1.00  0.00    -0.105 C  
HETATM   15  C   UNL     1      -6.902   9.235  67.649  1.00  0.00    -0.076 C  
HETATM   16  C   UNL     1      -7.932   9.907  68.562  1.00  0.00    -0.086 C  
HETATM   17  C   UNL     1      -8.928  10.253  67.486  1.00  0.00    -0.138 C  
HETATM   18  C   UNL     1      -9.748  11.537  67.622  1.00  0.00    -0.182 C  
HETATM   19  C   UNL     1      -8.761  12.493  68.335  1.00  0.00    -0.122 C  
HETATM   20  C   UNL     1      -8.966  13.954  68.180  1.00  0.00    -0.185 C  
HETATM   21  C   UNL     1      -9.231  14.296  66.702  1.00  0.00    -0.276 C  
HETATM   22  C   UNL     1      -8.846  15.495  66.270  1.00  0.00    -0.338 C  
HETATM   23  C   UNL     1      -9.659  16.408  67.121  1.00  0.00    -0.235 C  
HETATM   24  O   UNL     1      -9.164  17.412  67.591  1.00  0.00    -0.231 OA 
HETATM   25  C   UNL     1     -11.130  15.945  67.357  1.00  0.00    -0.207 C  
HETATM   26  C   UNL     1     -11.520  14.396  67.070  1.00  0.00    -0.376 C  
HETATM   27  C   UNL     1     -10.497  13.626  66.141  1.00  0.00    -0.297 C  
HETATM   28  C   UNL     1     -10.901  14.023  64.713  1.00  0.00    -0.430 C  
HETATM   29  C   UNL     1     -10.068  12.065  66.191  1.00  0.00    -0.252 C  
HETATM   30  C   UNL     1     -10.622  10.856  65.339  1.00  0.00    -0.243 C  
HETATM   31  C   UNL     1      -9.566   9.578  65.283  1.00  0.00    -0.314 C  
HETATM   32  C   UNL     1      -9.236   8.934  66.730  1.00  0.00    -0.201 C  
HETATM   33  C   UNL     1     -10.408   7.988  66.994  1.00  0.00    -0.414 C  
ENDBRANCH  13  14
ENDBRANCH  11  13
ENDBRANCH  10  11
ENDBRANCH   9  10
ENDBRANCH   8   9
ENDBRANCH   7   8
ENDBRANCH   6   7
ENDBRANCH   5   6
ENDBRANCH   4   5
ENDBRANCH   3   4
ENDBRANCH   2   3
TORSDOF 11
ENDMDL
MODEL       15
REMARK 921   NORMALIZED FREE ENERGY PREDICTED BY IDOCK:   -5.66 KCAL/MOL
REMARK 922        TOTAL FREE ENERGY PREDICTED BY IDOCK:  -11.48 KCAL/MOL
REMARK 923 INTER-LIGAND FREE ENERGY PREDICTED BY IDOCK:   -9.50 KCAL/MOL
REMARK 924 INTRA-LIGAND FREE ENERGY PREDICTED BY IDOCK:   -1.97 KCAL/MOL
REMARK 927      BINDING AFFINITY PREDICTED BY RF-SCORE:    0.00 PKD
ROOT
HETATM    1  C   UNL     1     -10.903  19.314  67.354  1.00  0.00    -0.554 C  
HETATM    2  C   UNL     1      -9.822  19.948  66.515  1.00  0.00    -0.567 C  
ENDROOT
BRANCH   2   3
HETATM    3  C   UNL     1      -8.714  20.588  67.384  1.00  0.00    -0.373 C  
BRANCH   3   4
HETATM    4  C   UNL     1      -7.318  20.372  66.778  1.00  0.00    -0.328 C  
BRANCH   4   5
HETATM    5  C   UNL     1      -6.302  19.891  67.822  1.00  0.00    -0.253 C  
BRANCH   5   6
HETATM    6  C   UNL     1      -6.980  19.242  69.040  1.00  0.00    -0.381 C  
BRANCH   6   7
HETATM    7  C   UNL     1      -6.838  17.714  68.995  1.00  0.00    -0.240 C  
BRANCH   7   8
HETATM    8  C   UNL     1      -8.014  16.974  68.345  1.00  0.00    -0.239 C  
BRANCH   8   9
HETATM    9  C   UNL     1      -7.848  16.632  66.873  1.00  0.00    -0.261 C  
BRANCH   9  10
HETATM   10  C   UNL     1      -9.137  16.252  66.152  1.00  0.00    -0.377 C  
BRANCH  10  11
HETATM   11  C   UNL     1      -9.587  14.807  65.796  1.00  0.00    -0.254 C  
HETATM   12  O   UNL     1     -10.434  14.676  64.907  1.00  0.00    -0.414 OA 
BRANCH  11  13
HETATM   13  O   UNL     1      -9.206  13.741  66.606  1.00  0.00    -0.256 OA 
BRANCH  13  14
HETATM   14  C   UNL     1      -9.778  13.727  68.037  1.00  0.00    -0.232 C  
HETATM   15  C   UNL     1      -8.535  13.197  68.760  1.00  0.00     0.142 C  
HETATM   16  C   UNL     1      -8.601  11.767  68.215  1.00  0.00    -0.162 C  
HETATM   17  C   UNL     1      -9.917  11.395  68.847  1.00  0.00    -0.146 C  
HETATM   18  C   UNL     1     -10.137   9.952  69.302  1.00  0.00    -0.214 C  
HETATM   19  C   UNL     1      -8.721   9.520  69.754  1.00  0.00    -0.204 C  
HETATM   20  C   UNL     1      -8.605   8.409  70.729  1.00  0.00    -0.159 C  
HETATM   21  C   UNL     1      -9.608   8.609  71.880  1.00  0.00    -0.377 C  
HETATM   22  C   UNL     1      -9.276   8.128  73.075  1.00  0.00    -0.343 C  
HETATM   23  C   UNL     1      -9.154   6.670  72.801  1.00  0.00    -0.136 C  
HETATM   24  O   UNL     1      -8.245   6.027  73.286  1.00  0.00    -0.115 OA 
HETATM   25  C   UNL     1     -10.245   6.090  71.849  1.00  0.00    -0.237 C  
HETATM   26  C   UNL     1     -11.101   7.112  70.923  1.00  0.00    -0.290 C  
HETATM   27  C   UNL     1     -11.074   8.616  71.413  1.00  0.00    -0.343 C  
HETATM   28  C   UNL     1     -12.139   8.679  72.518  1.00  0.00    -0.368 C  
HETATM   29  C   UNL     1     -11.108   9.967  70.521  1.00  0.00    -0.400 C  
HETATM   30  C   UNL     1     -12.342  10.879  70.148  1.00  0.00    -0.399 C  
HETATM   31  C   UNL     1     -11.893  12.417  69.721  1.00  0.00    -0.387 C  
HETATM   32  C   UNL     1     -10.934  12.485  68.420  1.00  0.00    -0.277 C  
HETATM   33  C   UNL     1     -11.902  12.411  67.237  1.00  0.00    -0.357 C  
ENDBRANCH  13  14
ENDBRANCH  11  13
ENDBRANCH  10  11
ENDBRANCH   9  10
ENDBRANCH   8   9
ENDBRANCH   7   8
ENDBRANCH   6   7
ENDBRANCH   5   6
ENDBRANCH   4   5
ENDBRANCH   3   4
ENDBRANCH   2   3
TORSDOF 11
ENDMDL
MODEL       16
REMARK 921   NORMALIZED FREE ENERGY PREDICTED BY IDOCK:   -5.64 KCAL/MOL
REMARK 922        TOTAL FREE ENERGY PREDICTED BY IDOCK:  -11.44 KCAL/MOL
REMARK 923 INTER-LIGAND FREE ENERGY PREDICTED BY IDOCK:   -9.82 KCAL/MOL
REMARK 924 INTRA-LIGAND FREE ENERGY PREDICTED BY IDOCK:   -1.62 KCAL/MOL
REMARK 927      BINDING AFFINITY PREDICTED BY RF-SCORE:    0.00 PKD
ROOT
HETATM    1  C   UNL     1     -14.410   8.336  71.759  1.00  0.00    -0.574 C  
HETATM    2  C   UNL     1     -13.303   9.280  72.160  1.00  0.00    -0.537 C  
ENDROOT
BRANCH   2   3
HETATM    3  C   UNL     1     -12.701  10.018  70.942  1.00  0.00    -0.414 C  
BRANCH   3   4
HETATM    4  C   UNL     1     -11.179   9.826  70.854  1.00  0.00    -0.429 C  
BRANCH   4   5
HETATM    5  C   UNL     1     -10.650   8.885  71.943  1.00  0.00    -0.419 C  
BRANCH   5   6
HETATM    6  C   UNL     1      -9.977   7.633  71.356  1.00  0.00    -0.203 C  
BRANCH   6   7
HETATM    7  C   UNL     1     -11.025   6.575  70.979  1.00  0.00    -0.314 C  
BRANCH   7   8
HETATM    8  C   UNL     1     -11.164   6.309  69.475  1.00  0.00    -0.500 C  
BRANCH   8   9
HETATM    9  C   UNL     1     -10.112   6.956  68.589  1.00  0.00    -0.164 C  
BRANCH   9  10
HETATM   10  C   UNL     1     -10.664   7.834  67.471  1.00  0.00    -0.265 C  
BRANCH  10  11
HETATM   11  C   UNL     1      -9.888   8.962  66.734  1.00  0.00    -0.241 C  
HETATM   12  O   UNL     1      -9.012   8.623  65.933  1.00  0.00    -0.177 OA 
BRANCH  11  13
HETATM   13  O   UNL     1     -10.039  10.286  67.136  1.00  0.00    -0.191 OA 
BRANCH  13  14
HETATM   14  C   UNL     1      -9.647  11.365  66.108  1.00  0.00    -0.218 C  
HETATM   15  C   UNL     1      -8.380  11.875  66.804  1.00  0.00    -0.153 C  
HETATM   16  C   UNL     1      -9.081  12.575  67.973  1.00  0.00    -0.200 C  
HETATM   17  C   UNL     1      -9.819  13.600  67.152  1.00  0.00    -0.242 C  
HETATM   18  C   UNL     1     -10.057  14.989  67.744  1.00  0.00    -0.234 C  
HETATM   19  C   UNL     1      -8.791  15.209  68.609  1.00  0.00    -0.186 C  
HETATM   20  C   UNL     1      -8.386  16.601  68.918  1.00  0.00    -0.230 C  
HETATM   21  C   UNL     1      -8.445  17.463  67.643  1.00  0.00    -0.213 C  
HETATM   22  C   UNL     1      -7.597  18.485  67.552  1.00  0.00    -0.234 C  
HETATM   23  C   UNL     1      -8.000  19.327  68.712  1.00  0.00    -0.357 C  
HETATM   24  O   UNL     1      -7.158  19.856  69.409  1.00  0.00    -0.318 OA 
HETATM   25  C   UNL     1      -9.539  19.429  68.943  1.00  0.00    -0.477 C  
HETATM   26  C   UNL     1     -10.511  18.331  68.247  1.00  0.00    -0.324 C  
HETATM   27  C   UNL     1      -9.855  17.554  67.035  1.00  0.00    -0.295 C  
HETATM   28  C   UNL     1     -10.020  18.501  65.837  1.00  0.00    -0.101 C  
HETATM   29  C   UNL     1     -10.092  16.019  66.575  1.00  0.00    -0.297 C  
HETATM   30  C   UNL     1     -11.058  15.455  65.460  1.00  0.00    -0.301 C  
HETATM   31  C   UNL     1     -10.605  13.954  64.922  1.00  0.00    -0.436 C  
HETATM   32  C   UNL     1     -10.607  12.815  66.071  1.00  0.00    -0.289 C  
HETATM   33  C   UNL     1     -12.069  12.372  66.155  1.00  0.00    -0.295 C  
ENDBRANCH  13  14
ENDBRANCH  11  13
ENDBRANCH  10  11
ENDBRANCH   9  10
ENDBRANCH   8   9
ENDBRANCH   7   8
ENDBRANCH   6   7
ENDBRANCH   5   6
ENDBRANCH   4   5
ENDBRANCH   3   4
ENDBRANCH   2   3
TORSDOF 11
ENDMDL
MODEL       17
REMARK 921   NORMALIZED FREE ENERGY PREDICTED BY IDOCK:   -5.62 KCAL/MOL
REMARK 922        TOTAL FREE ENERGY PREDICTED BY IDOCK:  -11.41 KCAL/MOL
REMARK 923 INTER-LIGAND FREE ENERGY PREDICTED BY IDOCK:   -9.90 KCAL/MOL
REMARK 924 INTRA-LIGAND FREE ENERGY PREDICTED BY IDOCK:   -1.51 KCAL/MOL
REMARK 927      BINDING AFFINITY PREDICTED BY RF-SCORE:    0.00 PKD
ROOT
HETATM    1  C   UNL     1     -10.258   5.817  68.925  1.00  0.00    -0.267 C  
HETATM    2  C   UNL     1     -11.277   6.579  69.736  1.00  0.00    -0.456 C  
ENDROOT
BRANCH   2   3
HETATM    3  C   UNL     1     -11.110   6.334  71.254  1.00  0.00    -0.345 C  
BRANCH   3   4
HETATM    4  C   UNL     1     -12.238   6.992  72.065  1.00  0.00    -0.317 C  
BRANCH   4   5
HETATM    5  C   UNL     1     -13.486   7.253  71.214  1.00  0.00    -0.333 C  
BRANCH   5   6
HETATM    6  C   UNL     1     -14.261   8.496  71.680  1.00  0.00    -0.496 C  
BRANCH   6   7
HETATM    7  C   UNL     1     -13.298   9.630  72.062  1.00  0.00    -0.547 C  
BRANCH   7   8
HETATM    8  C   UNL     1     -12.684  10.383  70.876  1.00  0.00    -0.477 C  
BRANCH   8   9
HETATM    9  C   UNL     1     -11.168  10.325  70.768  1.00  0.00    -0.373 C  
BRANCH   9  10
HETATM   10  C   UNL     1     -10.630  10.165  69.351  1.00  0.00    -0.261 C  
BRANCH  10  11
HETATM   11  C   UNL     1     -10.900  11.128  68.161  1.00  0.00    -0.219 C  
HETATM   12  O   UNL     1     -11.718  10.767  67.309  1.00  0.00    -0.396 OA 
BRANCH  11  13
HETATM   13  O   UNL     1     -10.084  12.239  67.967  1.00  0.00    -0.194 OA 
BRANCH  13  14
HETATM   14  C   UNL     1     -10.752  13.480  67.343  1.00  0.00    -0.263 C  
HETATM   15  C   UNL     1      -9.719  13.749  66.242  1.00  0.00    -0.297 C  
HETATM   16  C   UNL     1      -8.593  14.234  67.161  1.00  0.00    -0.234 C  
HETATM   17  C   UNL     1      -9.303  15.455  67.686  1.00  0.00    -0.203 C  
HETATM   18  C   UNL     1      -8.483  16.703  68.015  1.00  0.00    -0.192 C  
HETATM   19  C   UNL     1      -7.353  16.653  66.957  1.00  0.00    -0.241 C  
HETATM   20  C   UNL     1      -6.673  17.920  66.598  1.00  0.00    -0.235 C  
HETATM   21  C   UNL     1      -7.715  19.031  66.366  1.00  0.00    -0.289 C  
HETATM   22  C   UNL     1      -7.407  19.991  65.497  1.00  0.00    -0.270 C  
HETATM   23  C   UNL     1      -6.198  20.598  66.119  1.00  0.00    -0.225 C  
HETATM   24  O   UNL     1      -5.246  20.913  65.434  1.00  0.00    -0.184 OA 
HETATM   25  C   UNL     1      -6.267  20.750  67.670  1.00  0.00    -0.342 C  
HETATM   26  C   UNL     1      -7.367  19.889  68.495  1.00  0.00    -0.313 C  
HETATM   27  C   UNL     1      -8.561  19.340  67.614  1.00  0.00    -0.332 C  
HETATM   28  C   UNL     1      -9.532  20.525  67.501  1.00  0.00    -0.520 C  
HETATM   29  C   UNL     1      -9.382  17.954  67.779  1.00  0.00    -0.262 C  
HETATM   30  C   UNL     1     -10.765  17.700  68.499  1.00  0.00    -0.193 C  
HETATM   31  C   UNL     1     -11.514  16.317  67.974  1.00  0.00    -0.125 C  
HETATM   32  C   UNL     1     -10.665  14.967  68.243  1.00  0.00    -0.249 C  
HETATM   33  C   UNL     1     -10.977  14.613  69.699  1.00  0.00    -0.255 C  
ENDBRANCH  13  14
ENDBRANCH  11  13
ENDBRANCH  10  11
ENDBRANCH   9  10
ENDBRANCH   8   9
ENDBRANCH   7   8
ENDBRANCH   6   7
ENDBRANCH   5   6
ENDBRANCH   4   5
ENDBRANCH   3   4
ENDBRANCH   2   3
TORSDOF 11
ENDMDL
MODEL       18
REMARK 921   NORMALIZED FREE ENERGY PREDICTED BY IDOCK:   -5.45 KCAL/MOL
REMARK 922        TOTAL FREE ENERGY PREDICTED BY IDOCK:  -11.13 KCAL/MOL
REMARK 923 INTER-LIGAND FREE ENERGY PREDICTED BY IDOCK:   -9.05 KCAL/MOL
REMARK 924 INTRA-LIGAND FREE ENERGY PREDICTED BY IDOCK:   -2.09 KCAL/MOL
REMARK 927      BINDING AFFINITY PREDICTED BY RF-SCORE:    0.00 PKD
ROOT
HETATM    1  C   UNL     1     -12.601  10.275  71.378  1.00  0.00    -0.539 C  
HETATM    2  C   UNL     1     -12.957   9.072  72.216  1.00  0.00    -0.490 C  
ENDROOT
BRANCH   2   3
HETATM    3  C   UNL     1     -13.208   7.816  71.350  1.00  0.00    -0.310 C  
BRANCH   3   4
HETATM    4  C   UNL     1     -12.150   6.730  71.602  1.00  0.00    -0.404 C  
BRANCH   4   5
HETATM    5  C   UNL     1     -11.205   7.098  72.752  1.00  0.00    -0.314 C  
BRANCH   5   6
HETATM    6  C   UNL     1      -9.733   7.131  72.309  1.00  0.00    -0.173 C  
BRANCH   6   7
HETATM    7  C   UNL     1      -9.212   8.575  72.247  1.00  0.00    -0.343 C  
BRANCH   7   8
HETATM    8  C   UNL     1      -8.832   9.065  70.845  1.00  0.00    -0.294 C  
BRANCH   8   9
HETATM    9  C   UNL     1      -9.262   8.172  69.692  1.00  0.00    -0.155 C  
BRANCH   9  10
HETATM   10  C   UNL     1     -10.493   8.652  68.931  1.00  0.00    -0.211 C  
BRANCH  10  11
HETATM   11  C   UNL     1     -10.490   9.332  67.533  1.00  0.00    -0.274 C  
HETATM   12  O   UNL     1     -10.183   8.635  66.561  1.00  0.00    -0.283 OA 
BRANCH  11  13
HETATM   13  O   UNL     1     -10.615  10.714  67.431  1.00  0.00    -0.222 OA 
BRANCH  13  14
HETATM   14  C   UNL     1      -9.788  11.553  68.425  1.00  0.00    -0.204 C  
HETATM   15  C   UNL     1     -10.836  12.633  68.719  1.00  0.00    -0.267 C  
HETATM   16  C   UNL     1     -10.774  13.327  67.356  1.00  0.00    -0.266 C  
HETATM   17  C   UNL     1      -9.341  13.782  67.451  1.00  0.00    -0.226 C  
HETATM   18  C   UNL     1      -8.941  15.107  66.802  1.00  0.00    -0.293 C  
HETATM   19  C   UNL     1     -10.216  15.967  66.978  1.00  0.00    -0.282 C  
HETATM   20  C   UNL     1     -10.072  17.443  66.966  1.00  0.00    -0.313 C  
HETATM   21  C   UNL     1      -8.888  17.866  67.856  1.00  0.00    -0.260 C  
HETATM   22  C   UNL     1      -8.959  19.056  68.448  1.00  0.00    -0.378 C  
HETATM   23  C   UNL     1      -9.029  19.980  67.282  1.00  0.00    -0.346 C  
HETATM   24  O   UNL     1      -9.785  20.929  67.295  1.00  0.00    -0.458 OA 
HETATM   25  C   UNL     1      -8.096  19.601  66.091  1.00  0.00    -0.356 C  
HETATM   26  C   UNL     1      -7.499  18.094  66.011  1.00  0.00    -0.264 C  
HETATM   27  C   UNL     1      -7.538  17.302  67.380  1.00  0.00    -0.201 C  
HETATM   28  C   UNL     1      -6.293  17.786  68.139  1.00  0.00    -0.182 C  
HETATM   29  C   UNL     1      -7.764  15.717  67.622  1.00  0.00    -0.176 C  
HETATM   30  C   UNL     1      -6.686  14.583  67.841  1.00  0.00    -0.176 C  
HETATM   31  C   UNL     1      -7.312  13.246  68.596  1.00  0.00    -0.101 C  
HETATM   32  C   UNL     1      -8.498  12.519  67.770  1.00  0.00    -0.171 C  
HETATM   33  C   UNL     1      -7.764  11.637  66.759  1.00  0.00    -0.116 C  
ENDBRANCH  13  14
ENDBRANCH  11  13
ENDBRANCH  10  11
ENDBRANCH   9  10
ENDBRANCH   8   9
ENDBRANCH   7   8
ENDBRANCH   6   7
ENDBRANCH   5   6
ENDBRANCH   4   5
ENDBRANCH   3   4
ENDBRANCH   2   3
TORSDOF 11
ENDMDL
MODEL       19
REMARK 921   NORMALIZED FREE ENERGY PREDICTED BY IDOCK:   -5.43 KCAL/MOL
REMARK 922        TOTAL FREE ENERGY PREDICTED BY IDOCK:  -11.11 KCAL/MOL
REMARK 923 INTER-LIGAND FREE ENERGY PREDICTED BY IDOCK:   -9.71 KCAL/MOL
REMARK 924 INTRA-LIGAND FREE ENERGY PREDICTED BY IDOCK:   -1.40 KCAL/MOL
REMARK 927      BINDING AFFINITY PREDICTED BY RF-SCORE:    0.00 PKD
ROOT
HETATM    1  C   UNL     1      -5.594  19.374  63.689  1.00  0.00    -0.350 C  
HETATM    2  C   UNL     1      -6.439  20.313  64.513  1.00  0.00    -0.276 C  
ENDROOT
BRANCH   2   3
HETATM    3  C   UNL     1      -7.200  19.574  65.638  1.00  0.00    -0.283 C  
BRANCH   3   4
HETATM    4  C   UNL     1      -7.046  20.282  66.993  1.00  0.00    -0.309 C  
BRANCH   4   5
HETATM    5  C   UNL     1      -8.398  20.707  67.580  1.00  0.00    -0.256 C  
BRANCH   5   6
HETATM    6  C   UNL     1      -9.562  20.455  66.607  1.00  0.00    -0.480 C  
BRANCH   6   7
HETATM    7  C   UNL     1     -10.603  19.515  67.232  1.00  0.00    -0.610 C  
BRANCH   7   8
HETATM    8  C   UNL     1     -10.053  18.558  68.297  1.00  0.00    -0.424 C  
BRANCH   8   9
HETATM    9  C   UNL     1      -9.641  17.182  67.802  1.00  0.00    -0.256 C  
BRANCH   9  10
HETATM   10  C   UNL     1      -9.872  16.937  66.315  1.00  0.00    -0.320 C  
BRANCH  10  11
HETATM   11  C   UNL     1     -10.656  15.744  65.700  1.00  0.00    -0.377 C  
HETATM   12  O   UNL     1     -11.023  15.846  64.526  1.00  0.00    -0.527 OA 
BRANCH  11  13
HETATM   13  O   UNL     1     -11.107  14.712  66.520  1.00  0.00    -0.317 OA 
BRANCH  13  14
HETATM   14  C   UNL     1     -10.565  13.303  66.210  1.00  0.00    -0.289 C  
HETATM   15  C   UNL     1     -11.850  12.514  66.488  1.00  0.00    -0.434 C  
HETATM   16  C   UNL     1     -11.850  12.692  68.010  1.00  0.00    -0.376 C  
HETATM   17  C   UNL     1     -10.568  11.946  68.278  1.00  0.00    -0.236 C  
HETATM   18  C   UNL     1     -10.435  11.147  69.574  1.00  0.00    -0.080 C  
HETATM   19  C   UNL     1     -11.881  10.650  69.815  1.00  0.00    -0.377 C  
HETATM   20  C   UNL     1     -12.076   9.439  70.647  1.00  0.00    -0.191 C  
HETATM   21  C   UNL     1     -11.087   8.339  70.219  1.00  0.00    -0.220 C  
HETATM   22  C   UNL     1     -11.468   7.074  70.377  1.00  0.00    -0.355 C  
HETATM   23  C   UNL     1     -11.663   6.988  71.851  1.00  0.00    -0.296 C  
HETATM   24  O   UNL     1     -12.615   6.392  72.311  1.00  0.00    -0.204 OA 
HETATM   25  C   UNL     1     -10.586   7.735  72.697  1.00  0.00    -0.377 C  
HETATM   26  C   UNL     1      -9.658   8.854  71.974  1.00  0.00    -0.277 C  
HETATM   27  C   UNL     1      -9.614   8.745  70.397  1.00  0.00    -0.210 C  
HETATM   28  C   UNL     1      -8.569   7.655  70.115  1.00  0.00    -0.140 C  
HETATM   29  C   UNL     1      -9.489   9.938  69.307  1.00  0.00    -0.218 C  
HETATM   30  C   UNL     1      -8.201  10.481  68.574  1.00  0.00    -0.123 C  
HETATM   31  C   UNL     1      -8.557  11.284  67.167  1.00  0.00    -0.147 C  
HETATM   32  C   UNL     1      -9.486  12.592  67.375  1.00  0.00    -0.189 C  
HETATM   33  C   UNL     1      -8.499  13.689  67.781  1.00  0.00    -0.183 C  
ENDBRANCH  13  14
ENDBRANCH  11  13
ENDBRANCH  10  11
ENDBRANCH   9  10
ENDBRANCH   8   9
ENDBRANCH   7   8
ENDBRANCH   6   7
ENDBRANCH   5   6
ENDBRANCH   4   5
ENDBRANCH   3   4
ENDBRANCH   2   3
TORSDOF 11
ENDMDL
MODEL       20
REMARK 921   NORMALIZED FREE ENERGY PREDICTED BY IDOCK:   -5.40 KCAL/MOL
REMARK 922        TOTAL FREE ENERGY PREDICTED BY IDOCK:  -11.06 KCAL/MOL
REMARK 923 INTER-LIGAND FREE ENERGY PREDICTED BY IDOCK:   -8.97 KCAL/MOL
REMARK 924 INTRA-LIGAND FREE ENERGY PREDICTED BY IDOCK:   -2.09 KCAL/MOL
REMARK 927      BINDING AFFINITY PREDICTED BY RF-SCORE:    0.00 PKD
ROOT
HETATM    1  C   UNL     1     -13.069  10.572  71.643  1.00  0.00    -0.551 C  
HETATM    2  C   UNL     1     -13.605   9.249  72.131  1.00  0.00    -0.536 C  
ENDROOT
BRANCH   2   3
HETATM    3  C   UNL     1     -12.663   8.075  71.776  1.00  0.00    -0.352 C  
BRANCH   3   4
HETATM    4  C   UNL     1     -11.305   8.199  72.484  1.00  0.00    -0.469 C  
BRANCH   4   5
HETATM    5  C   UNL     1     -10.329   7.094  72.061  1.00  0.00    -0.214 C  
BRANCH   5   6
HETATM    6  C   UNL     1     -11.049   5.886  71.439  1.00  0.00    -0.313 C  
BRANCH   6   7
HETATM    7  C   UNL     1     -10.478   5.565  70.049  1.00  0.00    -0.373 C  
BRANCH   7   8
HETATM    8  C   UNL     1     -11.030   6.429  68.909  1.00  0.00    -0.412 C  
BRANCH   8   9
HETATM    9  C   UNL     1     -10.823   5.883  67.505  1.00  0.00    -0.335 C  
BRANCH   9  10
HETATM   10  C   UNL     1      -9.789   6.630  66.670  1.00  0.00    -0.208 C  
BRANCH  10  11
HETATM   11  C   UNL     1      -8.501   7.310  67.212  1.00  0.00    -0.118 C  
HETATM   12  O   UNL     1      -7.668   6.590  67.770  1.00  0.00    -0.103 OA 
BRANCH  11  13
HETATM   13  O   UNL     1      -8.412   8.699  67.254  1.00  0.00    -0.114 OA 
BRANCH  13  14
HETATM   14  C   UNL     1      -9.728   9.477  67.056  1.00  0.00    -0.176 C  
HETATM   15  C   UNL     1      -9.281  10.359  65.885  1.00  0.00    -0.205 C  
HETATM   16  C   UNL     1      -8.324  11.252  66.681  1.00  0.00    -0.163 C  
HETATM   17  C   UNL     1      -9.361  11.864  67.586  1.00  0.00    -0.183 C  
HETATM   18  C   UNL     1      -9.180  13.311  68.045  1.00  0.00    -0.217 C  
HETATM   19  C   UNL     1      -8.489  13.968  66.825  1.00  0.00    -0.019 C  
HETATM   20  C   UNL     1      -8.617  15.436  66.654  1.00  0.00    -0.318 C  
HETATM   21  C   UNL     1     -10.080  15.866  66.866  1.00  0.00    -0.267 C  
HETATM   22  C   UNL     1     -10.509  16.936  66.200  1.00  0.00    -0.276 C  
HETATM   23  C   UNL     1      -9.619  18.008  66.726  1.00  0.00    -0.303 C  
HETATM   24  O   UNL     1      -9.152  18.842  65.977  1.00  0.00    -0.479 OA 
HETATM   25  C   UNL     1      -9.338  17.931  68.259  1.00  0.00    -0.287 C  
HETATM   26  C   UNL     1      -9.633  16.540  69.042  1.00  0.00    -0.255 C  
HETATM   27  C   UNL     1     -10.606  15.555  68.278  1.00  0.00    -0.255 C  
HETATM   28  C   UNL     1     -12.014  16.072  68.609  1.00  0.00    -0.026 C  
HETATM   29  C   UNL     1     -10.592  13.935  68.262  1.00  0.00    -0.263 C  
HETATM   30  C   UNL     1     -11.440  12.927  69.132  1.00  0.00    -0.360 C  
HETATM   31  C   UNL     1     -11.550  11.423  68.441  1.00  0.00    -0.385 C  
HETATM   32  C   UNL     1     -10.124  10.685  68.243  1.00  0.00    -0.176 C  
HETATM   33  C   UNL     1      -9.832  10.063  69.611  1.00  0.00    -0.261 C  
ENDBRANCH  13  14
ENDBRANCH  11  13
ENDBRANCH  10  11
ENDBRANCH   9  10
ENDBRANCH   8   9
ENDBRANCH   7   8
ENDBRANCH   6   7
ENDBRANCH   5   6
ENDBRANCH   4   5
ENDBRANCH   3   4
ENDBRANCH   2   3
TORSDOF 11
ENDMDL
MODEL       21
REMARK 921   NORMALIZED FREE ENERGY PREDICTED BY IDOCK:   -5.40 KCAL/MOL
REMARK 922        TOTAL FREE ENERGY PREDICTED BY IDOCK:  -11.06 KCAL/MOL
REMARK 923 INTER-LIGAND FREE ENERGY PREDICTED BY IDOCK:   -9.60 KCAL/MOL
REMARK 924 INTRA-LIGAND FREE ENERGY PREDICTED BY IDOCK:   -1.46 KCAL/MOL
REMARK 927      BINDING AFFINITY PREDICTED BY RF-SCORE:    0.00 PKD
ROOT
HETATM    1  C   UNL     1     -12.300  14.781  71.619  1.00  0.00    -0.409 C  
HETATM    2  C   UNL     1     -13.661  14.359  72.114  1.00  0.00    -0.529 C  
ENDROOT
BRANCH   2   3
HETATM    3  C   UNL     1     -13.748  12.833  72.342  1.00  0.00    -0.457 C  
BRANCH   3   4
HETATM    4  C   UNL     1     -12.873  12.056  71.346  1.00  0.00    -0.391 C  
BRANCH   4   5
HETATM    5  C   UNL     1     -12.921  10.543  71.591  1.00  0.00    -0.581 C  
BRANCH   5   6
HETATM    6  C   UNL     1     -11.544   9.880  71.421  1.00  0.00    -0.428 C  
BRANCH   6   7
HETATM    7  C   UNL     1     -11.542   8.464  72.015  1.00  0.00    -0.418 C  
BRANCH   7   8
HETATM    8  C   UNL     1     -12.398   7.443  71.257  1.00  0.00    -0.380 C  
BRANCH   8   9
HETATM    9  C   UNL     1     -11.654   6.558  70.270  1.00  0.00    -0.473 C  
BRANCH   9  10
HETATM   10  C   UNL     1     -10.368   7.156  69.712  1.00  0.00    -0.224 C  
BRANCH  10  11
HETATM   11  C   UNL     1     -10.248   8.011  68.419  1.00  0.00    -0.207 C  
HETATM   12  O   UNL     1     -10.468   7.451  67.342  1.00  0.00    -0.239 OA 
BRANCH  11  13
HETATM   13  O   UNL     1      -9.701   9.290  68.480  1.00  0.00    -0.146 OA 
BRANCH  13  14
HETATM   14  C   UNL     1      -9.795  10.139  67.197  1.00  0.00    -0.187 C  
HETATM   15  C   UNL     1      -8.373  10.713  67.215  1.00  0.00    -0.120 C  
HETATM   16  C   UNL     1      -8.567  11.649  68.411  1.00  0.00    -0.156 C  
HETATM   17  C   UNL     1      -9.608  12.535  67.778  1.00  0.00    -0.203 C  
HETATM   18  C   UNL     1      -9.635  14.020  68.142  1.00  0.00    -0.220 C  
HETATM   19  C   UNL     1      -8.137  14.340  68.366  1.00  0.00    -0.142 C  
HETATM   20  C   UNL     1      -7.691  15.746  68.216  1.00  0.00    -0.132 C  
HETATM   21  C   UNL     1      -8.288  16.356  66.934  1.00  0.00    -0.263 C  
HETATM   22  C   UNL     1      -7.585  17.303  66.319  1.00  0.00    -0.360 C  
HETATM   23  C   UNL     1      -7.515  18.365  67.360  1.00  0.00    -0.218 C  
HETATM   24  O   UNL     1      -6.482  18.976  67.546  1.00  0.00    -0.193 OA 
HETATM   25  C   UNL     1      -8.833  18.577  68.167  1.00  0.00    -0.327 C  
HETATM   26  C   UNL     1      -9.964  17.414  68.142  1.00  0.00    -0.308 C  
HETATM   27  C   UNL     1      -9.826  16.395  66.940  1.00  0.00    -0.266 C  
HETATM   28  C   UNL     1     -10.493  17.108  65.754  1.00  0.00    -0.242 C  
HETATM   29  C   UNL     1     -10.175  14.813  66.914  1.00  0.00    -0.257 C  
HETATM   30  C   UNL     1     -11.489  14.096  66.411  1.00  0.00    -0.362 C  
HETATM   31  C   UNL     1     -11.239  12.501  66.031  1.00  0.00    -0.354 C  
HETATM   32  C   UNL     1     -10.738  11.599  67.276  1.00  0.00    -0.281 C  
HETATM   33  C   UNL     1     -12.025  11.245  68.024  1.00  0.00    -0.132 C  
ENDBRANCH  13  14
ENDBRANCH  11  13
ENDBRANCH  10  11
ENDBRANCH   9  10
ENDBRANCH   8   9
ENDBRANCH   7   8
ENDBRANCH   6   7
ENDBRANCH   5   6
ENDBRANCH   4   5
ENDBRANCH   3   4
ENDBRANCH   2   3
TORSDOF 11
ENDMDL
MODEL       22
REMARK 921   NORMALIZED FREE ENERGY PREDICTED BY IDOCK:   -5.38 KCAL/MOL
REMARK 922        TOTAL FREE ENERGY PREDICTED BY IDOCK:  -11.03 KCAL/MOL
REMARK 923 INTER-LIGAND FREE ENERGY PREDICTED BY IDOCK:   -9.60 KCAL/MOL
REMARK 924 INTRA-LIGAND FREE ENERGY PREDICTED BY IDOCK:   -1.43 KCAL/MOL
REMARK 927      BINDING AFFINITY PREDICTED BY RF-SCORE:    0.00 PKD
ROOT
HETATM    1  C   UNL     1      -6.678  20.234  67.935  1.00  0.00    -0.319 C  
HETATM    2  C   UNL     1      -7.039  20.332  66.473  1.00  0.00    -0.297 C  
ENDROOT
BRANCH   2   3
HETATM    3  C   UNL     1      -8.501  19.906  66.208  1.00  0.00    -0.373 C  
BRANCH   3   4
HETATM    4  C   UNL     1      -9.479  20.583  67.181  1.00  0.00    -0.544 C  
BRANCH   4   5
HETATM    5  C   UNL     1     -10.587  19.629  67.644  1.00  0.00    -0.556 C  
BRANCH   5   6
HETATM    6  C   UNL     1     -10.029  18.398  68.377  1.00  0.00    -0.406 C  
BRANCH   6   7
HETATM    7  C   UNL     1     -10.586  17.102  67.770  1.00  0.00    -0.360 C  
BRANCH   7   8
HETATM    8  C   UNL     1      -9.798  16.559  66.572  1.00  0.00    -0.292 C  
BRANCH   8   9
HETATM    9  C   UNL     1     -10.559  16.485  65.258  1.00  0.00    -0.273 C  
BRANCH   9  10
HETATM   10  C   UNL     1     -11.007  15.085  64.851  1.00  0.00    -0.427 C  
BRANCH  10  11
HETATM   11  C   UNL     1     -11.918  14.143  65.688  1.00  0.00    -0.396 C  
HETATM   12  O   UNL     1     -13.105  14.058  65.359  1.00  0.00    -0.763 OA 
BRANCH  11  13
HETATM   13  O   UNL     1     -11.449  13.603  66.882  1.00  0.00    -0.317 OA 
BRANCH  13  14
HETATM   14  C   UNL     1     -10.548  12.359  66.765  1.00  0.00    -0.226 C  
HETATM   15  C   UNL     1     -11.634  11.289  66.931  1.00  0.00     0.003 C  
HETATM   16  C   UNL     1     -11.906  11.533  68.418  1.00  0.00    -0.353 C  
HETATM   17  C   UNL     1     -10.539  11.141  68.917  1.00  0.00    -0.239 C  
HETATM   18  C   UNL     1     -10.416  10.461  70.281  1.00  0.00    -0.110 C  
HETATM   19  C   UNL     1     -11.722   9.633  70.364  1.00  0.00    -0.266 C  
HETATM   20  C   UNL     1     -11.747   8.451  71.259  1.00  0.00    -0.325 C  
HETATM   21  C   UNL     1     -10.471   7.612  71.060  1.00  0.00    -0.218 C  
HETATM   22  C   UNL     1     -10.559   6.300  71.268  1.00  0.00    -0.285 C  
HETATM   23  C   UNL     1     -10.948   6.238  72.704  1.00  0.00    -0.252 C  
HETATM   24  O   UNL     1     -11.788   5.446  73.079  1.00  0.00    -0.236 OA 
HETATM   25  C   UNL     1     -10.220   7.267  73.623  1.00  0.00    -0.393 C  
HETATM   26  C   UNL     1      -9.487   8.545  72.943  1.00  0.00    -0.194 C  
HETATM   27  C   UNL     1      -9.181   8.378  71.400  1.00  0.00    -0.242 C  
HETATM   28  C   UNL     1      -7.876   7.568  71.353  1.00  0.00    -0.093 C  
HETATM   29  C   UNL     1      -9.181   9.512  70.243  1.00  0.00    -0.303 C  
HETATM   30  C   UNL     1      -7.963  10.322  69.649  1.00  0.00    -0.164 C  
HETATM   31  C   UNL     1      -8.285  10.945  68.146  1.00  0.00    -0.121 C  
HETATM   32  C   UNL     1      -9.518  11.992  68.118  1.00  0.00    -0.200 C  
HETATM   33  C   UNL     1      -8.894  13.316  68.562  1.00  0.00    -0.055 C  
ENDBRANCH  13  14
ENDBRANCH  11  13
ENDBRANCH  10  11
ENDBRANCH   9  10
ENDBRANCH   8   9
ENDBRANCH   7   8
ENDBRANCH   6   7
ENDBRANCH   5   6
ENDBRANCH   4   5
ENDBRANCH   3   4
ENDBRANCH   2   3
TORSDOF 11
ENDMDL
MODEL       23
REMARK 921   NORMALIZED FREE ENERGY PREDICTED BY IDOCK:   -5.35 KCAL/MOL
REMARK 922        TOTAL FREE ENERGY PREDICTED BY IDOCK:  -10.97 KCAL/MOL
REMARK 923 INTER-LIGAND FREE ENERGY PREDICTED BY IDOCK:   -9.61 KCAL/MOL
REMARK 924 INTRA-LIGAND FREE ENERGY PREDICTED BY IDOCK:   -1.36 KCAL/MOL
REMARK 927      BINDING AFFINITY PREDICTED BY RF-SCORE:    0.00 PKD
ROOT
HETATM    1  C   UNL     1     -13.686  15.424  72.494  1.00  0.00    -0.652 C  
HETATM    2  C   UNL     1     -14.152  14.031  72.148  1.00  0.00    -0.641 C  
ENDROOT
BRANCH   2   3
HETATM    3  C   UNL     1     -13.019  13.175  71.537  1.00  0.00    -0.412 C  
BRANCH   3   4
HETATM    4  C   UNL     1     -13.205  11.681  71.842  1.00  0.00    -0.475 C  
BRANCH   4   5
HETATM    5  C   UNL     1     -12.603  10.788  70.750  1.00  0.00    -0.476 C  
BRANCH   5   6
HETATM    6  C   UNL     1     -11.531   9.834  71.301  1.00  0.00    -0.457 C  
BRANCH   6   7
HETATM    7  C   UNL     1     -11.337   8.631  70.366  1.00  0.00    -0.203 C  
BRANCH   7   8
HETATM    8  C   UNL     1      -9.879   8.202  70.158  1.00  0.00    -0.184 C  
BRANCH   8   9
HETATM    9  C   UNL     1      -9.478   7.895  68.724  1.00  0.00    -0.147 C  
BRANCH   9  10
HETATM   10  C   UNL     1     -10.480   8.342  67.665  1.00  0.00    -0.303 C  
BRANCH  10  11
HETATM   11  C   UNL     1     -10.154   9.197  66.408  1.00  0.00    -0.274 C  
HETATM   12  O   UNL     1      -9.445   8.684  65.538  1.00  0.00    -0.123 OA 
BRANCH  11  13
HETATM   13  O   UNL     1     -10.473  10.551  66.387  1.00  0.00    -0.235 OA 
BRANCH  13  14
HETATM   14  C   UNL     1     -10.062  11.373  67.624  1.00  0.00    -0.180 C  
HETATM   15  C   UNL     1     -11.199  12.401  67.586  1.00  0.00    -0.340 C  
HETATM   16  C   UNL     1     -10.722  13.157  66.343  1.00  0.00    -0.293 C  
HETATM   17  C   UNL     1      -9.425  13.657  66.922  1.00  0.00    -0.263 C  
HETATM   18  C   UNL     1      -8.897  15.023  66.484  1.00  0.00    -0.286 C  
HETATM   19  C   UNL     1     -10.198  15.830  66.253  1.00  0.00    -0.317 C  
HETATM   20  C   UNL     1     -10.129  17.309  66.334  1.00  0.00    -0.321 C  
HETATM   21  C   UNL     1      -9.327  17.733  67.579  1.00  0.00    -0.245 C  
HETATM   22  C   UNL     1      -9.646  18.892  68.150  1.00  0.00    -0.386 C  
HETATM   23  C   UNL     1      -9.371  19.864  67.056  1.00  0.00    -0.370 C  
HETATM   24  O   UNL     1     -10.134  20.785  66.846  1.00  0.00    -0.301 OA 
HETATM   25  C   UNL     1      -8.080  19.571  66.231  1.00  0.00    -0.344 C  
HETATM   26  C   UNL     1      -7.419  18.091  66.307  1.00  0.00    -0.312 C  
HETATM   27  C   UNL     1      -7.871  17.238  67.561  1.00  0.00    -0.194 C  
HETATM   28  C   UNL     1      -6.971  17.731  68.705  1.00  0.00    -0.247 C  
HETATM   29  C   UNL     1      -8.088  15.636  67.666  1.00  0.00    -0.166 C  
HETATM   30  C   UNL     1      -7.090  14.533  68.196  1.00  0.00    -0.125 C  
HETATM   31  C   UNL     1      -7.865  13.142  68.659  1.00  0.00    -0.056 C  
HETATM   32  C   UNL     1      -8.676  12.412  67.464  1.00  0.00    -0.179 C  
HETATM   33  C   UNL     1      -7.607  11.602  66.727  1.00  0.00    -0.104 C  
ENDBRANCH  13  14
ENDBRANCH  11  13
ENDBRANCH  10  11
ENDBRANCH   9  10
ENDBRANCH   8   9
ENDBRANCH   7   8
ENDBRANCH   6   7
ENDBRANCH   5   6
ENDBRANCH   4   5
ENDBRANCH   3   4
ENDBRANCH   2   3
TORSDOF 11
ENDMDL
MODEL       24
REMARK 921   NORMALIZED FREE ENERGY PREDICTED BY IDOCK:   -5.35 KCAL/MOL
REMARK 922        TOTAL FREE ENERGY PREDICTED BY IDOCK:  -10.97 KCAL/MOL
REMARK 923 INTER-LIGAND FREE ENERGY PREDICTED BY IDOCK:   -8.37 KCAL/MOL
REMARK 924 INTRA-LIGAND FREE ENERGY PREDICTED BY IDOCK:   -2.60 KCAL/MOL
REMARK 927      BINDING AFFINITY PREDICTED BY RF-SCORE:    0.00 PKD
ROOT
HETATM    1  C   UNL     1      -9.447   8.800  71.588  1.00  0.00    -0.358 C  
HETATM    2  C   UNL     1     -10.801   8.276  71.179  1.00  0.00    -0.276 C  
ENDROOT
BRANCH   2   3
HETATM    3  C   UNL     1     -11.940   9.249  71.561  1.00  0.00    -0.439 C  
BRANCH   3   4
HETATM    4  C   UNL     1     -11.997  10.459  70.615  1.00  0.00    -0.448 C  
BRANCH   4   5
HETATM    5  C   UNL     1     -12.734  11.649  71.242  1.00  0.00    -0.444 C  
BRANCH   5   6
HETATM    6  C   UNL     1     -12.305  12.991  70.626  1.00  0.00    -0.391 C  
BRANCH   6   7
HETATM    7  C   UNL     1     -13.124  14.150  71.215  1.00  0.00    -0.420 C  
BRANCH   7   8
HETATM    8  C   UNL     1     -12.574  15.549  70.913  1.00  0.00    -0.512 C  
BRANCH   8   9
HETATM    9  C   UNL     1     -11.190  15.595  70.286  1.00  0.00    -0.357 C  
BRANCH   9  10
HETATM   10  C   UNL     1     -11.111  16.336  68.955  1.00  0.00    -0.331 C  
BRANCH  10  11
HETATM   11  C   UNL     1     -10.800  15.693  67.574  1.00  0.00    -0.316 C  
HETATM   12  O   UNL     1     -10.546  16.453  66.635  1.00  0.00    -0.302 OA 
BRANCH  11  13
HETATM   13  O   UNL     1     -11.022  14.333  67.374  1.00  0.00    -0.284 OA 
BRANCH  13  14
HETATM   14  C   UNL     1      -9.986  13.589  66.510  1.00  0.00    -0.287 C  
HETATM   15  C   UNL     1     -10.922  12.529  65.918  1.00  0.00    -0.314 C  
HETATM   16  C   UNL     1     -11.125  11.723  67.204  1.00  0.00    -0.350 C  
HETATM   17  C   UNL     1      -9.692  11.290  67.373  1.00  0.00    -0.190 C  
HETATM   18  C   UNL     1      -9.400   9.918  67.982  1.00  0.00    -0.140 C  
HETATM   19  C   UNL     1     -10.589   9.065  67.475  1.00  0.00    -0.306 C  
HETATM   20  C   UNL     1     -10.412   7.594  67.398  1.00  0.00    -0.367 C  
HETATM   21  C   UNL     1      -9.060   7.258  66.743  1.00  0.00    -0.172 C  
HETATM   22  C   UNL     1      -8.976   6.122  66.056  1.00  0.00    -0.156 C  
HETATM   23  C   UNL     1      -9.261   5.102  67.103  1.00  0.00    -0.117 C  
HETATM   24  O   UNL     1      -9.973   4.151  66.856  1.00  0.00    -0.210 OA 
HETATM   25  C   UNL     1      -8.605   5.388  68.489  1.00  0.00    -0.098 C  
HETATM   26  C   UNL     1      -8.077   6.888  68.813  1.00  0.00    -0.121 C  
HETATM   27  C   UNL     1      -7.852   7.792  67.534  1.00  0.00    -0.122 C  
HETATM   28  C   UNL     1      -6.465   7.384  67.014  1.00  0.00    -0.060 C  
HETATM   29  C   UNL     1      -8.064   9.390  67.378  1.00  0.00    -0.110 C  
HETATM   30  C   UNL     1      -6.994  10.547  67.480  1.00  0.00    -0.080 C  
HETATM   31  C   UNL     1      -7.485  11.938  66.722  1.00  0.00    -0.017 C  
HETATM   32  C   UNL     1      -8.834  12.582  67.339  1.00  0.00    -0.187 C  
HETATM   33  C   UNL     1      -8.348  13.382  68.549  1.00  0.00    -0.085 C  
ENDBRANCH  13  14
ENDBRANCH  11  13
ENDBRANCH  10  11
ENDBRANCH   9  10
ENDBRANCH   8   9
ENDBRANCH   7   8
ENDBRANCH   6   7
ENDBRANCH   5   6
ENDBRANCH   4   5
ENDBRANCH   3   4
ENDBRANCH   2   3
TORSDOF 11
ENDMDL
MODEL       25
REMARK 921   NORMALIZED FREE ENERGY PREDICTED BY IDOCK:   -5.33 KCAL/MOL
REMARK 922        TOTAL FREE ENERGY PREDICTED BY IDOCK:  -10.94 KCAL/MOL
REMARK 923 INTER-LIGAND FREE ENERGY PREDICTED BY IDOCK:   -9.28 KCAL/MOL
REMARK 924 INTRA-LIGAND FREE ENERGY PREDICTED BY IDOCK:   -1.65 KCAL/MOL
REMARK 927      BINDING AFFINITY PREDICTED BY RF-SCORE:    0.00 PKD
ROOT
HETATM    1  C   UNL     1     -11.517   5.397  72.867  1.00  0.00    -0.340 C  
HETATM    2  C   UNL     1     -11.028   6.481  71.938  1.00  0.00    -0.288 C  
ENDROOT
BRANCH   2   3
HETATM    3  C   UNL     1     -11.241   7.893  72.531  1.00  0.00    -0.436 C  
BRANCH   3   4
HETATM    4  C   UNL     1     -12.350   8.660  71.793  1.00  0.00    -0.402 C  
BRANCH   4   5
HETATM    5  C   UNL     1     -11.890  10.052  71.344  1.00  0.00    -0.447 C  
BRANCH   5   6
HETATM    6  C   UNL     1     -11.313  10.044  69.919  1.00  0.00    -0.306 C  
BRANCH   6   7
HETATM    7  C   UNL     1      -9.803   9.763  69.941  1.00  0.00    -0.279 C  
BRANCH   7   8
HETATM    8  C   UNL     1      -9.368   8.510  69.172  1.00  0.00    -0.153 C  
BRANCH   8   9
HETATM    9  C   UNL     1     -10.482   7.729  68.494  1.00  0.00    -0.202 C  
BRANCH   9  10
HETATM   10  C   UNL     1     -10.543   7.879  66.978  1.00  0.00    -0.381 C  
BRANCH  10  11
HETATM   11  C   UNL     1      -9.995   9.084  66.161  1.00  0.00    -0.241 C  
HETATM   12  O   UNL     1      -9.074   8.864  65.369  1.00  0.00    -0.206 OA 
BRANCH  11  13
HETATM   13  O   UNL     1     -10.389  10.379  66.484  1.00  0.00    -0.234 OA 
BRANCH  13  14
HETATM   14  C   UNL     1      -9.878  11.502  65.561  1.00  0.00    -0.234 C  
HETATM   15  C   UNL     1      -8.654  11.918  66.387  1.00  0.00    -0.077 C  
HETATM   16  C   UNL     1      -9.423  12.572  67.538  1.00  0.00    -0.185 C  
HETATM   17  C   UNL     1     -10.056  13.675  66.729  1.00  0.00    -0.269 C  
HETATM   18  C   UNL     1     -10.292  15.033  67.389  1.00  0.00    -0.238 C  
HETATM   19  C   UNL     1      -9.095  15.149  68.363  1.00  0.00    -0.185 C  
HETATM   20  C   UNL     1      -8.668  16.503  68.791  1.00  0.00    -0.259 C  
HETATM   21  C   UNL     1      -8.592  17.442  67.573  1.00  0.00    -0.221 C  
HETATM   22  C   UNL     1      -7.705  18.433  67.616  1.00  0.00    -0.236 C  
HETATM   23  C   UNL     1      -8.171  19.219  68.792  1.00  0.00    -0.355 C  
HETATM   24  O   UNL     1      -7.371  19.670  69.586  1.00  0.00    -0.252 OA 
HETATM   25  C   UNL     1      -9.720  19.367  68.907  1.00  0.00    -0.502 C  
HETATM   26  C   UNL     1     -10.669  18.353  68.067  1.00  0.00    -0.277 C  
HETATM   27  C   UNL     1      -9.944  17.626  66.863  1.00  0.00    -0.323 C  
HETATM   28  C   UNL     1      -9.978  18.651  65.719  1.00  0.00     0.059 C  
HETATM   29  C   UNL     1     -10.196  16.133  66.288  1.00  0.00    -0.333 C  
HETATM   30  C   UNL     1     -11.088  15.678  65.067  1.00  0.00    -0.399 C  
HETATM   31  C   UNL     1     -10.645  14.195  64.472  1.00  0.00    -0.285 C  
HETATM   32  C   UNL     1     -10.780  12.989  65.542  1.00  0.00    -0.299 C  
HETATM   33  C   UNL     1     -12.259  12.600  65.482  1.00  0.00    -0.501 C  
ENDBRANCH  13  14
ENDBRANCH  11  13
ENDBRANCH  10  11
ENDBRANCH   9  10
ENDBRANCH   8   9
ENDBRANCH   7   8
ENDBRANCH   6   7
ENDBRANCH   5   6
ENDBRANCH   4   5
ENDBRANCH   3   4
ENDBRANCH   2   3
TORSDOF 11
ENDMDL
MODEL       26
REMARK 921   NORMALIZED FREE ENERGY PREDICTED BY IDOCK:   -5.31 KCAL/MOL
REMARK 922        TOTAL FREE ENERGY PREDICTED BY IDOCK:  -10.90 KCAL/MOL
REMARK 923 INTER-LIGAND FREE ENERGY PREDICTED BY IDOCK:   -9.13 KCAL/MOL
REMARK 924 INTRA-LIGAND FREE ENERGY PREDICTED BY IDOCK:   -1.77 KCAL/MOL
REMARK 927      BINDING AFFINITY PREDICTED BY RF-SCORE:    0.00 PKD
ROOT
HETATM    1  C   UNL     1     -12.195  14.737  71.170  1.00  0.00    -0.388 C  
HETATM    2  C   UNL     1     -13.183  13.619  71.394  1.00  0.00    -0.358 C  
ENDROOT
BRANCH   2   3
HETATM    3  C   UNL     1     -12.615  12.247  70.963  1.00  0.00    -0.352 C  
BRANCH   3   4
HETATM    4  C   UNL     1     -13.046  11.125  71.921  1.00  0.00    -0.513 C  
BRANCH   4   5
HETATM    5  C   UNL     1     -12.909   9.737  71.284  1.00  0.00    -0.472 C  
BRANCH   5   6
HETATM    6  C   UNL     1     -11.500   9.149  71.464  1.00  0.00    -0.437 C  
BRANCH   6   7
HETATM    7  C   UNL     1     -11.479   7.657  71.095  1.00  0.00    -0.296 C  
BRANCH   7   8
HETATM    8  C   UNL     1     -10.120   7.128  70.620  1.00  0.00    -0.198 C  
BRANCH   8   9
HETATM    9  C   UNL     1     -10.164   6.121  69.482  1.00  0.00    -0.250 C  
BRANCH   9  10
HETATM   10  C   UNL     1     -10.954   6.568  68.257  1.00  0.00    -0.362 C  
BRANCH  10  11
HETATM   11  C   UNL     1     -10.379   7.333  67.032  1.00  0.00    -0.306 C  
HETATM   12  O   UNL     1      -9.579   6.732  66.309  1.00  0.00    -0.134 OA 
BRANCH  11  13
HETATM   13  O   UNL     1     -10.597   8.702  66.903  1.00  0.00    -0.287 OA 
BRANCH  13  14
HETATM   14  C   UNL     1     -10.120   9.586  68.071  1.00  0.00    -0.188 C  
HETATM   15  C   UNL     1     -11.332  10.523  68.139  1.00  0.00    -0.324 C  
HETATM   16  C   UNL     1     -11.054  11.279  66.836  1.00  0.00    -0.339 C  
HETATM   17  C   UNL     1      -9.745  11.892  67.259  1.00  0.00    -0.191 C  
HETATM   18  C   UNL     1      -9.377  13.282  66.738  1.00  0.00    -0.254 C  
HETATM   19  C   UNL     1     -10.755  13.980  66.637  1.00  0.00    -0.281 C  
HETATM   20  C   UNL     1     -10.794  15.462  66.681  1.00  0.00    -0.302 C  
HETATM   21  C   UNL     1      -9.899  15.980  67.822  1.00  0.00    -0.231 C  
HETATM   22  C   UNL     1     -10.244  17.127  68.402  1.00  0.00    -0.340 C  
HETATM   23  C   UNL     1     -10.167  18.086  67.266  1.00  0.00    -0.364 C  
HETATM   24  O   UNL     1     -11.018  18.940  67.123  1.00  0.00    -0.410 OA 
HETATM   25  C   UNL     1      -8.954  17.870  66.309  1.00  0.00    -0.192 C  
HETATM   26  C   UNL     1      -8.174  16.447  66.341  1.00  0.00    -0.366 C  
HETATM   27  C   UNL     1      -8.418  15.598  67.653  1.00  0.00    -0.169 C  
HETATM   28  C   UNL     1      -7.441  16.189  68.681  1.00  0.00    -0.179 C  
HETATM   29  C   UNL     1      -8.496  13.988  67.813  1.00  0.00    -0.184 C  
HETATM   30  C   UNL     1      -7.363  12.979  68.251  1.00  0.00    -0.116 C  
HETATM   31  C   UNL     1      -7.970  11.546  68.823  1.00  0.00    -0.107 C  
HETATM   32  C   UNL     1      -8.846  10.723  67.739  1.00  0.00    -0.130 C  
HETATM   33  C   UNL     1      -7.803   9.977  66.905  1.00  0.00    -0.106 C  
ENDBRANCH  13  14
ENDBRANCH  11  13
ENDBRANCH  10  11
ENDBRANCH   9  10
ENDBRANCH   8   9
ENDBRANCH   7   8
ENDBRANCH   6   7
ENDBRANCH   5   6
ENDBRANCH   4   5
ENDBRANCH   3   4
ENDBRANCH   2   3
TORSDOF 11
ENDMDL
MODEL       27
REMARK 921   NORMALIZED FREE ENERGY PREDICTED BY IDOCK:   -5.29 KCAL/MOL
REMARK 922        TOTAL FREE ENERGY PREDICTED BY IDOCK:  -10.88 KCAL/MOL
REMARK 923 INTER-LIGAND FREE ENERGY PREDICTED BY IDOCK:   -8.58 KCAL/MOL
REMARK 924 INTRA-LIGAND FREE ENERGY PREDICTED BY IDOCK:   -2.29 KCAL/MOL
REMARK 927      BINDING AFFINITY PREDICTED BY RF-SCORE:    0.00 PKD
ROOT
HETATM    1  C   UNL     1      -6.827  10.500  66.076  1.00  0.00    -0.134 C  
HETATM    2  C   UNL     1      -7.054   9.058  65.697  1.00  0.00    -0.081 C  
ENDROOT
BRANCH   2   3
HETATM    3  C   UNL     1      -8.313   8.881  64.816  1.00  0.00    -0.184 C  
BRANCH   3   4
HETATM    4  C   UNL     1      -8.271   9.785  63.574  1.00  0.00    -0.156 C  
BRANCH   4   5
HETATM    5  C   UNL     1      -9.639  10.404  63.263  1.00  0.00    -0.353 C  
BRANCH   5   6
HETATM    6  C   UNL     1     -10.390  10.831  64.535  1.00  0.00    -0.401 C  
BRANCH   6   7
HETATM    7  C   UNL     1     -10.789  12.313  64.462  1.00  0.00    -0.355 C  
BRANCH   7   8
HETATM    8  C   UNL     1     -12.267  12.599  64.754  1.00  0.00    -0.528 C  
BRANCH   8   9
HETATM    9  C   UNL     1     -12.545  13.787  65.661  1.00  0.00    -0.551 C  
BRANCH   9  10
HETATM   10  C   UNL     1     -11.523  14.001  66.772  1.00  0.00    -0.379 C  
BRANCH  10  11
HETATM   11  C   UNL     1     -11.846  14.192  68.281  1.00  0.00    -0.356 C  
HETATM   12  O   UNL     1     -12.053  15.343  68.679  1.00  0.00    -0.260 OA 
BRANCH  11  13
HETATM   13  O   UNL     1     -11.686  13.130  69.166  1.00  0.00    -0.287 OA 
BRANCH  13  14
HETATM   14  C   UNL     1     -11.913  11.718  68.592  1.00  0.00    -0.239 C  
HETATM   15  C   UNL     1     -12.781  11.161  69.727  1.00  0.00    -0.007 C  
HETATM   16  C   UNL     1     -11.671  11.067  70.778  1.00  0.00    -0.286 C  
HETATM   17  C   UNL     1     -10.827  10.048  70.058  1.00  0.00    -0.352 C  
HETATM   18  C   UNL     1     -10.043   9.024  70.878  1.00  0.00    -0.329 C  
HETATM   19  C   UNL     1     -10.968   8.789  72.098  1.00  0.00    -0.404 C  
HETATM   20  C   UNL     1     -10.835   7.513  72.842  1.00  0.00    -0.425 C  
HETATM   21  C   UNL     1     -10.764   6.331  71.856  1.00  0.00    -0.271 C  
HETATM   22  C   UNL     1     -11.241   5.159  72.267  1.00  0.00    -0.123 C  
HETATM   23  C   UNL     1     -10.363   4.857  73.432  1.00  0.00    -0.192 C  
HETATM   24  O   UNL     1     -10.831   4.389  74.449  1.00  0.00    -0.262 OA 
HETATM   25  C   UNL     1      -8.859   5.217  73.227  1.00  0.00    -0.118 C  
HETATM   26  C   UNL     1      -8.452   6.239  72.033  1.00  0.00    -0.123 C  
HETATM   27  C   UNL     1      -9.553   6.401  70.910  1.00  0.00    -0.189 C  
HETATM   28  C   UNL     1      -9.341   5.192  69.986  1.00  0.00    -0.201 C  
HETATM   29  C   UNL     1      -9.918   7.717  70.039  1.00  0.00    -0.187 C  
HETATM   30  C   UNL     1      -9.431   8.115  68.590  1.00  0.00    -0.147 C  
HETATM   31  C   UNL     1     -10.439   9.206  67.854  1.00  0.00    -0.293 C  
HETATM   32  C   UNL     1     -10.568  10.615  68.638  1.00  0.00    -0.229 C  
HETATM   33  C   UNL     1      -9.340  11.408  68.186  1.00  0.00    -0.181 C  
ENDBRANCH  13  14
ENDBRANCH  11  13
ENDBRANCH  10  11
ENDBRANCH   9  10
ENDBRANCH   8   9
ENDBRANCH   7   8
ENDBRANCH   6   7
ENDBRANCH   5   6
ENDBRANCH   4   5
ENDBRANCH   3   4
ENDBRANCH   2   3
TORSDOF 11
ENDMDL
MODEL       28
REMARK 921   NORMALIZED FREE ENERGY PREDICTED BY IDOCK:   -5.29 KCAL/MOL
REMARK 922        TOTAL FREE ENERGY PREDICTED BY IDOCK:  -10.87 KCAL/MOL
REMARK 923 INTER-LIGAND FREE ENERGY PREDICTED BY IDOCK:   -8.91 KCAL/MOL
REMARK 924 INTRA-LIGAND FREE ENERGY PREDICTED BY IDOCK:   -1.96 KCAL/MOL
REMARK 927      BINDING AFFINITY PREDICTED BY RF-SCORE:    0.00 PKD
ROOT
HETATM    1  C   UNL     1     -11.372  11.931  63.936  1.00  0.00    -0.509 C  
HETATM    2  C   UNL     1     -12.053  13.077  64.641  1.00  0.00    -0.463 C  
ENDROOT
BRANCH   2   3
HETATM    3  C   UNL     1     -11.140  13.730  65.703  1.00  0.00    -0.297 C  
BRANCH   3   4
HETATM    4  C   UNL     1     -10.582  15.080  65.225  1.00  0.00    -0.418 C  
BRANCH   4   5
HETATM    5  C   UNL     1     -10.103  15.954  66.390  1.00  0.00    -0.306 C  
BRANCH   5   6
HETATM    6  C   UNL     1     -10.987  15.798  67.638  1.00  0.00    -0.302 C  
BRANCH   6   7
HETATM    7  C   UNL     1     -10.287  16.371  68.880  1.00  0.00    -0.270 C  
BRANCH   7   8
HETATM    8  C   UNL     1     -10.993  16.083  70.210  1.00  0.00    -0.360 C  
BRANCH   8   9
HETATM    9  C   UNL     1     -12.368  15.444  70.106  1.00  0.00    -0.395 C  
BRANCH   9  10
HETATM   10  C   UNL     1     -12.958  14.966  71.428  1.00  0.00    -0.427 C  
BRANCH  10  11
HETATM   11  C   UNL     1     -13.233  13.487  71.819  1.00  0.00    -0.404 C  
HETATM   12  O   UNL     1     -14.160  13.268  72.605  1.00  0.00    -0.744 OA 
BRANCH  11  13
HETATM   13  O   UNL     1     -12.326  12.493  71.462  1.00  0.00    -0.105 OA 
BRANCH  13  14
HETATM   14  C   UNL     1     -12.655  11.689  70.189  1.00  0.00    -0.033 C  
HETATM   15  C   UNL     1     -13.014  10.359  70.862  1.00  0.00    -0.475 C  
HETATM   16  C   UNL     1     -11.595   9.984  71.300  1.00  0.00    -0.430 C  
HETATM   17  C   UNL     1     -11.007   9.865  69.918  1.00  0.00    -0.321 C  
HETATM   18  C   UNL     1      -9.914   8.825  69.667  1.00  0.00    -0.191 C  
HETATM   19  C   UNL     1     -10.317   7.675  70.622  1.00  0.00    -0.205 C  
HETATM   20  C   UNL     1      -9.842   6.306  70.309  1.00  0.00    -0.199 C  
HETATM   21  C   UNL     1     -10.058   6.001  68.814  1.00  0.00    -0.210 C  
HETATM   22  C   UNL     1     -10.276   4.733  68.471  1.00  0.00    -0.054 C  
HETATM   23  C   UNL     1      -9.019   4.070  68.913  1.00  0.00    -0.116 C  
HETATM   24  O   UNL     1      -9.055   2.988  69.462  1.00  0.00    -0.103 OA 
HETATM   25  C   UNL     1      -7.718   4.885  68.637  1.00  0.00    -0.077 C  
HETATM   26  C   UNL     1      -7.838   6.474  68.331  1.00  0.00    -0.106 C  
HETATM   27  C   UNL     1      -9.280   6.946  67.883  1.00  0.00    -0.124 C  
HETATM   28  C   UNL     1      -9.340   6.623  66.382  1.00  0.00    -0.175 C  
HETATM   29  C   UNL     1     -10.019   8.355  68.186  1.00  0.00    -0.224 C  
HETATM   30  C   UNL     1     -10.116   9.640  67.273  1.00  0.00    -0.267 C  
HETATM   31  C   UNL     1     -11.391  10.618  67.683  1.00  0.00    -0.284 C  
HETATM   32  C   UNL     1     -11.317  11.199  69.191  1.00  0.00    -0.340 C  
HETATM   33  C   UNL     1     -10.390  12.410  69.080  1.00  0.00     0.023 C  
ENDBRANCH  13  14
ENDBRANCH  11  13
ENDBRANCH  10  11
ENDBRANCH   9  10
ENDBRANCH   8   9
ENDBRANCH   7   8
ENDBRANCH   6   7
ENDBRANCH   5   6
ENDBRANCH   4   5
ENDBRANCH   3   4
ENDBRANCH   2   3
TORSDOF 11
ENDMDL
MODEL       29
REMARK 921   NORMALIZED FREE ENERGY PREDICTED BY IDOCK:   -5.26 KCAL/MOL
REMARK 922        TOTAL FREE ENERGY PREDICTED BY IDOCK:  -10.83 KCAL/MOL
REMARK 923 INTER-LIGAND FREE ENERGY PREDICTED BY IDOCK:   -9.26 KCAL/MOL
REMARK 924 INTRA-LIGAND FREE ENERGY PREDICTED BY IDOCK:   -1.57 KCAL/MOL
REMARK 927      BINDING AFFINITY PREDICTED BY RF-SCORE:    0.00 PKD
ROOT
HETATM    1  C   UNL     1     -13.250   9.980  71.701  1.00  0.00    -0.518 C  
HETATM    2  C   UNL     1     -12.545   8.646  71.673  1.00  0.00    -0.381 C  
ENDROOT
BRANCH   2   3
HETATM    3  C   UNL     1     -11.058   8.768  72.079  1.00  0.00    -0.441 C  
BRANCH   3   4
HETATM    4  C   UNL     1     -10.591   7.560  72.906  1.00  0.00    -0.390 C  
BRANCH   4   5
HETATM    5  C   UNL     1     -11.076   6.231  72.314  1.00  0.00    -0.311 C  
BRANCH   5   6
HETATM    6  C   UNL     1      -9.916   5.367  71.793  1.00  0.00    -0.235 C  
BRANCH   6   7
HETATM    7  C   UNL     1      -9.729   5.556  70.280  1.00  0.00    -0.242 C  
BRANCH   7   8
HETATM    8  C   UNL     1     -11.016   5.861  69.503  1.00  0.00    -0.438 C  
BRANCH   8   9
HETATM    9  C   UNL     1     -10.846   6.689  68.240  1.00  0.00    -0.322 C  
BRANCH   9  10
HETATM   10  C   UNL     1     -10.402   8.130  68.469  1.00  0.00    -0.230 C  
BRANCH  10  11
HETATM   11  C   UNL     1     -10.281   9.229  67.376  1.00  0.00    -0.243 C  
HETATM   12  O   UNL     1     -10.336   8.869  66.196  1.00  0.00    -0.187 OA 
BRANCH  11  13
HETATM   13  O   UNL     1      -9.906  10.522  67.729  1.00  0.00    -0.161 OA 
BRANCH  13  14
HETATM   14  C   UNL     1     -10.621  11.670  66.991  1.00  0.00    -0.237 C  
HETATM   15  C   UNL     1      -9.428  12.175  66.171  1.00  0.00    -0.231 C  
HETATM   16  C   UNL     1      -8.647  12.784  67.339  1.00  0.00    -0.194 C  
HETATM   17  C   UNL     1      -9.662  13.835  67.706  1.00  0.00    -0.230 C  
HETATM   18  C   UNL     1      -9.174  15.179  68.244  1.00  0.00    -0.188 C  
HETATM   19  C   UNL     1      -7.841  15.383  67.484  1.00  0.00    -0.193 C  
HETATM   20  C   UNL     1      -7.332  16.767  67.321  1.00  0.00    -0.206 C  
HETATM   21  C   UNL     1      -8.472  17.700  66.872  1.00  0.00    -0.261 C  
HETATM   22  C   UNL     1      -8.148  18.749  66.120  1.00  0.00    -0.221 C  
HETATM   23  C   UNL     1      -7.240  19.510  67.023  1.00  0.00    -0.215 C  
HETATM   24  O   UNL     1      -6.228  20.021  66.588  1.00  0.00    -0.180 OA 
HETATM   25  C   UNL     1      -7.689  19.554  68.516  1.00  0.00    -0.389 C  
HETATM   26  C   UNL     1      -8.779  18.471  69.039  1.00  0.00    -0.076 C  
HETATM   27  C   UNL     1      -9.622  17.786  67.890  1.00  0.00    -0.280 C  
HETATM   28  C   UNL     1     -10.735  18.797  67.575  1.00  0.00    -0.474 C  
HETATM   29  C   UNL     1     -10.202  16.274  67.829  1.00  0.00    -0.270 C  
HETATM   30  C   UNL     1     -11.645  15.750  68.196  1.00  0.00    -0.259 C  
HETATM   31  C   UNL     1     -11.997  14.296  67.480  1.00  0.00    -0.411 C  
HETATM   32  C   UNL     1     -11.008  13.092  67.915  1.00  0.00    -0.271 C  
HETATM   33  C   UNL     1     -11.578  12.603  69.248  1.00  0.00    -0.376 C  
ENDBRANCH  13  14
ENDBRANCH  11  13
ENDBRANCH  10  11
ENDBRANCH   9  10
ENDBRANCH   8   9
ENDBRANCH   7   8
ENDBRANCH   6   7
ENDBRANCH   5   6
ENDBRANCH   4   5
ENDBRANCH   3   4
ENDBRANCH   2   3
TORSDOF 11
ENDMDL
MODEL       30
REMARK 921   NORMALIZED FREE ENERGY PREDICTED BY IDOCK:   -5.25 KCAL/MOL
REMARK 922        TOTAL FREE ENERGY PREDICTED BY IDOCK:  -10.81 KCAL/MOL
REMARK 923 INTER-LIGAND FREE ENERGY PREDICTED BY IDOCK:   -9.34 KCAL/MOL
REMARK 924 INTRA-LIGAND FREE ENERGY PREDICTED BY IDOCK:   -1.47 KCAL/MOL
REMARK 927      BINDING AFFINITY PREDICTED BY RF-SCORE:    0.00 PKD
ROOT
HETATM    1  C   UNL     1      -9.687  20.547  67.328  1.00  0.00    -0.600 C  
HETATM    2  C   UNL     1     -10.771  19.516  67.133  1.00  0.00    -0.599 C  
ENDROOT
BRANCH   2   3
HETATM    3  C   UNL     1     -10.532  18.654  65.872  1.00  0.00    -0.395 C  
BRANCH   3   4
HETATM    4  C   UNL     1     -10.006  17.255  66.229  1.00  0.00    -0.311 C  
BRANCH   4   5
HETATM    5  C   UNL     1      -8.474  17.197  66.236  1.00  0.00    -0.279 C  
BRANCH   5   6
HETATM    6  C   UNL     1      -7.920  16.557  67.519  1.00  0.00    -0.176 C  
BRANCH   6   7
HETATM    7  C   UNL     1      -8.831  16.859  68.718  1.00  0.00    -0.255 C  
BRANCH   7   8
HETATM    8  C   UNL     1      -9.474  15.627  69.369  1.00  0.00    -0.279 C  
BRANCH   8   9
HETATM    9  C   UNL     1     -10.950  15.752  69.708  1.00  0.00    -0.316 C  
BRANCH   9  10
HETATM   10  C   UNL     1     -11.903  15.258  68.625  1.00  0.00    -0.329 C  
BRANCH  10  11
HETATM   11  C   UNL     1     -11.593  14.156  67.574  1.00  0.00    -0.367 C  
HETATM   12  O   UNL     1     -12.217  14.191  66.509  1.00  0.00    -0.445 OA 
BRANCH  11  13
HETATM   13  O   UNL     1     -10.806  13.063  67.924  1.00  0.00    -0.231 OA 
BRANCH  13  14
HETATM   14  C   UNL     1     -11.394  11.670  67.626  1.00  0.00    -0.295 C  
HETATM   15  C   UNL     1     -12.156  11.472  68.942  1.00  0.00    -0.270 C  
HETATM   16  C   UNL     1     -10.929  11.280  69.838  1.00  0.00    -0.096 C  
HETATM   17  C   UNL     1     -10.429  10.015  69.190  1.00  0.00    -0.238 C  
HETATM   18  C   UNL     1      -9.735   8.964  70.057  1.00  0.00    -0.187 C  
HETATM   19  C   UNL     1     -10.476   9.100  71.410  1.00  0.00    -0.414 C  
HETATM   20  C   UNL     1     -10.474   7.937  72.329  1.00  0.00    -0.322 C  
HETATM   21  C   UNL     1     -10.797   6.648  71.551  1.00  0.00    -0.277 C  
HETATM   22  C   UNL     1     -11.419   5.672  72.210  1.00  0.00    -0.278 C  
HETATM   23  C   UNL     1     -10.438   5.345  73.281  1.00  0.00    -0.226 C  
HETATM   24  O   UNL     1     -10.815   5.130  74.415  1.00  0.00    -0.323 OA 
HETATM   25  C   UNL     1      -8.947   5.339  72.823  1.00  0.00    -0.122 C  
HETATM   26  C   UNL     1      -8.550   6.079  71.434  1.00  0.00    -0.129 C  
HETATM   27  C   UNL     1      -9.767   6.326  70.455  1.00  0.00    -0.189 C  
HETATM   28  C   UNL     1      -9.949   4.987  69.723  1.00  0.00    -0.319 C  
HETATM   29  C   UNL     1     -10.007   7.562  69.435  1.00  0.00    -0.178 C  
HETATM   30  C   UNL     1      -9.695   7.647  67.889  1.00  0.00    -0.174 C  
HETATM   31  C   UNL     1     -10.579   8.822  67.124  1.00  0.00    -0.303 C  
HETATM   32  C   UNL     1     -10.301  10.318  67.674  1.00  0.00    -0.264 C  
HETATM   33  C   UNL     1      -9.032  10.757  66.940  1.00  0.00    -0.147 C  
ENDBRANCH  13  14
ENDBRANCH  11  13
ENDBRANCH  10  11
ENDBRANCH   9  10
ENDBRANCH   8   9
ENDBRANCH   7   8
ENDBRANCH   6   7
ENDBRANCH   5   6
ENDBRANCH   4   5
ENDBRANCH   3   4
ENDBRANCH   2   3
TORSDOF 11
ENDMDL
MODEL       31
REMARK 921   NORMALIZED FREE ENERGY PREDICTED BY IDOCK:   -5.24 KCAL/MOL
REMARK 922        TOTAL FREE ENERGY PREDICTED BY IDOCK:  -10.79 KCAL/MOL
REMARK 923 INTER-LIGAND FREE ENERGY PREDICTED BY IDOCK:   -8.63 KCAL/MOL
REMARK 924 INTRA-LIGAND FREE ENERGY PREDICTED BY IDOCK:   -2.16 KCAL/MOL
REMARK 927      BINDING AFFINITY PREDICTED BY RF-SCORE:    0.00 PKD
ROOT
HETATM    1  C   UNL     1      -9.468   3.982  63.958  1.00  0.00    -0.158 C  
HETATM    2  C   UNL     1     -10.599   4.126  64.946  1.00  0.00    -0.171 C  
ENDROOT
BRANCH   2   3
HETATM    3  C   UNL     1     -10.173   4.918  66.204  1.00  0.00    -0.309 C  
BRANCH   3   4
HETATM    4  C   UNL     1      -8.988   4.254  66.923  1.00  0.00    -0.128 C  
BRANCH   4   5
HETATM    5  C   UNL     1      -9.270   4.026  68.413  1.00  0.00    -0.204 C  
BRANCH   5   6
HETATM    6  C   UNL     1      -8.212   4.682  69.314  1.00  0.00    -0.077 C  
BRANCH   6   7
HETATM    7  C   UNL     1      -8.388   4.240  70.775  1.00  0.00    -0.091 C  
BRANCH   7   8
HETATM    8  C   UNL     1      -9.794   3.747  71.136  1.00  0.00    -0.213 C  
BRANCH   8   9
HETATM    9  C   UNL     1     -10.084   3.604  72.621  1.00  0.00    -0.231 C  
BRANCH   9  10
HETATM   10  C   UNL     1     -11.047   4.640  73.192  1.00  0.00    -0.371 C  
BRANCH  10  11
HETATM   11  C   UNL     1     -10.774   6.166  73.311  1.00  0.00    -0.260 C  
HETATM   12  O   UNL     1     -10.393   6.593  74.405  1.00  0.00    -0.357 OA 
BRANCH  11  13
HETATM   13  O   UNL     1     -11.161   7.023  72.285  1.00  0.00    -0.236 OA 
BRANCH  13  14
HETATM   14  C   UNL     1     -10.064   7.432  71.283  1.00  0.00    -0.188 C  
HETATM   15  C   UNL     1      -9.829   8.860  71.792  1.00  0.00    -0.386 C  
HETATM   16  C   UNL     1     -11.155   9.450  71.303  1.00  0.00    -0.446 C  
HETATM   17  C   UNL     1     -10.910   9.247  69.830  1.00  0.00    -0.252 C  
HETATM   18  C   UNL     1     -11.470  10.267  68.839  1.00  0.00    -0.190 C  
HETATM   19  C   UNL     1     -11.382  11.593  69.634  1.00  0.00    -0.308 C  
HETATM   20  C   UNL     1     -11.326  12.864  68.873  1.00  0.00    -0.335 C  
HETATM   21  C   UNL     1     -10.315  12.744  67.717  1.00  0.00    -0.222 C  
HETATM   22  C   UNL     1      -9.689  13.853  67.331  1.00  0.00    -0.234 C  
HETATM   23  C   UNL     1     -10.821  14.709  66.882  1.00  0.00    -0.305 C  
HETATM   24  O   UNL     1     -10.845  15.892  67.157  1.00  0.00    -0.319 OA 
HETATM   25  C   UNL     1     -11.934  13.958  66.087  1.00  0.00    -0.449 C  
HETATM   26  C   UNL     1     -12.013  12.340  66.188  1.00  0.00    -0.323 C  
HETATM   27  C   UNL     1     -10.683  11.652  66.698  1.00  0.00    -0.310 C  
HETATM   28  C   UNL     1      -9.794  11.560  65.449  1.00  0.00    -0.271 C  
HETATM   29  C   UNL     1     -10.522  10.318  67.604  1.00  0.00    -0.285 C  
HETATM   30  C   UNL     1     -10.244   8.834  67.142  1.00  0.00    -0.346 C  
HETATM   31  C   UNL     1      -9.601   7.899  68.351  1.00  0.00    -0.155 C  
HETATM   32  C   UNL     1     -10.560   7.747  69.646  1.00  0.00    -0.242 C  
HETATM   33  C   UNL     1     -11.530   6.628  69.262  1.00  0.00    -0.253 C  
ENDBRANCH  13  14
ENDBRANCH  11  13
ENDBRANCH  10  11
ENDBRANCH   9  10
ENDBRANCH   8   9
ENDBRANCH   7   8
ENDBRANCH   6   7
ENDBRANCH   5   6
ENDBRANCH   4   5
ENDBRANCH   3   4
ENDBRANCH   2   3
TORSDOF 11
ENDMDL
MODEL       32
REMARK 921   NORMALIZED FREE ENERGY PREDICTED BY IDOCK:   -5.21 KCAL/MOL
REMARK 922        TOTAL FREE ENERGY PREDICTED BY IDOCK:  -10.74 KCAL/MOL
REMARK 923 INTER-LIGAND FREE ENERGY PREDICTED BY IDOCK:   -8.29 KCAL/MOL
REMARK 924 INTRA-LIGAND FREE ENERGY PREDICTED BY IDOCK:   -2.45 KCAL/MOL
REMARK 927      BINDING AFFINITY PREDICTED BY RF-SCORE:    0.00 PKD
ROOT
HETATM    1  C   UNL     1      -8.206  10.034  64.898  1.00  0.00    -0.154 C  
HETATM    2  C   UNL     1      -9.413   9.979  63.994  1.00  0.00    -0.299 C  
ENDROOT
BRANCH   2   3
HETATM    3  C   UNL     1      -9.958  11.389  63.669  1.00  0.00    -0.402 C  
BRANCH   3   4
HETATM    4  C   UNL     1     -11.360  11.609  64.258  1.00  0.00    -0.361 C  
BRANCH   4   5
HETATM    5  C   UNL     1     -12.153  12.670  63.484  1.00  0.00    -0.648 C  
BRANCH   5   6
HETATM    6  C   UNL     1     -12.247  14.001  64.248  1.00  0.00    -0.453 C  
BRANCH   6   7
HETATM    7  C   UNL     1     -12.093  13.776  65.759  1.00  0.00    -0.458 C  
BRANCH   7   8
HETATM    8  C   UNL     1     -10.971  14.584  66.422  1.00  0.00    -0.324 C  
BRANCH   8   9
HETATM    9  C   UNL     1     -11.381  15.430  67.617  1.00  0.00    -0.292 C  
BRANCH   9  10
HETATM   10  C   UNL     1     -11.207  14.754  68.973  1.00  0.00    -0.286 C  
BRANCH  10  11
HETATM   11  C   UNL     1     -12.037  13.550  69.502  1.00  0.00    -0.297 C  
HETATM   12  O   UNL     1     -12.747  13.739  70.494  1.00  0.00    -0.298 OA 
BRANCH  11  13
HETATM   13  O   UNL     1     -11.805  12.272  69.000  1.00  0.00    -0.306 OA 
BRANCH  13  14
HETATM   14  C   UNL     1     -10.421  11.662  69.290  1.00  0.00     0.014 C  
HETATM   15  C   UNL     1     -10.021  11.342  67.845  1.00  0.00    -0.190 C  
HETATM   16  C   UNL     1     -11.006  10.189  67.632  1.00  0.00    -0.331 C  
HETATM   17  C   UNL     1     -10.430   9.266  68.675  1.00  0.00    -0.236 C  
HETATM   18  C   UNL     1     -10.469   7.758  68.431  1.00  0.00    -0.207 C  
HETATM   19  C   UNL     1     -10.305   7.661  66.894  1.00  0.00    -0.388 C  
HETATM   20  C   UNL     1      -9.771   6.399  66.326  1.00  0.00    -0.082 C  
HETATM   21  C   UNL     1      -8.542   5.935  67.130  1.00  0.00    -0.106 C  
HETATM   22  C   UNL     1      -7.608   5.245  66.480  1.00  0.00    -0.088 C  
HETATM   23  C   UNL     1      -8.364   4.042  66.034  1.00  0.00    -0.109 C  
HETATM   24  O   UNL     1      -8.198   3.590  64.920  1.00  0.00    -0.090 OA 
HETATM   25  C   UNL     1      -9.363   3.470  67.087  1.00  0.00    -0.229 C  
HETATM   26  C   UNL     1      -9.821   4.412  68.327  1.00  0.00    -0.132 C  
HETATM   27  C   UNL     1      -8.859   5.637  68.605  1.00  0.00    -0.109 C  
HETATM   28  C   UNL     1      -7.714   5.044  69.440  1.00  0.00    -0.068 C  
HETATM   29  C   UNL     1      -9.241   7.117  69.144  1.00  0.00    -0.139 C  
HETATM   30  C   UNL     1      -9.185   7.680  70.618  1.00  0.00    -0.162 C  
HETATM   31  C   UNL     1      -9.107   9.336  70.665  1.00  0.00    -0.309 C  
HETATM   32  C   UNL     1     -10.383  10.074  69.999  1.00  0.00    -0.323 C  
HETATM   33  C   UNL     1     -11.439  10.066  71.106  1.00  0.00    -0.432 C  
ENDBRANCH  13  14
ENDBRANCH  11  13
ENDBRANCH  10  11
ENDBRANCH   9  10
ENDBRANCH   8   9
ENDBRANCH   7   8
ENDBRANCH   6   7
ENDBRANCH   5   6
ENDBRANCH   4   5
ENDBRANCH   3   4
ENDBRANCH   2   3
TORSDOF 11
ENDMDL
MODEL       33
REMARK 921   NORMALIZED FREE ENERGY PREDICTED BY IDOCK:   -5.19 KCAL/MOL
REMARK 922        TOTAL FREE ENERGY PREDICTED BY IDOCK:  -10.71 KCAL/MOL
REMARK 923 INTER-LIGAND FREE ENERGY PREDICTED BY IDOCK:   -9.20 KCAL/MOL
REMARK 924 INTRA-LIGAND FREE ENERGY PREDICTED BY IDOCK:   -1.51 KCAL/MOL
REMARK 927      BINDING AFFINITY PREDICTED BY RF-SCORE:    0.00 PKD
ROOT
HETATM    1  C   UNL     1      -6.157  18.767  66.136  1.00  0.00    -0.207 C  
HETATM    2  C   UNL     1      -7.282  19.680  65.716  1.00  0.00    -0.327 C  
ENDROOT
BRANCH   2   3
HETATM    3  C   UNL     1      -8.079  20.214  66.928  1.00  0.00    -0.360 C  
BRANCH   3   4
HETATM    4  C   UNL     1      -9.588  19.969  66.772  1.00  0.00    -0.543 C  
BRANCH   4   5
HETATM    5  C   UNL     1     -10.290  19.802  68.125  1.00  0.00    -0.561 C  
BRANCH   5   6
HETATM    6  C   UNL     1      -9.759  18.592  68.913  1.00  0.00    -0.363 C  
BRANCH   6   7
HETATM    7  C   UNL     1     -10.278  17.278  68.311  1.00  0.00    -0.348 C  
BRANCH   7   8
HETATM    8  C   UNL     1      -9.191  16.336  67.780  1.00  0.00    -0.203 C  
BRANCH   8   9
HETATM    9  C   UNL     1      -9.009  16.319  66.271  1.00  0.00    -0.366 C  
BRANCH   9  10
HETATM   10  C   UNL     1     -10.227  15.854  65.481  1.00  0.00    -0.394 C  
BRANCH  10  11
HETATM   11  C   UNL     1     -10.754  14.394  65.397  1.00  0.00    -0.348 C  
HETATM   12  O   UNL     1     -11.628  14.149  64.560  1.00  0.00    -0.380 OA 
BRANCH  11  13
HETATM   13  O   UNL     1     -10.403  13.471  66.379  1.00  0.00    -0.278 OA 
BRANCH  13  14
HETATM   14  C   UNL     1     -11.137  12.117  66.342  1.00  0.00    -0.314 C  
HETATM   15  C   UNL     1     -11.812  12.201  67.716  1.00  0.00    -0.327 C  
HETATM   16  C   UNL     1     -10.544  12.024  68.556  1.00  0.00    -0.252 C  
HETATM   17  C   UNL     1     -10.212  10.630  68.089  1.00  0.00    -0.192 C  
HETATM   18  C   UNL     1      -9.554   9.658  69.069  1.00  0.00    -0.168 C  
HETATM   19  C   UNL     1     -10.175  10.074  70.425  1.00  0.00    -0.218 C  
HETATM   20  C   UNL     1     -10.210   9.071  71.516  1.00  0.00    -0.414 C  
HETATM   21  C   UNL     1     -10.708   7.718  70.975  1.00  0.00    -0.241 C  
HETATM   22  C   UNL     1     -11.365   6.924  71.816  1.00  0.00    -0.295 C  
HETATM   23  C   UNL     1     -10.340   6.666  72.865  1.00  0.00    -0.213 C  
HETATM   24  O   UNL     1     -10.649   6.666  74.039  1.00  0.00    -0.323 OA 
HETATM   25  C   UNL     1      -8.895   6.437  72.324  1.00  0.00    -0.135 C  
HETATM   26  C   UNL     1      -8.538   6.912  70.814  1.00  0.00    -0.144 C  
HETATM   27  C   UNL     1      -9.798   7.129  69.883  1.00  0.00    -0.174 C  
HETATM   28  C   UNL     1     -10.156   5.720  69.386  1.00  0.00    -0.277 C  
HETATM   29  C   UNL     1     -10.000   8.212  68.696  1.00  0.00    -0.201 C  
HETATM   30  C   UNL     1      -9.799   8.028  67.140  1.00  0.00    -0.274 C  
HETATM   31  C   UNL     1     -10.626   9.157  66.252  1.00  0.00     0.143 C  
HETATM   32  C   UNL     1     -10.172  10.683  66.539  1.00  0.00    -0.288 C  
HETATM   33  C   UNL     1      -8.928  10.872  65.669  1.00  0.00    -0.209 C  
ENDBRANCH  13  14
ENDBRANCH  11  13
ENDBRANCH  10  11
ENDBRANCH   9  10
ENDBRANCH   8   9
ENDBRANCH   7   8
ENDBRANCH   6   7
ENDBRANCH   5   6
ENDBRANCH   4   5
ENDBRANCH   3   4
ENDBRANCH   2   3
TORSDOF 11
ENDMDL
MODEL       34
REMARK 921   NORMALIZED FREE ENERGY PREDICTED BY IDOCK:   -5.17 KCAL/MOL
REMARK 922        TOTAL FREE ENERGY PREDICTED BY IDOCK:  -10.67 KCAL/MOL
REMARK 923 INTER-LIGAND FREE ENERGY PREDICTED BY IDOCK:   -8.28 KCAL/MOL
REMARK 924 INTRA-LIGAND FREE ENERGY PREDICTED BY IDOCK:   -2.39 KCAL/MOL
REMARK 927      BINDING AFFINITY PREDICTED BY RF-SCORE:    0.00 PKD
ROOT
HETATM    1  C   UNL     1      -9.713   3.771  72.669  1.00  0.00    -0.200 C  
HETATM    2  C   UNL     1      -9.834   3.607  71.174  1.00  0.00    -0.200 C  
ENDROOT
BRANCH   2   3
HETATM    3  C   UNL     1      -9.476   4.906  70.417  1.00  0.00    -0.233 C  
BRANCH   3   4
HETATM    4  C   UNL     1     -10.605   5.346  69.472  1.00  0.00    -0.316 C  
BRANCH   4   5
HETATM    5  C   UNL     1     -11.230   6.679  69.900  1.00  0.00    -0.421 C  
BRANCH   5   6
HETATM    6  C   UNL     1     -11.916   6.588  71.274  1.00  0.00    -0.364 C  
BRANCH   6   7
HETATM    7  C   UNL     1     -11.438   7.717  72.199  1.00  0.00    -0.361 C  
BRANCH   7   8
HETATM    8  C   UNL     1     -10.583   7.260  73.388  1.00  0.00    -0.435 C  
BRANCH   8   9
HETATM    9  C   UNL     1      -9.233   7.943  73.533  1.00  0.00    -0.340 C  
BRANCH   9  10
HETATM   10  C   UNL     1      -8.076   7.236  72.836  1.00  0.00    -0.124 C  
BRANCH  10  11
HETATM   11  C   UNL     1      -7.431   7.661  71.486  1.00  0.00    -0.079 C  
HETATM   12  O   UNL     1      -6.199   7.725  71.438  1.00  0.00    -0.035 OA 
BRANCH  11  13
HETATM   13  O   UNL     1      -8.230   8.156  70.460  1.00  0.00    -0.111 OA 
BRANCH  13  14
HETATM   14  C   UNL     1      -7.507   8.927  69.338  1.00  0.00    -0.077 C  
HETATM   15  C   UNL     1      -8.098  10.314  69.616  1.00  0.00    -0.157 C  
HETATM   16  C   UNL     1      -9.519  10.009  69.134  1.00  0.00    -0.214 C  
HETATM   17  C   UNL     1      -9.166   9.739  67.694  1.00  0.00    -0.143 C  
HETATM   18  C   UNL     1     -10.166  10.123  66.603  1.00  0.00    -0.287 C  
HETATM   19  C   UNL     1     -10.832  11.393  67.187  1.00  0.00    -0.316 C  
HETATM   20  C   UNL     1     -11.458  12.352  66.246  1.00  0.00    -0.423 C  
HETATM   21  C   UNL     1     -10.515  12.616  65.056  1.00  0.00    -0.331 C  
HETATM   22  C   UNL     1     -10.583  13.809  64.471  1.00  0.00    -0.405 C  
HETATM   23  C   UNL     1     -11.987  13.834  63.977  1.00  0.00    -0.408 C  
HETATM   24  O   UNL     1     -12.656  14.843  64.076  1.00  0.00    -0.832 OA 
HETATM   25  C   UNL     1     -12.493  12.486  63.376  1.00  0.00    -0.514 C  
HETATM   26  C   UNL     1     -11.683  11.122  63.718  1.00  0.00     0.437 C  
HETATM   27  C   UNL     1     -10.206  11.352  64.235  1.00  0.00    -0.367 C  
HETATM   28  C   UNL     1      -9.379  11.557  62.957  1.00  0.00    -0.293 C  
HETATM   29  C   UNL     1      -9.368  10.481  65.314  1.00  0.00    -0.258 C  
HETATM   30  C   UNL     1      -8.318   9.330  65.058  1.00  0.00    -0.160 C  
HETATM   31  C   UNL     1      -7.300   9.097  66.346  1.00  0.00    -0.092 C  
HETATM   32  C   UNL     1      -8.054   8.659  67.709  1.00  0.00    -0.107 C  
HETATM   33  C   UNL     1      -8.251   7.149  67.558  1.00  0.00    -0.117 C  
ENDBRANCH  13  14
ENDBRANCH  11  13
ENDBRANCH  10  11
ENDBRANCH   9  10
ENDBRANCH   8   9
ENDBRANCH   7   8
ENDBRANCH   6   7
ENDBRANCH   5   6
ENDBRANCH   4   5
ENDBRANCH   3   4
ENDBRANCH   2   3
TORSDOF 11
ENDMDL
MODEL       35
REMARK 921   NORMALIZED FREE ENERGY PREDICTED BY IDOCK:   -5.16 KCAL/MOL
REMARK 922        TOTAL FREE ENERGY PREDICTED BY IDOCK:  -10.66 KCAL/MOL
REMARK 923 INTER-LIGAND FREE ENERGY PREDICTED BY IDOCK:   -9.10 KCAL/MOL
REMARK 924 INTRA-LIGAND FREE ENERGY PREDICTED BY IDOCK:   -1.56 KCAL/MOL
REMARK 927      BINDING AFFINITY PREDICTED BY RF-SCORE:    0.00 PKD
ROOT
HETATM    1  C   UNL     1     -10.609  19.112  66.980  1.00  0.00    -0.551 C  
HETATM    2  C   UNL     1     -10.258  18.266  68.178  1.00  0.00    -0.406 C  
ENDROOT
BRANCH   2   3
HETATM    3  C   UNL     1     -10.278  16.755  67.847  1.00  0.00    -0.300 C  
BRANCH   3   4
HETATM    4  C   UNL     1      -9.456  16.436  66.589  1.00  0.00    -0.277 C  
BRANCH   4   5
HETATM    5  C   UNL     1     -10.141  15.391  65.700  1.00  0.00    -0.406 C  
BRANCH   5   6
HETATM    6  C   UNL     1     -11.146  16.024  64.723  1.00  0.00    -0.378 C  
BRANCH   6   7
HETATM    7  C   UNL     1     -12.304  15.058  64.427  1.00  0.00    -0.283 C  
BRANCH   7   8
HETATM    8  C   UNL     1     -12.439  13.890  65.412  1.00  0.00    -0.528 C  
BRANCH   8   9
HETATM    9  C   UNL     1     -12.636  12.518  64.787  1.00  0.00    -0.493 C  
BRANCH   9  10
HETATM   10  C   UNL     1     -11.648  12.167  63.680  1.00  0.00    -0.575 C  
BRANCH  10  11
HETATM   11  C   UNL     1     -10.123  11.929  63.865  1.00  0.00    -0.370 C  
HETATM   12  O   UNL     1      -9.470  11.611  62.866  1.00  0.00    -0.377 OA 
BRANCH  11  13
HETATM   13  O   UNL     1      -9.579  11.867  65.144  1.00  0.00    -0.212 OA 
BRANCH  13  14
HETATM   14  C   UNL     1      -8.805  10.582  65.500  1.00  0.00    -0.184 C  
HETATM   15  C   UNL     1     -10.010   9.653  65.694  1.00  0.00    -0.321 C  
HETATM   16  C   UNL     1     -10.512  10.274  67.001  1.00  0.00    -0.304 C  
HETATM   17  C   UNL     1      -9.303   9.939  67.835  1.00  0.00    -0.149 C  
HETATM   18  C   UNL     1      -9.494   9.614  69.317  1.00  0.00    -0.184 C  
HETATM   19  C   UNL     1     -10.873   8.911  69.333  1.00  0.00    -0.133 C  
HETATM   20  C   UNL     1     -11.178   7.992  70.456  1.00  0.00    -0.252 C  
HETATM   21  C   UNL     1      -9.981   7.056  70.712  1.00  0.00    -0.197 C  
HETATM   22  C   UNL     1     -10.241   5.845  71.199  1.00  0.00    -0.266 C  
HETATM   23  C   UNL     1     -10.881   6.165  72.505  1.00  0.00    -0.240 C  
HETATM   24  O   UNL     1     -11.852   5.542  72.882  1.00  0.00    -0.247 OA 
HETATM   25  C   UNL     1     -10.223   7.346  73.284  1.00  0.00    -0.386 C  
HETATM   26  C   UNL     1      -9.252   8.370  72.482  1.00  0.00    -0.338 C  
HETATM   27  C   UNL     1      -8.698   7.806  71.111  1.00  0.00    -0.141 C  
HETATM   28  C   UNL     1      -7.498   6.935  71.511  1.00  0.00    -0.086 C  
HETATM   29  C   UNL     1      -8.377   8.615  69.745  1.00  0.00    -0.123 C  
HETATM   30  C   UNL     1      -6.996   9.179  69.228  1.00  0.00    -0.053 C  
HETATM   31  C   UNL     1      -6.981   9.427  67.588  1.00  0.00    -0.081 C  
HETATM   32  C   UNL     1      -8.074  10.504  67.076  1.00  0.00    -0.118 C  
HETATM   33  C   UNL     1      -7.403  11.859  67.313  1.00  0.00    -0.146 C  
ENDBRANCH  13  14
ENDBRANCH  11  13
ENDBRANCH  10  11
ENDBRANCH   9  10
ENDBRANCH   8   9
ENDBRANCH   7   8
ENDBRANCH   6   7
ENDBRANCH   5   6
ENDBRANCH   4   5
ENDBRANCH   3   4
ENDBRANCH   2   3
TORSDOF 11
ENDMDL
MODEL       36
REMARK 921   NORMALIZED FREE ENERGY PREDICTED BY IDOCK:   -5.15 KCAL/MOL
REMARK 922        TOTAL FREE ENERGY PREDICTED BY IDOCK:  -10.65 KCAL/MOL
REMARK 923 INTER-LIGAND FREE ENERGY PREDICTED BY IDOCK:   -8.47 KCAL/MOL
REMARK 924 INTRA-LIGAND FREE ENERGY PREDICTED BY IDOCK:   -2.18 KCAL/MOL
REMARK 927      BINDING AFFINITY PREDICTED BY RF-SCORE:    0.00 PKD
ROOT
HETATM    1  C   UNL     1     -10.865   4.774  73.544  1.00  0.00    -0.369 C  
HETATM    2  C   UNL     1      -9.493   5.375  73.727  1.00  0.00    -0.138 C  
ENDROOT
BRANCH   2   3
HETATM    3  C   UNL     1      -9.539   6.919  73.786  1.00  0.00    -0.256 C  
BRANCH   3   4
HETATM    4  C   UNL     1     -10.842   7.475  73.188  1.00  0.00    -0.448 C  
BRANCH   4   5
HETATM    5  C   UNL     1     -10.578   8.520  72.097  1.00  0.00    -0.419 C  
BRANCH   5   6
HETATM    6  C   UNL     1     -11.534   8.371  70.903  1.00  0.00    -0.295 C  
BRANCH   6   7
HETATM    7  C   UNL     1     -11.958   6.905  70.721  1.00  0.00    -0.424 C  
BRANCH   7   8
HETATM    8  C   UNL     1     -11.259   6.169  69.572  1.00  0.00    -0.482 C  
BRANCH   8   9
HETATM    9  C   UNL     1     -10.003   5.398  69.946  1.00  0.00    -0.294 C  
BRANCH   9  10
HETATM   10  C   UNL     1      -8.698   6.164  69.759  1.00  0.00    -0.135 C  
BRANCH  10  11
HETATM   11  C   UNL     1      -8.309   7.005  68.510  1.00  0.00    -0.121 C  
HETATM   12  O   UNL     1      -7.852   6.401  67.536  1.00  0.00    -0.102 OA 
BRANCH  11  13
HETATM   13  O   UNL     1      -8.277   8.395  68.590  1.00  0.00    -0.120 OA 
BRANCH  13  14
HETATM   14  C   UNL     1      -8.318   9.160  67.254  1.00  0.00    -0.121 C  
HETATM   15  C   UNL     1      -7.191  10.159  67.544  1.00  0.00    -0.088 C  
HETATM   16  C   UNL     1      -7.946  10.992  68.584  1.00  0.00    -0.143 C  
HETATM   17  C   UNL     1      -9.026  11.495  67.662  1.00  0.00    -0.160 C  
HETATM   18  C   UNL     1      -9.597  12.895  67.886  1.00  0.00    -0.215 C  
HETATM   19  C   UNL     1      -8.370  13.678  68.415  1.00  0.00    -0.147 C  
HETATM   20  C   UNL     1      -8.358  15.152  68.254  1.00  0.00    -0.149 C  
HETATM   21  C   UNL     1      -8.789  15.531  66.825  1.00  0.00    -0.297 C  
HETATM   22  C   UNL     1      -8.287  16.650  66.308  1.00  0.00    -0.360 C  
HETATM   23  C   UNL     1      -8.800  17.685  67.247  1.00  0.00    -0.236 C  
HETATM   24  O   UNL     1      -8.084  18.595  67.609  1.00  0.00    -0.244 OA 
HETATM   25  C   UNL     1     -10.272  17.469  67.716  1.00  0.00    -0.349 C  
HETATM   26  C   UNL     1     -10.948  16.005  67.533  1.00  0.00    -0.261 C  
HETATM   27  C   UNL     1     -10.218  15.076  66.481  1.00  0.00    -0.281 C  
HETATM   28  C   UNL     1     -10.768  15.531  65.120  1.00  0.00    -0.460 C  
HETATM   29  C   UNL     1     -10.044  13.466  66.507  1.00  0.00    -0.280 C  
HETATM   30  C   UNL     1     -10.911  12.363  65.783  1.00  0.00    -0.312 C  
HETATM   31  C   UNL     1     -10.097  10.929  65.601  1.00  0.00    -0.318 C  
HETATM   32  C   UNL     1      -9.656  10.243  66.998  1.00  0.00    -0.205 C  
HETATM   33  C   UNL     1     -10.911   9.501  67.463  1.00  0.00    -0.239 C  
ENDBRANCH  13  14
ENDBRANCH  11  13
ENDBRANCH  10  11
ENDBRANCH   9  10
ENDBRANCH   8   9
ENDBRANCH   7   8
ENDBRANCH   6   7
ENDBRANCH   5   6
ENDBRANCH   4   5
ENDBRANCH   3   4
ENDBRANCH   2   3
TORSDOF 11
ENDMDL
MODEL       37
REMARK 921   NORMALIZED FREE ENERGY PREDICTED BY IDOCK:   -5.14 KCAL/MOL
REMARK 922        TOTAL FREE ENERGY PREDICTED BY IDOCK:  -10.63 KCAL/MOL
REMARK 923 INTER-LIGAND FREE ENERGY PREDICTED BY IDOCK:   -8.54 KCAL/MOL
REMARK 924 INTRA-LIGAND FREE ENERGY PREDICTED BY IDOCK:   -2.09 KCAL/MOL
REMARK 927      BINDING AFFINITY PREDICTED BY RF-SCORE:    0.00 PKD
ROOT
HETATM    1  C   UNL     1     -10.557  19.738  66.231  1.00  0.00    -0.572 C  
HETATM    2  C   UNL     1      -9.841  19.410  67.518  1.00  0.00    -0.448 C  
ENDROOT
BRANCH   2   3
HETATM    3  C   UNL     1      -8.445  18.797  67.265  1.00  0.00    -0.283 C  
BRANCH   3   4
HETATM    4  C   UNL     1      -8.034  17.832  68.387  1.00  0.00    -0.293 C  
BRANCH   4   5
HETATM    5  C   UNL     1      -7.288  16.604  67.850  1.00  0.00    -0.162 C  
BRANCH   5   6
HETATM    6  C   UNL     1      -8.160  15.337  67.869  1.00  0.00    -0.146 C  
BRANCH   6   7
HETATM    7  C   UNL     1      -9.551  15.639  68.447  1.00  0.00    -0.199 C  
BRANCH   7   8
HETATM    8  C   UNL     1     -10.713  15.458  67.462  1.00  0.00    -0.295 C  
BRANCH   8   9
HETATM    9  C   UNL     1     -10.501  16.041  66.074  1.00  0.00    -0.356 C  
BRANCH   9  10
HETATM   10  C   UNL     1     -10.375  15.011  64.956  1.00  0.00    -0.390 C  
BRANCH  10  11
HETATM   11  C   UNL     1     -11.380  13.862  64.661  1.00  0.00    -0.375 C  
HETATM   12  O   UNL     1     -12.543  14.175  64.393  1.00  0.00    -0.658 OA 
BRANCH  11  13
HETATM   13  O   UNL     1     -11.017  12.541  64.912  1.00  0.00    -0.283 OA 
BRANCH  13  14
HETATM   14  C   UNL     1      -9.943  12.317  65.993  1.00  0.00    -0.252 C  
HETATM   15  C   UNL     1      -9.131  11.237  65.269  1.00  0.00    -0.141 C  
HETATM   16  C   UNL     1     -10.164  10.114  65.396  1.00  0.00    -0.281 C  
HETATM   17  C   UNL     1     -10.150  10.025  66.900  1.00  0.00    -0.287 C  
HETATM   18  C   UNL     1     -10.360   8.664  67.563  1.00  0.00    -0.336 C  
HETATM   19  C   UNL     1      -9.696   7.693  66.556  1.00  0.00    -0.251 C  
HETATM   20  C   UNL     1      -9.223   6.380  67.057  1.00  0.00    -0.136 C  
HETATM   21  C   UNL     1      -8.445   6.566  68.373  1.00  0.00    -0.120 C  
HETATM   22  C   UNL     1      -7.477   5.693  68.643  1.00  0.00    -0.084 C  
HETATM   23  C   UNL     1      -8.227   4.408  68.714  1.00  0.00    -0.080 C  
HETATM   24  O   UNL     1      -7.767   3.400  68.218  1.00  0.00    -0.059 OA 
HETATM   25  C   UNL     1      -9.610   4.497  69.431  1.00  0.00    -0.264 C  
HETATM   26  C   UNL     1     -10.297   5.954  69.630  1.00  0.00    -0.313 C  
HETATM   27  C   UNL     1      -9.296   7.172  69.502  1.00  0.00    -0.148 C  
HETATM   28  C   UNL     1      -8.628   7.266  70.882  1.00  0.00    -0.136 C  
HETATM   29  C   UNL     1      -9.580   8.653  68.912  1.00  0.00    -0.159 C  
HETATM   30  C   UNL     1      -9.940   9.979  69.691  1.00  0.00    -0.263 C  
HETATM   31  C   UNL     1      -9.601  11.346  68.815  1.00  0.00    -0.139 C  
HETATM   32  C   UNL     1     -10.424  11.458  67.427  1.00  0.00    -0.239 C  
HETATM   33  C   UNL     1     -11.781  12.030  67.842  1.00  0.00    -0.393 C  
ENDBRANCH  13  14
ENDBRANCH  11  13
ENDBRANCH  10  11
ENDBRANCH   9  10
ENDBRANCH   8   9
ENDBRANCH   7   8
ENDBRANCH   6   7
ENDBRANCH   5   6
ENDBRANCH   4   5
ENDBRANCH   3   4
ENDBRANCH   2   3
TORSDOF 11
ENDMDL
MODEL       38
REMARK 921   NORMALIZED FREE ENERGY PREDICTED BY IDOCK:   -5.11 KCAL/MOL
REMARK 922        TOTAL FREE ENERGY PREDICTED BY IDOCK:  -10.58 KCAL/MOL
REMARK 923 INTER-LIGAND FREE ENERGY PREDICTED BY IDOCK:   -9.14 KCAL/MOL
REMARK 924 INTRA-LIGAND FREE ENERGY PREDICTED BY IDOCK:   -1.43 KCAL/MOL
REMARK 927      BINDING AFFINITY PREDICTED BY RF-SCORE:    0.00 PKD
ROOT
HETATM    1  C   UNL     1     -11.442   6.255  69.753  1.00  0.00    -0.449 C  
HETATM    2  C   UNL     1     -11.344   6.440  71.247  1.00  0.00    -0.361 C  
ENDROOT
BRANCH   2   3
HETATM    3  C   UNL     1     -11.815   7.845  71.689  1.00  0.00    -0.325 C  
BRANCH   3   4
HETATM    4  C   UNL     1     -11.018   8.959  70.993  1.00  0.00    -0.341 C  
BRANCH   4   5
HETATM    5  C   UNL     1      -9.611   9.119  71.581  1.00  0.00    -0.226 C  
BRANCH   5   6
HETATM    6  C   UNL     1      -8.552   9.381  70.498  1.00  0.00    -0.265 C  
BRANCH   6   7
HETATM    7  C   UNL     1      -8.639   8.329  69.382  1.00  0.00    -0.134 C  
BRANCH   7   8
HETATM    8  C   UNL     1      -8.075   8.776  68.028  1.00  0.00    -0.107 C  
BRANCH   8   9
HETATM    9  C   UNL     1      -9.092   8.940  66.909  1.00  0.00    -0.163 C  
BRANCH   9  10
HETATM   10  C   UNL     1     -10.496   9.318  67.367  1.00  0.00    -0.340 C  
BRANCH  10  11
HETATM   11  C   UNL     1     -10.998  10.759  67.667  1.00  0.00    -0.306 C  
HETATM   12  O   UNL     1     -12.104  10.878  68.201  1.00  0.00    -0.563 OA 
BRANCH  11  13
HETATM   13  O   UNL     1     -10.314  11.855  67.149  1.00  0.00    -0.206 OA 
BRANCH  13  14
HETATM   14  C   UNL     1     -11.115  13.165  67.019  1.00  0.00    -0.279 C  
HETATM   15  C   UNL     1     -10.362  13.760  65.823  1.00  0.00    -0.315 C  
HETATM   16  C   UNL     1      -9.060  14.078  66.565  1.00  0.00    -0.173 C  
HETATM   17  C   UNL     1      -9.641  15.086  67.522  1.00  0.00    -0.203 C  
HETATM   18  C   UNL     1      -8.777  16.266  67.967  1.00  0.00    -0.178 C  
HETATM   19  C   UNL     1      -7.917  16.547  66.711  1.00  0.00    -0.290 C  
HETATM   20  C   UNL     1      -7.346  17.906  66.542  1.00  0.00    -0.279 C  
HETATM   21  C   UNL     1      -8.421  18.970  66.831  1.00  0.00    -0.302 C  
HETATM   22  C   UNL     1      -8.326  20.130  66.186  1.00  0.00    -0.237 C  
HETATM   23  C   UNL     1      -7.012  20.644  66.661  1.00  0.00    -0.263 C  
HETATM   24  O   UNL     1      -6.243  21.177  65.886  1.00  0.00    -0.258 OA 
HETATM   25  C   UNL     1      -6.727  20.409  68.177  1.00  0.00    -0.326 C  
HETATM   26  C   UNL     1      -7.604  19.304  68.978  1.00  0.00    -0.354 C  
HETATM   27  C   UNL     1      -8.963  18.911  68.270  1.00  0.00    -0.364 C  
HETATM   28  C   UNL     1      -9.943  20.023  68.674  1.00  0.00    -0.432 C  
HETATM   29  C   UNL     1      -9.715  17.476  68.257  1.00  0.00    -0.311 C  
HETATM   30  C   UNL     1     -10.896  16.967  69.174  1.00  0.00    -0.237 C  
HETATM   31  C   UNL     1     -11.734  15.708  68.494  1.00  0.00    -0.339 C  
HETATM   32  C   UNL     1     -10.837  14.390  68.223  1.00  0.00    -0.250 C  
HETATM   33  C   UNL     1     -10.807  13.674  69.574  1.00  0.00     0.030 C  
ENDBRANCH  13  14
ENDBRANCH  11  13
ENDBRANCH  10  11
ENDBRANCH   9  10
ENDBRANCH   8   9
ENDBRANCH   7   8
ENDBRANCH   6   7
ENDBRANCH   5   6
ENDBRANCH   4   5
ENDBRANCH   3   4
ENDBRANCH   2   3
TORSDOF 11
ENDMDL
MODEL       39
REMARK 921   NORMALIZED FREE ENERGY PREDICTED BY IDOCK:   -5.11 KCAL/MOL
REMARK 922        TOTAL FREE ENERGY PREDICTED BY IDOCK:  -10.57 KCAL/MOL
REMARK 923 INTER-LIGAND FREE ENERGY PREDICTED BY IDOCK:   -8.09 KCAL/MOL
REMARK 924 INTRA-LIGAND FREE ENERGY PREDICTED BY IDOCK:   -2.48 KCAL/MOL
REMARK 927      BINDING AFFINITY PREDICTED BY RF-SCORE:    0.00 PKD
ROOT
HETATM    1  C   UNL     1      -8.761   8.181  72.342  1.00  0.00    -0.251 C  
HETATM    2  C   UNL     1     -10.235   8.495  72.262  1.00  0.00    -0.395 C  
ENDROOT
BRANCH   2   3
HETATM    3  C   UNL     1     -11.077   7.243  71.924  1.00  0.00    -0.270 C  
BRANCH   3   4
HETATM    4  C   UNL     1     -12.483   7.618  71.429  1.00  0.00    -0.359 C  
BRANCH   4   5
HETATM    5  C   UNL     1     -13.114   8.733  72.271  1.00  0.00    -0.458 C  
BRANCH   5   6
HETATM    6  C   UNL     1     -13.497   9.958  71.424  1.00  0.00    -0.379 C  
BRANCH   6   7
HETATM    7  C   UNL     1     -12.664  11.184  71.828  1.00  0.00    -0.396 C  
BRANCH   7   8
HETATM    8  C   UNL     1     -13.415  12.521  71.778  1.00  0.00    -0.280 C  
BRANCH   8   9
HETATM    9  C   UNL     1     -12.549  13.760  71.618  1.00  0.00    -0.370 C  
BRANCH   9  10
HETATM   10  C   UNL     1     -12.644  14.440  70.257  1.00  0.00    -0.380 C  
BRANCH  10  11
HETATM   11  C   UNL     1     -11.694  14.197  69.050  1.00  0.00    -0.324 C  
HETATM   12  O   UNL     1     -11.703  15.031  68.140  1.00  0.00    -0.333 OA 
BRANCH  11  13
HETATM   13  O   UNL     1     -11.036  12.978  68.918  1.00  0.00    -0.244 OA 
BRANCH  13  14
HETATM   14  C   UNL     1     -11.306  12.188  67.623  1.00  0.00    -0.314 C  
HETATM   15  C   UNL     1     -12.033  10.992  68.249  1.00  0.00    -0.113 C  
HETATM   16  C   UNL     1     -10.811  10.369  68.930  1.00  0.00    -0.273 C  
HETATM   17  C   UNL     1     -10.040  10.065  67.672  1.00  0.00    -0.232 C  
HETATM   18  C   UNL     1      -9.154   8.819  67.631  1.00  0.00    -0.145 C  
HETATM   19  C   UNL     1      -9.932   7.822  68.523  1.00  0.00    -0.193 C  
HETATM   20  C   UNL     1      -9.699   6.372  68.321  1.00  0.00    -0.127 C  
HETATM   21  C   UNL     1      -9.724   6.037  66.818  1.00  0.00    -0.182 C  
HETATM   22  C   UNL     1     -10.135   4.821  66.466  1.00  0.00    -0.286 C  
HETATM   23  C   UNL     1      -9.128   3.948  67.128  1.00  0.00    -0.156 C  
HETATM   24  O   UNL     1      -9.472   2.924  67.683  1.00  0.00    -0.205 OA 
HETATM   25  C   UNL     1      -7.661   4.476  67.064  1.00  0.00    -0.090 C  
HETATM   26  C   UNL     1      -7.406   6.040  66.713  1.00  0.00    -0.079 C  
HETATM   27  C   UNL     1      -8.629   6.761  66.016  1.00  0.00    -0.149 C  
HETATM   28  C   UNL     1      -8.506   6.378  64.533  1.00  0.00     0.107 C  
HETATM   29  C   UNL     1      -9.108   8.302  66.162  1.00  0.00    -0.238 C  
HETATM   30  C   UNL     1      -8.792   9.531  65.223  1.00  0.00    -0.220 C  
HETATM   31  C   UNL     1      -9.892  10.761  65.390  1.00  0.00    -0.317 C  
HETATM   32  C   UNL     1      -9.950  11.394  66.877  1.00  0.00    -0.235 C  
HETATM   33  C   UNL     1      -8.792  12.392  66.905  1.00  0.00    -0.205 C  
ENDBRANCH  13  14
ENDBRANCH  11  13
ENDBRANCH  10  11
ENDBRANCH   9  10
ENDBRANCH   8   9
ENDBRANCH   7   8
ENDBRANCH   6   7
ENDBRANCH   5   6
ENDBRANCH   4   5
ENDBRANCH   3   4
ENDBRANCH   2   3
TORSDOF 11
ENDMDL
MODEL       40
REMARK 921   NORMALIZED FREE ENERGY PREDICTED BY IDOCK:   -5.03 KCAL/MOL
REMARK 922        TOTAL FREE ENERGY PREDICTED BY IDOCK:  -10.45 KCAL/MOL
REMARK 923 INTER-LIGAND FREE ENERGY PREDICTED BY IDOCK:   -8.40 KCAL/MOL
REMARK 924 INTRA-LIGAND FREE ENERGY PREDICTED BY IDOCK:   -2.04 KCAL/MOL
REMARK 927      BINDING AFFINITY PREDICTED BY RF-SCORE:    0.00 PKD
ROOT
HETATM    1  C   UNL     1      -7.587  15.400  69.182  1.00  0.00    -0.198 C  
HETATM    2  C   UNL     1      -7.102  15.155  67.775  1.00  0.00    -0.185 C  
ENDROOT
BRANCH   2   3
HETATM    3  C   UNL     1      -6.349  16.376  67.199  1.00  0.00    -0.215 C  
BRANCH   3   4
HETATM    4  C   UNL     1      -7.234  17.194  66.245  1.00  0.00    -0.308 C  
BRANCH   4   5
HETATM    5  C   UNL     1      -7.199  18.693  66.565  1.00  0.00    -0.252 C  
BRANCH   5   6
HETATM    6  C   UNL     1      -8.116  19.059  67.744  1.00  0.00    -0.297 C  
BRANCH   6   7
HETATM    7  C   UNL     1      -9.589  18.800  67.392  1.00  0.00    -0.337 C  
BRANCH   7   8
HETATM    8  C   UNL     1     -10.380  18.025  68.453  1.00  0.00    -0.377 C  
BRANCH   8   9
HETATM    9  C   UNL     1     -10.755  16.598  68.086  1.00  0.00    -0.349 C  
BRANCH   9  10
HETATM   10  C   UNL     1     -10.778  16.302  66.591  1.00  0.00    -0.197 C  
BRANCH  10  11
HETATM   11  C   UNL     1     -10.384  14.954  65.924  1.00  0.00    -0.314 C  
HETATM   12  O   UNL     1     -10.549  14.850  64.705  1.00  0.00    -0.407 OA 
BRANCH  11  13
HETATM   13  O   UNL     1     -10.071  13.852  66.716  1.00  0.00    -0.255 OA 
BRANCH  13  14
HETATM   14  C   UNL     1     -10.706  12.510  66.306  1.00  0.00    -0.260 C  
HETATM   15  C   UNL     1     -11.659  12.350  67.496  1.00  0.00    -0.431 C  
HETATM   16  C   UNL     1     -10.588  12.059  68.552  1.00  0.00    -0.252 C  
HETATM   17  C   UNL     1     -10.090  10.769  67.952  1.00  0.00    -0.197 C  
HETATM   18  C   UNL     1      -9.601   9.661  68.883  1.00  0.00    -0.161 C  
HETATM   19  C   UNL     1     -10.515   9.832  70.121  1.00  0.00    -0.338 C  
HETATM   20  C   UNL     1     -10.724   8.660  71.005  1.00  0.00    -0.284 C  
HETATM   21  C   UNL     1     -11.023   7.408  70.160  1.00  0.00    -0.272 C  
HETATM   22  C   UNL     1     -11.798   6.471  70.702  1.00  0.00    -0.398 C  
HETATM   23  C   UNL     1     -11.004   6.061  71.893  1.00  0.00    -0.264 C  
HETATM   24  O   UNL     1     -11.552   5.859  72.958  1.00  0.00    -0.180 OA 
HETATM   25  C   UNL     1      -9.467   5.953  71.649  1.00  0.00    -0.166 C  
HETATM   26  C   UNL     1      -8.826   6.680  70.347  1.00  0.00    -0.152 C  
HETATM   27  C   UNL     1      -9.873   7.027  69.212  1.00  0.00    -0.159 C  
HETATM   28  C   UNL     1     -10.041   5.714  68.432  1.00  0.00    -0.224 C  
HETATM   29  C   UNL     1      -9.879   8.289  68.197  1.00  0.00    -0.198 C  
HETATM   30  C   UNL     1      -9.345   8.371  66.713  1.00  0.00    -0.235 C  
HETATM   31  C   UNL     1     -10.028   9.617  65.858  1.00  0.00    -0.351 C  
HETATM   32  C   UNL     1      -9.727  11.082  66.476  1.00  0.00    -0.230 C  
HETATM   33  C   UNL     1      -8.340  11.438  65.938  1.00  0.00     0.040 C  
ENDBRANCH  13  14
ENDBRANCH  11  13
ENDBRANCH  10  11
ENDBRANCH   9  10
ENDBRANCH   8   9
ENDBRANCH   7   8
ENDBRANCH   6   7
ENDBRANCH   5   6
ENDBRANCH   4   5
ENDBRANCH   3   4
ENDBRANCH   2   3
TORSDOF 11
ENDMDL
MODEL       41
REMARK 921   NORMALIZED FREE ENERGY PREDICTED BY IDOCK:   -5.02 KCAL/MOL
REMARK 922        TOTAL FREE ENERGY PREDICTED BY IDOCK:  -10.44 KCAL/MOL
REMARK 923 INTER-LIGAND FREE ENERGY PREDICTED BY IDOCK:   -8.70 KCAL/MOL
REMARK 924 INTRA-LIGAND FREE ENERGY PREDICTED BY IDOCK:   -1.74 KCAL/MOL
REMARK 927      BINDING AFFINITY PREDICTED BY RF-SCORE:    0.00 PKD
ROOT
HETATM    1  C   UNL     1     -10.810   1.686  73.203  1.00  0.00    -0.241 C  
HETATM    2  C   UNL     1     -10.039   2.742  72.450  1.00  0.00    -0.234 C  
ENDROOT
BRANCH   2   3
HETATM    3  C   UNL     1      -9.627   3.920  73.363  1.00  0.00    -0.137 C  
BRANCH   3   4
HETATM    4  C   UNL     1     -10.823   4.821  73.706  1.00  0.00    -0.379 C  
BRANCH   4   5
HETATM    5  C   UNL     1     -10.405   6.282  73.917  1.00  0.00    -0.318 C  
BRANCH   5   6
HETATM    6  C   UNL     1     -10.417   7.086  72.606  1.00  0.00    -0.254 C  
BRANCH   6   7
HETATM    7  C   UNL     1     -11.657   6.746  71.766  1.00  0.00    -0.336 C  
BRANCH   7   8
HETATM    8  C   UNL     1     -11.367   6.373  70.307  1.00  0.00    -0.468 C  
BRANCH   8   9
HETATM    9  C   UNL     1     -10.092   5.581  70.067  1.00  0.00    -0.311 C  
BRANCH   9  10
HETATM   10  C   UNL     1      -9.195   6.125  68.961  1.00  0.00    -0.126 C  
BRANCH  10  11
HETATM   11  C   UNL     1      -9.665   6.959  67.736  1.00  0.00    -0.129 C  
HETATM   12  O   UNL     1     -10.113   6.343  66.764  1.00  0.00    -0.172 OA 
BRANCH  11  13
HETATM   13  O   UNL     1      -9.381   8.320  67.671  1.00  0.00    -0.136 OA 
BRANCH  13  14
HETATM   14  C   UNL     1     -10.586   9.266  67.509  1.00  0.00    -0.262 C  
HETATM   15  C   UNL     1     -10.099  10.025  66.269  1.00  0.00    -0.310 C  
HETATM   16  C   UNL     1      -8.978  10.807  66.960  1.00  0.00    -0.148 C  
HETATM   17  C   UNL     1      -9.859  11.600  67.890  1.00  0.00    -0.189 C  
HETATM   18  C   UNL     1      -9.450  13.025  68.261  1.00  0.00    -0.208 C  
HETATM   19  C   UNL     1      -8.755  13.523  66.970  1.00  0.00    -0.197 C  
HETATM   20  C   UNL     1      -8.690  14.985  66.729  1.00  0.00    -0.293 C  
HETATM   21  C   UNL     1     -10.063  15.627  67.004  1.00  0.00    -0.253 C  
HETATM   22  C   UNL     1     -10.382  16.716  66.309  1.00  0.00    -0.323 C  
HETATM   23  C   UNL     1      -9.320  17.673  66.724  1.00  0.00    -0.278 C  
HETATM   24  O   UNL     1      -8.792  18.399  65.906  1.00  0.00    -0.491 OA 
HETATM   25  C   UNL     1      -8.953  17.626  68.240  1.00  0.00    -0.276 C  
HETATM   26  C   UNL     1      -9.386  16.326  69.111  1.00  0.00    -0.236 C  
HETATM   27  C   UNL     1     -10.534  15.455  68.458  1.00  0.00    -0.234 C  
HETATM   28  C   UNL     1     -11.832  16.181  68.843  1.00  0.00    -0.159 C  
HETATM   29  C   UNL     1     -10.745  13.851  68.526  1.00  0.00    -0.268 C  
HETATM   30  C   UNL     1     -11.666  13.012  69.497  1.00  0.00    -0.381 C  
HETATM   31  C   UNL     1     -12.027  11.510  68.894  1.00  0.00    -0.364 C  
HETATM   32  C   UNL     1     -10.733  10.570  68.652  1.00  0.00    -0.247 C  
HETATM   33  C   UNL     1     -10.441   9.974  70.031  1.00  0.00    -0.337 C  
ENDBRANCH  13  14
ENDBRANCH  11  13
ENDBRANCH  10  11
ENDBRANCH   9  10
ENDBRANCH   8   9
ENDBRANCH   7   8
ENDBRANCH   6   7
ENDBRANCH   5   6
ENDBRANCH   4   5
ENDBRANCH   3   4
ENDBRANCH   2   3
TORSDOF 11
ENDMDL
MODEL       42
REMARK 921   NORMALIZED FREE ENERGY PREDICTED BY IDOCK:   -5.00 KCAL/MOL
REMARK 922        TOTAL FREE ENERGY PREDICTED BY IDOCK:  -10.39 KCAL/MOL
REMARK 923 INTER-LIGAND FREE ENERGY PREDICTED BY IDOCK:   -8.37 KCAL/MOL
REMARK 924 INTRA-LIGAND FREE ENERGY PREDICTED BY IDOCK:   -2.02 KCAL/MOL
REMARK 927      BINDING AFFINITY PREDICTED BY RF-SCORE:    0.00 PKD
ROOT
HETATM    1  C   UNL     1     -10.097   4.669  71.120  1.00  0.00    -0.243 C  
HETATM    2  C   UNL     1     -10.291   5.468  69.854  1.00  0.00    -0.368 C  
ENDROOT
BRANCH   2   3
HETATM    3  C   UNL     1     -11.493   6.435  69.958  1.00  0.00    -0.496 C  
BRANCH   3   4
HETATM    4  C   UNL     1     -11.580   7.090  71.345  1.00  0.00    -0.329 C  
BRANCH   4   5
HETATM    5  C   UNL     1     -10.917   8.473  71.375  1.00  0.00    -0.329 C  
BRANCH   5   6
HETATM    6  C   UNL     1      -9.547   8.448  72.073  1.00  0.00    -0.344 C  
BRANCH   6   7
HETATM    7  C   UNL     1      -8.442   8.939  71.127  1.00  0.00    -0.250 C  
BRANCH   7   8
HETATM    8  C   UNL     1      -7.773   7.842  70.289  1.00  0.00    -0.089 C  
BRANCH   8   9
HETATM    9  C   UNL     1      -7.478   8.202  68.842  1.00  0.00    -0.089 C  
BRANCH   9  10
HETATM   10  C   UNL     1      -8.536   7.758  67.839  1.00  0.00    -0.122 C  
BRANCH  10  11
HETATM   11  C   UNL     1      -9.869   8.499  67.535  1.00  0.00    -0.177 C  
HETATM   12  O   UNL     1     -10.653   7.963  66.747  1.00  0.00    -0.326 OA 
BRANCH  11  13
HETATM   13  O   UNL     1     -10.050   9.809  67.969  1.00  0.00    -0.156 OA 
BRANCH  13  14
HETATM   14  C   UNL     1     -10.412  10.847  66.889  1.00  0.00    -0.249 C  
HETATM   15  C   UNL     1      -8.987  11.213  66.458  1.00  0.00    -0.185 C  
HETATM   16  C   UNL     1      -8.600  11.976  67.728  1.00  0.00    -0.157 C  
HETATM   17  C   UNL     1      -9.615  13.081  67.591  1.00  0.00    -0.206 C  
HETATM   18  C   UNL     1      -9.252  14.483  68.079  1.00  0.00    -0.190 C  
HETATM   19  C   UNL     1      -7.733  14.559  67.790  1.00  0.00    -0.167 C  
HETATM   20  C   UNL     1      -7.118  15.898  67.625  1.00  0.00    -0.185 C  
HETATM   21  C   UNL     1      -7.988  16.770  66.701  1.00  0.00    -0.306 C  
HETATM   22  C   UNL     1      -7.372  17.695  65.970  1.00  0.00    -0.301 C  
HETATM   23  C   UNL     1      -6.769  18.568  67.015  1.00  0.00    -0.192 C  
HETATM   24  O   UNL     1      -5.642  18.998  66.881  1.00  0.00    -0.153 OA 
HETATM   25  C   UNL     1      -7.683  18.833  68.251  1.00  0.00    -0.326 C  
HETATM   26  C   UNL     1      -8.947  17.850  68.518  1.00  0.00    -0.291 C  
HETATM   27  C   UNL     1      -9.403  17.016  67.253  1.00  0.00    -0.238 C  
HETATM   28  C   UNL     1     -10.287  17.984  66.452  1.00  0.00    -0.382 C  
HETATM   29  C   UNL     1     -10.018  15.519  67.202  1.00  0.00    -0.242 C  
HETATM   30  C   UNL     1     -11.531  15.070  67.130  1.00  0.00    -0.304 C  
HETATM   31  C   UNL     1     -11.712  13.532  66.537  1.00  0.00    -0.408 C  
HETATM   32  C   UNL     1     -10.996  12.392  67.434  1.00  0.00    -0.296 C  
HETATM   33  C   UNL     1     -12.002  12.108  68.551  1.00  0.00    -0.273 C  
ENDBRANCH  13  14
ENDBRANCH  11  13
ENDBRANCH  10  11
ENDBRANCH   9  10
ENDBRANCH   8   9
ENDBRANCH   7   8
ENDBRANCH   6   7
ENDBRANCH   5   6
ENDBRANCH   4   5
ENDBRANCH   3   4
ENDBRANCH   2   3
TORSDOF 11
ENDMDL
MODEL       43
REMARK 921   NORMALIZED FREE ENERGY PREDICTED BY IDOCK:   -4.99 KCAL/MOL
REMARK 922        TOTAL FREE ENERGY PREDICTED BY IDOCK:  -10.39 KCAL/MOL
REMARK 923 INTER-LIGAND FREE ENERGY PREDICTED BY IDOCK:   -8.10 KCAL/MOL
REMARK 924 INTRA-LIGAND FREE ENERGY PREDICTED BY IDOCK:   -2.28 KCAL/MOL
REMARK 927      BINDING AFFINITY PREDICTED BY RF-SCORE:    0.00 PKD
ROOT
HETATM    1  C   UNL     1      -7.574   7.726  63.294  1.00  0.00    -0.126 C  
HETATM    2  C   UNL     1      -8.073   6.491  64.002  1.00  0.00    -0.029 C  
ENDROOT
BRANCH   2   3
HETATM    3  C   UNL     1      -7.082   6.000  65.082  1.00  0.00    -0.064 C  
BRANCH   3   4
HETATM    4  C   UNL     1      -7.811   5.415  66.302  1.00  0.00    -0.100 C  
BRANCH   4   5
HETATM    5  C   UNL     1      -8.831   4.341  65.906  1.00  0.00    -0.120 C  
BRANCH   5   6
HETATM    6  C   UNL     1      -9.548   3.739  67.125  1.00  0.00    -0.218 C  
BRANCH   6   7
HETATM    7  C   UNL     1      -8.797   4.074  68.422  1.00  0.00    -0.141 C  
BRANCH   7   8
HETATM    8  C   UNL     1      -9.599   3.853  69.710  1.00  0.00    -0.271 C  
BRANCH   8   9
HETATM    9  C   UNL     1      -9.298   4.812  70.851  1.00  0.00    -0.209 C  
BRANCH   9  10
HETATM   10  C   UNL     1     -10.522   5.471  71.478  1.00  0.00    -0.298 C  
BRANCH  10  11
HETATM   11  C   UNL     1     -10.601   6.935  71.995  1.00  0.00    -0.212 C  
HETATM   12  O   UNL     1     -10.559   7.112  73.216  1.00  0.00    -0.295 OA 
BRANCH  11  13
HETATM   13  O   UNL     1     -10.928   7.965  71.117  1.00  0.00    -0.233 OA 
BRANCH  13  14
HETATM   14  C   UNL     1      -9.819   8.420  70.149  1.00  0.00    -0.181 C  
HETATM   15  C   UNL     1      -9.857   9.919  70.467  1.00  0.00    -0.122 C  
HETATM   16  C   UNL     1     -11.207  10.213  69.804  1.00  0.00    -0.325 C  
HETATM   17  C   UNL     1     -10.795   9.867  68.397  1.00  0.00    -0.263 C  
HETATM   18  C   UNL     1     -11.411  10.644  67.234  1.00  0.00    -0.122 C  
HETATM   19  C   UNL     1     -11.605  12.057  67.837  1.00  0.00    -0.405 C  
HETATM   20  C   UNL     1     -11.677  13.211  66.909  1.00  0.00    -0.441 C  
HETATM   21  C   UNL     1     -10.554  13.114  65.859  1.00  0.00    -0.290 C  
HETATM   22  C   UNL     1     -10.075  14.254  65.365  1.00  0.00    -0.379 C  
HETATM   23  C   UNL     1     -11.279  14.845  64.719  1.00  0.00    -0.386 C  
HETATM   24  O   UNL     1     -11.511  16.032  64.821  1.00  0.00    -0.312 OA 
HETATM   25  C   UNL     1     -12.181  13.823  63.960  1.00  0.00    -0.429 C  
HETATM   26  C   UNL     1     -12.018  12.241  64.283  1.00  0.00    -0.489 C  
HETATM   27  C   UNL     1     -10.651  11.855  64.980  1.00  0.00    -0.335 C  
HETATM   28  C   UNL     1      -9.645  11.753  63.824  1.00  0.00    -0.177 C  
HETATM   29  C   UNL     1     -10.370  10.694  66.075  1.00  0.00    -0.290 C  
HETATM   30  C   UNL     1      -9.823   9.230  65.849  1.00  0.00    -0.335 C  
HETATM   31  C   UNL     1      -9.160   8.578  67.222  1.00  0.00    -0.152 C  
HETATM   32  C   UNL     1     -10.201   8.435  68.452  1.00  0.00    -0.239 C  
HETATM   33  C   UNL     1     -10.945   7.130  68.161  1.00  0.00    -0.114 C  
ENDBRANCH  13  14
ENDBRANCH  11  13
ENDBRANCH  10  11
ENDBRANCH   9  10
ENDBRANCH   8   9
ENDBRANCH   7   8
ENDBRANCH   6   7
ENDBRANCH   5   6
ENDBRANCH   4   5
ENDBRANCH   3   4
ENDBRANCH   2   3
TORSDOF 11
ENDMDL
MODEL       44
REMARK 921   NORMALIZED FREE ENERGY PREDICTED BY IDOCK:   -4.95 KCAL/MOL
REMARK 922        TOTAL FREE ENERGY PREDICTED BY IDOCK:  -10.32 KCAL/MOL
REMARK 923 INTER-LIGAND FREE ENERGY PREDICTED BY IDOCK:   -8.15 KCAL/MOL
REMARK 924 INTRA-LIGAND FREE ENERGY PREDICTED BY IDOCK:   -2.18 KCAL/MOL
REMARK 927      BINDING AFFINITY PREDICTED BY RF-SCORE:    0.00 PKD
ROOT
HETATM    1  C   UNL     1     -13.228  12.923  71.918  1.00  0.00    -0.521 C  
HETATM    2  C   UNL     1     -13.234  11.415  71.879  1.00  0.00    -0.485 C  
ENDROOT
BRANCH   2   3
HETATM    3  C   UNL     1     -12.187  10.856  70.889  1.00  0.00    -0.485 C  
BRANCH   3   4
HETATM    4  C   UNL     1     -11.791   9.411  71.232  1.00  0.00    -0.435 C  
BRANCH   4   5
HETATM    5  C   UNL     1     -10.288   9.272  71.504  1.00  0.00    -0.364 C  
BRANCH   5   6
HETATM    6  C   UNL     1      -9.969   8.080  72.421  1.00  0.00    -0.317 C  
BRANCH   6   7
HETATM    7  C   UNL     1     -11.242   7.285  72.748  1.00  0.00    -0.348 C  
BRANCH   7   8
HETATM    8  C   UNL     1     -11.015   5.801  73.061  1.00  0.00    -0.314 C  
BRANCH   8   9
HETATM    9  C   UNL     1      -9.733   5.198  72.512  1.00  0.00    -0.181 C  
BRANCH   9  10
HETATM   10  C   UNL     1      -9.917   3.912  71.713  1.00  0.00    -0.234 C  
BRANCH  10  11
HETATM   11  C   UNL     1      -9.315   3.619  70.310  1.00  0.00    -0.171 C  
HETATM   12  O   UNL     1      -8.374   2.824  70.247  1.00  0.00    -0.041 OA 
BRANCH  11  13
HETATM   13  O   UNL     1      -9.689   4.397  69.217  1.00  0.00    -0.181 OA 
BRANCH  13  14
HETATM   14  C   UNL     1      -8.583   5.256  68.575  1.00  0.00    -0.094 C  
HETATM   15  C   UNL     1      -8.739   6.501  69.458  1.00  0.00    -0.134 C  
HETATM   16  C   UNL     1     -10.082   6.964  68.887  1.00  0.00    -0.174 C  
HETATM   17  C   UNL     1      -9.600   7.229  67.484  1.00  0.00    -0.171 C  
HETATM   18  C   UNL     1     -10.230   8.373  66.689  1.00  0.00    -0.335 C  
HETATM   19  C   UNL     1     -10.544   9.416  67.790  1.00  0.00    -0.317 C  
HETATM   20  C   UNL     1     -10.666  10.839  67.392  1.00  0.00    -0.317 C  
HETATM   21  C   UNL     1      -9.505  11.228  66.458  1.00  0.00    -0.213 C  
HETATM   22  C   UNL     1      -9.091  12.492  66.485  1.00  0.00    -0.177 C  
HETATM   23  C   UNL     1     -10.311  13.229  66.055  1.00  0.00    -0.289 C  
HETATM   24  O   UNL     1     -10.631  14.263  66.605  1.00  0.00    -0.275 OA 
HETATM   25  C   UNL     1     -11.113  12.549  64.902  1.00  0.00    -0.336 C  
HETATM   26  C   UNL     1     -10.848  10.980  64.581  1.00  0.00    -0.248 C  
HETATM   27  C   UNL     1      -9.482  10.419  65.149  1.00  0.00    -0.303 C  
HETATM   28  C   UNL     1      -8.433  10.839  64.108  1.00  0.00     0.017 C  
HETATM   29  C   UNL     1      -9.157   8.935  65.709  1.00  0.00    -0.276 C  
HETATM   30  C   UNL     1      -8.500   7.712  64.955  1.00  0.00    -0.027 C  
HETATM   31  C   UNL     1      -7.839   6.603  65.995  1.00  0.00    -0.104 C  
HETATM   32  C   UNL     1      -8.908   5.927  67.003  1.00  0.00    -0.112 C  
HETATM   33  C   UNL     1      -9.547   4.810  66.177  1.00  0.00    -0.185 C  
ENDBRANCH  13  14
ENDBRANCH  11  13
ENDBRANCH  10  11
ENDBRANCH   9  10
ENDBRANCH   8   9
ENDBRANCH   7   8
ENDBRANCH   6   7
ENDBRANCH   5   6
ENDBRANCH   4   5
ENDBRANCH   3   4
ENDBRANCH   2   3
TORSDOF 11
ENDMDL
MODEL       45
REMARK 921   NORMALIZED FREE ENERGY PREDICTED BY IDOCK:   -4.95 KCAL/MOL
REMARK 922        TOTAL FREE ENERGY PREDICTED BY IDOCK:  -10.32 KCAL/MOL
REMARK 923 INTER-LIGAND FREE ENERGY PREDICTED BY IDOCK:   -9.22 KCAL/MOL
REMARK 924 INTRA-LIGAND FREE ENERGY PREDICTED BY IDOCK:   -1.10 KCAL/MOL
REMARK 927      BINDING AFFINITY PREDICTED BY RF-SCORE:    0.00 PKD
ROOT
HETATM    1  C   UNL     1     -11.509   2.240  73.497  1.00  0.00    -0.291 C  
HETATM    2  C   UNL     1     -10.779   3.560  73.467  1.00  0.00    -0.307 C  
ENDROOT
BRANCH   2   3
HETATM    3  C   UNL     1      -9.983   3.753  72.156  1.00  0.00    -0.239 C  
BRANCH   3   4
HETATM    4  C   UNL     1      -9.968   5.222  71.708  1.00  0.00    -0.245 C  
BRANCH   4   5
HETATM    5  C   UNL     1     -10.527   5.401  70.291  1.00  0.00    -0.355 C  
BRANCH   5   6
HETATM    6  C   UNL     1     -11.633   6.467  70.229  1.00  0.00    -0.473 C  
BRANCH   6   7
HETATM    7  C   UNL     1     -12.185   6.764  71.632  1.00  0.00    -0.410 C  
BRANCH   7   8
HETATM    8  C   UNL     1     -12.029   8.217  72.094  1.00  0.00    -0.429 C  
BRANCH   8   9
HETATM    9  C   UNL     1     -10.833   8.967  71.529  1.00  0.00    -0.396 C  
BRANCH   9  10
HETATM   10  C   UNL     1     -11.173  10.043  70.504  1.00  0.00    -0.408 C  
BRANCH  10  11
HETATM   11  C   UNL     1     -10.567  10.164  69.077  1.00  0.00    -0.223 C  
HETATM   12  O   UNL     1     -10.658   9.182  68.333  1.00  0.00    -0.214 OA 
BRANCH  11  13
HETATM   13  O   UNL     1      -9.769  11.257  68.751  1.00  0.00    -0.205 OA 
BRANCH  13  14
HETATM   14  C   UNL     1     -10.374  12.281  67.772  1.00  0.00    -0.207 C  
HETATM   15  C   UNL     1      -9.107  12.578  66.962  1.00  0.00    -0.213 C  
HETATM   16  C   UNL     1      -8.368  13.356  68.055  1.00  0.00    -0.165 C  
HETATM   17  C   UNL     1      -9.346  14.497  68.157  1.00  0.00    -0.197 C  
HETATM   18  C   UNL     1      -8.820  15.895  68.481  1.00  0.00    -0.195 C  
HETATM   19  C   UNL     1      -7.433  15.902  67.792  1.00  0.00    -0.157 C  
HETATM   20  C   UNL     1      -6.841  17.211  67.422  1.00  0.00    -0.179 C  
HETATM   21  C   UNL     1      -7.900  18.094  66.735  1.00  0.00    -0.257 C  
HETATM   22  C   UNL     1      -7.473  18.975  65.834  1.00  0.00    -0.253 C  
HETATM   23  C   UNL     1      -6.584  19.848  66.648  1.00  0.00    -0.196 C  
HETATM   24  O   UNL     1      -5.521  20.229  66.202  1.00  0.00    -0.167 OA 
HETATM   25  C   UNL     1      -7.121  20.180  68.074  1.00  0.00    -0.319 C  
HETATM   26  C   UNL     1      -8.298  19.257  68.704  1.00  0.00    -0.407 C  
HETATM   27  C   UNL     1      -9.105  18.411  67.638  1.00  0.00    -0.282 C  
HETATM   28  C   UNL     1     -10.140  19.394  67.070  1.00  0.00    -0.492 C  
HETATM   29  C   UNL     1      -9.760  16.939  67.805  1.00  0.00    -0.250 C  
HETATM   30  C   UNL     1     -11.249  16.550  68.157  1.00  0.00    -0.241 C  
HETATM   31  C   UNL     1     -11.634  15.007  67.688  1.00  0.00    -0.327 C  
HETATM   32  C   UNL     1     -10.740  13.862  68.399  1.00  0.00    -0.267 C  
HETATM   33  C   UNL     1     -11.417  13.646  69.754  1.00  0.00    -0.256 C  
ENDBRANCH  13  14
ENDBRANCH  11  13
ENDBRANCH  10  11
ENDBRANCH   9  10
ENDBRANCH   8   9
ENDBRANCH   7   8
ENDBRANCH   6   7
ENDBRANCH   5   6
ENDBRANCH   4   5
ENDBRANCH   3   4
ENDBRANCH   2   3
TORSDOF 11
ENDMDL
MODEL       46
REMARK 921   NORMALIZED FREE ENERGY PREDICTED BY IDOCK:   -4.92 KCAL/MOL
REMARK 922        TOTAL FREE ENERGY PREDICTED BY IDOCK:  -10.26 KCAL/MOL
REMARK 923 INTER-LIGAND FREE ENERGY PREDICTED BY IDOCK:   -8.23 KCAL/MOL
REMARK 924 INTRA-LIGAND FREE ENERGY PREDICTED BY IDOCK:   -2.03 KCAL/MOL
REMARK 927      BINDING AFFINITY PREDICTED BY RF-SCORE:    0.00 PKD
ROOT
HETATM    1  C   UNL     1      -9.914   3.155  73.187  1.00  0.00    -0.194 C  
HETATM    2  C   UNL     1     -10.329   4.517  73.687  1.00  0.00    -0.244 C  
ENDROOT
BRANCH   2   3
HETATM    3  C   UNL     1     -11.347   5.196  72.742  1.00  0.00    -0.311 C  
BRANCH   3   4
HETATM    4  C   UNL     1     -11.138   6.717  72.676  1.00  0.00    -0.291 C  
BRANCH   4   5
HETATM    5  C   UNL     1     -10.351   7.245  73.882  1.00  0.00    -0.281 C  
BRANCH   5   6
HETATM    6  C   UNL     1      -9.017   7.889  73.470  1.00  0.00    -0.343 C  
BRANCH   6   7
HETATM    7  C   UNL     1      -7.880   6.856  73.500  1.00  0.00    -0.103 C  
BRANCH   7   8
HETATM    8  C   UNL     1      -6.657   7.217  72.647  1.00  0.00    -0.059 C  
BRANCH   8   9
HETATM    9  C   UNL     1      -6.579   6.547  71.285  1.00  0.00    -0.051 C  
BRANCH   9  10
HETATM   10  C   UNL     1      -7.651   5.495  71.023  1.00  0.00    -0.091 C  
BRANCH  10  11
HETATM   11  C   UNL     1      -8.542   5.401  69.752  1.00  0.00    -0.100 C  
HETATM   12  O   UNL     1      -8.898   4.277  69.386  1.00  0.00    -0.083 OA 
BRANCH  11  13
HETATM   13  O   UNL     1      -8.734   6.525  68.953  1.00  0.00    -0.127 OA 
BRANCH  13  14
HETATM   14  C   UNL     1      -9.998   7.360  69.234  1.00  0.00    -0.173 C  
HETATM   15  C   UNL     1     -10.625   7.278  67.837  1.00  0.00    -0.266 C  
HETATM   16  C   UNL     1      -9.613   8.183  67.128  1.00  0.00    -0.227 C  
HETATM   17  C   UNL     1      -9.926   9.440  67.898  1.00  0.00    -0.220 C  
HETATM   18  C   UNL     1      -9.824  10.788  67.185  1.00  0.00    -0.216 C  
HETATM   19  C   UNL     1     -10.252  10.439  65.739  1.00  0.00    -0.305 C  
HETATM   20  C   UNL     1     -10.786  11.527  64.885  1.00  0.00    -0.345 C  
HETATM   21  C   UNL     1     -11.817  12.359  65.672  1.00  0.00    -0.468 C  
HETATM   22  C   UNL     1     -12.800  12.932  64.982  1.00  0.00    -0.348 C  
HETATM   23  C   UNL     1     -12.051  13.843  64.072  1.00  0.00    -0.396 C  
HETATM   24  O   UNL     1     -12.380  13.956  62.908  1.00  0.00    -0.487 OA 
HETATM   25  C   UNL     1     -10.842  14.576  64.730  1.00  0.00    -0.410 C  
HETATM   26  C   UNL     1     -10.240  14.001  66.123  1.00  0.00    -0.308 C  
HETATM   27  C   UNL     1     -11.222  13.045  66.913  1.00  0.00    -0.331 C  
HETATM   28  C   UNL     1     -12.154  13.998  67.676  1.00  0.00    -0.344 C  
HETATM   29  C   UNL     1     -10.857  11.761  67.831  1.00  0.00    -0.255 C  
HETATM   30  C   UNL     1     -10.690  11.677  69.399  1.00  0.00    -0.080 C  
HETATM   31  C   UNL     1     -10.876  10.135  69.979  1.00  0.00    -0.361 C  
HETATM   32  C   UNL     1      -9.795   9.080  69.401  1.00  0.00    -0.183 C  
HETATM   33  C   UNL     1      -8.561   9.289  70.281  1.00  0.00    -0.234 C  
ENDBRANCH  13  14
ENDBRANCH  11  13
ENDBRANCH  10  11
ENDBRANCH   9  10
ENDBRANCH   8   9
ENDBRANCH   7   8
ENDBRANCH   6   7
ENDBRANCH   5   6
ENDBRANCH   4   5
ENDBRANCH   3   4
ENDBRANCH   2   3
TORSDOF 11
ENDMDL
MODEL       47
REMARK 921   NORMALIZED FREE ENERGY PREDICTED BY IDOCK:   -4.91 KCAL/MOL
REMARK 922        TOTAL FREE ENERGY PREDICTED BY IDOCK:  -10.24 KCAL/MOL
REMARK 923 INTER-LIGAND FREE ENERGY PREDICTED BY IDOCK:   -8.71 KCAL/MOL
REMARK 924 INTRA-LIGAND FREE ENERGY PREDICTED BY IDOCK:   -1.53 KCAL/MOL
REMARK 927      BINDING AFFINITY PREDICTED BY RF-SCORE:    0.00 PKD
ROOT
HETATM    1  C   UNL     1     -10.753   5.960  67.388  1.00  0.00    -0.370 C  
HETATM    2  C   UNL     1     -11.007   6.460  68.788  1.00  0.00    -0.404 C  
ENDROOT
BRANCH   2   3
HETATM    3  C   UNL     1     -10.313   5.580  69.853  1.00  0.00    -0.368 C  
BRANCH   3   4
HETATM    4  C   UNL     1     -10.966   5.735  71.236  1.00  0.00    -0.299 C  
BRANCH   4   5
HETATM    5  C   UNL     1     -12.183   6.667  71.199  1.00  0.00    -0.357 C  
BRANCH   5   6
HETATM    6  C   UNL     1     -12.109   7.767  72.271  1.00  0.00    -0.332 C  
BRANCH   6   7
HETATM    7  C   UNL     1     -10.665   8.259  72.451  1.00  0.00    -0.411 C  
BRANCH   7   8
HETATM    8  C   UNL     1     -10.103   9.059  71.270  1.00  0.00    -0.384 C  
BRANCH   8   9
HETATM    9  C   UNL     1      -8.597   8.981  71.074  1.00  0.00    -0.264 C  
BRANCH   9  10
HETATM   10  C   UNL     1      -8.139   8.918  69.621  1.00  0.00    -0.104 C  
BRANCH  10  11
HETATM   11  C   UNL     1      -8.737   9.739  68.444  1.00  0.00    -0.120 C  
HETATM   12  O   UNL     1      -8.882   9.162  67.362  1.00  0.00    -0.118 OA 
BRANCH  11  13
HETATM   13  O   UNL     1      -8.886  11.118  68.563  1.00  0.00    -0.151 OA 
BRANCH  13  14
HETATM   14  C   UNL     1      -9.117  11.899  67.255  1.00  0.00    -0.178 C  
HETATM   15  C   UNL     1      -7.801  12.687  67.240  1.00  0.00    -0.155 C  
HETATM   16  C   UNL     1      -8.132  13.621  68.408  1.00  0.00    -0.146 C  
HETATM   17  C   UNL     1      -9.301  14.314  67.758  1.00  0.00    -0.198 C  
HETATM   18  C   UNL     1      -9.556  15.788  68.074  1.00  0.00    -0.210 C  
HETATM   19  C   UNL     1      -8.125  16.343  68.273  1.00  0.00    -0.171 C  
HETATM   20  C   UNL     1      -7.902  17.795  68.074  1.00  0.00    -0.241 C  
HETATM   21  C   UNL     1      -8.593  18.262  66.779  1.00  0.00    -0.271 C  
HETATM   22  C   UNL     1      -8.048  19.286  66.127  1.00  0.00    -0.294 C  
HETATM   23  C   UNL     1      -8.139  20.380  67.133  1.00  0.00    -0.329 C  
HETATM   24  O   UNL     1      -7.213  21.150  67.290  1.00  0.00    -0.441 OA 
HETATM   25  C   UNL     1      -9.470  20.412  67.946  1.00  0.00    -0.352 C  
HETATM   26  C   UNL     1     -10.407  19.088  67.970  1.00  0.00    -0.472 C  
HETATM   27  C   UNL     1     -10.119  18.063  66.799  1.00  0.00    -0.357 C  
HETATM   28  C   UNL     1     -10.894  18.625  65.597  1.00  0.00    -0.016 C  
HETATM   29  C   UNL     1     -10.218  16.447  66.826  1.00  0.00    -0.285 C  
HETATM   30  C   UNL     1     -11.407  15.518  66.360  1.00  0.00    -0.005 C  
HETATM   31  C   UNL     1     -10.915  13.970  66.028  1.00  0.00    -0.298 C  
HETATM   32  C   UNL     1     -10.274  13.197  67.297  1.00  0.00    -0.243 C  
HETATM   33  C   UNL     1     -11.488  12.674  68.068  1.00  0.00    -0.366 C  
ENDBRANCH  13  14
ENDBRANCH  11  13
ENDBRANCH  10  11
ENDBRANCH   9  10
ENDBRANCH   8   9
ENDBRANCH   7   8
ENDBRANCH   6   7
ENDBRANCH   5   6
ENDBRANCH   4   5
ENDBRANCH   3   4
ENDBRANCH   2   3
TORSDOF 11
ENDMDL
MODEL       48
REMARK 921   NORMALIZED FREE ENERGY PREDICTED BY IDOCK:   -4.90 KCAL/MOL
REMARK 922        TOTAL FREE ENERGY PREDICTED BY IDOCK:  -10.24 KCAL/MOL
REMARK 923 INTER-LIGAND FREE ENERGY PREDICTED BY IDOCK:   -8.17 KCAL/MOL
REMARK 924 INTRA-LIGAND FREE ENERGY PREDICTED BY IDOCK:   -2.07 KCAL/MOL
REMARK 927      BINDING AFFINITY PREDICTED BY RF-SCORE:    0.00 PKD
ROOT
HETATM    1  C   UNL     1      -7.172   8.858  64.349  1.00  0.00    -0.094 C  
HETATM    2  C   UNL     1      -7.942   7.574  64.532  1.00  0.00    -0.122 C  
ENDROOT
BRANCH   2   3
HETATM    3  C   UNL     1      -7.686   6.937  65.917  1.00  0.00    -0.098 C  
BRANCH   3   4
HETATM    4  C   UNL     1      -8.753   5.888  66.269  1.00  0.00    -0.136 C  
BRANCH   4   5
HETATM    5  C   UNL     1      -8.135   4.594  66.812  1.00  0.00    -0.103 C  
BRANCH   5   6
HETATM    6  C   UNL     1      -8.351   4.435  68.326  1.00  0.00    -0.097 C  
BRANCH   6   7
HETATM    7  C   UNL     1      -9.489   3.444  68.614  1.00  0.00    -0.205 C  
BRANCH   7   8
HETATM    8  C   UNL     1      -9.267   2.540  69.833  1.00  0.00    -0.195 C  
BRANCH   8   9
HETATM    9  C   UNL     1      -8.620   3.203  71.039  1.00  0.00    -0.109 C  
BRANCH   9  10
HETATM   10  C   UNL     1      -9.592   3.656  72.123  1.00  0.00    -0.211 C  
BRANCH  10  11
HETATM   11  C   UNL     1     -10.449   4.953  72.091  1.00  0.00    -0.192 C  
HETATM   12  O   UNL     1     -11.369   5.050  72.909  1.00  0.00    -0.278 OA 
BRANCH  11  13
HETATM   13  O   UNL     1     -10.310   5.853  71.038  1.00  0.00    -0.205 OA 
BRANCH  13  14
HETATM   14  C   UNL     1     -11.501   6.796  70.778  1.00  0.00    -0.342 C  
HETATM   15  C   UNL     1     -11.520   6.700  69.248  1.00  0.00    -0.253 C  
HETATM   16  C   UNL     1     -10.233   7.492  68.998  1.00  0.00    -0.208 C  
HETATM   17  C   UNL     1     -10.715   8.802  69.565  1.00  0.00    -0.196 C  
HETATM   18  C   UNL     1     -10.216  10.106  68.941  1.00  0.00    -0.213 C  
HETATM   19  C   UNL     1     -10.057   9.727  67.448  1.00  0.00    -0.259 C  
HETATM   20  C   UNL     1     -10.106  10.814  66.441  1.00  0.00    -0.278 C  
HETATM   21  C   UNL     1     -11.286  11.758  66.738  1.00  0.00    -0.388 C  
HETATM   22  C   UNL     1     -11.855  12.375  65.705  1.00  0.00    -0.467 C  
HETATM   23  C   UNL     1     -10.727  13.183  65.165  1.00  0.00    -0.315 C  
HETATM   24  O   UNL     1     -10.551  13.269  63.967  1.00  0.00    -0.373 OA 
HETATM   25  C   UNL     1      -9.822  13.848  66.248  1.00  0.00    -0.318 C  
HETATM   26  C   UNL     1      -9.882  13.291  67.771  1.00  0.00    -0.224 C  
HETATM   27  C   UNL     1     -11.180  12.450  68.108  1.00  0.00    -0.313 C  
HETATM   28  C   UNL     1     -12.251  13.506  68.421  1.00  0.00    -0.150 C  
HETATM   29  C   UNL     1     -11.329  11.183  69.106  1.00  0.00    -0.340 C  
HETATM   30  C   UNL     1     -11.812  11.157  70.609  1.00  0.00    -0.403 C  
HETATM   31  C   UNL     1     -12.352   9.661  71.080  1.00  0.00    -0.396 C  
HETATM   32  C   UNL     1     -11.229   8.500  70.996  1.00  0.00    -0.312 C  
HETATM   33  C   UNL     1     -10.437   8.651  72.297  1.00  0.00    -0.376 C  
ENDBRANCH  13  14
ENDBRANCH  11  13
ENDBRANCH  10  11
ENDBRANCH   9  10
ENDBRANCH   8   9
ENDBRANCH   7   8
ENDBRANCH   6   7
ENDBRANCH   5   6
ENDBRANCH   4   5
ENDBRANCH   3   4
ENDBRANCH   2   3
TORSDOF 11
ENDMDL
MODEL       49
REMARK 921   NORMALIZED FREE ENERGY PREDICTED BY IDOCK:   -4.89 KCAL/MOL
REMARK 922        TOTAL FREE ENERGY PREDICTED BY IDOCK:  -10.22 KCAL/MOL
REMARK 923 INTER-LIGAND FREE ENERGY PREDICTED BY IDOCK:   -8.43 KCAL/MOL
REMARK 924 INTRA-LIGAND FREE ENERGY PREDICTED BY IDOCK:   -1.79 KCAL/MOL
REMARK 927      BINDING AFFINITY PREDICTED BY RF-SCORE:    0.00 PKD
ROOT
HETATM    1  C   UNL     1     -11.041   7.419  72.653  1.00  0.00    -0.378 C  
HETATM    2  C   UNL     1     -11.520   8.822  72.375  1.00  0.00    -0.301 C  
ENDROOT
BRANCH   2   3
HETATM    3  C   UNL     1     -12.968   8.844  71.834  1.00  0.00    -0.436 C  
BRANCH   3   4
HETATM    4  C   UNL     1     -13.660  10.188  72.108  1.00  0.00    -0.295 C  
BRANCH   4   5
HETATM    5  C   UNL     1     -12.790  11.382  71.694  1.00  0.00    -0.497 C  
BRANCH   5   6
HETATM    6  C   UNL     1     -13.518  12.724  71.874  1.00  0.00    -0.452 C  
BRANCH   6   7
HETATM    7  C   UNL     1     -12.564  13.901  71.622  1.00  0.00    -0.387 C  
BRANCH   7   8
HETATM    8  C   UNL     1     -12.907  14.762  70.400  1.00  0.00    -0.323 C  
BRANCH   8   9
HETATM    9  C   UNL     1     -11.722  15.346  69.648  1.00  0.00    -0.355 C  
BRANCH   9  10
HETATM   10  C   UNL     1     -11.740  15.119  68.140  1.00  0.00    -0.323 C  
BRANCH  10  11
HETATM   11  C   UNL     1     -10.490  14.973  67.227  1.00  0.00    -0.265 C  
HETATM   12  O   UNL     1      -9.989  16.007  66.776  1.00  0.00    -0.243 OA 
BRANCH  11  13
HETATM   13  O   UNL     1     -10.105  13.715  66.773  1.00  0.00    -0.258 OA 
BRANCH  13  14
HETATM   14  C   UNL     1      -9.513  12.756  67.825  1.00  0.00    -0.205 C  
HETATM   15  C   UNL     1      -8.375  12.180  66.974  1.00  0.00    -0.173 C  
HETATM   16  C   UNL     1      -9.252  11.354  66.029  1.00  0.00    -0.229 C  
HETATM   17  C   UNL     1      -9.810  10.420  67.071  1.00  0.00    -0.234 C  
HETATM   18  C   UNL     1     -10.113   8.973  66.681  1.00  0.00    -0.355 C  
HETATM   19  C   UNL     1      -9.013   8.668  65.635  1.00  0.00    -0.231 C  
HETATM   20  C   UNL     1      -8.634   7.252  65.409  1.00  0.00    -0.047 C  
HETATM   21  C   UNL     1      -8.448   6.534  66.759  1.00  0.00    -0.113 C  
HETATM   22  C   UNL     1      -7.572   5.533  66.807  1.00  0.00    -0.088 C  
HETATM   23  C   UNL     1      -8.151   4.567  65.832  1.00  0.00    -0.102 C  
HETATM   24  O   UNL     1      -7.431   3.970  65.058  1.00  0.00    -0.074 OA 
HETATM   25  C   UNL     1      -9.704   4.432  65.888  1.00  0.00    -0.214 C  
HETATM   26  C   UNL     1     -10.566   5.594  66.624  1.00  0.00    -0.361 C  
HETATM   27  C   UNL     1      -9.728   6.502  67.612  1.00  0.00    -0.137 C  
HETATM   28  C   UNL     1      -9.657   5.690  68.914  1.00  0.00    -0.168 C  
HETATM   29  C   UNL     1      -9.918   8.077  67.941  1.00  0.00    -0.223 C  
HETATM   30  C   UNL     1     -10.689   8.753  69.142  1.00  0.00    -0.150 C  
HETATM   31  C   UNL     1     -10.186  10.307  69.429  1.00  0.00    -0.255 C  
HETATM   32  C   UNL     1     -10.416  11.313  68.184  1.00  0.00    -0.215 C  
HETATM   33  C   UNL     1     -11.881  11.737  68.312  1.00  0.00    -0.340 C  
ENDBRANCH  13  14
ENDBRANCH  11  13
ENDBRANCH  10  11
ENDBRANCH   9  10
ENDBRANCH   8   9
ENDBRANCH   7   8
ENDBRANCH   6   7
ENDBRANCH   5   6
ENDBRANCH   4   5
ENDBRANCH   3   4
ENDBRANCH   2   3
TORSDOF 11
ENDMDL
MODEL       50
REMARK 921   NORMALIZED FREE ENERGY PREDICTED BY IDOCK:   -4.87 KCAL/MOL
REMARK 922        TOTAL FREE ENERGY PREDICTED BY IDOCK:  -10.18 KCAL/MOL
REMARK 923 INTER-LIGAND FREE ENERGY PREDICTED BY IDOCK:   -9.15 KCAL/MOL
REMARK 924 INTRA-LIGAND FREE ENERGY PREDICTED BY IDOCK:   -1.03 KCAL/MOL
REMARK 927      BINDING AFFINITY PREDICTED BY RF-SCORE:    0.00 PKD
ROOT
HETATM    1  C   UNL     1     -10.873  19.224  67.342  1.00  0.00    -0.554 C  
HETATM    2  C   UNL     1      -9.821  18.993  68.398  1.00  0.00    -0.454 C  
ENDROOT
BRANCH   2   3
HETATM    3  C   UNL     1      -9.669  17.495  68.748  1.00  0.00    -0.298 C  
BRANCH   3   4
HETATM    4  C   UNL     1     -10.771  16.643  68.099  1.00  0.00    -0.349 C  
BRANCH   4   5
HETATM    5  C   UNL     1     -11.521  15.786  69.126  1.00  0.00    -0.383 C  
BRANCH   5   6
HETATM    6  C   UNL     1     -11.043  16.047  70.564  1.00  0.00    -0.370 C  
BRANCH   6   7
HETATM    7  C   UNL     1     -12.211  15.943  71.556  1.00  0.00    -0.525 C  
BRANCH   7   8
HETATM    8  C   UNL     1     -13.331  14.983  71.138  1.00  0.00    -0.510 C  
BRANCH   8   9
HETATM    9  C   UNL     1     -13.357  13.643  71.855  1.00  0.00    -0.510 C  
BRANCH   9  10
HETATM   10  C   UNL     1     -12.544  12.539  71.188  1.00  0.00    -0.349 C  
BRANCH  10  11
HETATM   11  C   UNL     1     -12.782  11.011  71.346  1.00  0.00    -0.429 C  
HETATM   12  O   UNL     1     -13.471  10.637  72.300  1.00  0.00    -0.333 OA 
BRANCH  11  13
HETATM   13  O   UNL     1     -12.061  10.111  70.568  1.00  0.00    -0.283 OA 
BRANCH  13  14
HETATM   14  C   UNL     1     -11.033   9.233  71.309  1.00  0.00    -0.351 C  
HETATM   15  C   UNL     1      -9.878   9.364  70.308  1.00  0.00    -0.290 C  
HETATM   16  C   UNL     1     -10.502   8.517  69.195  1.00  0.00    -0.217 C  
HETATM   17  C   UNL     1     -10.544   7.219  69.959  1.00  0.00    -0.247 C  
HETATM   18  C   UNL     1     -10.342   5.907  69.200  1.00  0.00    -0.303 C  
HETATM   19  C   UNL     1      -9.347   6.312  68.086  1.00  0.00    -0.115 C  
HETATM   20  C   UNL     1      -8.507   5.252  67.478  1.00  0.00    -0.105 C  
HETATM   21  C   UNL     1      -7.903   4.360  68.580  1.00  0.00    -0.074 C  
HETATM   22  C   UNL     1      -6.723   3.795  68.336  1.00  0.00    -0.046 C  
HETATM   23  C   UNL     1      -7.024   2.945  67.150  1.00  0.00    -0.049 C  
HETATM   24  O   UNL     1      -6.238   2.878  66.227  1.00  0.00    -0.024 OA 
HETATM   25  C   UNL     1      -8.400   2.212  67.203  1.00  0.00    -0.088 C  
HETATM   26  C   UNL     1      -9.529   2.737  68.245  1.00  0.00    -0.216 C  
HETATM   27  C   UNL     1      -8.966   3.632  69.422  1.00  0.00    -0.175 C  
HETATM   28  C   UNL     1      -8.441   2.623  70.454  1.00  0.00    -0.090 C  
HETATM   29  C   UNL     1      -9.677   4.882  70.167  1.00  0.00    -0.283 C  
HETATM   30  C   UNL     1     -10.486   4.897  71.523  1.00  0.00    -0.179 C  
HETATM   31  C   UNL     1     -10.556   6.406  72.207  1.00  0.00    -0.242 C  
HETATM   32  C   UNL     1     -11.292   7.513  71.285  1.00  0.00    -0.284 C  
HETATM   33  C   UNL     1     -12.782   7.294  71.556  1.00  0.00    -0.422 C  
ENDBRANCH  13  14
ENDBRANCH  11  13
ENDBRANCH  10  11
ENDBRANCH   9  10
ENDBRANCH   8   9
ENDBRANCH   7   8
ENDBRANCH   6   7
ENDBRANCH   5   6
ENDBRANCH   4   5
ENDBRANCH   3   4
ENDBRANCH   2   3
TORSDOF 11
ENDMDL
MODEL       51
REMARK 921   NORMALIZED FREE ENERGY PREDICTED BY IDOCK:   -4.84 KCAL/MOL
REMARK 922        TOTAL FREE ENERGY PREDICTED BY IDOCK:  -10.13 KCAL/MOL
REMARK 923 INTER-LIGAND FREE ENERGY PREDICTED BY IDOCK:   -8.70 KCAL/MOL
REMARK 924 INTRA-LIGAND FREE ENERGY PREDICTED BY IDOCK:   -1.43 KCAL/MOL
REMARK 927      BINDING AFFINITY PREDICTED BY RF-SCORE:    0.00 PKD
ROOT
HETATM    1  C   UNL     1      -9.469   8.764  66.320  1.00  0.00    -0.300 C  
HETATM    2  C   UNL     1      -9.543   7.512  67.159  1.00  0.00    -0.207 C  
ENDROOT
BRANCH   2   3
HETATM    3  C   UNL     1     -10.993   6.997  67.307  1.00  0.00    -0.372 C  
BRANCH   3   4
HETATM    4  C   UNL     1     -11.251   6.410  68.703  1.00  0.00    -0.338 C  
BRANCH   4   5
HETATM    5  C   UNL     1      -9.968   5.878  69.353  1.00  0.00    -0.229 C  
BRANCH   5   6
HETATM    6  C   UNL     1     -10.162   5.545  70.841  1.00  0.00    -0.293 C  
BRANCH   6   7
HETATM    7  C   UNL     1     -11.425   6.223  71.393  1.00  0.00    -0.352 C  
BRANCH   7   8
HETATM    8  C   UNL     1     -11.169   7.474  72.242  1.00  0.00    -0.329 C  
BRANCH   8   9
HETATM    9  C   UNL     1     -11.723   8.776  71.686  1.00  0.00    -0.402 C  
BRANCH   9  10
HETATM   10  C   UNL     1     -10.817   9.486  70.686  1.00  0.00    -0.371 C  
BRANCH  10  11
HETATM   11  C   UNL     1     -11.280  10.495  69.597  1.00  0.00    -0.282 C  
HETATM   12  O   UNL     1     -12.456  10.436  69.228  1.00  0.00    -0.134 OA 
BRANCH  11  13
HETATM   13  O   UNL     1     -10.340  11.271  68.924  1.00  0.00    -0.201 OA 
BRANCH  13  14
HETATM   14  C   UNL     1     -10.894  12.389  68.020  1.00  0.00    -0.221 C  
HETATM   15  C   UNL     1      -9.682  12.534  67.091  1.00  0.00    -0.205 C  
HETATM   16  C   UNL     1      -8.743  13.181  68.114  1.00  0.00    -0.193 C  
HETATM   17  C   UNL     1      -9.544  14.439  68.323  1.00  0.00    -0.211 C  
HETATM   18  C   UNL     1      -8.806  15.747  68.607  1.00  0.00    -0.199 C  
HETATM   19  C   UNL     1      -7.504  15.586  67.785  1.00  0.00    -0.168 C  
HETATM   20  C   UNL     1      -6.780  16.812  67.371  1.00  0.00    -0.190 C  
HETATM   21  C   UNL     1      -7.771  17.844  66.801  1.00  0.00    -0.251 C  
HETATM   22  C   UNL     1      -7.320  18.681  65.870  1.00  0.00    -0.248 C  
HETATM   23  C   UNL     1      -6.246  19.409  66.601  1.00  0.00    -0.176 C  
HETATM   24  O   UNL     1      -5.189  19.656  66.056  1.00  0.00    -0.159 OA 
HETATM   25  C   UNL     1      -6.594  19.777  68.077  1.00  0.00    -0.284 C  
HETATM   26  C   UNL     1      -7.818  19.004  68.811  1.00  0.00    -0.378 C  
HETATM   27  C   UNL     1      -8.830  18.297  67.821  1.00  0.00    -0.270 C  
HETATM   28  C   UNL     1      -9.773  19.422  67.369  1.00  0.00    -0.424 C  
HETATM   29  C   UNL     1      -9.658  16.922  68.038  1.00  0.00    -0.247 C  
HETATM   30  C   UNL     1     -11.145  16.727  68.532  1.00  0.00    -0.260 C  
HETATM   31  C   UNL     1     -11.777  15.260  68.088  1.00  0.00    -0.297 C  
HETATM   32  C   UNL     1     -10.981  13.989  68.696  1.00  0.00    -0.281 C  
HETATM   33  C   UNL     1     -11.547  13.835  70.109  1.00  0.00    -0.230 C  
ENDBRANCH  13  14
ENDBRANCH  11  13
ENDBRANCH  10  11
ENDBRANCH   9  10
ENDBRANCH   8   9
ENDBRANCH   7   8
ENDBRANCH   6   7
ENDBRANCH   5   6
ENDBRANCH   4   5
ENDBRANCH   3   4
ENDBRANCH   2   3
TORSDOF 11
ENDMDL
MODEL       52
REMARK 921   NORMALIZED FREE ENERGY PREDICTED BY IDOCK:   -4.83 KCAL/MOL
REMARK 922        TOTAL FREE ENERGY PREDICTED BY IDOCK:  -10.12 KCAL/MOL
REMARK 923 INTER-LIGAND FREE ENERGY PREDICTED BY IDOCK:   -8.03 KCAL/MOL
REMARK 924 INTRA-LIGAND FREE ENERGY PREDICTED BY IDOCK:   -2.09 KCAL/MOL
REMARK 927      BINDING AFFINITY PREDICTED BY RF-SCORE:    0.00 PKD
ROOT
HETATM    1  C   UNL     1      -8.523   9.125  70.822  1.00  0.00    -0.256 C  
HETATM    2  C   UNL     1      -9.998   9.350  70.598  1.00  0.00    -0.349 C  
ENDROOT
BRANCH   2   3
HETATM    3  C   UNL     1     -10.838   8.963  71.837  1.00  0.00    -0.433 C  
BRANCH   3   4
HETATM    4  C   UNL     1     -12.292   8.640  71.462  1.00  0.00    -0.370 C  
BRANCH   4   5
HETATM    5  C   UNL     1     -12.522   7.135  71.279  1.00  0.00    -0.425 C  
BRANCH   5   6
HETATM    6  C   UNL     1     -11.509   6.289  72.068  1.00  0.00    -0.359 C  
BRANCH   6   7
HETATM    7  C   UNL     1     -10.864   5.226  71.166  1.00  0.00    -0.131 C  
BRANCH   7   8
HETATM    8  C   UNL     1      -9.679   5.722  70.328  1.00  0.00    -0.223 C  
BRANCH   8   9
HETATM    9  C   UNL     1      -9.981   6.025  68.869  1.00  0.00    -0.192 C  
BRANCH   9  10
HETATM   10  C   UNL     1      -8.840   6.678  68.098  1.00  0.00    -0.119 C  
BRANCH  10  11
HETATM   11  C   UNL     1      -8.991   7.767  66.998  1.00  0.00    -0.129 C  
HETATM   12  O   UNL     1      -9.112   7.386  65.831  1.00  0.00    -0.131 OA 
BRANCH  11  13
HETATM   13  O   UNL     1      -8.776   9.106  67.312  1.00  0.00    -0.117 OA 
BRANCH  13  14
HETATM   14  C   UNL     1      -9.084  10.129  66.201  1.00  0.00    -0.155 C  
HETATM   15  C   UNL     1      -7.714  10.817  66.157  1.00  0.00    -0.149 C  
HETATM   16  C   UNL     1      -7.826  11.538  67.503  1.00  0.00    -0.133 C  
HETATM   17  C   UNL     1      -8.996  12.416  67.139  1.00  0.00    -0.195 C  
HETATM   18  C   UNL     1      -9.082  13.819  67.739  1.00  0.00    -0.193 C  
HETATM   19  C   UNL     1      -7.593  14.232  67.848  1.00  0.00    -0.159 C  
HETATM   20  C   UNL     1      -7.268  15.678  67.880  1.00  0.00    -0.152 C  
HETATM   21  C   UNL     1      -8.058  16.421  66.786  1.00  0.00    -0.287 C  
HETATM   22  C   UNL     1      -7.502  17.510  66.260  1.00  0.00    -0.355 C  
HETATM   23  C   UNL     1      -7.380  18.402  67.445  1.00  0.00    -0.217 C  
HETATM   24  O   UNL     1      -6.378  19.067  67.615  1.00  0.00    -0.201 OA 
HETATM   25  C   UNL     1      -8.602  18.372  68.415  1.00  0.00    -0.345 C  
HETATM   26  C   UNL     1      -9.644  17.131  68.325  1.00  0.00    -0.280 C  
HETATM   27  C   UNL     1      -9.582  16.324  66.966  1.00  0.00    -0.240 C  
HETATM   28  C   UNL     1     -10.436  17.148  65.991  1.00  0.00    -0.271 C  
HETATM   29  C   UNL     1      -9.820  14.740  66.722  1.00  0.00    -0.263 C  
HETATM   30  C   UNL     1     -11.132  13.995  66.255  1.00  0.00    -0.307 C  
HETATM   31  C   UNL     1     -10.820  12.505  65.597  1.00  0.00    -0.311 C  
HETATM   32  C   UNL     1     -10.109  11.471  66.618  1.00  0.00    -0.242 C  
HETATM   33  C   UNL     1     -11.269  10.895  67.434  1.00  0.00    -0.345 C  
ENDBRANCH  13  14
ENDBRANCH  11  13
ENDBRANCH  10  11
ENDBRANCH   9  10
ENDBRANCH   8   9
ENDBRANCH   7   8
ENDBRANCH   6   7
ENDBRANCH   5   6
ENDBRANCH   4   5
ENDBRANCH   3   4
ENDBRANCH   2   3
TORSDOF 11
ENDMDL
MODEL       53
REMARK 921   NORMALIZED FREE ENERGY PREDICTED BY IDOCK:   -4.82 KCAL/MOL
REMARK 922        TOTAL FREE ENERGY PREDICTED BY IDOCK:  -10.10 KCAL/MOL
REMARK 923 INTER-LIGAND FREE ENERGY PREDICTED BY IDOCK:   -8.75 KCAL/MOL
REMARK 924 INTRA-LIGAND FREE ENERGY PREDICTED BY IDOCK:   -1.34 KCAL/MOL
REMARK 927      BINDING AFFINITY PREDICTED BY RF-SCORE:    0.00 PKD
ROOT
HETATM    1  C   UNL     1      -9.594  19.947  66.206  1.00  0.00    -0.526 C  
HETATM    2  C   UNL     1      -9.220  19.948  67.667  1.00  0.00    -0.447 C  
ENDROOT
BRANCH   2   3
HETATM    3  C   UNL     1     -10.157  19.050  68.507  1.00  0.00    -0.467 C  
BRANCH   3   4
HETATM    4  C   UNL     1     -10.623  17.817  67.718  1.00  0.00    -0.392 C  
BRANCH   4   5
HETATM    5  C   UNL     1      -9.577  16.695  67.726  1.00  0.00    -0.236 C  
BRANCH   5   6
HETATM    6  C   UNL     1      -9.400  16.053  66.340  1.00  0.00    -0.329 C  
BRANCH   6   7
HETATM    7  C   UNL     1     -10.567  16.422  65.413  1.00  0.00    -0.338 C  
BRANCH   7   8
HETATM    8  C   UNL     1     -11.196  15.240  64.664  1.00  0.00    -0.366 C  
BRANCH   8   9
HETATM    9  C   UNL     1     -10.842  13.859  65.190  1.00  0.00    -0.364 C  
BRANCH   9  10
HETATM   10  C   UNL     1     -11.957  13.158  65.958  1.00  0.00    -0.488 C  
BRANCH  10  11
HETATM   11  C   UNL     1     -12.019  12.965  67.499  1.00  0.00    -0.296 C  
HETATM   12  O   UNL     1     -11.913  13.973  68.205  1.00  0.00    -0.357 OA 
BRANCH  11  13
HETATM   13  O   UNL     1     -11.972  11.684  68.043  1.00  0.00    -0.577 OA 
BRANCH  13  14
HETATM   14  C   UNL     1     -10.623  11.242  68.642  1.00  0.00    -0.202 C  
HETATM   15  C   UNL     1     -10.032  10.593  67.385  1.00  0.00    -0.213 C  
HETATM   16  C   UNL     1     -10.955   9.371  67.356  1.00  0.00    -0.061 C  
HETATM   17  C   UNL     1     -10.500   8.772  68.662  1.00  0.00    -0.213 C  
HETATM   18  C   UNL     1     -10.473   7.250  68.807  1.00  0.00    -0.214 C  
HETATM   19  C   UNL     1     -10.108   6.781  67.377  1.00  0.00    -0.225 C  
HETATM   20  C   UNL     1      -9.478   5.449  67.217  1.00  0.00    -0.128 C  
HETATM   21  C   UNL     1      -8.353   5.268  68.254  1.00  0.00    -0.097 C  
HETATM   22  C   UNL     1      -7.328   4.489  67.919  1.00  0.00    -0.066 C  
HETATM   23  C   UNL     1      -7.992   3.173  67.707  1.00  0.00    -0.075 C  
HETATM   24  O   UNL     1      -7.673   2.467  66.773  1.00  0.00    -0.070 OA 
HETATM   25  C   UNL     1      -9.107   2.830  68.742  1.00  0.00    -0.209 C  
HETATM   26  C   UNL     1      -9.743   4.025  69.637  1.00  0.00    -0.245 C  
HETATM   27  C   UNL     1      -8.853   5.331  69.708  1.00  0.00    -0.123 C  
HETATM   28  C   UNL     1      -7.813   5.029  70.798  1.00  0.00    -0.083 C  
HETATM   29  C   UNL     1      -9.334   6.875  69.802  1.00  0.00    -0.146 C  
HETATM   30  C   UNL     1      -9.483   7.792  71.079  1.00  0.00    -0.165 C  
HETATM   31  C   UNL     1      -9.448   9.408  70.712  1.00  0.00    -0.307 C  
HETATM   32  C   UNL     1     -10.643   9.886  69.731  1.00  0.00    -0.296 C  
HETATM   33  C   UNL     1     -11.834  10.098  70.669  1.00  0.00    -0.431 C  
ENDBRANCH  13  14
ENDBRANCH  11  13
ENDBRANCH  10  11
ENDBRANCH   9  10
ENDBRANCH   8   9
ENDBRANCH   7   8
ENDBRANCH   6   7
ENDBRANCH   5   6
ENDBRANCH   4   5
ENDBRANCH   3   4
ENDBRANCH   2   3
TORSDOF 11
ENDMDL
MODEL       54
REMARK 921   NORMALIZED FREE ENERGY PREDICTED BY IDOCK:   -4.80 KCAL/MOL
REMARK 922        TOTAL FREE ENERGY PREDICTED BY IDOCK:  -10.07 KCAL/MOL
REMARK 923 INTER-LIGAND FREE ENERGY PREDICTED BY IDOCK:   -7.71 KCAL/MOL
REMARK 924 INTRA-LIGAND FREE ENERGY PREDICTED BY IDOCK:   -2.35 KCAL/MOL
REMARK 927      BINDING AFFINITY PREDICTED BY RF-SCORE:    0.00 PKD
ROOT
HETATM    1  C   UNL     1      -6.080  12.717  68.163  1.00  0.00    -0.080 C  
HETATM    2  C   UNL     1      -6.849  11.512  68.646  1.00  0.00    -0.077 C  
ENDROOT
BRANCH   2   3
HETATM    3  C   UNL     1      -6.268  10.943  69.961  1.00  0.00    -0.133 C  
BRANCH   3   4
HETATM    4  C   UNL     1      -7.190   9.880  70.579  1.00  0.00    -0.099 C  
BRANCH   4   5
HETATM    5  C   UNL     1      -6.404   8.695  71.154  1.00  0.00    -0.049 C  
BRANCH   5   6
HETATM    6  C   UNL     1      -7.286   7.769  72.007  1.00  0.00    -0.072 C  
BRANCH   6   7
HETATM    7  C   UNL     1      -7.057   6.297  71.630  1.00  0.00    -0.082 C  
BRANCH   7   8
HETATM    8  C   UNL     1      -6.914   5.340  72.819  1.00  0.00    -0.086 C  
BRANCH   8   9
HETATM    9  C   UNL     1      -8.154   5.163  73.680  1.00  0.00    -0.110 C  
BRANCH   9  10
HETATM   10  C   UNL     1      -9.345   4.530  72.970  1.00  0.00    -0.138 C  
BRANCH  10  11
HETATM   11  C   UNL     1     -10.613   5.281  72.474  1.00  0.00    -0.224 C  
HETATM   12  O   UNL     1     -11.647   5.156  73.137  1.00  0.00    -0.316 OA 
BRANCH  11  13
HETATM   13  O   UNL     1     -10.618   5.883  71.218  1.00  0.00    -0.232 OA 
BRANCH  13  14
HETATM   14  C   UNL     1     -11.772   6.863  70.931  1.00  0.00    -0.361 C  
HETATM   15  C   UNL     1     -11.776   6.748  69.402  1.00  0.00    -0.025 C  
HETATM   16  C   UNL     1     -10.459   7.492  69.159  1.00  0.00    -0.220 C  
HETATM   17  C   UNL     1     -10.902   8.825  69.704  1.00  0.00    -0.175 C  
HETATM   18  C   UNL     1     -10.350  10.102  69.071  1.00  0.00    -0.230 C  
HETATM   19  C   UNL     1     -10.186   9.699  67.585  1.00  0.00    -0.267 C  
HETATM   20  C   UNL     1     -10.183  10.774  66.564  1.00  0.00    -0.287 C  
HETATM   21  C   UNL     1     -11.334  11.762  66.834  1.00  0.00    -0.386 C  
HETATM   22  C   UNL     1     -11.868  12.385  65.786  1.00  0.00    -0.467 C  
HETATM   23  C   UNL     1     -10.705  13.147  65.251  1.00  0.00    -0.303 C  
HETATM   24  O   UNL     1     -10.511  13.212  64.054  1.00  0.00    -0.405 OA 
HETATM   25  C   UNL     1      -9.792  13.794  66.337  1.00  0.00    -0.305 C  
HETATM   26  C   UNL     1      -9.891  13.259  67.866  1.00  0.00    -0.234 C  
HETATM   27  C   UNL     1     -11.221  12.468  68.196  1.00  0.00    -0.312 C  
HETATM   28  C   UNL     1     -12.259  13.564  68.482  1.00  0.00    -0.160 C  
HETATM   29  C   UNL     1     -11.427  11.220  69.208  1.00  0.00    -0.369 C  
HETATM   30  C   UNL     1     -11.930  11.229  70.705  1.00  0.00    -0.435 C  
HETATM   31  C   UNL     1     -12.527   9.759  71.186  1.00  0.00    -0.443 C  
HETATM   32  C   UNL     1     -11.444   8.559  71.132  1.00  0.00    -0.322 C  
HETATM   33  C   UNL     1     -10.664   8.700  72.441  1.00  0.00    -0.311 C  
ENDBRANCH  13  14
ENDBRANCH  11  13
ENDBRANCH  10  11
ENDBRANCH   9  10
ENDBRANCH   8   9
ENDBRANCH   7   8
ENDBRANCH   6   7
ENDBRANCH   5   6
ENDBRANCH   4   5
ENDBRANCH   3   4
ENDBRANCH   2   3
TORSDOF 11
ENDMDL
MODEL       55
REMARK 921   NORMALIZED FREE ENERGY PREDICTED BY IDOCK:   -4.77 KCAL/MOL
REMARK 922        TOTAL FREE ENERGY PREDICTED BY IDOCK:  -10.01 KCAL/MOL
REMARK 923 INTER-LIGAND FREE ENERGY PREDICTED BY IDOCK:   -7.92 KCAL/MOL
REMARK 924 INTRA-LIGAND FREE ENERGY PREDICTED BY IDOCK:   -2.09 KCAL/MOL
REMARK 927      BINDING AFFINITY PREDICTED BY RF-SCORE:    0.00 PKD
ROOT
HETATM    1  C   UNL     1      -6.300   9.204  67.838  1.00  0.00    -0.055 C  
HETATM    2  C   UNL     1      -7.281   8.063  67.946  1.00  0.00    -0.091 C  
ENDROOT
BRANCH   2   3
HETATM    3  C   UNL     1      -8.041   7.824  66.622  1.00  0.00    -0.111 C  
BRANCH   3   4
HETATM    4  C   UNL     1      -8.892   6.545  66.675  1.00  0.00    -0.135 C  
BRANCH   4   5
HETATM    5  C   UNL     1      -9.128   6.066  68.112  1.00  0.00    -0.118 C  
BRANCH   5   6
HETATM    6  C   UNL     1     -10.541   5.494  68.312  1.00  0.00    -0.207 C  
BRANCH   6   7
HETATM    7  C   UNL     1     -11.280   6.240  69.434  1.00  0.00    -0.489 C  
BRANCH   7   8
HETATM    8  C   UNL     1     -10.580   6.212  70.798  1.00  0.00    -0.299 C  
BRANCH   8   9
HETATM    9  C   UNL     1     -11.459   6.525  71.998  1.00  0.00    -0.342 C  
BRANCH   9  10
HETATM   10  C   UNL     1     -12.882   6.954  71.660  1.00  0.00    -0.383 C  
BRANCH  10  11
HETATM   11  C   UNL     1     -13.435   8.406  71.726  1.00  0.00    -0.364 C  
HETATM   12  O   UNL     1     -14.339   8.636  72.534  1.00  0.00    -0.523 OA 
BRANCH  11  13
HETATM   13  O   UNL     1     -13.067   9.335  70.757  1.00  0.00    -0.060 OA 
BRANCH  13  14
HETATM   14  C   UNL     1     -11.690  10.004  70.935  1.00  0.00    -0.374 C  
HETATM   15  C   UNL     1     -12.178  11.370  71.433  1.00  0.00    -0.136 C  
HETATM   16  C   UNL     1     -12.765  11.852  70.104  1.00  0.00     0.108 C  
HETATM   17  C   UNL     1     -11.470  11.877  69.334  1.00  0.00    -0.366 C  
HETATM   18  C   UNL     1     -11.271  12.942  68.256  1.00  0.00    -0.304 C  
HETATM   19  C   UNL     1     -12.048  14.153  68.830  1.00  0.00    -0.339 C  
HETATM   20  C   UNL     1     -11.672  15.510  68.367  1.00  0.00    -0.323 C  
HETATM   21  C   UNL     1     -10.140  15.669  68.385  1.00  0.00    -0.214 C  
HETATM   22  C   UNL     1      -9.651  16.887  68.601  1.00  0.00    -0.265 C  
HETATM   23  C   UNL     1     -10.192  17.650  67.442  1.00  0.00    -0.345 C  
HETATM   24  O   UNL     1     -10.625  18.774  67.594  1.00  0.00    -0.415 OA 
HETATM   25  C   UNL     1     -10.173  16.879  66.086  1.00  0.00    -0.352 C  
HETATM   26  C   UNL     1     -10.008  15.265  66.103  1.00  0.00    -0.325 C  
HETATM   27  C   UNL     1      -9.416  14.684  67.450  1.00  0.00    -0.201 C  
HETATM   28  C   UNL     1      -7.897  14.867  67.314  1.00  0.00    -0.235 C  
HETATM   29  C   UNL     1      -9.750  13.272  68.172  1.00  0.00    -0.227 C  
HETATM   30  C   UNL     1      -8.960  11.907  68.094  1.00  0.00    -0.185 C  
HETATM   31  C   UNL     1      -9.286  10.907  69.376  1.00  0.00     0.087 C  
HETATM   32  C   UNL     1     -10.839  10.469  69.491  1.00  0.00    -0.298 C  
HETATM   33  C   UNL     1     -10.970   9.300  68.512  1.00  0.00    -0.036 C  
ENDBRANCH  13  14
ENDBRANCH  11  13
ENDBRANCH  10  11
ENDBRANCH   9  10
ENDBRANCH   8   9
ENDBRANCH   7   8
ENDBRANCH   6   7
ENDBRANCH   5   6
ENDBRANCH   4   5
ENDBRANCH   3   4
ENDBRANCH   2   3
TORSDOF 11
ENDMDL
MODEL       56
REMARK 921   NORMALIZED FREE ENERGY PREDICTED BY IDOCK:   -4.75 KCAL/MOL
REMARK 922        TOTAL FREE ENERGY PREDICTED BY IDOCK:   -9.99 KCAL/MOL
REMARK 923 INTER-LIGAND FREE ENERGY PREDICTED BY IDOCK:   -7.86 KCAL/MOL
REMARK 924 INTRA-LIGAND FREE ENERGY PREDICTED BY IDOCK:   -2.13 KCAL/MOL
REMARK 927      BINDING AFFINITY PREDICTED BY RF-SCORE:    0.00 PKD
ROOT
HETATM    1  C   UNL     1      -7.099   7.378  70.503  1.00  0.00    -0.057 C  
HETATM    2  C   UNL     1      -7.822   8.590  71.035  1.00  0.00    -0.122 C  
ENDROOT
BRANCH   2   3
HETATM    3  C   UNL     1      -8.550   8.293  72.366  1.00  0.00    -0.270 C  
BRANCH   3   4
HETATM    4  C   UNL     1      -8.210   6.894  72.903  1.00  0.00    -0.117 C  
BRANCH   4   5
HETATM    5  C   UNL     1      -9.450   6.157  73.423  1.00  0.00    -0.141 C  
BRANCH   5   6
HETATM    6  C   UNL     1     -10.717   7.025  73.353  1.00  0.00    -0.379 C  
BRANCH   6   7
HETATM    7  C   UNL     1     -11.702   6.472  72.313  1.00  0.00    -0.320 C  
BRANCH   7   8
HETATM    8  C   UNL     1     -11.669   7.178  70.952  1.00  0.00    -0.367 C  
BRANCH   8   9
HETATM    9  C   UNL     1     -11.392   6.288  69.751  1.00  0.00    -0.506 C  
BRANCH   9  10
HETATM   10  C   UNL     1     -10.223   6.731  68.878  1.00  0.00    -0.186 C  
BRANCH  10  11
HETATM   11  C   UNL     1     -10.334   7.353  67.457  1.00  0.00    -0.251 C  
HETATM   12  O   UNL     1     -10.034   6.638  66.497  1.00  0.00    -0.159 OA 
BRANCH  11  13
HETATM   13  O   UNL     1     -10.549   8.720  67.312  1.00  0.00    -0.286 OA 
BRANCH  13  14
HETATM   14  C   UNL     1      -9.963   9.628  68.411  1.00  0.00    -0.158 C  
HETATM   15  C   UNL     1     -11.173  10.553  68.593  1.00  0.00    -0.328 C  
HETATM   16  C   UNL     1     -11.042  11.291  67.257  1.00  0.00    -0.367 C  
HETATM   17  C   UNL     1      -9.704  11.925  67.531  1.00  0.00    -0.185 C  
HETATM   18  C   UNL     1      -9.409  13.310  66.955  1.00  0.00    -0.242 C  
HETATM   19  C   UNL     1     -10.799  13.992  66.989  1.00  0.00    -0.291 C  
HETATM   20  C   UNL     1     -10.851  15.474  67.016  1.00  0.00    -0.314 C  
HETATM   21  C   UNL     1      -9.847  16.019  68.049  1.00  0.00    -0.222 C  
HETATM   22  C   UNL     1     -10.144  17.171  68.646  1.00  0.00    -0.329 C  
HETATM   23  C   UNL     1     -10.197  18.113  67.494  1.00  0.00    -0.371 C  
HETATM   24  O   UNL     1     -11.069  18.956  67.430  1.00  0.00    -0.359 OA 
HETATM   25  C   UNL     1      -9.089  17.895  66.418  1.00  0.00    -0.253 C  
HETATM   26  C   UNL     1      -8.293  16.481  66.388  1.00  0.00    -0.358 C  
HETATM   27  C   UNL     1      -8.388  15.650  67.731  1.00  0.00    -0.157 C  
HETATM   28  C   UNL     1      -7.316  16.267  68.642  1.00  0.00    -0.180 C  
HETATM   29  C   UNL     1      -8.428  14.042  67.920  1.00  0.00    -0.170 C  
HETATM   30  C   UNL     1      -7.243  13.052  68.251  1.00  0.00    -0.113 C  
HETATM   31  C   UNL     1      -7.770  11.621  68.905  1.00  0.00    -0.065 C  
HETATM   32  C   UNL     1      -8.745  10.773  67.931  1.00  0.00    -0.129 C  
HETATM   33  C   UNL     1      -7.786  10.025  67.002  1.00  0.00    -0.102 C  
ENDBRANCH  13  14
ENDBRANCH  11  13
ENDBRANCH  10  11
ENDBRANCH   9  10
ENDBRANCH   8   9
ENDBRANCH   7   8
ENDBRANCH   6   7
ENDBRANCH   5   6
ENDBRANCH   4   5
ENDBRANCH   3   4
ENDBRANCH   2   3
TORSDOF 11
ENDMDL
MODEL       57
REMARK 921   NORMALIZED FREE ENERGY PREDICTED BY IDOCK:   -4.75 KCAL/MOL
REMARK 922        TOTAL FREE ENERGY PREDICTED BY IDOCK:   -9.99 KCAL/MOL
REMARK 923 INTER-LIGAND FREE ENERGY PREDICTED BY IDOCK:   -8.76 KCAL/MOL
REMARK 924 INTRA-LIGAND FREE ENERGY PREDICTED BY IDOCK:   -1.23 KCAL/MOL
REMARK 927      BINDING AFFINITY PREDICTED BY RF-SCORE:    0.00 PKD
ROOT
HETATM    1  C   UNL     1      -7.284  10.254  62.947  1.00  0.00    -0.133 C  
HETATM    2  C   UNL     1      -8.780  10.062  62.946  1.00  0.00    -0.211 C  
ENDROOT
BRANCH   2   3
HETATM    3  C   UNL     1      -9.359   9.999  64.378  1.00  0.00    -0.348 C  
BRANCH   3   4
HETATM    4  C   UNL     1     -10.613  10.875  64.526  1.00  0.00    -0.335 C  
BRANCH   4   5
HETATM    5  C   UNL     1     -10.553  12.126  63.641  1.00  0.00    -0.504 C  
BRANCH   5   6
HETATM    6  C   UNL     1     -11.937  12.764  63.438  1.00  0.00    -0.613 C  
BRANCH   6   7
HETATM    7  C   UNL     1     -12.064  14.064  64.248  1.00  0.00    -0.476 C  
BRANCH   7   8
HETATM    8  C   UNL     1     -12.757  13.913  65.607  1.00  0.00    -0.534 C  
BRANCH   8   9
HETATM    9  C   UNL     1     -11.841  13.901  66.820  1.00  0.00    -0.452 C  
BRANCH   9  10
HETATM   10  C   UNL     1     -11.687  12.543  67.497  1.00  0.00    -0.439 C  
BRANCH  10  11
HETATM   11  C   UNL     1     -11.880  12.255  69.012  1.00  0.00    -0.305 C  
HETATM   12  O   UNL     1     -11.672  13.182  69.800  1.00  0.00    -0.299 OA 
BRANCH  11  13
HETATM   13  O   UNL     1     -12.064  10.948  69.454  1.00  0.00    -0.328 OA 
BRANCH  13  14
HETATM   14  C   UNL     1     -11.082  10.442  70.528  1.00  0.00    -0.265 C  
HETATM   15  C   UNL     1      -9.908  10.102  69.603  1.00  0.00    -0.254 C  
HETATM   16  C   UNL     1     -10.545   8.878  68.938  1.00  0.00    -0.188 C  
HETATM   17  C   UNL     1     -10.649   8.032  70.180  1.00  0.00    -0.237 C  
HETATM   18  C   UNL     1     -10.485   6.517  70.059  1.00  0.00    -0.257 C  
HETATM   19  C   UNL     1      -9.457   6.380  68.909  1.00  0.00    -0.128 C  
HETATM   20  C   UNL     1      -8.648   5.139  68.836  1.00  0.00    -0.092 C  
HETATM   21  C   UNL     1      -8.097   4.786  70.230  1.00  0.00    -0.072 C  
HETATM   22  C   UNL     1      -6.935   4.139  70.286  1.00  0.00    -0.038 C  
HETATM   23  C   UNL     1      -7.249   2.874  69.566  1.00  0.00    -0.044 C  
HETATM   24  O   UNL     1      -6.452   2.397  68.784  1.00  0.00    -0.029 OA 
HETATM   25  C   UNL     1      -8.653   2.271  69.885  1.00  0.00    -0.100 C  
HETATM   26  C   UNL     1      -9.777   3.221  70.568  1.00  0.00    -0.138 C  
HETATM   27  C   UNL     1      -9.199   4.516  71.269  1.00  0.00    -0.195 C  
HETATM   28  C   UNL     1      -8.730   4.030  72.648  1.00  0.00    -0.110 C  
HETATM   29  C   UNL     1      -9.875   5.984  71.390  1.00  0.00    -0.204 C  
HETATM   30  C   UNL     1     -10.704   6.599  72.585  1.00  0.00    -0.265 C  
HETATM   31  C   UNL     1     -10.727   8.256  72.559  1.00  0.00    -0.411 C  
HETATM   32  C   UNL     1     -11.406   8.884  71.232  1.00  0.00    -0.371 C  
HETATM   33  C   UNL     1     -12.907   8.842  71.525  1.00  0.00    -0.383 C  
ENDBRANCH  13  14
ENDBRANCH  11  13
ENDBRANCH  10  11
ENDBRANCH   9  10
ENDBRANCH   8   9
ENDBRANCH   7   8
ENDBRANCH   6   7
ENDBRANCH   5   6
ENDBRANCH   4   5
ENDBRANCH   3   4
ENDBRANCH   2   3
TORSDOF 11
ENDMDL
MODEL       58
REMARK 921   NORMALIZED FREE ENERGY PREDICTED BY IDOCK:   -4.71 KCAL/MOL
REMARK 922        TOTAL FREE ENERGY PREDICTED BY IDOCK:   -9.92 KCAL/MOL
REMARK 923 INTER-LIGAND FREE ENERGY PREDICTED BY IDOCK:   -8.77 KCAL/MOL
REMARK 924 INTRA-LIGAND FREE ENERGY PREDICTED BY IDOCK:   -1.15 KCAL/MOL
REMARK 927      BINDING AFFINITY PREDICTED BY RF-SCORE:    0.00 PKD
ROOT
HETATM    1  C   UNL     1     -10.317  19.672  66.048  1.00  0.00    -0.620 C  
HETATM    2  C   UNL     1      -9.917  19.970  67.472  1.00  0.00    -0.565 C  
ENDROOT
BRANCH   2   3
HETATM    3  C   UNL     1      -9.984  18.713  68.369  1.00  0.00    -0.428 C  
BRANCH   3   4
HETATM    4  C   UNL     1     -10.366  17.459  67.566  1.00  0.00    -0.351 C  
BRANCH   4   5
HETATM    5  C   UNL     1      -9.220  16.442  67.503  1.00  0.00    -0.199 C  
BRANCH   5   6
HETATM    6  C   UNL     1      -9.434  15.389  66.403  1.00  0.00    -0.325 C  
BRANCH   6   7
HETATM    7  C   UNL     1     -10.635  15.759  65.519  1.00  0.00    -0.424 C  
BRANCH   7   8
HETATM    8  C   UNL     1     -11.244  14.590  64.734  1.00  0.00    -0.395 C  
BRANCH   8   9
HETATM    9  C   UNL     1     -10.666  13.217  65.036  1.00  0.00    -0.346 C  
BRANCH   9  10
HETATM   10  C   UNL     1     -11.590  12.287  65.815  1.00  0.00    -0.443 C  
BRANCH  10  11
HETATM   11  C   UNL     1     -11.532  12.021  67.345  1.00  0.00    -0.336 C  
HETATM   12  O   UNL     1     -11.391  12.995  68.089  1.00  0.00    -0.258 OA 
BRANCH  11  13
HETATM   13  O   UNL     1     -11.424  10.716  67.820  1.00  0.00    -0.460 OA 
BRANCH  13  14
HETATM   14  C   UNL     1     -10.444  10.490  68.988  1.00  0.00    -0.217 C  
HETATM   15  C   UNL     1      -9.573   9.412  68.331  1.00  0.00    -0.157 C  
HETATM   16  C   UNL     1     -10.613   8.288  68.368  1.00  0.00    -0.148 C  
HETATM   17  C   UNL     1     -10.725   8.196  69.868  1.00  0.00    -0.241 C  
HETATM   18  C   UNL     1     -10.988   6.833  70.507  1.00  0.00    -0.327 C  
HETATM   19  C   UNL     1     -10.241   5.864  69.557  1.00  0.00    -0.288 C  
HETATM   20  C   UNL     1      -9.812   4.550  70.093  1.00  0.00    -0.296 C  
HETATM   21  C   UNL     1      -9.147   4.733  71.470  1.00  0.00    -0.172 C  
HETATM   22  C   UNL     1      -8.204   3.860  71.818  1.00  0.00    -0.082 C  
HETATM   23  C   UNL     1      -8.956   2.575  71.823  1.00  0.00    -0.082 C  
HETATM   24  O   UNL     1      -8.456   1.569  71.364  1.00  0.00    -0.046 OA 
HETATM   25  C   UNL     1     -10.395   2.661  72.420  1.00  0.00    -0.172 C  
HETATM   26  C   UNL     1     -11.098   4.117  72.565  1.00  0.00     0.137 C  
HETATM   27  C   UNL     1     -10.091   5.336  72.525  1.00  0.00    -0.224 C  
HETATM   28  C   UNL     1      -9.541   5.427  73.957  1.00  0.00    -0.142 C  
HETATM   29  C   UNL     1     -10.326   6.819  71.917  1.00  0.00    -0.217 C  
HETATM   30  C   UNL     1     -10.751   8.142  72.667  1.00  0.00    -0.421 C  
HETATM   31  C   UNL     1     -10.341   9.511  71.826  1.00  0.00     0.188 C  
HETATM   32  C   UNL     1     -11.044   9.627  70.374  1.00  0.00    -0.346 C  
HETATM   33  C   UNL     1     -12.431  10.196  70.675  1.00  0.00    -0.372 C  
ENDBRANCH  13  14
ENDBRANCH  11  13
ENDBRANCH  10  11
ENDBRANCH   9  10
ENDBRANCH   8   9
ENDBRANCH   7   8
ENDBRANCH   6   7
ENDBRANCH   5   6
ENDBRANCH   4   5
ENDBRANCH   3   4
ENDBRANCH   2   3
TORSDOF 11
ENDMDL
MODEL       59
REMARK 921   NORMALIZED FREE ENERGY PREDICTED BY IDOCK:   -4.69 KCAL/MOL
REMARK 922        TOTAL FREE ENERGY PREDICTED BY IDOCK:   -9.89 KCAL/MOL
REMARK 923 INTER-LIGAND FREE ENERGY PREDICTED BY IDOCK:   -8.09 KCAL/MOL
REMARK 924 INTRA-LIGAND FREE ENERGY PREDICTED BY IDOCK:   -1.80 KCAL/MOL
REMARK 927      BINDING AFFINITY PREDICTED BY RF-SCORE:    0.00 PKD
ROOT
HETATM    1  C   UNL     1      -9.653   4.427  71.096  1.00  0.00    -0.245 C  
HETATM    2  C   UNL     1     -10.707   5.114  71.928  1.00  0.00    -0.219 C  
ENDROOT
BRANCH   2   3
HETATM    3  C   UNL     1     -10.171   5.525  73.319  1.00  0.00    -0.216 C  
BRANCH   3   4
HETATM    4  C   UNL     1     -10.284   7.040  73.549  1.00  0.00    -0.371 C  
BRANCH   4   5
HETATM    5  C   UNL     1     -11.269   7.702  72.577  1.00  0.00    -0.399 C  
BRANCH   5   6
HETATM    6  C   UNL     1     -10.605   8.801  71.732  1.00  0.00    -0.417 C  
BRANCH   6   7
HETATM    7  C   UNL     1      -9.080   8.785  71.914  1.00  0.00    -0.291 C  
BRANCH   7   8
HETATM    8  C   UNL     1      -8.287   8.337  70.680  1.00  0.00    -0.121 C  
BRANCH   8   9
HETATM    9  C   UNL     1      -9.106   7.735  69.550  1.00  0.00    -0.146 C  
BRANCH   9  10
HETATM   10  C   UNL     1      -8.923   8.407  68.193  1.00  0.00    -0.139 C  
BRANCH  10  11
HETATM   11  C   UNL     1     -10.061   8.975  67.299  1.00  0.00    -0.234 C  
HETATM   12  O   UNL     1     -10.606   8.199  66.509  1.00  0.00    -0.190 OA 
BRANCH  11  13
HETATM   13  O   UNL     1     -10.287  10.348  67.251  1.00  0.00    -0.202 OA 
BRANCH  13  14
HETATM   14  C   UNL     1      -9.558  11.202  68.306  1.00  0.00    -0.185 C  
HETATM   15  C   UNL     1     -10.687  12.199  68.593  1.00  0.00    -0.261 C  
HETATM   16  C   UNL     1     -10.617  12.945  67.257  1.00  0.00    -0.243 C  
HETATM   17  C   UNL     1      -9.223  13.489  67.427  1.00  0.00    -0.223 C  
HETATM   18  C   UNL     1      -8.887  14.860  66.840  1.00  0.00    -0.284 C  
HETATM   19  C   UNL     1     -10.223  15.628  66.992  1.00  0.00    -0.274 C  
HETATM   20  C   UNL     1     -10.177  17.110  67.036  1.00  0.00    -0.313 C  
HETATM   21  C   UNL     1      -9.060  17.577  67.988  1.00  0.00    -0.269 C  
HETATM   22  C   UNL     1      -9.233  18.737  68.616  1.00  0.00    -0.386 C  
HETATM   23  C   UNL     1      -9.319  19.696  67.480  1.00  0.00    -0.328 C  
HETATM   24  O   UNL     1     -10.137  20.593  67.494  1.00  0.00    -0.380 OA 
HETATM   25  C   UNL     1      -8.317  19.422  66.316  1.00  0.00    -0.346 C  
HETATM   26  C   UNL     1      -7.618  17.961  66.210  1.00  0.00    -0.315 C  
HETATM   27  C   UNL     1      -7.658  17.120  67.549  1.00  0.00    -0.187 C  
HETATM   28  C   UNL     1      -6.479  17.656  68.375  1.00  0.00    -0.193 C  
HETATM   29  C   UNL     1      -7.787  15.515  67.728  1.00  0.00    -0.158 C  
HETATM   30  C   UNL     1      -6.645  14.448  67.954  1.00  0.00    -0.179 C  
HETATM   31  C   UNL     1      -7.209  13.045  68.636  1.00  0.00    -0.101 C  
HETATM   32  C   UNL     1      -8.311  12.273  67.738  1.00  0.00    -0.162 C  
HETATM   33  C   UNL     1      -7.480  11.479  66.728  1.00  0.00    -0.118 C  
ENDBRANCH  13  14
ENDBRANCH  11  13
ENDBRANCH  10  11
ENDBRANCH   9  10
ENDBRANCH   8   9
ENDBRANCH   7   8
ENDBRANCH   6   7
ENDBRANCH   5   6
ENDBRANCH   4   5
ENDBRANCH   3   4
ENDBRANCH   2   3
TORSDOF 11
ENDMDL
MODEL       60
REMARK 921   NORMALIZED FREE ENERGY PREDICTED BY IDOCK:   -4.67 KCAL/MOL
REMARK 922        TOTAL FREE ENERGY PREDICTED BY IDOCK:   -9.85 KCAL/MOL
REMARK 923 INTER-LIGAND FREE ENERGY PREDICTED BY IDOCK:   -7.52 KCAL/MOL
REMARK 924 INTRA-LIGAND FREE ENERGY PREDICTED BY IDOCK:   -2.33 KCAL/MOL
REMARK 927      BINDING AFFINITY PREDICTED BY RF-SCORE:    0.00 PKD
ROOT
HETATM    1  C   UNL     1      -9.283  11.665  62.958  1.00  0.00    -0.108 C  
HETATM    2  C   UNL     1     -10.512  10.870  63.323  1.00  0.00    -0.145 C  
ENDROOT
BRANCH   2   3
HETATM    3  C   UNL     1     -11.717  11.781  63.652  1.00  0.00    -0.517 C  
BRANCH   3   4
HETATM    4  C   UNL     1     -11.710  12.228  65.123  1.00  0.00    -0.414 C  
BRANCH   4   5
HETATM    5  C   UNL     1     -12.695  13.373  65.385  1.00  0.00    -0.484 C  
BRANCH   5   6
HETATM    6  C   UNL     1     -12.008  14.608  65.989  1.00  0.00    -0.248 C  
BRANCH   6   7
HETATM    7  C   UNL     1     -11.021  15.229  64.988  1.00  0.00    -0.450 C  
BRANCH   7   8
HETATM    8  C   UNL     1     -10.698  16.708  65.231  1.00  0.00    -0.219 C  
BRANCH   8   9
HETATM    9  C   UNL     1      -9.840  17.007  66.450  1.00  0.00    -0.312 C  
BRANCH   9  10
HETATM   10  C   UNL     1      -8.672  16.051  66.665  1.00  0.00    -0.309 C  
BRANCH  10  11
HETATM   11  C   UNL     1      -8.624  14.893  67.701  1.00  0.00    -0.174 C  
HETATM   12  O   UNL     1      -8.165  15.146  68.818  1.00  0.00    -0.147 OA 
BRANCH  11  13
HETATM   13  O   UNL     1      -8.884  13.586  67.296  1.00  0.00    -0.204 OA 
BRANCH  13  14
HETATM   14  C   UNL     1      -8.560  12.475  68.313  1.00  0.00    -0.173 C  
HETATM   15  C   UNL     1      -7.501  11.733  67.489  1.00  0.00    -0.131 C  
HETATM   16  C   UNL     1      -8.456  11.148  66.445  1.00  0.00    -0.167 C  
HETATM   17  C   UNL     1      -9.252  10.287  67.391  1.00  0.00    -0.155 C  
HETATM   18  C   UNL     1      -9.802   8.951  66.891  1.00  0.00    -0.288 C  
HETATM   19  C   UNL     1      -8.715   8.493  65.888  1.00  0.00    -0.203 C  
HETATM   20  C   UNL     1      -8.603   7.044  65.591  1.00  0.00    -0.121 C  
HETATM   21  C   UNL     1      -8.649   6.232  66.898  1.00  0.00    -0.113 C  
HETATM   22  C   UNL     1      -7.988   5.077  66.927  1.00  0.00    -0.104 C  
HETATM   23  C   UNL     1      -8.676   4.297  65.861  1.00  0.00    -0.115 C  
HETATM   24  O   UNL     1      -8.036   3.613  65.089  1.00  0.00    -0.088 OA 
HETATM   25  C   UNL     1     -10.226   4.469  65.823  1.00  0.00    -0.289 C  
HETATM   26  C   UNL     1     -10.894   5.736  66.586  1.00  0.00    -0.290 C  
HETATM   27  C   UNL     1      -9.964   6.406  67.676  1.00  0.00    -0.150 C  
HETATM   28  C   UNL     1     -10.139   5.527  68.924  1.00  0.00    -0.266 C  
HETATM   29  C   UNL     1      -9.868   7.967  68.097  1.00  0.00    -0.195 C  
HETATM   30  C   UNL     1     -10.572   8.716  69.297  1.00  0.00    -0.204 C  
HETATM   31  C   UNL     1      -9.798  10.123  69.713  1.00  0.00    -0.245 C  
HETATM   32  C   UNL     1      -9.747  11.221  68.526  1.00  0.00    -0.199 C  
HETATM   33  C   UNL     1     -11.107  11.917  68.602  1.00  0.00    -0.295 C  
ENDBRANCH  13  14
ENDBRANCH  11  13
ENDBRANCH  10  11
ENDBRANCH   9  10
ENDBRANCH   8   9
ENDBRANCH   7   8
ENDBRANCH   6   7
ENDBRANCH   5   6
ENDBRANCH   4   5
ENDBRANCH   3   4
ENDBRANCH   2   3
TORSDOF 11
ENDMDL
MODEL       61
REMARK 921   NORMALIZED FREE ENERGY PREDICTED BY IDOCK:   -4.61 KCAL/MOL
REMARK 922        TOTAL FREE ENERGY PREDICTED BY IDOCK:   -9.75 KCAL/MOL
REMARK 923 INTER-LIGAND FREE ENERGY PREDICTED BY IDOCK:   -9.04 KCAL/MOL
REMARK 924 INTRA-LIGAND FREE ENERGY PREDICTED BY IDOCK:   -0.71 KCAL/MOL
REMARK 927      BINDING AFFINITY PREDICTED BY RF-SCORE:    0.00 PKD
ROOT
HETATM    1  C   UNL     1     -11.968   1.546  73.387  1.00  0.00    -0.262 C  
HETATM    2  C   UNL     1     -11.146   2.806  73.494  1.00  0.00    -0.315 C  
ENDROOT
BRANCH   2   3
HETATM    3  C   UNL     1      -9.793   2.679  72.757  1.00  0.00    -0.193 C  
BRANCH   3   4
HETATM    4  C   UNL     1      -9.682   3.677  71.593  1.00  0.00    -0.236 C  
BRANCH   4   5
HETATM    5  C   UNL     1     -10.410   4.994  71.888  1.00  0.00    -0.270 C  
BRANCH   5   6
HETATM    6  C   UNL     1     -10.129   6.067  70.824  1.00  0.00    -0.248 C  
BRANCH   6   7
HETATM    7  C   UNL     1     -11.176   6.011  69.701  1.00  0.00    -0.428 C  
BRANCH   7   8
HETATM    8  C   UNL     1     -10.636   5.565  68.336  1.00  0.00    -0.210 C  
BRANCH   8   9
HETATM    9  C   UNL     1     -10.866   6.531  67.186  1.00  0.00    -0.472 C  
BRANCH   9  10
HETATM   10  C   UNL     1     -10.559   7.991  67.500  1.00  0.00    -0.302 C  
BRANCH  10  11
HETATM   11  C   UNL     1     -10.249   9.101  66.456  1.00  0.00    -0.252 C  
HETATM   12  O   UNL     1      -9.511   8.805  65.511  1.00  0.00    -0.169 OA 
BRANCH  11  13
HETATM   13  O   UNL     1     -10.616  10.419  66.712  1.00  0.00    -0.242 OA 
BRANCH  13  14
HETATM   14  C   UNL     1     -10.013  11.492  65.785  1.00  0.00    -0.233 C  
HETATM   15  C   UNL     1      -8.817  11.885  66.660  1.00  0.00    -0.191 C  
HETATM   16  C   UNL     1      -9.616  12.604  67.752  1.00  0.00    -0.197 C  
HETATM   17  C   UNL     1     -10.161  13.705  66.880  1.00  0.00    -0.260 C  
HETATM   18  C   UNL     1     -10.375  15.091  67.486  1.00  0.00    -0.241 C  
HETATM   19  C   UNL     1      -9.224  15.189  68.518  1.00  0.00    -0.192 C  
HETATM   20  C   UNL     1      -8.765  16.538  68.929  1.00  0.00    -0.247 C  
HETATM   21  C   UNL     1      -8.589  17.436  67.690  1.00  0.00    -0.217 C  
HETATM   22  C   UNL     1      -7.665  18.392  67.750  1.00  0.00    -0.240 C  
HETATM   23  C   UNL     1      -8.157  19.231  68.877  1.00  0.00    -0.312 C  
HETATM   24  O   UNL     1      -7.381  19.675  69.698  1.00  0.00    -0.252 OA 
HETATM   25  C   UNL     1      -9.703  19.444  68.907  1.00  0.00    -0.502 C  
HETATM   26  C   UNL     1     -10.649  18.443  68.049  1.00  0.00    -0.346 C  
HETATM   27  C   UNL     1      -9.895  17.651  66.906  1.00  0.00    -0.306 C  
HETATM   28  C   UNL     1      -9.829  18.641  65.733  1.00  0.00     0.156 C  
HETATM   29  C   UNL     1     -10.178  16.152  66.362  1.00  0.00    -0.315 C  
HETATM   30  C   UNL     1     -11.025  15.695  65.110  1.00  0.00    -0.411 C  
HETATM   31  C   UNL     1     -10.614  14.178  64.581  1.00  0.00    -0.391 C  
HETATM   32  C   UNL     1     -10.852  13.012  65.676  1.00  0.00    -0.293 C  
HETATM   33  C   UNL     1     -12.340  12.680  65.551  1.00  0.00    -0.455 C  
ENDBRANCH  13  14
ENDBRANCH  11  13
ENDBRANCH  10  11
ENDBRANCH   9  10
ENDBRANCH   8   9
ENDBRANCH   7   8
ENDBRANCH   6   7
ENDBRANCH   5   6
ENDBRANCH   4   5
ENDBRANCH   3   4
ENDBRANCH   2   3
TORSDOF 11
ENDMDL
MODEL       62
REMARK 921   NORMALIZED FREE ENERGY PREDICTED BY IDOCK:   -4.60 KCAL/MOL
REMARK 922        TOTAL FREE ENERGY PREDICTED BY IDOCK:   -9.74 KCAL/MOL
REMARK 923 INTER-LIGAND FREE ENERGY PREDICTED BY IDOCK:   -7.79 KCAL/MOL
REMARK 924 INTRA-LIGAND FREE ENERGY PREDICTED BY IDOCK:   -1.95 KCAL/MOL
REMARK 927      BINDING AFFINITY PREDICTED BY RF-SCORE:    0.00 PKD
ROOT
HETATM    1  C   UNL     1      -8.536   9.484  63.615  1.00  0.00    -0.222 C  
HETATM    2  C   UNL     1      -9.623  10.285  62.942  1.00  0.00    -0.290 C  
ENDROOT
BRANCH   2   3
HETATM    3  C   UNL     1      -9.871  11.636  63.652  1.00  0.00    -0.366 C  
BRANCH   3   4
HETATM    4  C   UNL     1     -11.288  11.719  64.242  1.00  0.00    -0.400 C  
BRANCH   4   5
HETATM    5  C   UNL     1     -12.067  12.927  63.709  1.00  0.00    -0.583 C  
BRANCH   5   6
HETATM    6  C   UNL     1     -12.738  13.731  64.834  1.00  0.00    -0.314 C  
BRANCH   6   7
HETATM    7  C   UNL     1     -12.116  13.390  66.196  1.00  0.00    -0.481 C  
BRANCH   7   8
HETATM    8  C   UNL     1     -11.204  14.476  66.781  1.00  0.00    -0.336 C  
BRANCH   8   9
HETATM    9  C   UNL     1     -11.839  15.384  67.821  1.00  0.00    -0.045 C  
BRANCH   9  10
HETATM   10  C   UNL     1     -11.470  15.064  69.266  1.00  0.00    -0.326 C  
BRANCH  10  11
HETATM   11  C   UNL     1     -12.247  14.105  70.212  1.00  0.00    -0.349 C  
HETATM   12  O   UNL     1     -13.188  14.578  70.855  1.00  0.00    -0.366 OA 
BRANCH  11  13
HETATM   13  O   UNL     1     -11.749  12.832  70.473  1.00  0.00    -0.165 OA 
BRANCH  13  14
HETATM   14  C   UNL     1     -11.997  11.762  69.392  1.00  0.00    -0.298 C  
HETATM   15  C   UNL     1     -12.634  10.694  70.290  1.00  0.00    -0.333 C  
HETATM   16  C   UNL     1     -11.361  10.307  71.048  1.00  0.00    -0.306 C  
HETATM   17  C   UNL     1     -10.599   9.776  69.861  1.00  0.00    -0.301 C  
HETATM   18  C   UNL     1      -9.638   8.605  70.063  1.00  0.00    -0.175 C  
HETATM   19  C   UNL     1     -10.334   7.786  71.178  1.00  0.00    -0.218 C  
HETATM   20  C   UNL     1     -10.014   6.343  71.290  1.00  0.00    -0.204 C  
HETATM   21  C   UNL     1     -10.051   5.684  69.899  1.00  0.00    -0.289 C  
HETATM   22  C   UNL     1     -10.392   4.399  69.836  1.00  0.00     0.265 C  
HETATM   23  C   UNL     1      -9.318   3.751  70.638  1.00  0.00    -0.155 C  
HETATM   24  O   UNL     1      -9.585   2.858  71.415  1.00  0.00    -0.137 OA 
HETATM   25  C   UNL     1      -7.890   4.334  70.409  1.00  0.00    -0.052 C  
HETATM   26  C   UNL     1      -7.740   5.794  69.716  1.00  0.00    -0.084 C  
HETATM   27  C   UNL     1      -9.020   6.274  68.920  1.00  0.00    -0.126 C  
HETATM   28  C   UNL     1      -8.906   5.581  67.554  1.00  0.00    -0.105 C  
HETATM   29  C   UNL     1      -9.592   7.779  68.742  1.00  0.00    -0.154 C  
HETATM   30  C   UNL     1      -9.373   8.787  67.546  1.00  0.00    -0.161 C  
HETATM   31  C   UNL     1     -10.544   9.959  67.478  1.00  0.00    -0.333 C  
HETATM   32  C   UNL     1     -10.610  10.900  68.792  1.00  0.00    -0.231 C  
HETATM   33  C   UNL     1      -9.516  11.944  68.560  1.00  0.00    -0.151 C  
ENDBRANCH  13  14
ENDBRANCH  11  13
ENDBRANCH  10  11
ENDBRANCH   9  10
ENDBRANCH   8   9
ENDBRANCH   7   8
ENDBRANCH   6   7
ENDBRANCH   5   6
ENDBRANCH   4   5
ENDBRANCH   3   4
ENDBRANCH   2   3
TORSDOF 11
ENDMDL
MODEL       63
REMARK 921   NORMALIZED FREE ENERGY PREDICTED BY IDOCK:   -4.59 KCAL/MOL
REMARK 922        TOTAL FREE ENERGY PREDICTED BY IDOCK:   -9.72 KCAL/MOL
REMARK 923 INTER-LIGAND FREE ENERGY PREDICTED BY IDOCK:   -7.43 KCAL/MOL
REMARK 924 INTRA-LIGAND FREE ENERGY PREDICTED BY IDOCK:   -2.29 KCAL/MOL
REMARK 927      BINDING AFFINITY PREDICTED BY RF-SCORE:    0.00 PKD
ROOT
HETATM    1  C   UNL     1     -13.185   7.066  71.802  1.00  0.00    -0.326 C  
HETATM    2  C   UNL     1     -12.228   8.233  71.834  1.00  0.00    -0.383 C  
ENDROOT
BRANCH   2   3
HETATM    3  C   UNL     1     -12.748   9.432  71.008  1.00  0.00    -0.270 C  
BRANCH   3   4
HETATM    4  C   UNL     1     -11.606  10.369  70.583  1.00  0.00    -0.440 C  
BRANCH   4   5
HETATM    5  C   UNL     1     -12.112  11.560  69.760  1.00  0.00    -0.374 C  
BRANCH   5   6
HETATM    6  C   UNL     1     -12.105  12.870  70.565  1.00  0.00    -0.364 C  
BRANCH   6   7
HETATM    7  C   UNL     1     -11.580  14.034  69.711  1.00  0.00    -0.344 C  
BRANCH   7   8
HETATM    8  C   UNL     1     -11.983  13.984  68.232  1.00  0.00    -0.384 C  
BRANCH   8   9
HETATM    9  C   UNL     1     -11.214  14.910  67.305  1.00  0.00    -0.348 C  
BRANCH   9  10
HETATM   10  C   UNL     1     -11.309  14.562  65.823  1.00  0.00    -0.336 C  
BRANCH  10  11
HETATM   11  C   UNL     1     -10.618  13.357  65.126  1.00  0.00    -0.343 C  
HETATM   12  O   UNL     1     -10.197  13.527  63.978  1.00  0.00    -0.274 OA 
BRANCH  11  13
HETATM   13  O   UNL     1     -10.681  12.091  65.702  1.00  0.00    -0.255 OA 
BRANCH  13  14
HETATM   14  C   UNL     1      -9.369  11.283  65.726  1.00  0.00    -0.223 C  
HETATM   15  C   UNL     1      -9.905   9.985  65.110  1.00  0.00    -0.388 C  
HETATM   16  C   UNL     1     -10.749   9.546  66.311  1.00  0.00     0.133 C  
HETATM   17  C   UNL     1      -9.607   9.372  67.278  1.00  0.00    -0.194 C  
HETATM   18  C   UNL     1      -9.696   8.274  68.338  1.00  0.00    -0.170 C  
HETATM   19  C   UNL     1     -10.488   7.163  67.607  1.00  0.00    -0.306 C  
HETATM   20  C   UNL     1     -10.333   5.766  68.079  1.00  0.00    -0.258 C  
HETATM   21  C   UNL     1      -8.843   5.446  68.303  1.00  0.00    -0.105 C  
HETATM   22  C   UNL     1      -8.453   4.185  68.129  1.00  0.00    -0.103 C  
HETATM   23  C   UNL     1      -9.252   3.466  69.159  1.00  0.00    -0.160 C  
HETATM   24  O   UNL     1      -9.766   2.397  68.902  1.00  0.00    -0.069 OA 
HETATM   25  C   UNL     1      -9.377   4.209  70.526  1.00  0.00    -0.211 C  
HETATM   26  C   UNL     1      -9.047   5.797  70.589  1.00  0.00    -0.164 C  
HETATM   27  C   UNL     1      -8.186   6.333  69.374  1.00  0.00    -0.114 C  
HETATM   28  C   UNL     1      -6.737   5.988  69.748  1.00  0.00    -0.052 C  
HETATM   29  C   UNL     1      -8.251   7.783  68.655  1.00  0.00    -0.128 C  
HETATM   30  C   UNL     1      -7.350   9.056  68.905  1.00  0.00    -0.074 C  
HETATM   31  C   UNL     1      -7.357  10.105  67.621  1.00  0.00    -0.089 C  
HETATM   32  C   UNL     1      -8.818  10.707  67.272  1.00  0.00    -0.137 C  
HETATM   33  C   UNL     1      -8.988  11.868  68.255  1.00  0.00    -0.178 C  
ENDBRANCH  13  14
ENDBRANCH  11  13
ENDBRANCH  10  11
ENDBRANCH   9  10
ENDBRANCH   8   9
ENDBRANCH   7   8
ENDBRANCH   6   7
ENDBRANCH   5   6
ENDBRANCH   4   5
ENDBRANCH   3   4
ENDBRANCH   2   3
TORSDOF 11
ENDMDL
MODEL       64
REMARK 921   NORMALIZED FREE ENERGY PREDICTED BY IDOCK:   -4.58 KCAL/MOL
REMARK 922        TOTAL FREE ENERGY PREDICTED BY IDOCK:   -9.71 KCAL/MOL
REMARK 923 INTER-LIGAND FREE ENERGY PREDICTED BY IDOCK:   -7.57 KCAL/MOL
REMARK 924 INTRA-LIGAND FREE ENERGY PREDICTED BY IDOCK:   -2.13 KCAL/MOL
REMARK 927      BINDING AFFINITY PREDICTED BY RF-SCORE:    0.00 PKD
ROOT
HETATM    1  C   UNL     1     -10.056  11.790  63.442  1.00  0.00    -0.470 C  
HETATM    2  C   UNL     1      -9.273  10.743  62.690  1.00  0.00    -0.349 C  
ENDROOT
BRANCH   2   3
HETATM    3  C   UNL     1      -8.101  10.182  63.527  1.00  0.00    -0.162 C  
BRANCH   3   4
HETATM    4  C   UNL     1      -8.168   8.651  63.648  1.00  0.00    -0.148 C  
BRANCH   4   5
HETATM    5  C   UNL     1      -6.960   8.077  64.398  1.00  0.00    -0.072 C  
BRANCH   5   6
HETATM    6  C   UNL     1      -7.376   7.158  65.558  1.00  0.00    -0.079 C  
BRANCH   6   7
HETATM    7  C   UNL     1      -8.185   5.959  65.043  1.00  0.00    -0.138 C  
BRANCH   7   8
HETATM    8  C   UNL     1      -8.326   4.799  66.036  1.00  0.00    -0.112 C  
BRANCH   8   9
HETATM    9  C   UNL     1      -7.664   5.003  67.390  1.00  0.00    -0.092 C  
BRANCH   9  10
HETATM   10  C   UNL     1      -8.601   5.463  68.501  1.00  0.00    -0.098 C  
BRANCH  10  11
HETATM   11  C   UNL     1      -9.770   6.476  68.344  1.00  0.00    -0.132 C  
HETATM   12  O   UNL     1     -10.920   6.025  68.349  1.00  0.00    -0.292 OA 
BRANCH  11  13
HETATM   13  O   UNL     1      -9.504   7.796  67.993  1.00  0.00    -0.143 OA 
BRANCH  13  14
HETATM   14  C   UNL     1     -10.724   8.724  67.835  1.00  0.00    -0.107 C  
HETATM   15  C   UNL     1     -10.287   9.435  66.548  1.00  0.00    -0.268 C  
HETATM   16  C   UNL     1      -9.152  10.256  67.168  1.00  0.00    -0.156 C  
HETATM   17  C   UNL     1     -10.009  11.078  68.095  1.00  0.00    -0.190 C  
HETATM   18  C   UNL     1      -9.603  12.521  68.393  1.00  0.00    -0.176 C  
HETATM   19  C   UNL     1      -8.958  12.972  67.060  1.00  0.00    -0.225 C  
HETATM   20  C   UNL     1      -8.916  14.423  66.758  1.00  0.00    -0.256 C  
HETATM   21  C   UNL     1     -10.286  15.063  67.053  1.00  0.00    -0.257 C  
HETATM   22  C   UNL     1     -10.640  16.120  66.325  1.00  0.00    -0.276 C  
HETATM   23  C   UNL     1      -9.574  17.103  66.665  1.00  0.00    -0.267 C  
HETATM   24  O   UNL     1      -9.082  17.800  65.800  1.00  0.00    -0.503 OA 
HETATM   25  C   UNL     1      -9.156  17.121  68.168  1.00  0.00    -0.247 C  
HETATM   26  C   UNL     1      -9.544  15.855  69.105  1.00  0.00    -0.253 C  
HETATM   27  C   UNL     1     -10.705  14.947  68.529  1.00  0.00    -0.245 C  
HETATM   28  C   UNL     1     -11.997  15.676  68.928  1.00  0.00    -0.298 C  
HETATM   29  C   UNL     1     -10.896  13.345  68.669  1.00  0.00    -0.287 C  
HETATM   30  C   UNL     1     -11.775  12.538  69.704  1.00  0.00    -0.372 C  
HETATM   31  C   UNL     1     -12.140  11.009  69.176  1.00  0.00    -0.333 C  
HETATM   32  C   UNL     1     -10.846  10.072  68.928  1.00  0.00    -0.250 C  
HETATM   33  C   UNL     1     -10.501   9.536  70.319  1.00  0.00    -0.319 C  
ENDBRANCH  13  14
ENDBRANCH  11  13
ENDBRANCH  10  11
ENDBRANCH   9  10
ENDBRANCH   8   9
ENDBRANCH   7   8
ENDBRANCH   6   7
ENDBRANCH   5   6
ENDBRANCH   4   5
ENDBRANCH   3   4
ENDBRANCH   2   3
TORSDOF 11
ENDMDL
MODEL       65
REMARK 921   NORMALIZED FREE ENERGY PREDICTED BY IDOCK:   -4.57 KCAL/MOL
REMARK 922        TOTAL FREE ENERGY PREDICTED BY IDOCK:   -9.69 KCAL/MOL
REMARK 923 INTER-LIGAND FREE ENERGY PREDICTED BY IDOCK:   -7.17 KCAL/MOL
REMARK 924 INTRA-LIGAND FREE ENERGY PREDICTED BY IDOCK:   -2.52 KCAL/MOL
REMARK 927      BINDING AFFINITY PREDICTED BY RF-SCORE:    0.00 PKD
ROOT
HETATM    1  C   UNL     1     -13.501   9.390  71.672  1.00  0.00    -0.467 C  
HETATM    2  C   UNL     1     -12.447   8.317  71.556  1.00  0.00    -0.340 C  
ENDROOT
BRANCH   2   3
HETATM    3  C   UNL     1     -11.098   8.762  72.166  1.00  0.00    -0.406 C  
BRANCH   3   4
HETATM    4  C   UNL     1     -10.555   7.728  73.166  1.00  0.00    -0.415 C  
BRANCH   4   5
HETATM    5  C   UNL     1      -9.039   7.541  73.039  1.00  0.00    -0.222 C  
BRANCH   5   6
HETATM    6  C   UNL     1      -8.642   6.061  72.911  1.00  0.00    -0.123 C  
BRANCH   6   7
HETATM    7  C   UNL     1      -9.869   5.151  73.069  1.00  0.00    -0.177 C  
BRANCH   7   8
HETATM    8  C   UNL     1     -10.271   4.383  71.804  1.00  0.00    -0.201 C  
BRANCH   8   9
HETATM    9  C   UNL     1      -9.163   3.590  71.130  1.00  0.00    -0.192 C  
BRANCH   9  10
HETATM   10  C   UNL     1      -9.354   3.358  69.635  1.00  0.00    -0.241 C  
BRANCH  10  11
HETATM   11  C   UNL     1      -8.544   4.044  68.499  1.00  0.00    -0.094 C  
HETATM   12  O   UNL     1      -7.391   3.649  68.301  1.00  0.00    -0.054 OA 
BRANCH  11  13
HETATM   13  O   UNL     1      -9.036   5.196  67.892  1.00  0.00    -0.109 OA 
BRANCH  13  14
HETATM   14  C   UNL     1      -8.168   6.463  68.020  1.00  0.00    -0.116 C  
HETATM   15  C   UNL     1      -8.843   7.061  69.261  1.00  0.00    -0.139 C  
HETATM   16  C   UNL     1     -10.157   7.460  68.582  1.00  0.00    -0.186 C  
HETATM   17  C   UNL     1      -9.567   8.464  67.627  1.00  0.00    -0.188 C  
HETATM   18  C   UNL     1     -10.391   9.695  67.247  1.00  0.00    -0.310 C  
HETATM   19  C   UNL     1     -11.185   9.983  68.545  1.00  0.00    -0.180 C  
HETATM   20  C   UNL     1     -11.682  11.362  68.771  1.00  0.00    -0.404 C  
HETATM   21  C   UNL     1     -10.569  12.382  68.463  1.00  0.00    -0.251 C  
HETATM   22  C   UNL     1     -10.582  13.527  69.140  1.00  0.00    -0.055 C  
HETATM   23  C   UNL     1     -11.888  14.115  68.733  1.00  0.00    -0.349 C  
HETATM   24  O   UNL     1     -12.598  14.663  69.553  1.00  0.00    -0.179 OA 
HETATM   25  C   UNL     1     -12.245  13.935  67.226  1.00  0.00    -0.324 C  
HETATM   26  C   UNL     1     -11.455  12.811  66.362  1.00  0.00    -0.409 C  
HETATM   27  C   UNL     1     -10.089  12.335  67.002  1.00  0.00    -0.225 C  
HETATM   28  C   UNL     1      -9.074  13.410  66.585  1.00  0.00    -0.180 C  
HETATM   29  C   UNL     1      -9.408  10.867  66.949  1.00  0.00    -0.186 C  
HETATM   30  C   UNL     1      -8.291  10.327  65.971  1.00  0.00    -0.142 C  
HETATM   31  C   UNL     1      -7.487   9.013  66.584  1.00  0.00    -0.086 C  
HETATM   32  C   UNL     1      -8.436   7.731  66.860  1.00  0.00    -0.125 C  
HETATM   33  C   UNL     1      -8.555   7.053  65.494  1.00  0.00    -0.091 C  
ENDBRANCH  13  14
ENDBRANCH  11  13
ENDBRANCH  10  11
ENDBRANCH   9  10
ENDBRANCH   8   9
ENDBRANCH   7   8
ENDBRANCH   6   7
ENDBRANCH   5   6
ENDBRANCH   4   5
ENDBRANCH   3   4
ENDBRANCH   2   3
TORSDOF 11
ENDMDL
MODEL       66
REMARK 921   NORMALIZED FREE ENERGY PREDICTED BY IDOCK:   -4.56 KCAL/MOL
REMARK 922        TOTAL FREE ENERGY PREDICTED BY IDOCK:   -9.68 KCAL/MOL
REMARK 923 INTER-LIGAND FREE ENERGY PREDICTED BY IDOCK:   -6.45 KCAL/MOL
REMARK 924 INTRA-LIGAND FREE ENERGY PREDICTED BY IDOCK:   -3.22 KCAL/MOL
REMARK 927      BINDING AFFINITY PREDICTED BY RF-SCORE:    0.00 PKD
ROOT
HETATM    1  C   UNL     1      -9.214   7.939  73.142  1.00  0.00    -0.331 C  
HETATM    2  C   UNL     1      -9.805   8.643  71.946  1.00  0.00    -0.384 C  
ENDROOT
BRANCH   2   3
HETATM    3  C   UNL     1     -10.954   7.832  71.304  1.00  0.00    -0.259 C  
BRANCH   3   4
HETATM    4  C   UNL     1     -12.109   8.739  70.851  1.00  0.00    -0.195 C  
BRANCH   4   5
HETATM    5  C   UNL     1     -11.989  10.157  71.422  1.00  0.00    -0.447 C  
BRANCH   5   6
HETATM    6  C   UNL     1     -12.639  11.210  70.509  1.00  0.00    -0.360 C  
BRANCH   6   7
HETATM    7  C   UNL     1     -12.358  12.629  71.026  1.00  0.00    -0.307 C  
BRANCH   7   8
HETATM    8  C   UNL     1     -12.444  13.733  69.964  1.00  0.00    -0.301 C  
BRANCH   8   9
HETATM    9  C   UNL     1     -11.153  14.041  69.223  1.00  0.00    -0.271 C  
BRANCH   9  10
HETATM   10  C   UNL     1     -11.191  13.769  67.723  1.00  0.00    -0.312 C  
BRANCH  10  11
HETATM   11  C   UNL     1      -9.982  13.337  66.846  1.00  0.00    -0.250 C  
HETATM   12  O   UNL     1      -9.742  14.006  65.837  1.00  0.00    -0.285 OA 
BRANCH  11  13
HETATM   13  O   UNL     1      -9.350  12.120  67.084  1.00  0.00    -0.184 OA 
BRANCH  13  14
HETATM   14  C   UNL     1     -10.221  11.000  67.686  1.00  0.00    -0.182 C  
HETATM   15  C   UNL     1      -9.553  10.925  69.064  1.00  0.00    -0.170 C  
HETATM   16  C   UNL     1      -8.237  10.295  68.597  1.00  0.00    -0.116 C  
HETATM   17  C   UNL     1      -8.825   9.001  68.098  1.00  0.00    -0.133 C  
HETATM   18  C   UNL     1      -8.003   7.718  68.225  1.00  0.00    -0.122 C  
HETATM   19  C   UNL     1      -7.214   7.951  69.537  1.00  0.00    -0.081 C  
HETATM   20  C   UNL     1      -6.721   6.765  70.277  1.00  0.00    -0.053 C  
HETATM   21  C   UNL     1      -7.834   5.706  70.381  1.00  0.00    -0.102 C  
HETATM   22  C   UNL     1      -7.827   4.908  71.446  1.00  0.00    -0.104 C  
HETATM   23  C   UNL     1      -6.520   4.209  71.302  1.00  0.00    -0.019 C  
HETATM   24  O   UNL     1      -5.815   4.018  72.272  1.00  0.00    -0.007 OA 
HETATM   25  C   UNL     1      -6.157   3.795  69.843  1.00  0.00    -0.023 C  
HETATM   26  C   UNL     1      -6.941   4.501  68.609  1.00  0.00    -0.052 C  
HETATM   27  C   UNL     1      -8.309   5.187  69.012  1.00  0.00    -0.087 C  
HETATM   28  C   UNL     1      -9.324   4.035  69.036  1.00  0.00    -0.237 C  
HETATM   29  C   UNL     1      -8.987   6.522  68.395  1.00  0.00    -0.125 C  
HETATM   30  C   UNL     1     -10.099   6.645  67.280  1.00  0.00    -0.222 C  
HETATM   31  C   UNL     1     -10.902   8.095  67.337  1.00  0.00    -0.125 C  
HETATM   32  C   UNL     1      -9.952   9.383  67.104  1.00  0.00    -0.263 C  
HETATM   33  C   UNL     1      -9.826   9.484  65.582  1.00  0.00    -0.343 C  
ENDBRANCH  13  14
ENDBRANCH  11  13
ENDBRANCH  10  11
ENDBRANCH   9  10
ENDBRANCH   8   9
ENDBRANCH   7   8
ENDBRANCH   6   7
ENDBRANCH   5   6
ENDBRANCH   4   5
ENDBRANCH   3   4
ENDBRANCH   2   3
TORSDOF 11
ENDMDL
MODEL       67
REMARK 921   NORMALIZED FREE ENERGY PREDICTED BY IDOCK:   -4.56 KCAL/MOL
REMARK 922        TOTAL FREE ENERGY PREDICTED BY IDOCK:   -9.67 KCAL/MOL
REMARK 923 INTER-LIGAND FREE ENERGY PREDICTED BY IDOCK:   -7.71 KCAL/MOL
REMARK 924 INTRA-LIGAND FREE ENERGY PREDICTED BY IDOCK:   -1.96 KCAL/MOL
REMARK 927      BINDING AFFINITY PREDICTED BY RF-SCORE:    0.00 PKD
ROOT
HETATM    1  C   UNL     1     -13.319   8.980  72.115  1.00  0.00    -0.510 C  
HETATM    2  C   UNL     1     -12.590   7.846  71.438  1.00  0.00    -0.319 C  
ENDROOT
BRANCH   2   3
HETATM    3  C   UNL     1     -11.071   7.883  71.722  1.00  0.00    -0.299 C  
BRANCH   3   4
HETATM    4  C   UNL     1     -10.486   9.289  71.517  1.00  0.00    -0.385 C  
BRANCH   4   5
HETATM    5  C   UNL     1      -9.931   9.485  70.101  1.00  0.00    -0.285 C  
BRANCH   5   6
HETATM    6  C   UNL     1      -8.399   9.609  70.086  1.00  0.00    -0.221 C  
BRANCH   6   7
HETATM    7  C   UNL     1      -7.738   8.222  70.061  1.00  0.00    -0.095 C  
BRANCH   7   8
HETATM    8  C   UNL     1      -8.466   7.174  69.210  1.00  0.00    -0.133 C  
BRANCH   8   9
HETATM    9  C   UNL     1      -7.694   5.894  68.934  1.00  0.00    -0.091 C  
BRANCH   9  10
HETATM   10  C   UNL     1      -7.034   5.825  67.561  1.00  0.00    -0.069 C  
BRANCH  10  11
HETATM   11  C   UNL     1      -7.305   6.789  66.372  1.00  0.00    -0.073 C  
HETATM   12  O   UNL     1      -7.548   6.283  65.272  1.00  0.00    -0.080 OA 
BRANCH  11  13
HETATM   13  O   UNL     1      -7.062   8.152  66.512  1.00  0.00    -0.073 OA 
BRANCH  13  14
HETATM   14  C   UNL     1      -7.638   9.069  65.416  1.00  0.00    -0.090 C  
HETATM   15  C   UNL     1      -6.685  10.255  65.605  1.00  0.00    -0.122 C  
HETATM   16  C   UNL     1      -7.242  10.727  66.951  1.00  0.00    -0.115 C  
HETATM   17  C   UNL     1      -8.621  11.085  66.459  1.00  0.00    -0.165 C  
HETATM   18  C   UNL     1      -9.353  12.262  67.103  1.00  0.00    -0.196 C  
HETATM   19  C   UNL     1      -8.195  13.231  67.449  1.00  0.00    -0.185 C  
HETATM   20  C   UNL     1      -8.509  14.673  67.594  1.00  0.00    -0.187 C  
HETATM   21  C   UNL     1      -9.405  15.139  66.430  1.00  0.00    -0.332 C  
HETATM   22  C   UNL     1      -9.297  16.407  66.041  1.00  0.00    -0.335 C  
HETATM   23  C   UNL     1      -9.696  17.145  67.271  1.00  0.00    -0.254 C  
HETATM   24  O   UNL     1      -9.089  18.138  67.616  1.00  0.00    -0.256 OA 
HETATM   25  C   UNL     1     -10.897  16.521  68.048  1.00  0.00    -0.337 C  
HETATM   26  C   UNL     1     -11.308  14.980  67.749  1.00  0.00    -0.340 C  
HETATM   27  C   UNL     1     -10.759  14.411  66.379  1.00  0.00    -0.306 C  
HETATM   28  C   UNL     1     -11.760  14.912  65.327  1.00  0.00    -0.263 C  
HETATM   29  C   UNL     1     -10.285  12.902  66.031  1.00  0.00    -0.293 C  
HETATM   30  C   UNL     1     -11.103  11.739  65.343  1.00  0.00    -0.336 C  
HETATM   31  C   UNL     1     -10.125  10.582  64.671  1.00  0.00    -0.408 C  
HETATM   32  C   UNL     1      -9.171   9.827  65.737  1.00  0.00    -0.242 C  
HETATM   33  C   UNL     1     -10.070   8.750  66.347  1.00  0.00    -0.313 C  
ENDBRANCH  13  14
ENDBRANCH  11  13
ENDBRANCH  10  11
ENDBRANCH   9  10
ENDBRANCH   8   9
ENDBRANCH   7   8
ENDBRANCH   6   7
ENDBRANCH   5   6
ENDBRANCH   4   5
ENDBRANCH   3   4
ENDBRANCH   2   3
TORSDOF 11
ENDMDL
MODEL       68
REMARK 921   NORMALIZED FREE ENERGY PREDICTED BY IDOCK:   -4.54 KCAL/MOL
REMARK 922        TOTAL FREE ENERGY PREDICTED BY IDOCK:   -9.64 KCAL/MOL
REMARK 923 INTER-LIGAND FREE ENERGY PREDICTED BY IDOCK:   -8.26 KCAL/MOL
REMARK 924 INTRA-LIGAND FREE ENERGY PREDICTED BY IDOCK:   -1.39 KCAL/MOL
REMARK 927      BINDING AFFINITY PREDICTED BY RF-SCORE:    0.00 PKD
ROOT
HETATM    1  C   UNL     1     -13.610  13.438  72.203  1.00  0.00    -0.660 C  
HETATM    2  C   UNL     1     -12.510  14.192  71.497  1.00  0.00    -0.423 C  
ENDROOT
BRANCH   2   3
HETATM    3  C   UNL     1     -11.922  13.387  70.315  1.00  0.00    -0.378 C  
BRANCH   3   4
HETATM    4  C   UNL     1     -12.018  14.164  68.993  1.00  0.00    -0.376 C  
BRANCH   4   5
HETATM    5  C   UNL     1     -12.003  13.235  67.773  1.00  0.00    -0.356 C  
BRANCH   5   6
HETATM    6  C   UNL     1     -11.915  14.011  66.449  1.00  0.00    -0.462 C  
BRANCH   6   7
HETATM    7  C   UNL     1     -11.026  15.255  66.602  1.00  0.00    -0.297 C  
BRANCH   7   8
HETATM    8  C   UNL     1      -9.749  15.244  65.753  1.00  0.00    -0.385 C  
BRANCH   8   9
HETATM    9  C   UNL     1      -8.558  15.983  66.342  1.00  0.00    -0.369 C  
BRANCH   9  10
HETATM   10  C   UNL     1      -7.928  15.320  67.562  1.00  0.00    -0.197 C  
BRANCH  10  11
HETATM   11  C   UNL     1      -6.626  14.471  67.565  1.00  0.00    -0.081 C  
HETATM   12  O   UNL     1      -5.560  15.060  67.364  1.00  0.00    -0.341 OA 
BRANCH  11  13
HETATM   13  O   UNL     1      -6.702  13.081  67.573  1.00  0.00    -0.148 OA 
BRANCH  13  14
HETATM   14  C   UNL     1      -8.061  12.466  67.185  1.00  0.00    -0.167 C  
HETATM   15  C   UNL     1      -8.698  12.454  68.579  1.00  0.00    -0.060 C  
HETATM   16  C   UNL     1      -7.830  11.339  69.169  1.00  0.00    -0.020 C  
HETATM   17  C   UNL     1      -8.293  10.243  68.243  1.00  0.00    -0.116 C  
HETATM   18  C   UNL     1      -8.385   8.814  68.777  1.00  0.00    -0.124 C  
HETATM   19  C   UNL     1      -8.790   9.031  70.256  1.00  0.00    -0.210 C  
HETATM   20  C   UNL     1      -9.481   7.926  70.963  1.00  0.00    -0.172 C  
HETATM   21  C   UNL     1     -10.598   7.347  70.073  1.00  0.00    -0.241 C  
HETATM   22  C   UNL     1     -11.661   6.828  70.682  1.00  0.00    -0.440 C  
HETATM   23  C   UNL     1     -11.059   5.717  71.470  1.00  0.00    -0.214 C  
HETATM   24  O   UNL     1     -11.422   5.503  72.608  1.00  0.00    -0.296 OA 
HETATM   25  C   UNL     1      -9.945   4.917  70.725  1.00  0.00    -0.292 C  
HETATM   26  C   UNL     1      -9.245   5.578  69.419  1.00  0.00    -0.145 C  
HETATM   27  C   UNL     1     -10.075   6.749  68.755  1.00  0.00    -0.165 C  
HETATM   28  C   UNL     1     -11.112   6.035  67.874  1.00  0.00    -0.220 C  
HETATM   29  C   UNL     1      -9.525   8.079  68.011  1.00  0.00    -0.157 C  
HETATM   30  C   UNL     1      -9.318   8.337  66.467  1.00  0.00    -0.263 C  
HETATM   31  C   UNL     1      -9.286   9.951  66.089  1.00  0.00    -0.211 C  
HETATM   32  C   UNL     1      -8.085  10.770  66.800  1.00  0.00    -0.137 C  
HETATM   33  C   UNL     1      -6.873  10.510  65.903  1.00  0.00    -0.132 C  
ENDBRANCH  13  14
ENDBRANCH  11  13
ENDBRANCH  10  11
ENDBRANCH   9  10
ENDBRANCH   8   9
ENDBRANCH   7   8
ENDBRANCH   6   7
ENDBRANCH   5   6
ENDBRANCH   4   5
ENDBRANCH   3   4
ENDBRANCH   2   3
TORSDOF 11
ENDMDL
MODEL       69
REMARK 921   NORMALIZED FREE ENERGY PREDICTED BY IDOCK:   -4.48 KCAL/MOL
REMARK 922        TOTAL FREE ENERGY PREDICTED BY IDOCK:   -9.54 KCAL/MOL
REMARK 923 INTER-LIGAND FREE ENERGY PREDICTED BY IDOCK:   -7.20 KCAL/MOL
REMARK 924 INTRA-LIGAND FREE ENERGY PREDICTED BY IDOCK:   -2.34 KCAL/MOL
REMARK 927      BINDING AFFINITY PREDICTED BY RF-SCORE:    0.00 PKD
ROOT
HETATM    1  C   UNL     1      -7.953   9.006  70.951  1.00  0.00    -0.194 C  
HETATM    2  C   UNL     1      -9.241   9.385  70.263  1.00  0.00    -0.285 C  
ENDROOT
BRANCH   2   3
HETATM    3  C   UNL     1     -10.466   8.687  70.899  1.00  0.00    -0.265 C  
BRANCH   3   4
HETATM    4  C   UNL     1     -11.093   7.656  69.948  1.00  0.00    -0.160 C  
BRANCH   4   5
HETATM    5  C   UNL     1     -11.235   6.277  70.602  1.00  0.00    -0.401 C  
BRANCH   5   6
HETATM    6  C   UNL     1     -10.056   5.948  71.533  1.00  0.00    -0.238 C  
BRANCH   6   7
HETATM    7  C   UNL     1      -9.172   4.847  70.927  1.00  0.00    -0.196 C  
BRANCH   7   8
HETATM    8  C   UNL     1      -7.957   5.354  70.140  1.00  0.00    -0.085 C  
BRANCH   8   9
HETATM    9  C   UNL     1      -8.246   5.880  68.743  1.00  0.00    -0.103 C  
BRANCH   9  10
HETATM   10  C   UNL     1      -7.035   5.956  67.821  1.00  0.00    -0.069 C  
BRANCH  10  11
HETATM   11  C   UNL     1      -6.891   6.888  66.585  1.00  0.00    -0.064 C  
HETATM   12  O   UNL     1      -6.717   6.355  65.485  1.00  0.00    -0.045 OA 
BRANCH  11  13
HETATM   13  O   UNL     1      -6.745   8.261  66.763  1.00  0.00    -0.062 OA 
BRANCH  13  14
HETATM   14  C   UNL     1      -7.440   9.166  65.727  1.00  0.00    -0.090 C  
HETATM   15  C   UNL     1      -6.673  10.460  66.022  1.00  0.00    -0.124 C  
HETATM   16  C   UNL     1      -7.305  10.741  67.389  1.00  0.00    -0.094 C  
HETATM   17  C   UNL     1      -8.717  10.931  66.898  1.00  0.00    -0.144 C  
HETATM   18  C   UNL     1      -9.620  11.936  67.613  1.00  0.00    -0.185 C  
HETATM   19  C   UNL     1      -8.620  13.034  68.053  1.00  0.00    -0.186 C  
HETATM   20  C   UNL     1      -9.143  14.399  68.299  1.00  0.00    -0.193 C  
HETATM   21  C   UNL     1     -10.088  14.817  67.156  1.00  0.00    -0.240 C  
HETATM   22  C   UNL     1     -10.165  16.113  66.865  1.00  0.00    -0.283 C  
HETATM   23  C   UNL     1     -10.678  16.689  68.138  1.00  0.00    -0.349 C  
HETATM   24  O   UNL     1     -10.227  17.731  68.568  1.00  0.00    -0.349 OA 
HETATM   25  C   UNL     1     -11.781  15.839  68.842  1.00  0.00    -0.404 C  
HETATM   26  C   UNL     1     -11.958  14.281  68.422  1.00  0.00    -0.344 C  
HETATM   27  C   UNL     1     -11.321  13.906  67.024  1.00  0.00    -0.343 C  
HETATM   28  C   UNL     1     -12.376  14.334  65.993  1.00  0.00    -0.416 C  
HETATM   29  C   UNL     1     -10.627  12.513  66.574  1.00  0.00    -0.265 C  
HETATM   30  C   UNL     1     -11.260  11.299  65.785  1.00  0.00    -0.084 C  
HETATM   31  C   UNL     1     -10.116  10.352  65.048  1.00  0.00    -0.379 C  
HETATM   32  C   UNL     1      -9.070   9.665  66.074  1.00  0.00    -0.212 C  
HETATM   33  C   UNL     1      -9.807   8.425  66.583  1.00  0.00    -0.343 C  
ENDBRANCH  13  14
ENDBRANCH  11  13
ENDBRANCH  10  11
ENDBRANCH   9  10
ENDBRANCH   8   9
ENDBRANCH   7   8
ENDBRANCH   6   7
ENDBRANCH   5   6
ENDBRANCH   4   5
ENDBRANCH   3   4
ENDBRANCH   2   3
TORSDOF 11
ENDMDL
MODEL       70
REMARK 921   NORMALIZED FREE ENERGY PREDICTED BY IDOCK:   -4.45 KCAL/MOL
REMARK 922        TOTAL FREE ENERGY PREDICTED BY IDOCK:   -9.50 KCAL/MOL
REMARK 923 INTER-LIGAND FREE ENERGY PREDICTED BY IDOCK:   -7.06 KCAL/MOL
REMARK 924 INTRA-LIGAND FREE ENERGY PREDICTED BY IDOCK:   -2.44 KCAL/MOL
REMARK 927      BINDING AFFINITY PREDICTED BY RF-SCORE:    0.00 PKD
ROOT
HETATM    1  C   UNL     1     -12.465  10.311  71.536  1.00  0.00    -0.524 C  
HETATM    2  C   UNL     1     -12.284  10.349  70.039  1.00  0.00    -0.262 C  
ENDROOT
BRANCH   2   3
HETATM    3  C   UNL     1     -11.441  11.563  69.586  1.00  0.00    -0.373 C  
BRANCH   3   4
HETATM    4  C   UNL     1     -11.613  11.850  68.086  1.00  0.00    -0.400 C  
BRANCH   4   5
HETATM    5  C   UNL     1     -10.322  11.599  67.298  1.00  0.00    -0.232 C  
BRANCH   5   6
HETATM    6  C   UNL     1     -10.585  10.895  65.957  1.00  0.00    -0.254 C  
BRANCH   6   7
HETATM    7  C   UNL     1      -9.919  11.656  64.800  1.00  0.00    -0.292 C  
BRANCH   7   8
HETATM    8  C   UNL     1     -10.274  11.142  63.399  1.00  0.00    -0.435 C  
BRANCH   8   9
HETATM    9  C   UNL     1      -9.126  11.086  62.404  1.00  0.00    -0.328 C  
BRANCH   9  10
HETATM   10  C   UNL     1      -7.852  10.433  62.928  1.00  0.00    -0.140 C  
BRANCH  10  11
HETATM   11  C   UNL     1      -7.679   8.929  63.279  1.00  0.00    -0.123 C  
HETATM   12  O   UNL     1      -7.054   8.225  62.480  1.00  0.00    -0.089 OA 
BRANCH  11  13
HETATM   13  O   UNL     1      -8.393   8.376  64.338  1.00  0.00    -0.159 OA 
BRANCH  13  14
HETATM   14  C   UNL     1      -7.573   7.600  65.388  1.00  0.00    -0.094 C  
HETATM   15  C   UNL     1      -8.566   6.458  65.635  1.00  0.00    -0.138 C  
HETATM   16  C   UNL     1      -9.617   7.286  66.380  1.00  0.00    -0.169 C  
HETATM   17  C   UNL     1      -8.755   7.651  67.560  1.00  0.00    -0.125 C  
HETATM   18  C   UNL     1      -9.406   7.797  68.935  1.00  0.00    -0.146 C  
HETATM   19  C   UNL     1     -10.537   6.740  68.887  1.00  0.00    -0.257 C  
HETATM   20  C   UNL     1     -11.049   6.202  70.170  1.00  0.00    -0.448 C  
HETATM   21  C   UNL     1      -9.874   5.838  71.097  1.00  0.00    -0.227 C  
HETATM   22  C   UNL     1     -10.058   4.843  71.961  1.00  0.00    -0.256 C  
HETATM   23  C   UNL     1     -11.177   5.359  72.796  1.00  0.00    -0.300 C  
HETATM   24  O   UNL     1     -12.082   4.624  73.134  1.00  0.00    -0.111 OA 
HETATM   25  C   UNL     1     -11.084   6.876  73.148  1.00  0.00    -0.239 C  
HETATM   26  C   UNL     1     -10.101   7.826  72.273  1.00  0.00    -0.277 C  
HETATM   27  C   UNL     1      -8.991   7.044  71.461  1.00  0.00    -0.139 C  
HETATM   28  C   UNL     1      -7.876   6.786  72.486  1.00  0.00    -0.100 C  
HETATM   29  C   UNL     1      -8.354   7.408  70.017  1.00  0.00    -0.137 C  
HETATM   30  C   UNL     1      -7.014   8.175  69.689  1.00  0.00    -0.049 C  
HETATM   31  C   UNL     1      -6.450   7.852  68.163  1.00  0.00    -0.055 C  
HETATM   32  C   UNL     1      -7.465   8.289  66.981  1.00  0.00    -0.088 C  
HETATM   33  C   UNL     1      -7.196   9.784  66.792  1.00  0.00    -0.090 C  
ENDBRANCH  13  14
ENDBRANCH  11  13
ENDBRANCH  10  11
ENDBRANCH   9  10
ENDBRANCH   8   9
ENDBRANCH   7   8
ENDBRANCH   6   7
ENDBRANCH   5   6
ENDBRANCH   4   5
ENDBRANCH   3   4
ENDBRANCH   2   3
TORSDOF 11
ENDMDL
MODEL       71
REMARK 921   NORMALIZED FREE ENERGY PREDICTED BY IDOCK:   -4.44 KCAL/MOL
REMARK 922        TOTAL FREE ENERGY PREDICTED BY IDOCK:   -9.48 KCAL/MOL
REMARK 923 INTER-LIGAND FREE ENERGY PREDICTED BY IDOCK:   -8.38 KCAL/MOL
REMARK 924 INTRA-LIGAND FREE ENERGY PREDICTED BY IDOCK:   -1.11 KCAL/MOL
REMARK 927      BINDING AFFINITY PREDICTED BY RF-SCORE:    0.00 PKD
ROOT
HETATM    1  C   UNL     1      -5.589  14.290  67.993  1.00  0.00    -0.128 C  
HETATM    2  C   UNL     1      -6.904  15.007  68.173  1.00  0.00    -0.137 C  
ENDROOT
BRANCH   2   3
HETATM    3  C   UNL     1      -7.065  16.181  67.180  1.00  0.00    -0.253 C  
BRANCH   3   4
HETATM    4  C   UNL     1      -8.339  16.041  66.332  1.00  0.00    -0.344 C  
BRANCH   4   5
HETATM    5  C   UNL     1      -9.161  17.336  66.303  1.00  0.00    -0.245 C  
BRANCH   5   6
HETATM    6  C   UNL     1     -10.617  17.094  65.873  1.00  0.00    -0.219 C  
BRANCH   6   7
HETATM    7  C   UNL     1     -10.732  15.815  65.029  1.00  0.00    -0.443 C  
BRANCH   7   8
HETATM    8  C   UNL     1     -11.489  14.663  65.701  1.00  0.00    -0.340 C  
BRANCH   8   9
HETATM    9  C   UNL     1     -10.727  13.353  65.823  1.00  0.00    -0.280 C  
BRANCH   9  10
HETATM   10  C   UNL     1     -11.137  12.275  64.826  1.00  0.00    -0.356 C  
BRANCH  10  11
HETATM   11  C   UNL     1     -10.371  10.950  64.553  1.00  0.00    -0.348 C  
HETATM   12  O   UNL     1      -9.840  10.816  63.446  1.00  0.00    -0.307 OA 
BRANCH  11  13
HETATM   13  O   UNL     1     -10.479   9.887  65.445  1.00  0.00    -0.110 OA 
BRANCH  13  14
HETATM   14  C   UNL     1      -9.556   9.930  66.678  1.00  0.00    -0.184 C  
HETATM   15  C   UNL     1      -9.001   8.504  66.580  1.00  0.00    -0.194 C  
HETATM   16  C   UNL     1     -10.287   7.777  66.983  1.00  0.00    -0.405 C  
HETATM   17  C   UNL     1     -10.378   8.334  68.379  1.00  0.00    -0.237 C  
HETATM   18  C   UNL     1     -10.957   7.456  69.489  1.00  0.00    -0.155 C  
HETATM   19  C   UNL     1     -10.502   6.037  69.069  1.00  0.00    -0.319 C  
HETATM   20  C   UNL     1     -10.401   4.995  70.119  1.00  0.00    -0.306 C  
HETATM   21  C   UNL     1      -9.674   5.558  71.355  1.00  0.00    -0.205 C  
HETATM   22  C   UNL     1      -8.971   4.706  72.096  1.00  0.00    -0.143 C  
HETATM   23  C   UNL     1     -10.021   3.755  72.557  1.00  0.00    -0.163 C  
HETATM   24  O   UNL     1      -9.801   2.561  72.581  1.00  0.00    -0.115 OA 
HETATM   25  C   UNL     1     -11.375   4.419  72.955  1.00  0.00    -0.204 C  
HETATM   26  C   UNL     1     -11.688   5.929  72.448  1.00  0.00    -0.307 C  
HETATM   27  C   UNL     1     -10.408   6.746  72.002  1.00  0.00    -0.217 C  
HETATM   28  C   UNL     1      -9.815   7.278  73.315  1.00  0.00    -0.302 C  
HETATM   29  C   UNL     1     -10.281   7.861  70.834  1.00  0.00    -0.213 C  
HETATM   30  C   UNL     1     -10.341   9.434  70.954  1.00  0.00    -0.380 C  
HETATM   31  C   UNL     1      -9.624  10.200  69.670  1.00  0.00    -0.237 C  
HETATM   32  C   UNL     1     -10.315   9.877  68.243  1.00  0.00    -0.232 C  
HETATM   33  C   UNL     1     -11.507  10.834  68.180  1.00  0.00    -0.346 C  
ENDBRANCH  13  14
ENDBRANCH  11  13
ENDBRANCH  10  11
ENDBRANCH   9  10
ENDBRANCH   8   9
ENDBRANCH   7   8
ENDBRANCH   6   7
ENDBRANCH   5   6
ENDBRANCH   4   5
ENDBRANCH   3   4
ENDBRANCH   2   3
TORSDOF 11
ENDMDL
MODEL       72
REMARK 921   NORMALIZED FREE ENERGY PREDICTED BY IDOCK:   -4.44 KCAL/MOL
REMARK 922        TOTAL FREE ENERGY PREDICTED BY IDOCK:   -9.48 KCAL/MOL
REMARK 923 INTER-LIGAND FREE ENERGY PREDICTED BY IDOCK:   -7.56 KCAL/MOL
REMARK 924 INTRA-LIGAND FREE ENERGY PREDICTED BY IDOCK:   -1.93 KCAL/MOL
REMARK 927      BINDING AFFINITY PREDICTED BY RF-SCORE:    0.00 PKD
ROOT
HETATM    1  C   UNL     1      -6.434  10.076  63.610  1.00  0.00    -0.131 C  
HETATM    2  C   UNL     1      -5.999   8.696  64.038  1.00  0.00    -0.071 C  
ENDROOT
BRANCH   2   3
HETATM    3  C   UNL     1      -6.640   8.276  65.381  1.00  0.00    -0.052 C  
BRANCH   3   4
HETATM    4  C   UNL     1      -6.873   6.759  65.452  1.00  0.00    -0.051 C  
BRANCH   4   5
HETATM    5  C   UNL     1      -7.551   6.218  64.187  1.00  0.00    -0.098 C  
BRANCH   5   6
HETATM    6  C   UNL     1      -6.791   5.026  63.582  1.00  0.00    -0.046 C  
BRANCH   6   7
HETATM    7  C   UNL     1      -6.980   3.765  64.440  1.00  0.00    -0.046 C  
BRANCH   7   8
HETATM    8  C   UNL     1      -8.382   3.147  64.380  1.00  0.00    -0.093 C  
BRANCH   8   9
HETATM    9  C   UNL     1      -8.990   2.755  65.717  1.00  0.00    -0.143 C  
BRANCH   9  10
HETATM   10  C   UNL     1      -9.776   3.860  66.415  1.00  0.00    -0.181 C  
BRANCH  10  11
HETATM   11  C   UNL     1      -9.408   4.518  67.775  1.00  0.00    -0.147 C  
HETATM   12  O   UNL     1      -9.585   3.850  68.798  1.00  0.00    -0.162 OA 
BRANCH  11  13
HETATM   13  O   UNL     1      -9.105   5.875  67.831  1.00  0.00    -0.112 OA 
BRANCH  13  14
HETATM   14  C   UNL     1     -10.199   6.800  68.398  1.00  0.00    -0.178 C  
HETATM   15  C   UNL     1     -11.010   6.988  67.111  1.00  0.00    -0.393 C  
HETATM   16  C   UNL     1      -9.990   7.864  66.377  1.00  0.00    -0.192 C  
HETATM   17  C   UNL     1     -10.029   9.027  67.335  1.00  0.00    -0.266 C  
HETATM   18  C   UNL     1      -9.844  10.442  66.788  1.00  0.00    -0.242 C  
HETATM   19  C   UNL     1     -10.501  10.352  65.389  1.00  0.00    -0.187 C  
HETATM   20  C   UNL     1     -10.995  11.604  64.765  1.00  0.00    -0.351 C  
HETATM   21  C   UNL     1     -11.793  12.427  65.794  1.00  0.00    -0.467 C  
HETATM   22  C   UNL     1     -12.773  13.201  65.334  1.00  0.00    -0.422 C  
HETATM   23  C   UNL     1     -12.038  14.140  64.443  1.00  0.00    -0.463 C  
HETATM   24  O   UNL     1     -12.499  14.453  63.364  1.00  0.00    -0.709 OA 
HETATM   25  C   UNL     1     -10.666  14.630  65.000  1.00  0.00    -0.448 C  
HETATM   26  C   UNL     1      -9.967  13.799  66.206  1.00  0.00    -0.312 C  
HETATM   27  C   UNL     1     -10.954  12.859  67.009  1.00  0.00    -0.290 C  
HETATM   28  C   UNL     1     -11.643  13.794  68.014  1.00  0.00    -0.368 C  
HETATM   29  C   UNL     1     -10.645  11.424  67.695  1.00  0.00    -0.240 C  
HETATM   30  C   UNL     1     -10.285  11.101  69.198  1.00  0.00    -0.163 C  
HETATM   31  C   UNL     1     -10.596   9.523  69.604  1.00  0.00    -0.245 C  
HETATM   32  C   UNL     1      -9.749   8.445  68.745  1.00  0.00    -0.168 C  
HETATM   33  C   UNL     1      -8.393   8.386  69.451  1.00  0.00    -0.120 C  
ENDBRANCH  13  14
ENDBRANCH  11  13
ENDBRANCH  10  11
ENDBRANCH   9  10
ENDBRANCH   8   9
ENDBRANCH   7   8
ENDBRANCH   6   7
ENDBRANCH   5   6
ENDBRANCH   4   5
ENDBRANCH   3   4
ENDBRANCH   2   3
TORSDOF 11
ENDMDL
MODEL       73
REMARK 921   NORMALIZED FREE ENERGY PREDICTED BY IDOCK:   -4.44 KCAL/MOL
REMARK 922        TOTAL FREE ENERGY PREDICTED BY IDOCK:   -9.48 KCAL/MOL
REMARK 923 INTER-LIGAND FREE ENERGY PREDICTED BY IDOCK:   -8.00 KCAL/MOL
REMARK 924 INTRA-LIGAND FREE ENERGY PREDICTED BY IDOCK:   -1.48 KCAL/MOL
REMARK 927      BINDING AFFINITY PREDICTED BY RF-SCORE:    0.00 PKD
ROOT
HETATM    1  C   UNL     1      -9.950   8.458  71.288  1.00  0.00    -0.261 C  
HETATM    2  C   UNL     1      -9.489   7.589  70.144  1.00  0.00    -0.161 C  
ENDROOT
BRANCH   2   3
HETATM    3  C   UNL     1      -9.983   6.131  70.288  1.00  0.00    -0.226 C  
BRANCH   3   4
HETATM    4  C   UNL     1     -10.740   5.659  69.037  1.00  0.00    -0.307 C  
BRANCH   4   5
HETATM    5  C   UNL     1      -9.827   4.918  68.052  1.00  0.00    -0.197 C  
BRANCH   5   6
HETATM    6  C   UNL     1     -10.338   5.002  66.605  1.00  0.00    -0.312 C  
BRANCH   6   7
HETATM    7  C   UNL     1      -9.183   5.279  65.631  1.00  0.00    -0.145 C  
BRANCH   7   8
HETATM    8  C   UNL     1      -7.919   5.861  66.277  1.00  0.00    -0.102 C  
BRANCH   8   9
HETATM    9  C   UNL     1      -7.581   7.293  65.895  1.00  0.00    -0.090 C  
BRANCH   9  10
HETATM   10  C   UNL     1      -8.783   8.179  65.586  1.00  0.00    -0.176 C  
BRANCH  10  11
HETATM   11  C   UNL     1      -9.723   8.835  66.637  1.00  0.00    -0.242 C  
HETATM   12  O   UNL     1     -10.802   8.279  66.863  1.00  0.00    -0.228 OA 
BRANCH  11  13
HETATM   13  O   UNL     1      -9.440  10.107  67.125  1.00  0.00    -0.154 OA 
BRANCH  13  14
HETATM   14  C   UNL     1      -9.181  11.203  66.073  1.00  0.00    -0.205 C  
HETATM   15  C   UNL     1      -7.946  11.838  66.724  1.00  0.00    -0.116 C  
HETATM   16  C   UNL     1      -8.673  12.486  67.906  1.00  0.00    -0.180 C  
HETATM   17  C   UNL     1      -9.527  13.428  67.098  1.00  0.00    -0.244 C  
HETATM   18  C   UNL     1      -9.874  14.797  67.682  1.00  0.00    -0.218 C  
HETATM   19  C   UNL     1      -8.609  15.143  68.505  1.00  0.00    -0.163 C  
HETATM   20  C   UNL     1      -8.326  16.572  68.785  1.00  0.00    -0.248 C  
HETATM   21  C   UNL     1      -8.502  17.407  67.503  1.00  0.00    -0.218 C  
HETATM   22  C   UNL     1      -7.755  18.501  67.376  1.00  0.00    -0.233 C  
HETATM   23  C   UNL     1      -8.199  19.319  68.538  1.00  0.00    -0.366 C  
HETATM   24  O   UNL     1      -7.390  19.932  69.203  1.00  0.00    -0.295 OA 
HETATM   25  C   UNL     1      -9.734  19.281  68.816  1.00  0.00    -0.510 C  
HETATM   26  C   UNL     1     -10.620  18.089  68.163  1.00  0.00    -0.334 C  
HETATM   27  C   UNL     1      -9.933  17.359  66.939  1.00  0.00    -0.300 C  
HETATM   28  C   UNL     1     -10.220  18.271  65.737  1.00  0.00    -0.106 C  
HETATM   29  C   UNL     1     -10.040  15.803  66.503  1.00  0.00    -0.292 C  
HETATM   30  C   UNL     1     -10.984  15.137  65.426  1.00  0.00    -0.381 C  
HETATM   31  C   UNL     1     -10.410  13.677  64.890  1.00  0.00    -0.408 C  
HETATM   32  C   UNL     1     -10.271  12.559  66.051  1.00  0.00    -0.269 C  
HETATM   33  C   UNL     1     -11.683  11.983  66.186  1.00  0.00    -0.313 C  
ENDBRANCH  13  14
ENDBRANCH  11  13
ENDBRANCH  10  11
ENDBRANCH   9  10
ENDBRANCH   8   9
ENDBRANCH   7   8
ENDBRANCH   6   7
ENDBRANCH   5   6
ENDBRANCH   4   5
ENDBRANCH   3   4
ENDBRANCH   2   3
TORSDOF 11
ENDMDL
MODEL       74
REMARK 921   NORMALIZED FREE ENERGY PREDICTED BY IDOCK:   -4.43 KCAL/MOL
REMARK 922        TOTAL FREE ENERGY PREDICTED BY IDOCK:   -9.47 KCAL/MOL
REMARK 923 INTER-LIGAND FREE ENERGY PREDICTED BY IDOCK:   -6.95 KCAL/MOL
REMARK 924 INTRA-LIGAND FREE ENERGY PREDICTED BY IDOCK:   -2.51 KCAL/MOL
REMARK 927      BINDING AFFINITY PREDICTED BY RF-SCORE:    0.00 PKD
ROOT
HETATM    1  C   UNL     1      -6.405  14.547  70.096  1.00  0.00    -0.168 C  
HETATM    2  C   UNL     1      -5.627  13.437  69.434  1.00  0.00    -0.082 C  
ENDROOT
BRANCH   2   3
HETATM    3  C   UNL     1      -5.500  12.194  70.343  1.00  0.00    -0.149 C  
BRANCH   3   4
HETATM    4  C   UNL     1      -6.526  11.110  69.975  1.00  0.00    -0.133 C  
BRANCH   4   5
HETATM    5  C   UNL     1      -6.061   9.709  70.389  1.00  0.00    -0.065 C  
BRANCH   5   6
HETATM    6  C   UNL     1      -7.007   9.059  71.412  1.00  0.00    -0.073 C  
BRANCH   6   7
HETATM    7  C   UNL     1      -7.299   7.598  71.037  1.00  0.00    -0.070 C  
BRANCH   7   8
HETATM    8  C   UNL     1      -8.322   6.892  71.935  1.00  0.00    -0.107 C  
BRANCH   8   9
HETATM    9  C   UNL     1      -9.112   5.769  71.282  1.00  0.00    -0.151 C  
BRANCH   9  10
HETATM   10  C   UNL     1      -9.045   5.737  69.759  1.00  0.00    -0.151 C  
BRANCH  10  11
HETATM   11  C   UNL     1      -9.956   6.544  68.791  1.00  0.00    -0.143 C  
HETATM   12  O   UNL     1     -10.899   5.947  68.264  1.00  0.00    -0.270 OA 
BRANCH  11  13
HETATM   13  O   UNL     1      -9.577   7.819  68.381  1.00  0.00    -0.149 OA 
BRANCH  13  14
HETATM   14  C   UNL     1     -10.717   8.802  68.052  1.00  0.00    -0.090 C  
HETATM   15  C   UNL     1     -10.115   9.412  66.781  1.00  0.00    -0.325 C  
HETATM   16  C   UNL     1      -8.998  10.204  67.468  1.00  0.00    -0.136 C  
HETATM   17  C   UNL     1      -9.890  11.124  68.259  1.00  0.00    -0.195 C  
HETATM   18  C   UNL     1      -9.429  12.558  68.521  1.00  0.00    -0.100 C  
HETATM   19  C   UNL     1      -8.630  12.894  67.237  1.00  0.00    -0.205 C  
HETATM   20  C   UNL     1      -8.472  14.321  66.865  1.00  0.00    -0.133 C  
HETATM   21  C   UNL     1      -9.822  15.051  66.987  1.00  0.00    -0.241 C  
HETATM   22  C   UNL     1     -10.039  16.082  66.172  1.00  0.00    -0.346 C  
HETATM   23  C   UNL     1      -8.954  17.023  66.566  1.00  0.00    -0.269 C  
HETATM   24  O   UNL     1      -8.339  17.640  65.720  1.00  0.00    -0.537 OA 
HETATM   25  C   UNL     1      -8.684  17.105  68.100  1.00  0.00    -0.232 C  
HETATM   26  C   UNL     1      -9.238  15.919  69.059  1.00  0.00    -0.242 C  
HETATM   27  C   UNL     1     -10.390  15.045  68.417  1.00  0.00    -0.231 C  
HETATM   28  C   UNL     1     -11.668  15.865  68.645  1.00  0.00    -0.328 C  
HETATM   29  C   UNL     1     -10.691  13.466  68.621  1.00  0.00    -0.275 C  
HETATM   30  C   UNL     1     -11.713  12.770  69.603  1.00  0.00    -0.372 C  
HETATM   31  C   UNL     1     -12.117  11.236  69.121  1.00  0.00    -0.348 C  
HETATM   32  C   UNL     1     -10.863  10.216  69.056  1.00  0.00    -0.257 C  
HETATM   33  C   UNL     1     -10.689   9.744  70.501  1.00  0.00    -0.381 C  
ENDBRANCH  13  14
ENDBRANCH  11  13
ENDBRANCH  10  11
ENDBRANCH   9  10
ENDBRANCH   8   9
ENDBRANCH   7   8
ENDBRANCH   6   7
ENDBRANCH   5   6
ENDBRANCH   4   5
ENDBRANCH   3   4
ENDBRANCH   2   3
TORSDOF 11
ENDMDL
MODEL       75
REMARK 921   NORMALIZED FREE ENERGY PREDICTED BY IDOCK:   -4.42 KCAL/MOL
REMARK 922        TOTAL FREE ENERGY PREDICTED BY IDOCK:   -9.45 KCAL/MOL
REMARK 923 INTER-LIGAND FREE ENERGY PREDICTED BY IDOCK:   -7.57 KCAL/MOL
REMARK 924 INTRA-LIGAND FREE ENERGY PREDICTED BY IDOCK:   -1.89 KCAL/MOL
REMARK 927      BINDING AFFINITY PREDICTED BY RF-SCORE:    0.00 PKD
ROOT
HETATM    1  C   UNL     1      -9.880   5.009  69.987  1.00  0.00    -0.298 C  
HETATM    2  C   UNL     1     -10.878   5.517  70.997  1.00  0.00    -0.243 C  
ENDROOT
BRANCH   2   3
HETATM    3  C   UNL     1     -11.646   6.756  70.481  1.00  0.00    -0.426 C  
BRANCH   3   4
HETATM    4  C   UNL     1     -10.723   7.974  70.323  1.00  0.00    -0.239 C  
BRANCH   4   5
HETATM    5  C   UNL     1     -10.692   8.845  71.584  1.00  0.00    -0.418 C  
BRANCH   5   6
HETATM    6  C   UNL     1      -9.424   8.613  72.423  1.00  0.00    -0.295 C  
BRANCH   6   7
HETATM    7  C   UNL     1      -8.325   7.950  71.580  1.00  0.00    -0.130 C  
BRANCH   7   8
HETATM    8  C   UNL     1      -7.155   8.868  71.205  1.00  0.00    -0.103 C  
BRANCH   8   9
HETATM    9  C   UNL     1      -6.354   8.453  69.982  1.00  0.00    -0.035 C  
BRANCH   9  10
HETATM   10  C   UNL     1      -7.123   7.625  68.959  1.00  0.00    -0.078 C  
BRANCH  10  11
HETATM   11  C   UNL     1      -8.008   8.190  67.812  1.00  0.00    -0.127 C  
HETATM   12  O   UNL     1      -7.908   7.660  66.701  1.00  0.00    -0.102 OA 
BRANCH  11  13
HETATM   13  O   UNL     1      -8.708   9.379  67.995  1.00  0.00    -0.124 OA 
BRANCH  13  14
HETATM   14  C   UNL     1      -8.689  10.375  66.819  1.00  0.00    -0.127 C  
HETATM   15  C   UNL     1      -7.464  11.192  67.250  1.00  0.00    -0.118 C  
HETATM   16  C   UNL     1      -8.120  11.890  68.445  1.00  0.00    -0.155 C  
HETATM   17  C   UNL     1      -9.156  12.653  67.661  1.00  0.00    -0.192 C  
HETATM   18  C   UNL     1      -9.581  14.038  68.149  1.00  0.00    -0.220 C  
HETATM   19  C   UNL     1      -8.277  14.591  68.773  1.00  0.00    -0.146 C  
HETATM   20  C   UNL     1      -8.120  16.062  68.878  1.00  0.00    -0.218 C  
HETATM   21  C   UNL     1      -8.528  16.733  67.553  1.00  0.00    -0.203 C  
HETATM   22  C   UNL     1      -7.923  17.873  67.230  1.00  0.00    -0.222 C  
HETATM   23  C   UNL     1      -8.320  18.766  68.355  1.00  0.00    -0.342 C  
HETATM   24  O   UNL     1      -7.512  19.522  68.853  1.00  0.00    -0.353 OA 
HETATM   25  C   UNL     1      -9.800  18.611  68.822  1.00  0.00    -0.422 C  
HETATM   26  C   UNL     1     -10.620  17.275  68.400  1.00  0.00    -0.368 C  
HETATM   27  C   UNL     1      -9.999  16.487  67.176  1.00  0.00    -0.266 C  
HETATM   28  C   UNL     1     -10.517  17.232  65.937  1.00  0.00    -0.267 C  
HETATM   29  C   UNL     1      -9.986  14.890  66.909  1.00  0.00    -0.245 C  
HETATM   30  C   UNL     1     -10.967  14.024  66.024  1.00  0.00    -0.298 C  
HETATM   31  C   UNL     1     -10.303  12.576  65.565  1.00  0.00    -0.303 C  
HETATM   32  C   UNL     1      -9.915  11.609  66.802  1.00  0.00    -0.229 C  
HETATM   33  C   UNL     1     -11.232  10.918  67.163  1.00  0.00    -0.258 C  
ENDBRANCH  13  14
ENDBRANCH  11  13
ENDBRANCH  10  11
ENDBRANCH   9  10
ENDBRANCH   8   9
ENDBRANCH   7   8
ENDBRANCH   6   7
ENDBRANCH   5   6
ENDBRANCH   4   5
ENDBRANCH   3   4
ENDBRANCH   2   3
TORSDOF 11
ENDMDL
MODEL       76
REMARK 921   NORMALIZED FREE ENERGY PREDICTED BY IDOCK:   -4.42 KCAL/MOL
REMARK 922        TOTAL FREE ENERGY PREDICTED BY IDOCK:   -9.44 KCAL/MOL
REMARK 923 INTER-LIGAND FREE ENERGY PREDICTED BY IDOCK:   -6.79 KCAL/MOL
REMARK 924 INTRA-LIGAND FREE ENERGY PREDICTED BY IDOCK:   -2.65 KCAL/MOL
REMARK 927      BINDING AFFINITY PREDICTED BY RF-SCORE:    0.00 PKD
ROOT
HETATM    1  C   UNL     1      -6.872   9.538  68.840  1.00  0.00    -0.055 C  
HETATM    2  C   UNL     1      -6.814  10.925  69.431  1.00  0.00    -0.114 C  
ENDROOT
BRANCH   2   3
HETATM    3  C   UNL     1      -5.960  11.886  68.572  1.00  0.00    -0.049 C  
BRANCH   3   4
HETATM    4  C   UNL     1      -6.630  13.260  68.417  1.00  0.00    -0.093 C  
BRANCH   4   5
HETATM    5  C   UNL     1      -6.219  14.233  69.529  1.00  0.00    -0.122 C  
BRANCH   5   6
HETATM    6  C   UNL     1      -7.216  15.393  69.687  1.00  0.00    -0.174 C  
BRANCH   6   7
HETATM    7  C   UNL     1      -8.491  15.133  68.872  1.00  0.00    -0.199 C  
BRANCH   7   8
HETATM    8  C   UNL     1      -9.651  16.094  69.162  1.00  0.00    -0.249 C  
BRANCH   8   9
HETATM    9  C   UNL     1     -10.768  15.540  70.031  1.00  0.00    -0.331 C  
BRANCH   9  10
HETATM   10  C   UNL     1     -11.982  15.023  69.266  1.00  0.00    -0.322 C  
BRANCH  10  11
HETATM   11  C   UNL     1     -11.950  14.012  68.086  1.00  0.00    -0.347 C  
HETATM   12  O   UNL     1     -12.060  14.465  66.943  1.00  0.00    -0.425 OA 
BRANCH  11  13
HETATM   13  O   UNL     1     -12.017  12.645  68.339  1.00  0.00    -0.317 OA 
BRANCH  13  14
HETATM   14  C   UNL     1     -10.811  12.021  69.067  1.00  0.00    -0.177 C  
HETATM   15  C   UNL     1      -9.960  11.697  67.834  1.00  0.00    -0.190 C  
HETATM   16  C   UNL     1     -10.830  10.553  67.305  1.00  0.00    -0.338 C  
HETATM   17  C   UNL     1     -10.639   9.626  68.478  1.00  0.00    -0.253 C  
HETATM   18  C   UNL     1     -10.609   8.117  68.230  1.00  0.00    -0.153 C  
HETATM   19  C   UNL     1      -9.948   8.018  66.833  1.00  0.00    -0.338 C  
HETATM   20  C   UNL     1      -9.269   6.751  66.469  1.00  0.00    -0.190 C  
HETATM   21  C   UNL     1      -8.378   6.276  67.632  1.00  0.00    -0.117 C  
HETATM   22  C   UNL     1      -7.288   5.576  67.325  1.00  0.00    -0.080 C  
HETATM   23  C   UNL     1      -7.865   4.380  66.652  1.00  0.00    -0.098 C  
HETATM   24  O   UNL     1      -7.345   3.926  65.653  1.00  0.00    -0.070 OA 
HETATM   25  C   UNL     1      -9.161   3.819  67.314  1.00  0.00    -0.208 C  
HETATM   26  C   UNL     1      -9.993   4.766  68.336  1.00  0.00    -0.156 C  
HETATM   27  C   UNL     1      -9.166   5.981  68.920  1.00  0.00    -0.125 C  
HETATM   28  C   UNL     1      -8.366   5.378  70.084  1.00  0.00    -0.114 C  
HETATM   29  C   UNL     1      -9.690   7.465  69.306  1.00  0.00    -0.165 C  
HETATM   30  C   UNL     1     -10.119   8.029  70.718  1.00  0.00    -0.207 C  
HETATM   31  C   UNL     1     -10.045   9.684  70.792  1.00  0.00    -0.293 C  
HETATM   32  C   UNL     1     -11.024  10.433  69.745  1.00  0.00    -0.345 C  
HETATM   33  C   UNL     1     -12.386  10.436  70.442  1.00  0.00    -0.370 C  
ENDBRANCH  13  14
ENDBRANCH  11  13
ENDBRANCH  10  11
ENDBRANCH   9  10
ENDBRANCH   8   9
ENDBRANCH   7   8
ENDBRANCH   6   7
ENDBRANCH   5   6
ENDBRANCH   4   5
ENDBRANCH   3   4
ENDBRANCH   2   3
TORSDOF 11
ENDMDL
MODEL       77
REMARK 921   NORMALIZED FREE ENERGY PREDICTED BY IDOCK:   -4.42 KCAL/MOL
REMARK 922        TOTAL FREE ENERGY PREDICTED BY IDOCK:   -9.44 KCAL/MOL
REMARK 923 INTER-LIGAND FREE ENERGY PREDICTED BY IDOCK:   -7.33 KCAL/MOL
REMARK 924 INTRA-LIGAND FREE ENERGY PREDICTED BY IDOCK:   -2.11 KCAL/MOL
REMARK 927      BINDING AFFINITY PREDICTED BY RF-SCORE:    0.00 PKD
ROOT
HETATM    1  C   UNL     1     -10.561   6.139  68.345  1.00  0.00    -0.324 C  
HETATM    2  C   UNL     1     -11.044   6.740  69.642  1.00  0.00    -0.343 C  
ENDROOT
BRANCH   2   3
HETATM    3  C   UNL     1     -10.193   7.958  70.069  1.00  0.00    -0.208 C  
BRANCH   3   4
HETATM    4  C   UNL     1     -10.910   9.285  69.777  1.00  0.00    -0.239 C  
BRANCH   4   5
HETATM    5  C   UNL     1     -11.467   9.935  71.050  1.00  0.00    -0.466 C  
BRANCH   5   6
HETATM    6  C   UNL     1     -12.209  11.249  70.758  1.00  0.00    -0.479 C  
BRANCH   6   7
HETATM    7  C   UNL     1     -13.242  11.549  71.854  1.00  0.00    -0.479 C  
BRANCH   7   8
HETATM    8  C   UNL     1     -13.528  13.039  72.083  1.00  0.00    -0.638 C  
BRANCH   8   9
HETATM    9  C   UNL     1     -12.467  14.002  71.574  1.00  0.00    -0.407 C  
BRANCH   9  10
HETATM   10  C   UNL     1     -12.933  14.950  70.474  1.00  0.00    -0.339 C  
BRANCH  10  11
HETATM   11  C   UNL     1     -12.231  15.168  69.104  1.00  0.00    -0.150 C  
HETATM   12  O   UNL     1     -11.901  16.321  68.810  1.00  0.00    -0.278 OA 
BRANCH  11  13
HETATM   13  O   UNL     1     -12.187  14.135  68.173  1.00  0.00    -0.306 OA 
BRANCH  13  14
HETATM   14  C   UNL     1     -11.002  14.148  67.189  1.00  0.00    -0.299 C  
HETATM   15  C   UNL     1     -11.579  13.185  66.144  1.00  0.00    -0.396 C  
HETATM   16  C   UNL     1     -11.472  11.912  66.990  1.00  0.00    -0.384 C  
HETATM   17  C   UNL     1      -9.970  11.902  67.110  1.00  0.00    -0.209 C  
HETATM   18  C   UNL     1      -9.241  10.559  67.161  1.00  0.00    -0.158 C  
HETATM   19  C   UNL     1     -10.119   9.664  66.252  1.00  0.00    -0.322 C  
HETATM   20  C   UNL     1      -9.493   8.475  65.624  1.00  0.00    -0.051 C  
HETATM   21  C   UNL     1      -8.128   8.854  65.020  1.00  0.00    -0.137 C  
HETATM   22  C   UNL     1      -7.716   8.170  63.955  1.00  0.00    -0.137 C  
HETATM   23  C   UNL     1      -7.629   6.783  64.490  1.00  0.00    -0.103 C  
HETATM   24  O   UNL     1      -8.016   5.843  63.826  1.00  0.00    -0.113 OA 
HETATM   25  C   UNL     1      -7.047   6.674  65.933  1.00  0.00    -0.062 C  
HETATM   26  C   UNL     1      -7.004   8.003  66.864  1.00  0.00    -0.074 C  
HETATM   27  C   UNL     1      -7.121   9.364  66.066  1.00  0.00    -0.091 C  
HETATM   28  C   UNL     1      -5.696   9.637  65.562  1.00  0.00    -0.059 C  
HETATM   29  C   UNL     1      -7.830  10.745  66.527  1.00  0.00    -0.145 C  
HETATM   30  C   UNL     1      -7.174  12.029  67.173  1.00  0.00    -0.131 C  
HETATM   31  C   UNL     1      -8.103  13.388  66.975  1.00  0.00    -0.018 C  
HETATM   32  C   UNL     1      -9.564  13.292  67.663  1.00  0.00    -0.213 C  
HETATM   33  C   UNL     1      -9.309  13.648  69.130  1.00  0.00     0.431 C  
ENDBRANCH  13  14
ENDBRANCH  11  13
ENDBRANCH  10  11
ENDBRANCH   9  10
ENDBRANCH   8   9
ENDBRANCH   7   8
ENDBRANCH   6   7
ENDBRANCH   5   6
ENDBRANCH   4   5
ENDBRANCH   3   4
ENDBRANCH   2   3
TORSDOF 11
ENDMDL
MODEL       78
REMARK 921   NORMALIZED FREE ENERGY PREDICTED BY IDOCK:   -4.31 KCAL/MOL
REMARK 922        TOTAL FREE ENERGY PREDICTED BY IDOCK:   -9.26 KCAL/MOL
REMARK 923 INTER-LIGAND FREE ENERGY PREDICTED BY IDOCK:   -7.46 KCAL/MOL
REMARK 924 INTRA-LIGAND FREE ENERGY PREDICTED BY IDOCK:   -1.80 KCAL/MOL
REMARK 927      BINDING AFFINITY PREDICTED BY RF-SCORE:    0.00 PKD
ROOT
HETATM    1  C   UNL     1      -6.476  10.848  69.881  1.00  0.00    -0.144 C  
HETATM    2  C   UNL     1      -7.745  10.054  70.064  1.00  0.00    -0.181 C  
ENDROOT
BRANCH   2   3
HETATM    3  C   UNL     1      -7.594   8.960  71.147  1.00  0.00    -0.143 C  
BRANCH   3   4
HETATM    4  C   UNL     1      -8.944   8.597  71.784  1.00  0.00    -0.307 C  
BRANCH   4   5
HETATM    5  C   UNL     1      -9.351   7.148  71.492  1.00  0.00    -0.156 C  
BRANCH   5   6
HETATM    6  C   UNL     1      -8.179   6.310  70.953  1.00  0.00    -0.126 C  
BRANCH   6   7
HETATM    7  C   UNL     1      -8.621   5.462  69.751  1.00  0.00    -0.100 C  
BRANCH   7   8
HETATM    8  C   UNL     1      -8.427   6.128  68.384  1.00  0.00    -0.114 C  
BRANCH   8   9
HETATM    9  C   UNL     1      -9.675   6.728  67.756  1.00  0.00    -0.140 C  
BRANCH   9  10
HETATM   10  C   UNL     1      -9.818   8.237  67.923  1.00  0.00    -0.207 C  
BRANCH  10  11
HETATM   11  C   UNL     1     -10.142   9.250  66.789  1.00  0.00    -0.261 C  
HETATM   12  O   UNL     1      -9.991   8.870  65.624  1.00  0.00    -0.108 OA 
BRANCH  11  13
HETATM   13  O   UNL     1     -10.377  10.587  67.098  1.00  0.00    -0.211 OA 
BRANCH  13  14
HETATM   14  C   UNL     1      -9.820  11.628  66.109  1.00  0.00    -0.223 C  
HETATM   15  C   UNL     1      -8.528  11.970  66.861  1.00  0.00    -0.172 C  
HETATM   16  C   UNL     1      -9.185  12.728  68.019  1.00  0.00    -0.208 C  
HETATM   17  C   UNL     1      -9.762  13.849  67.195  1.00  0.00    -0.244 C  
HETATM   18  C   UNL     1      -9.854  15.247  67.808  1.00  0.00    -0.220 C  
HETATM   19  C   UNL     1      -8.606  15.296  68.723  1.00  0.00    -0.190 C  
HETATM   20  C   UNL     1      -8.049  16.624  69.076  1.00  0.00    -0.199 C  
HETATM   21  C   UNL     1      -7.954  17.509  67.819  1.00  0.00    -0.210 C  
HETATM   22  C   UNL     1      -6.987  18.422  67.781  1.00  0.00    -0.214 C  
HETATM   23  C   UNL     1      -7.330  19.287  68.944  1.00  0.00    -0.356 C  
HETATM   24  O   UNL     1      -6.458  19.698  69.683  1.00  0.00    -0.315 OA 
HETATM   25  C   UNL     1      -8.854  19.569  69.122  1.00  0.00    -0.125 C  
HETATM   26  C   UNL     1      -9.923  18.609  68.368  1.00  0.00    -0.428 C  
HETATM   27  C   UNL     1      -9.319  17.780  67.163  1.00  0.00    -0.264 C  
HETATM   28  C   UNL     1      -9.323  18.761  65.981  1.00  0.00    -0.040 C  
HETATM   29  C   UNL     1      -9.721  16.293  66.661  1.00  0.00    -0.266 C  
HETATM   30  C   UNL     1     -10.705  15.870  65.501  1.00  0.00    -0.386 C  
HETATM   31  C   UNL     1     -10.415  14.334  64.947  1.00  0.00    -0.454 C  
HETATM   32  C   UNL     1     -10.597  13.184  66.070  1.00  0.00    -0.291 C  
HETATM   33  C   UNL     1     -12.104  12.919  66.092  1.00  0.00    -0.458 C  
ENDBRANCH  13  14
ENDBRANCH  11  13
ENDBRANCH  10  11
ENDBRANCH   9  10
ENDBRANCH   8   9
ENDBRANCH   7   8
ENDBRANCH   6   7
ENDBRANCH   5   6
ENDBRANCH   4   5
ENDBRANCH   3   4
ENDBRANCH   2   3
TORSDOF 11
ENDMDL
MODEL       79
REMARK 921   NORMALIZED FREE ENERGY PREDICTED BY IDOCK:   -4.29 KCAL/MOL
REMARK 922        TOTAL FREE ENERGY PREDICTED BY IDOCK:   -9.24 KCAL/MOL
REMARK 923 INTER-LIGAND FREE ENERGY PREDICTED BY IDOCK:   -7.59 KCAL/MOL
REMARK 924 INTRA-LIGAND FREE ENERGY PREDICTED BY IDOCK:   -1.65 KCAL/MOL
REMARK 927      BINDING AFFINITY PREDICTED BY RF-SCORE:    0.00 PKD
ROOT
HETATM    1  C   UNL     1     -10.652  19.719  66.291  1.00  0.00    -0.572 C  
HETATM    2  C   UNL     1     -10.561  19.003  67.616  1.00  0.00    -0.526 C  
ENDROOT
BRANCH   2   3
HETATM    3  C   UNL     1     -10.070  17.546  67.455  1.00  0.00    -0.326 C  
BRANCH   3   4
HETATM    4  C   UNL     1     -10.287  16.726  68.737  1.00  0.00    -0.318 C  
BRANCH   4   5
HETATM    5  C   UNL     1     -11.664  16.054  68.767  1.00  0.00    -0.302 C  
BRANCH   5   6
HETATM    6  C   UNL     1     -11.625  14.674  69.445  1.00  0.00    -0.342 C  
BRANCH   6   7
HETATM    7  C   UNL     1     -12.019  13.567  68.456  1.00  0.00    -0.379 C  
BRANCH   7   8
HETATM    8  C   UNL     1     -12.080  14.004  66.987  1.00  0.00    -0.455 C  
BRANCH   8   9
HETATM    9  C   UNL     1     -11.005  13.427  66.080  1.00  0.00    -0.281 C  
BRANCH   9  10
HETATM   10  C   UNL     1      -9.594  13.936  66.349  1.00  0.00    -0.292 C  
BRANCH  10  11
HETATM   11  C   UNL     1      -8.479  13.165  67.111  1.00  0.00    -0.169 C  
HETATM   12  O   UNL     1      -7.388  13.725  67.247  1.00  0.00    -0.145 OA 
BRANCH  11  13
HETATM   13  O   UNL     1      -8.654  11.819  67.424  1.00  0.00    -0.148 OA 
BRANCH  13  14
HETATM   14  C   UNL     1      -8.998  11.495  68.890  1.00  0.00     0.039 C  
HETATM   15  C   UNL     1      -7.678  10.818  69.277  1.00  0.00    -0.129 C  
HETATM   16  C   UNL     1      -7.878   9.541  68.455  1.00  0.00    -0.086 C  
HETATM   17  C   UNL     1      -9.093   9.042  69.191  1.00  0.00    -0.140 C  
HETATM   18  C   UNL     1      -9.292   7.535  69.354  1.00  0.00    -0.152 C  
HETATM   19  C   UNL     1      -7.839   7.013  69.473  1.00  0.00    -0.119 C  
HETATM   20  C   UNL     1      -7.614   5.716  70.155  1.00  0.00    -0.085 C  
HETATM   21  C   UNL     1      -8.421   5.662  71.466  1.00  0.00    -0.128 C  
HETATM   22  C   UNL     1      -7.925   4.931  72.462  1.00  0.00    -0.094 C  
HETATM   23  C   UNL     1      -7.899   3.568  71.865  1.00  0.00    -0.062 C  
HETATM   24  O   UNL     1      -6.950   2.834  72.051  1.00  0.00    -0.031 OA 
HETATM   25  C   UNL     1      -9.143   3.211  70.995  1.00  0.00    -0.184 C  
HETATM   26  C   UNL     1     -10.095   4.410  70.458  1.00  0.00    -0.190 C  
HETATM   27  C   UNL     1      -9.940   5.771  71.249  1.00  0.00    -0.241 C  
HETATM   28  C   UNL     1     -10.819   5.593  72.496  1.00  0.00    -0.299 C  
HETATM   29  C   UNL     1     -10.062   7.285  70.686  1.00  0.00    -0.198 C  
HETATM   30  C   UNL     1     -11.306   8.257  70.717  1.00  0.00    -0.285 C  
HETATM   31  C   UNL     1     -10.874   9.851  70.566  1.00  0.00    -0.391 C  
HETATM   32  C   UNL     1     -10.125  10.200  69.175  1.00  0.00    -0.226 C  
HETATM   33  C   UNL     1     -11.265  10.387  68.172  1.00  0.00    -0.333 C  
ENDBRANCH  13  14
ENDBRANCH  11  13
ENDBRANCH  10  11
ENDBRANCH   9  10
ENDBRANCH   8   9
ENDBRANCH   7   8
ENDBRANCH   6   7
ENDBRANCH   5   6
ENDBRANCH   4   5
ENDBRANCH   3   4
ENDBRANCH   2   3
TORSDOF 11
ENDMDL
MODEL       80
REMARK 921   NORMALIZED FREE ENERGY PREDICTED BY IDOCK:   -4.29 KCAL/MOL
REMARK 922        TOTAL FREE ENERGY PREDICTED BY IDOCK:   -9.23 KCAL/MOL
REMARK 923 INTER-LIGAND FREE ENERGY PREDICTED BY IDOCK:   -7.51 KCAL/MOL
REMARK 924 INTRA-LIGAND FREE ENERGY PREDICTED BY IDOCK:   -1.72 KCAL/MOL
REMARK 927      BINDING AFFINITY PREDICTED BY RF-SCORE:    0.00 PKD
ROOT
HETATM    1  C   UNL     1     -12.735  11.896  63.576  1.00  0.00    -0.530 C  
HETATM    2  C   UNL     1     -11.705  12.986  63.411  1.00  0.00    -0.477 C  
ENDROOT
BRANCH   2   3
HETATM    3  C   UNL     1     -12.058  14.248  64.231  1.00  0.00    -0.467 C  
BRANCH   3   4
HETATM    4  C   UNL     1     -10.809  14.898  64.845  1.00  0.00    -0.431 C  
BRANCH   4   5
HETATM    5  C   UNL     1     -11.125  15.641  66.149  1.00  0.00    -0.127 C  
BRANCH   5   6
HETATM    6  C   UNL     1     -10.761  14.816  67.394  1.00  0.00    -0.281 C  
BRANCH   6   7
HETATM    7  C   UNL     1     -11.868  13.801  67.720  1.00  0.00    -0.404 C  
BRANCH   7   8
HETATM    8  C   UNL     1     -11.496  12.335  67.466  1.00  0.00    -0.414 C  
BRANCH   8   9
HETATM    9  C   UNL     1     -10.014  12.051  67.282  1.00  0.00    -0.205 C  
BRANCH   9  10
HETATM   10  C   UNL     1      -9.618  11.575  65.888  1.00  0.00    -0.254 C  
BRANCH  10  11
HETATM   11  C   UNL     1      -9.658  10.105  65.383  1.00  0.00    -0.264 C  
HETATM   12  O   UNL     1      -9.431   9.906  64.187  1.00  0.00    -0.280 OA 
BRANCH  11  13
HETATM   13  O   UNL     1     -10.148   9.099  66.212  1.00  0.00    -0.286 OA 
BRANCH  13  14
HETATM   14  C   UNL     1      -9.183   7.940  66.528  1.00  0.00    -0.191 C  
HETATM   15  C   UNL     1     -10.231   6.842  66.746  1.00  0.00    -0.273 C  
HETATM   16  C   UNL     1     -10.779   7.371  68.075  1.00  0.00    -0.191 C  
HETATM   17  C   UNL     1      -9.508   7.212  68.869  1.00  0.00    -0.142 C  
HETATM   18  C   UNL     1      -9.603   6.850  70.351  1.00  0.00    -0.171 C  
HETATM   19  C   UNL     1     -10.863   5.951  70.399  1.00  0.00    -0.378 C  
HETATM   20  C   UNL     1     -10.994   4.988  71.519  1.00  0.00     0.064 C  
HETATM   21  C   UNL     1      -9.665   4.237  71.729  1.00  0.00    -0.237 C  
HETATM   22  C   UNL     1      -9.729   2.997  72.208  1.00  0.00    -0.225 C  
HETATM   23  C   UNL     1     -10.368   3.209  73.536  1.00  0.00    -0.141 C  
HETATM   24  O   UNL     1     -11.225   2.446  73.934  1.00  0.00    -0.193 OA 
HETATM   25  C   UNL     1      -9.868   4.467  74.309  1.00  0.00    -0.183 C  
HETATM   26  C   UNL     1      -9.084   5.630  73.492  1.00  0.00    -0.131 C  
HETATM   27  C   UNL     1      -8.495   5.165  72.099  1.00  0.00    -0.125 C  
HETATM   28  C   UNL     1      -7.168   4.478  72.452  1.00  0.00    -0.075 C  
HETATM   29  C   UNL     1      -8.339   6.024  70.734  1.00  0.00    -0.126 C  
HETATM   30  C   UNL     1      -7.073   6.790  70.184  1.00  0.00    -0.071 C  
HETATM   31  C   UNL     1      -7.145   7.050  68.548  1.00  0.00    -0.089 C  
HETATM   32  C   UNL     1      -8.400   7.958  68.081  1.00  0.00    -0.124 C  
HETATM   33  C   UNL     1      -7.930   9.395  68.315  1.00  0.00    -0.094 C  
ENDBRANCH  13  14
ENDBRANCH  11  13
ENDBRANCH  10  11
ENDBRANCH   9  10
ENDBRANCH   8   9
ENDBRANCH   7   8
ENDBRANCH   6   7
ENDBRANCH   5   6
ENDBRANCH   4   5
ENDBRANCH   3   4
ENDBRANCH   2   3
TORSDOF 11
ENDMDL
MODEL       81
REMARK 921   NORMALIZED FREE ENERGY PREDICTED BY IDOCK:   -4.25 KCAL/MOL
REMARK 922        TOTAL FREE ENERGY PREDICTED BY IDOCK:   -9.17 KCAL/MOL
REMARK 923 INTER-LIGAND FREE ENERGY PREDICTED BY IDOCK:   -7.34 KCAL/MOL
REMARK 924 INTRA-LIGAND FREE ENERGY PREDICTED BY IDOCK:   -1.82 KCAL/MOL
REMARK 927      BINDING AFFINITY PREDICTED BY RF-SCORE:    0.00 PKD
ROOT
HETATM    1  C   UNL     1     -10.830   6.282  66.969  1.00  0.00    -0.458 C  
HETATM    2  C   UNL     1     -10.224   5.154  66.172  1.00  0.00    -0.258 C  
ENDROOT
BRANCH   2   3
HETATM    3  C   UNL     1      -8.780   4.835  66.624  1.00  0.00    -0.111 C  
BRANCH   3   4
HETATM    4  C   UNL     1      -8.522   3.321  66.682  1.00  0.00    -0.107 C  
BRANCH   4   5
HETATM    5  C   UNL     1      -9.407   2.622  67.721  1.00  0.00    -0.229 C  
BRANCH   5   6
HETATM    6  C   UNL     1      -9.265   3.243  69.121  1.00  0.00    -0.225 C  
BRANCH   6   7
HETATM    7  C   UNL     1      -9.540   2.198  70.213  1.00  0.00    -0.089 C  
BRANCH   7   8
HETATM    8  C   UNL     1      -8.492   2.140  71.330  1.00  0.00    -0.083 C  
BRANCH   8   9
HETATM    9  C   UNL     1      -8.685   3.127  72.471  1.00  0.00    -0.097 C  
BRANCH   9  10
HETATM   10  C   UNL     1     -10.123   3.580  72.693  1.00  0.00    -0.234 C  
BRANCH  10  11
HETATM   11  C   UNL     1     -10.565   4.957  73.263  1.00  0.00    -0.232 C  
HETATM   12  O   UNL     1     -10.776   5.031  74.477  1.00  0.00    -0.355 OA 
BRANCH  11  13
HETATM   13  O   UNL     1     -10.915   5.988  72.396  1.00  0.00    -0.232 OA 
BRANCH  13  14
HETATM   14  C   UNL     1     -10.136   7.309  72.550  1.00  0.00    -0.187 C  
HETATM   15  C   UNL     1     -11.325   8.272  72.460  1.00  0.00    -0.455 C  
HETATM   16  C   UNL     1     -11.613   8.069  70.969  1.00  0.00    -0.303 C  
HETATM   17  C   UNL     1     -10.306   8.616  70.458  1.00  0.00    -0.234 C  
HETATM   18  C   UNL     1     -10.288   9.364  69.125  1.00  0.00    -0.221 C  
HETATM   19  C   UNL     1     -11.670  10.062  69.111  1.00  0.00     0.070 C  
HETATM   20  C   UNL     1     -11.834  11.274  68.273  1.00  0.00    -0.299 C  
HETATM   21  C   UNL     1     -10.640  12.226  68.481  1.00  0.00    -0.254 C  
HETATM   22  C   UNL     1     -10.862  13.530  68.337  1.00  0.00    -0.286 C  
HETATM   23  C   UNL     1     -11.294  13.617  66.915  1.00  0.00    -0.327 C  
HETATM   24  O   UNL     1     -12.218  14.338  66.596  1.00  0.00    -0.449 OA 
HETATM   25  C   UNL     1     -10.496  12.706  65.931  1.00  0.00    -0.295 C  
HETATM   26  C   UNL     1      -9.623  11.478  66.534  1.00  0.00    -0.225 C  
HETATM   27  C   UNL     1      -9.292  11.606  68.075  1.00  0.00    -0.178 C  
HETATM   28  C   UNL     1      -8.072  12.538  68.130  1.00  0.00    -0.167 C  
HETATM   29  C   UNL     1      -9.150  10.428  69.178  1.00  0.00    -0.197 C  
HETATM   30  C   UNL     1      -7.843   9.715  69.705  1.00  0.00    -0.144 C  
HETATM   31  C   UNL     1      -8.060   8.998  71.184  1.00  0.00    -0.185 C  
HETATM   32  C   UNL     1      -9.185   7.835  71.192  1.00  0.00    -0.158 C  
HETATM   33  C   UNL     1      -8.448   6.599  70.672  1.00  0.00    -0.138 C  
ENDBRANCH  13  14
ENDBRANCH  11  13
ENDBRANCH  10  11
ENDBRANCH   9  10
ENDBRANCH   8   9
ENDBRANCH   7   8
ENDBRANCH   6   7
ENDBRANCH   5   6
ENDBRANCH   4   5
ENDBRANCH   3   4
ENDBRANCH   2   3
TORSDOF 11
ENDMDL
MODEL       82
REMARK 921   NORMALIZED FREE ENERGY PREDICTED BY IDOCK:   -4.25 KCAL/MOL
REMARK 922        TOTAL FREE ENERGY PREDICTED BY IDOCK:   -9.16 KCAL/MOL
REMARK 923 INTER-LIGAND FREE ENERGY PREDICTED BY IDOCK:   -7.10 KCAL/MOL
REMARK 924 INTRA-LIGAND FREE ENERGY PREDICTED BY IDOCK:   -2.06 KCAL/MOL
REMARK 927      BINDING AFFINITY PREDICTED BY RF-SCORE:    0.00 PKD
ROOT
HETATM    1  C   UNL     1      -6.833   8.837  66.411  1.00  0.00    -0.075 C  
HETATM    2  C   UNL     1      -6.512   8.844  67.885  1.00  0.00    -0.057 C  
ENDROOT
BRANCH   2   3
HETATM    3  C   UNL     1      -6.273   7.419  68.433  1.00  0.00    -0.036 C  
BRANCH   3   4
HETATM    4  C   UNL     1      -7.322   7.028  69.486  1.00  0.00    -0.094 C  
BRANCH   4   5
HETATM    5  C   UNL     1      -8.062   5.738  69.115  1.00  0.00    -0.101 C  
BRANCH   5   6
HETATM    6  C   UNL     1      -7.703   5.244  67.703  1.00  0.00    -0.092 C  
BRANCH   6   7
HETATM    7  C   UNL     1      -8.767   5.679  66.684  1.00  0.00    -0.118 C  
BRANCH   7   8
HETATM    8  C   UNL     1     -10.215   5.391  67.099  1.00  0.00    -0.266 C  
BRANCH   8   9
HETATM    9  C   UNL     1     -11.146   6.592  67.131  1.00  0.00    -0.434 C  
BRANCH   9  10
HETATM   10  C   UNL     1     -10.449   7.944  67.238  1.00  0.00    -0.390 C  
BRANCH  10  11
HETATM   11  C   UNL     1     -10.363   8.823  68.517  1.00  0.00    -0.199 C  
HETATM   12  O   UNL     1     -11.031   8.476  69.494  1.00  0.00    -0.173 OA 
BRANCH  11  13
HETATM   13  O   UNL     1      -9.730  10.062  68.467  1.00  0.00    -0.150 OA 
BRANCH  13  14
HETATM   14  C   UNL     1     -10.320  11.096  67.488  1.00  0.00    -0.196 C  
HETATM   15  C   UNL     1      -9.014  11.509  66.799  1.00  0.00    -0.181 C  
HETATM   16  C   UNL     1      -8.415  12.274  67.983  1.00  0.00    -0.171 C  
HETATM   17  C   UNL     1      -9.469  13.348  68.055  1.00  0.00    -0.218 C  
HETATM   18  C   UNL     1      -9.061  14.757  68.484  1.00  0.00    -0.187 C  
HETATM   19  C   UNL     1      -7.627  14.882  67.912  1.00  0.00    -0.146 C  
HETATM   20  C   UNL     1      -7.093  16.240  67.651  1.00  0.00    -0.164 C  
HETATM   21  C   UNL     1      -8.148  17.092  66.920  1.00  0.00    -0.252 C  
HETATM   22  C   UNL     1      -7.708  18.041  66.097  1.00  0.00    -0.266 C  
HETATM   23  C   UNL     1      -6.944  18.924  67.020  1.00  0.00    -0.203 C  
HETATM   24  O   UNL     1      -5.875  19.390  66.680  1.00  0.00    -0.166 OA 
HETATM   25  C   UNL     1      -7.613  19.152  68.410  1.00  0.00    -0.347 C  
HETATM   26  C   UNL     1      -8.775  18.129  68.899  1.00  0.00    -0.129 C  
HETATM   27  C   UNL     1      -9.438  17.290  67.734  1.00  0.00    -0.255 C  
HETATM   28  C   UNL     1     -10.486  18.236  67.127  1.00  0.00    -0.417 C  
HETATM   29  C   UNL     1     -10.009  15.775  67.781  1.00  0.00    -0.227 C  
HETATM   30  C   UNL     1     -11.494  15.281  67.991  1.00  0.00    -0.351 C  
HETATM   31  C   UNL     1     -11.741  13.742  67.424  1.00  0.00    -0.417 C  
HETATM   32  C   UNL     1     -10.834  12.619  68.154  1.00  0.00    -0.250 C  
HETATM   33  C   UNL     1     -11.602  12.296  69.437  1.00  0.00    -0.378 C  
ENDBRANCH  13  14
ENDBRANCH  11  13
ENDBRANCH  10  11
ENDBRANCH   9  10
ENDBRANCH   8   9
ENDBRANCH   7   8
ENDBRANCH   6   7
ENDBRANCH   5   6
ENDBRANCH   4   5
ENDBRANCH   3   4
ENDBRANCH   2   3
TORSDOF 11
ENDMDL
MODEL       83
REMARK 921   NORMALIZED FREE ENERGY PREDICTED BY IDOCK:   -4.22 KCAL/MOL
REMARK 922        TOTAL FREE ENERGY PREDICTED BY IDOCK:   -9.11 KCAL/MOL
REMARK 923 INTER-LIGAND FREE ENERGY PREDICTED BY IDOCK:   -6.52 KCAL/MOL
REMARK 924 INTRA-LIGAND FREE ENERGY PREDICTED BY IDOCK:   -2.60 KCAL/MOL
REMARK 927      BINDING AFFINITY PREDICTED BY RF-SCORE:    0.00 PKD
ROOT
HETATM    1  C   UNL     1      -6.587   7.780  68.381  1.00  0.00    -0.054 C  
HETATM    2  C   UNL     1      -6.406   9.230  68.753  1.00  0.00    -0.048 C  
ENDROOT
BRANCH   2   3
HETATM    3  C   UNL     1      -5.789  10.052  67.598  1.00  0.00    -0.042 C  
BRANCH   3   4
HETATM    4  C   UNL     1      -6.588  11.335  67.320  1.00  0.00    -0.093 C  
BRANCH   4   5
HETATM    5  C   UNL     1      -5.917  12.576  67.920  1.00  0.00    -0.101 C  
BRANCH   5   6
HETATM    6  C   UNL     1      -6.939  13.639  68.356  1.00  0.00    -0.104 C  
BRANCH   6   7
HETATM    7  C   UNL     1      -8.254  13.485  67.578  1.00  0.00    -0.186 C  
BRANCH   7   8
HETATM    8  C   UNL     1      -9.351  14.488  67.957  1.00  0.00    -0.201 C  
BRANCH   8   9
HETATM    9  C   UNL     1     -10.539  13.914  68.712  1.00  0.00    -0.258 C  
BRANCH   9  10
HETATM   10  C   UNL     1     -11.722  13.509  67.840  1.00  0.00    -0.392 C  
BRANCH  10  11
HETATM   11  C   UNL     1     -11.786  12.258  66.919  1.00  0.00    -0.264 C  
HETATM   12  O   UNL     1     -12.133  12.429  65.747  1.00  0.00    -0.561 OA 
BRANCH  11  13
HETATM   13  O   UNL     1     -11.669  10.984  67.468  1.00  0.00    -0.565 OA 
BRANCH  13  14
HETATM   14  C   UNL     1     -10.359  10.677  68.218  1.00  0.00    -0.177 C  
HETATM   15  C   UNL     1      -9.757   9.694  67.207  1.00  0.00    -0.213 C  
HETATM   16  C   UNL     1     -10.729   8.540  67.471  1.00  0.00    -0.211 C  
HETATM   17  C   UNL     1     -10.339   8.302  68.907  1.00  0.00    -0.230 C  
HETATM   18  C   UNL     1     -10.380   6.876  69.457  1.00  0.00    -0.224 C  
HETATM   19  C   UNL     1      -9.992   6.026  68.222  1.00  0.00    -0.173 C  
HETATM   20  C   UNL     1      -9.413   4.681  68.452  1.00  0.00    -0.201 C  
HETATM   21  C   UNL     1      -8.329   4.752  69.544  1.00  0.00    -0.086 C  
HETATM   22  C   UNL     1      -7.327   3.879  69.473  1.00  0.00    -0.053 C  
HETATM   23  C   UNL     1      -8.039   2.577  69.596  1.00  0.00    -0.041 C  
HETATM   24  O   UNL     1      -7.721   1.634  68.900  1.00  0.00    -0.046 OA 
HETATM   25  C   UNL     1      -9.198   2.561  70.640  1.00  0.00    -0.203 C  
HETATM   26  C   UNL     1      -9.810   3.974  71.153  1.00  0.00    -0.236 C  
HETATM   27  C   UNL     1      -8.869   5.222  70.906  1.00  0.00    -0.151 C  
HETATM   28  C   UNL     1      -7.876   5.192  72.078  1.00  0.00    -0.111 C  
HETATM   29  C   UNL     1      -9.288   6.748  70.561  1.00  0.00    -0.162 C  
HETATM   30  C   UNL     1      -9.437   7.980  71.538  1.00  0.00    -0.204 C  
HETATM   31  C   UNL     1      -9.325   9.435  70.751  1.00  0.00    -0.292 C  
HETATM   32  C   UNL     1     -10.468   9.667  69.631  1.00  0.00    -0.246 C  
HETATM   33  C   UNL     1     -11.677  10.163  70.427  1.00  0.00    -0.390 C  
ENDBRANCH  13  14
ENDBRANCH  11  13
ENDBRANCH  10  11
ENDBRANCH   9  10
ENDBRANCH   8   9
ENDBRANCH   7   8
ENDBRANCH   6   7
ENDBRANCH   5   6
ENDBRANCH   4   5
ENDBRANCH   3   4
ENDBRANCH   2   3
TORSDOF 11
ENDMDL
MODEL       84
REMARK 921   NORMALIZED FREE ENERGY PREDICTED BY IDOCK:   -4.21 KCAL/MOL
REMARK 922        TOTAL FREE ENERGY PREDICTED BY IDOCK:   -9.10 KCAL/MOL
REMARK 923 INTER-LIGAND FREE ENERGY PREDICTED BY IDOCK:   -7.68 KCAL/MOL
REMARK 924 INTRA-LIGAND FREE ENERGY PREDICTED BY IDOCK:   -1.42 KCAL/MOL
REMARK 927      BINDING AFFINITY PREDICTED BY RF-SCORE:    0.00 PKD
ROOT
HETATM    1  C   UNL     1      -6.962   9.845  62.793  1.00  0.00    -0.119 C  
HETATM    2  C   UNL     1      -8.451  10.017  62.956  1.00  0.00    -0.178 C  
ENDROOT
BRANCH   2   3
HETATM    3  C   UNL     1      -8.864  10.122  64.443  1.00  0.00    -0.234 C  
BRANCH   3   4
HETATM    4  C   UNL     1     -10.247  10.771  64.607  1.00  0.00    -0.419 C  
BRANCH   4   5
HETATM    5  C   UNL     1     -10.663  11.569  63.365  1.00  0.00    -0.444 C  
BRANCH   5   6
HETATM    6  C   UNL     1     -12.083  12.144  63.489  1.00  0.00    -0.649 C  
BRANCH   6   7
HETATM    7  C   UNL     1     -12.046  13.578  64.040  1.00  0.00    -0.494 C  
BRANCH   7   8
HETATM    8  C   UNL     1     -12.909  13.814  65.286  1.00  0.00    -0.430 C  
BRANCH   8   9
HETATM    9  C   UNL     1     -12.150  14.059  66.580  1.00  0.00    -0.488 C  
BRANCH   9  10
HETATM   10  C   UNL     1     -11.664  12.801  67.289  1.00  0.00    -0.440 C  
BRANCH  10  11
HETATM   11  C   UNL     1     -10.230  12.564  67.841  1.00  0.00    -0.219 C  
HETATM   12  O   UNL     1      -9.291  13.085  67.232  1.00  0.00    -0.205 OA 
BRANCH  11  13
HETATM   13  O   UNL     1     -10.018  11.623  68.845  1.00  0.00    -0.168 OA 
BRANCH  13  14
HETATM   14  C   UNL     1      -9.508  10.240  68.394  1.00  0.00    -0.146 C  
HETATM   15  C   UNL     1     -10.763   9.428  68.735  1.00  0.00    -0.200 C  
HETATM   16  C   UNL     1     -10.623   9.504  70.259  1.00  0.00    -0.317 C  
HETATM   17  C   UNL     1      -9.323   8.749  70.358  1.00  0.00    -0.205 C  
HETATM   18  C   UNL     1      -9.073   7.866  71.581  1.00  0.00    -0.175 C  
HETATM   19  C   UNL     1     -10.492   7.347  71.919  1.00  0.00    -0.229 C  
HETATM   20  C   UNL     1     -10.611   6.082  72.683  1.00  0.00    -0.251 C  
HETATM   21  C   UNL     1      -9.666   5.018  72.094  1.00  0.00    -0.208 C  
HETATM   22  C   UNL     1     -10.033   3.743  72.201  1.00  0.00    -0.239 C  
HETATM   23  C   UNL     1     -10.091   3.559  73.678  1.00  0.00    -0.128 C  
HETATM   24  O   UNL     1     -10.998   2.928  74.183  1.00  0.00    -0.181 OA 
HETATM   25  C   UNL     1      -8.941   4.254  74.470  1.00  0.00    -0.105 C  
HETATM   26  C   UNL     1      -8.082   5.422  73.742  1.00  0.00    -0.112 C  
HETATM   27  C   UNL     1      -8.182   5.419  72.163  1.00  0.00    -0.115 C  
HETATM   28  C   UNL     1      -7.168   4.355  71.715  1.00  0.00    -0.063 C  
HETATM   29  C   UNL     1      -8.157   6.682  71.148  1.00  0.00    -0.112 C  
HETATM   30  C   UNL     1      -6.940   7.279  70.338  1.00  0.00    -0.057 C  
HETATM   31  C   UNL     1      -7.423   8.172  69.027  1.00  0.00    -0.088 C  
HETATM   32  C   UNL     1      -8.327   9.459  69.405  1.00  0.00    -0.125 C  
HETATM   33  C   UNL     1      -7.307  10.532  69.792  1.00  0.00    -0.139 C  
ENDBRANCH  13  14
ENDBRANCH  11  13
ENDBRANCH  10  11
ENDBRANCH   9  10
ENDBRANCH   8   9
ENDBRANCH   7   8
ENDBRANCH   6   7
ENDBRANCH   5   6
ENDBRANCH   4   5
ENDBRANCH   3   4
ENDBRANCH   2   3
TORSDOF 11
ENDMDL
MODEL       85
REMARK 921   NORMALIZED FREE ENERGY PREDICTED BY IDOCK:   -4.16 KCAL/MOL
REMARK 922        TOTAL FREE ENERGY PREDICTED BY IDOCK:   -9.02 KCAL/MOL
REMARK 923 INTER-LIGAND FREE ENERGY PREDICTED BY IDOCK:   -7.11 KCAL/MOL
REMARK 924 INTRA-LIGAND FREE ENERGY PREDICTED BY IDOCK:   -1.92 KCAL/MOL
REMARK 927      BINDING AFFINITY PREDICTED BY RF-SCORE:    0.00 PKD
ROOT
HETATM    1  C   UNL     1     -10.345  17.569  66.067  1.00  0.00    -0.309 C  
HETATM    2  C   UNL     1      -9.108  16.798  66.457  1.00  0.00    -0.302 C  
ENDROOT
BRANCH   2   3
HETATM    3  C   UNL     1      -9.310  16.004  67.768  1.00  0.00    -0.211 C  
BRANCH   3   4
HETATM    4  C   UNL     1      -9.465  14.498  67.504  1.00  0.00    -0.203 C  
BRANCH   4   5
HETATM    5  C   UNL     1     -10.811  13.959  68.001  1.00  0.00    -0.259 C  
BRANCH   5   6
HETATM    6  C   UNL     1     -11.872  13.922  66.888  1.00  0.00    -0.453 C  
BRANCH   6   7
HETATM    7  C   UNL     1     -11.223  13.642  65.524  1.00  0.00    -0.301 C  
BRANCH   7   8
HETATM    8  C   UNL     1     -12.157  13.017  64.480  1.00  0.00    -0.468 C  
BRANCH   8   9
HETATM    9  C   UNL     1     -11.542  11.940  63.602  1.00  0.00    -0.559 C  
BRANCH   9  10
HETATM   10  C   UNL     1     -10.045  11.726  63.800  1.00  0.00    -0.421 C  
BRANCH  10  11
HETATM   11  C   UNL     1      -9.311  10.356  63.766  1.00  0.00    -0.288 C  
HETATM   12  O   UNL     1      -8.826   9.994  62.690  1.00  0.00    -0.188 OA 
BRANCH  11  13
HETATM   13  O   UNL     1      -9.400   9.492  64.854  1.00  0.00    -0.246 OA 
BRANCH  13  14
HETATM   14  C   UNL     1      -8.723   9.959  66.158  1.00  0.00    -0.136 C  
HETATM   15  C   UNL     1      -7.663   8.855  66.256  1.00  0.00    -0.098 C  
HETATM   16  C   UNL     1      -8.620   7.712  66.608  1.00  0.00    -0.134 C  
HETATM   17  C   UNL     1      -9.089   8.269  67.927  1.00  0.00    -0.137 C  
HETATM   18  C   UNL     1      -9.429   7.302  69.061  1.00  0.00    -0.147 C  
HETATM   19  C   UNL     1      -8.423   6.147  68.831  1.00  0.00    -0.118 C  
HETATM   20  C   UNL     1      -8.069   5.287  69.985  1.00  0.00    -0.084 C  
HETATM   21  C   UNL     1      -7.769   6.157  71.220  1.00  0.00    -0.106 C  
HETATM   22  C   UNL     1      -6.896   5.686  72.107  1.00  0.00    -0.076 C  
HETATM   23  C   UNL     1      -7.558   4.432  72.561  1.00  0.00    -0.080 C  
HETATM   24  O   UNL     1      -6.909   3.419  72.726  1.00  0.00    -0.034 OA 
HETATM   25  C   UNL     1      -9.101   4.543  72.761  1.00  0.00    -0.134 C  
HETATM   26  C   UNL     1      -9.894   5.783  72.077  1.00  0.00    -0.183 C  
HETATM   27  C   UNL     1      -8.972   7.003  71.673  1.00  0.00    -0.134 C  
HETATM   28  C   UNL     1      -8.793   7.798  72.975  1.00  0.00    -0.247 C  
HETATM   29  C   UNL     1      -9.129   8.012  70.415  1.00  0.00    -0.150 C  
HETATM   30  C   UNL     1      -9.793   9.444  70.369  1.00  0.00    -0.313 C  
HETATM   31  C   UNL     1      -9.262  10.352  69.087  1.00  0.00    -0.202 C  
HETATM   32  C   UNL     1      -9.596   9.707  67.642  1.00  0.00    -0.167 C  
HETATM   33  C   UNL     1     -11.043  10.124  67.371  1.00  0.00    -0.219 C  
ENDBRANCH  13  14
ENDBRANCH  11  13
ENDBRANCH  10  11
ENDBRANCH   9  10
ENDBRANCH   8   9
ENDBRANCH   7   8
ENDBRANCH   6   7
ENDBRANCH   5   6
ENDBRANCH   4   5
ENDBRANCH   3   4
ENDBRANCH   2   3
TORSDOF 11
ENDMDL
MODEL       86
REMARK 921   NORMALIZED FREE ENERGY PREDICTED BY IDOCK:   -4.16 KCAL/MOL
REMARK 922        TOTAL FREE ENERGY PREDICTED BY IDOCK:   -9.02 KCAL/MOL
REMARK 923 INTER-LIGAND FREE ENERGY PREDICTED BY IDOCK:   -8.34 KCAL/MOL
REMARK 924 INTRA-LIGAND FREE ENERGY PREDICTED BY IDOCK:   -0.68 KCAL/MOL
REMARK 927      BINDING AFFINITY PREDICTED BY RF-SCORE:    0.00 PKD
ROOT
HETATM    1  C   UNL     1     -14.391  14.981  71.525  1.00  0.00    -0.651 C  
HETATM    2  C   UNL     1     -13.309  13.973  71.232  1.00  0.00    -0.342 C  
ENDROOT
BRANCH   2   3
HETATM    3  C   UNL     1     -11.970  14.650  70.859  1.00  0.00    -0.388 C  
BRANCH   3   4
HETATM    4  C   UNL     1     -12.189  15.994  70.148  1.00  0.00    -0.102 C  
BRANCH   4   5
HETATM    5  C   UNL     1     -11.159  16.237  69.038  1.00  0.00    -0.331 C  
BRANCH   5   6
HETATM    6  C   UNL     1     -10.481  17.611  69.161  1.00  0.00    -0.128 C  
BRANCH   6   7
HETATM    7  C   UNL     1     -10.719  18.453  67.899  1.00  0.00    -0.334 C  
BRANCH   7   8
HETATM    8  C   UNL     1      -9.879  19.733  67.808  1.00  0.00    -0.520 C  
BRANCH   8   9
HETATM    9  C   UNL     1      -8.666  19.795  68.722  1.00  0.00    -0.201 C  
BRANCH   9  10
HETATM   10  C   UNL     1      -7.336  20.024  68.012  1.00  0.00    -0.326 C  
BRANCH  10  11
HETATM   11  C   UNL     1      -6.114  19.064  68.039  1.00  0.00    -0.218 C  
HETATM   12  O   UNL     1      -5.136  19.365  67.347  1.00  0.00    -0.157 OA 
BRANCH  11  13
HETATM   13  O   UNL     1      -6.223  17.816  68.646  1.00  0.00    -0.184 OA 
BRANCH  13  14
HETATM   14  C   UNL     1      -5.862  16.596  67.777  1.00  0.00    -0.135 C  
HETATM   15  C   UNL     1      -6.608  17.010  66.504  1.00  0.00    -0.254 C  
HETATM   16  C   UNL     1      -8.026  16.798  67.043  1.00  0.00    -0.231 C  
HETATM   17  C   UNL     1      -7.913  15.312  67.265  1.00  0.00    -0.231 C  
HETATM   18  C   UNL     1      -9.151  14.438  67.061  1.00  0.00    -0.250 C  
HETATM   19  C   UNL     1      -9.892  15.165  65.913  1.00  0.00    -0.372 C  
HETATM   20  C   UNL     1     -10.833  14.380  65.078  1.00  0.00    -0.420 C  
HETATM   21  C   UNL     1     -10.189  13.040  64.675  1.00  0.00    -0.324 C  
HETATM   22  C   UNL     1     -10.560  12.504  63.514  1.00  0.00    -0.394 C  
HETATM   23  C   UNL     1     -12.018  12.284  63.725  1.00  0.00    -0.519 C  
HETATM   24  O   UNL     1     -12.811  12.530  62.840  1.00  0.00    -0.297 OA 
HETATM   25  C   UNL     1     -12.401  11.760  65.144  1.00  0.00     0.478 C  
HETATM   26  C   UNL     1     -11.329  11.913  66.353  1.00  0.00    -0.400 C  
HETATM   27  C   UNL     1      -9.839  12.148  65.878  1.00  0.00    -0.265 C  
HETATM   28  C   UNL     1      -9.314  10.741  65.552  1.00  0.00    -0.242 C  
HETATM   29  C   UNL     1      -8.681  13.029  66.589  1.00  0.00    -0.030 C  
HETATM   30  C   UNL     1      -7.524  12.554  67.554  1.00  0.00    -0.151 C  
HETATM   31  C   UNL     1      -6.257  13.622  67.604  1.00  0.00    -0.129 C  
HETATM   32  C   UNL     1      -6.657  15.093  68.147  1.00  0.00    -0.132 C  
HETATM   33  C   UNL     1      -6.629  14.949  69.670  1.00  0.00    -0.162 C  
ENDBRANCH  13  14
ENDBRANCH  11  13
ENDBRANCH  10  11
ENDBRANCH   9  10
ENDBRANCH   8   9
ENDBRANCH   7   8
ENDBRANCH   6   7
ENDBRANCH   5   6
ENDBRANCH   4   5
ENDBRANCH   3   4
ENDBRANCH   2   3
TORSDOF 11
ENDMDL
MODEL       87
REMARK 921   NORMALIZED FREE ENERGY PREDICTED BY IDOCK:   -4.15 KCAL/MOL
REMARK 922        TOTAL FREE ENERGY PREDICTED BY IDOCK:   -9.00 KCAL/MOL
REMARK 923 INTER-LIGAND FREE ENERGY PREDICTED BY IDOCK:   -7.63 KCAL/MOL
REMARK 924 INTRA-LIGAND FREE ENERGY PREDICTED BY IDOCK:   -1.37 KCAL/MOL
REMARK 927      BINDING AFFINITY PREDICTED BY RF-SCORE:    0.00 PKD
ROOT
HETATM    1  C   UNL     1     -11.765   5.743  72.612  1.00  0.00    -0.256 C  
HETATM    2  C   UNL     1     -11.244   6.383  71.350  1.00  0.00    -0.340 C  
ENDROOT
BRANCH   2   3
HETATM    3  C   UNL     1     -10.308   5.437  70.563  1.00  0.00    -0.344 C  
BRANCH   3   4
HETATM    4  C   UNL     1      -9.726   4.334  71.461  1.00  0.00    -0.244 C  
BRANCH   4   5
HETATM    5  C   UNL     1      -8.831   3.364  70.680  1.00  0.00    -0.143 C  
BRANCH   5   6
HETATM    6  C   UNL     1      -7.461   3.976  70.344  1.00  0.00    -0.045 C  
BRANCH   6   7
HETATM    7  C   UNL     1      -7.193   3.922  68.832  1.00  0.00    -0.054 C  
BRANCH   7   8
HETATM    8  C   UNL     1      -6.357   5.083  68.282  1.00  0.00    -0.036 C  
BRANCH   8   9
HETATM    9  C   UNL     1      -7.123   6.139  67.502  1.00  0.00    -0.074 C  
BRANCH   9  10
HETATM   10  C   UNL     1      -8.597   5.825  67.271  1.00  0.00    -0.109 C  
BRANCH  10  11
HETATM   11  C   UNL     1      -9.745   6.870  67.177  1.00  0.00    -0.154 C  
HETATM   12  O   UNL     1     -10.881   6.449  66.940  1.00  0.00    -0.333 OA 
BRANCH  11  13
HETATM   13  O   UNL     1      -9.447   8.229  67.142  1.00  0.00    -0.145 OA 
BRANCH  13  14
HETATM   14  C   UNL     1     -10.647   9.194  67.088  1.00  0.00    -0.216 C  
HETATM   15  C   UNL     1     -10.203  10.021  65.875  1.00  0.00    -0.275 C  
HETATM   16  C   UNL     1      -9.045  10.751  66.563  1.00  0.00    -0.181 C  
HETATM   17  C   UNL     1      -9.878  11.494  67.575  1.00  0.00    -0.203 C  
HETATM   18  C   UNL     1      -9.438  12.892  68.011  1.00  0.00    -0.213 C  
HETATM   19  C   UNL     1      -8.792  13.460  66.724  1.00  0.00    -0.145 C  
HETATM   20  C   UNL     1      -8.720  14.932  66.567  1.00  0.00    -0.204 C  
HETATM   21  C   UNL     1     -10.073  15.569  66.937  1.00  0.00    -0.263 C  
HETATM   22  C   UNL     1     -10.408  16.700  66.321  1.00  0.00    -0.323 C  
HETATM   23  C   UNL     1      -9.319  17.622  66.747  1.00  0.00    -0.278 C  
HETATM   24  O   UNL     1      -8.817  18.390  65.952  1.00  0.00    -0.491 OA 
HETATM   25  C   UNL     1      -8.891  17.481  68.241  1.00  0.00    -0.274 C  
HETATM   26  C   UNL     1      -9.301  16.136  69.051  1.00  0.00    -0.248 C  
HETATM   27  C   UNL     1     -10.485  15.315  68.397  1.00  0.00    -0.236 C  
HETATM   28  C   UNL     1     -11.758  16.028  68.878  1.00  0.00    -0.322 C  
HETATM   29  C   UNL     1     -10.711  13.712  68.379  1.00  0.00    -0.272 C  
HETATM   30  C   UNL     1     -11.601  12.825  69.336  1.00  0.00    -0.361 C  
HETATM   31  C   UNL     1     -12.004  11.364  68.661  1.00  0.00    -0.317 C  
HETATM   32  C   UNL     1     -10.731  10.429  68.311  1.00  0.00    -0.275 C  
HETATM   33  C   UNL     1     -10.390   9.750  69.639  1.00  0.00    -0.259 C  
ENDBRANCH  13  14
ENDBRANCH  11  13
ENDBRANCH  10  11
ENDBRANCH   9  10
ENDBRANCH   8   9
ENDBRANCH   7   8
ENDBRANCH   6   7
ENDBRANCH   5   6
ENDBRANCH   4   5
ENDBRANCH   3   4
ENDBRANCH   2   3
TORSDOF 11
ENDMDL
MODEL       88
REMARK 921   NORMALIZED FREE ENERGY PREDICTED BY IDOCK:   -4.15 KCAL/MOL
REMARK 922        TOTAL FREE ENERGY PREDICTED BY IDOCK:   -9.00 KCAL/MOL
REMARK 923 INTER-LIGAND FREE ENERGY PREDICTED BY IDOCK:   -7.01 KCAL/MOL
REMARK 924 INTRA-LIGAND FREE ENERGY PREDICTED BY IDOCK:   -1.99 KCAL/MOL
REMARK 927      BINDING AFFINITY PREDICTED BY RF-SCORE:    0.00 PKD
ROOT
HETATM    1  C   UNL     1     -12.240  10.182  71.299  1.00  0.00    -0.496 C  
HETATM    2  C   UNL     1     -11.443   8.908  71.170  1.00  0.00    -0.364 C  
ENDROOT
BRANCH   2   3
HETATM    3  C   UNL     1     -10.029   9.044  71.782  1.00  0.00    -0.359 C  
BRANCH   3   4
HETATM    4  C   UNL     1      -9.599   7.763  72.514  1.00  0.00    -0.250 C  
BRANCH   4   5
HETATM    5  C   UNL     1      -8.449   7.046  71.798  1.00  0.00    -0.114 C  
BRANCH   5   6
HETATM    6  C   UNL     1      -8.871   5.676  71.241  1.00  0.00    -0.141 C  
BRANCH   6   7
HETATM    7  C   UNL     1     -10.402   5.550  71.205  1.00  0.00    -0.300 C  
BRANCH   7   8
HETATM    8  C   UNL     1     -11.021   5.590  69.802  1.00  0.00    -0.175 C  
BRANCH   8   9
HETATM    9  C   UNL     1     -10.223   4.901  68.707  1.00  0.00    -0.119 C  
BRANCH   9  10
HETATM   10  C   UNL     1     -10.316   5.557  67.334  1.00  0.00    -0.279 C  
BRANCH  10  11
HETATM   11  C   UNL     1      -9.139   6.210  66.556  1.00  0.00    -0.148 C  
HETATM   12  O   UNL     1      -8.136   5.520  66.353  1.00  0.00    -0.104 OA 
BRANCH  11  13
HETATM   13  O   UNL     1      -9.147   7.579  66.305  1.00  0.00    -0.163 OA 
BRANCH  13  14
HETATM   14  C   UNL     1      -8.424   8.471  67.333  1.00  0.00    -0.127 C  
HETATM   15  C   UNL     1      -9.590   8.661  68.310  1.00  0.00    -0.160 C  
HETATM   16  C   UNL     1     -10.435   9.571  67.414  1.00  0.00    -0.336 C  
HETATM   17  C   UNL     1      -9.459  10.717  67.350  1.00  0.00    -0.172 C  
HETATM   18  C   UNL     1      -9.999  12.144  67.267  1.00  0.00    -0.211 C  
HETATM   19  C   UNL     1     -11.301  12.062  68.101  1.00  0.00    -0.349 C  
HETATM   20  C   UNL     1     -11.830  13.312  68.698  1.00  0.00    -0.380 C  
HETATM   21  C   UNL     1     -10.691  14.101  69.370  1.00  0.00    -0.119 C  
HETATM   22  C   UNL     1     -11.004  14.859  70.418  1.00  0.00    -0.160 C  
HETATM   23  C   UNL     1     -11.966  15.829  69.825  1.00  0.00    -0.322 C  
HETATM   24  O   UNL     1     -12.968  16.148  70.431  1.00  0.00    -0.091 OA 
HETATM   25  C   UNL     1     -11.585  16.341  68.402  1.00  0.00    -0.154 C  
HETATM   26  C   UNL     1     -10.497  15.507  67.533  1.00  0.00    -0.282 C  
HETATM   27  C   UNL     1      -9.589  14.532  68.387  1.00  0.00    -0.213 C  
HETATM   28  C   UNL     1      -8.485  15.435  68.956  1.00  0.00    -0.229 C  
HETATM   29  C   UNL     1      -8.976  13.094  67.961  1.00  0.00    -0.195 C  
HETATM   30  C   UNL     1      -7.540  12.755  67.399  1.00  0.00    -0.152 C  
HETATM   31  C   UNL     1      -7.126  11.165  67.622  1.00  0.00    -0.089 C  
HETATM   32  C   UNL     1      -8.109  10.119  66.875  1.00  0.00    -0.121 C  
HETATM   33  C   UNL     1      -7.588  10.079  65.437  1.00  0.00    -0.138 C  
ENDBRANCH  13  14
ENDBRANCH  11  13
ENDBRANCH  10  11
ENDBRANCH   9  10
ENDBRANCH   8   9
ENDBRANCH   7   8
ENDBRANCH   6   7
ENDBRANCH   5   6
ENDBRANCH   4   5
ENDBRANCH   3   4
ENDBRANCH   2   3
TORSDOF 11
ENDMDL
MODEL       89
REMARK 921   NORMALIZED FREE ENERGY PREDICTED BY IDOCK:   -4.14 KCAL/MOL
REMARK 922        TOTAL FREE ENERGY PREDICTED BY IDOCK:   -8.99 KCAL/MOL
REMARK 923 INTER-LIGAND FREE ENERGY PREDICTED BY IDOCK:   -7.49 KCAL/MOL
REMARK 924 INTRA-LIGAND FREE ENERGY PREDICTED BY IDOCK:   -1.50 KCAL/MOL
REMARK 927      BINDING AFFINITY PREDICTED BY RF-SCORE:    0.00 PKD
ROOT
HETATM    1  C   UNL     1      -6.035   1.912  66.693  1.00  0.00    -0.019 C  
HETATM    2  C   UNL     1      -6.415   2.715  67.912  1.00  0.00    -0.032 C  
ENDROOT
BRANCH   2   3
HETATM    3  C   UNL     1      -5.961   4.189  67.800  1.00  0.00    -0.027 C  
BRANCH   3   4
HETATM    4  C   UNL     1      -7.016   5.156  68.360  1.00  0.00    -0.057 C  
BRANCH   4   5
HETATM    5  C   UNL     1      -8.266   5.224  67.474  1.00  0.00    -0.100 C  
BRANCH   5   6
HETATM    6  C   UNL     1      -9.504   4.628  68.165  1.00  0.00    -0.195 C  
BRANCH   6   7
HETATM    7  C   UNL     1      -9.413   4.794  69.689  1.00  0.00    -0.223 C  
BRANCH   7   8
HETATM    8  C   UNL     1     -10.691   5.310  70.361  1.00  0.00    -0.216 C  
BRANCH   8   9
HETATM    9  C   UNL     1     -10.564   5.681  71.829  1.00  0.00    -0.296 C  
BRANCH   9  10
HETATM   10  C   UNL     1     -11.511   6.779  72.301  1.00  0.00    -0.314 C  
BRANCH  10  11
HETATM   11  C   UNL     1     -12.644   7.426  71.456  1.00  0.00    -0.367 C  
HETATM   12  O   UNL     1     -13.771   6.929  71.536  1.00  0.00    -0.287 OA 
BRANCH  11  13
HETATM   13  O   UNL     1     -12.333   8.381  70.492  1.00  0.00     0.075 OA 
BRANCH  13  14
HETATM   14  C   UNL     1     -11.039   9.187  70.716  1.00  0.00    -0.275 C  
HETATM   15  C   UNL     1     -11.677  10.472  71.258  1.00  0.00    -0.241 C  
HETATM   16  C   UNL     1     -12.298  10.940  69.939  1.00  0.00    -0.354 C  
HETATM   17  C   UNL     1     -11.005  11.134  69.191  1.00  0.00    -0.295 C  
HETATM   18  C   UNL     1     -10.909  12.256  68.157  1.00  0.00    -0.258 C  
HETATM   19  C   UNL     1     -11.819  13.352  68.765  1.00  0.00    -0.386 C  
HETATM   20  C   UNL     1     -11.586  14.759  68.359  1.00  0.00    -0.350 C  
HETATM   21  C   UNL     1     -10.080  15.081  68.407  1.00  0.00    -0.225 C  
HETATM   22  C   UNL     1      -9.728  16.336  68.676  1.00  0.00    -0.235 C  
HETATM   23  C   UNL     1     -10.336  17.081  67.539  1.00  0.00    -0.329 C  
HETATM   24  O   UNL     1     -10.890  18.145  67.726  1.00  0.00    -0.385 OA 
HETATM   25  C   UNL     1     -10.219  16.370  66.155  1.00  0.00    -0.363 C  
HETATM   26  C   UNL     1      -9.880  14.784  66.113  1.00  0.00    -0.335 C  
HETATM   27  C   UNL     1      -9.244  14.217  67.447  1.00  0.00    -0.204 C  
HETATM   28  C   UNL     1      -7.752  14.567  67.341  1.00  0.00    -0.215 C  
HETATM   29  C   UNL     1      -9.432  12.751  68.109  1.00  0.00    -0.219 C  
HETATM   30  C   UNL     1      -8.499  11.482  67.992  1.00  0.00    -0.148 C  
HETATM   31  C   UNL     1      -8.729  10.404  69.230  1.00  0.00    -0.160 C  
HETATM   32  C   UNL     1     -10.227   9.797  69.304  1.00  0.00    -0.216 C  
HETATM   33  C   UNL     1     -10.220   8.660  68.280  1.00  0.00    -0.237 C  
ENDBRANCH  13  14
ENDBRANCH  11  13
ENDBRANCH  10  11
ENDBRANCH   9  10
ENDBRANCH   8   9
ENDBRANCH   7   8
ENDBRANCH   6   7
ENDBRANCH   5   6
ENDBRANCH   4   5
ENDBRANCH   3   4
ENDBRANCH   2   3
TORSDOF 11
ENDMDL
MODEL       90
REMARK 921   NORMALIZED FREE ENERGY PREDICTED BY IDOCK:   -4.10 KCAL/MOL
REMARK 922        TOTAL FREE ENERGY PREDICTED BY IDOCK:   -8.92 KCAL/MOL
REMARK 923 INTER-LIGAND FREE ENERGY PREDICTED BY IDOCK:   -7.25 KCAL/MOL
REMARK 924 INTRA-LIGAND FREE ENERGY PREDICTED BY IDOCK:   -1.67 KCAL/MOL
REMARK 927      BINDING AFFINITY PREDICTED BY RF-SCORE:    0.00 PKD
ROOT
HETATM    1  C   UNL     1     -11.764  14.974  69.432  1.00  0.00    -0.351 C  
HETATM    2  C   UNL     1     -11.274  15.125  68.013  1.00  0.00    -0.329 C  
ENDROOT
BRANCH   2   3
HETATM    3  C   UNL     1     -11.857  14.039  67.079  1.00  0.00    -0.458 C  
BRANCH   3   4
HETATM    4  C   UNL     1     -11.241  12.659  67.355  1.00  0.00    -0.337 C  
BRANCH   4   5
HETATM    5  C   UNL     1     -11.205  11.779  66.100  1.00  0.00    -0.363 C  
BRANCH   5   6
HETATM    6  C   UNL     1     -10.109  12.214  65.114  1.00  0.00    -0.288 C  
BRANCH   6   7
HETATM    7  C   UNL     1     -10.500  11.864  63.670  1.00  0.00    -0.493 C  
BRANCH   7   8
HETATM    8  C   UNL     1      -9.645  10.773  63.015  1.00  0.00    -0.381 C  
BRANCH   8   9
HETATM    9  C   UNL     1      -8.364  11.248  62.348  1.00  0.00    -0.165 C  
BRANCH   9  10
HETATM   10  C   UNL     1      -7.123  10.427  62.679  1.00  0.00    -0.136 C  
BRANCH  10  11
HETATM   11  C   UNL     1      -7.115   8.975  63.234  1.00  0.00    -0.088 C  
HETATM   12  O   UNL     1      -7.205   8.052  62.420  1.00  0.00    -0.088 OA 
BRANCH  11  13
HETATM   13  O   UNL     1      -7.223   8.754  64.605  1.00  0.00    -0.092 OA 
BRANCH  13  14
HETATM   14  C   UNL     1      -8.162   7.614  65.044  1.00  0.00    -0.113 C  
HETATM   15  C   UNL     1      -9.383   8.468  65.404  1.00  0.00     0.056 C  
HETATM   16  C   UNL     1      -8.797   9.105  66.668  1.00  0.00    -0.147 C  
HETATM   17  C   UNL     1      -8.649   7.831  67.459  1.00  0.00    -0.122 C  
HETATM   18  C   UNL     1      -8.842   7.876  68.975  1.00  0.00    -0.145 C  
HETATM   19  C   UNL     1      -9.924   8.970  69.145  1.00  0.00    -0.187 C  
HETATM   20  C   UNL     1     -10.755   8.949  70.373  1.00  0.00    -0.261 C  
HETATM   21  C   UNL     1     -11.247   7.516  70.653  1.00  0.00    -0.286 C  
HETATM   22  C   UNL     1     -12.414   7.378  71.277  1.00  0.00    -0.381 C  
HETATM   23  C   UNL     1     -12.154   8.053  72.578  1.00  0.00    -0.284 C  
HETATM   24  O   UNL     1     -12.994   8.775  73.075  1.00  0.00    -0.286 OA 
HETATM   25  C   UNL     1     -10.747   7.772  73.191  1.00  0.00    -0.414 C  
HETATM   26  C   UNL     1      -9.577   7.185  72.231  1.00  0.00    -0.161 C  
HETATM   27  C   UNL     1     -10.102   6.518  70.896  1.00  0.00    -0.210 C  
HETATM   28  C   UNL     1     -10.514   5.098  71.311  1.00  0.00    -0.245 C  
HETATM   29  C   UNL     1      -9.398   6.495  69.437  1.00  0.00    -0.143 C  
HETATM   30  C   UNL     1      -8.505   5.369  68.784  1.00  0.00    -0.096 C  
HETATM   31  C   UNL     1      -8.457   5.471  67.130  1.00  0.00    -0.110 C  
HETATM   32  C   UNL     1      -7.830   6.855  66.574  1.00  0.00    -0.106 C  
HETATM   33  C   UNL     1      -6.318   6.630  66.630  1.00  0.00    -0.042 C  
ENDBRANCH  13  14
ENDBRANCH  11  13
ENDBRANCH  10  11
ENDBRANCH   9  10
ENDBRANCH   8   9
ENDBRANCH   7   8
ENDBRANCH   6   7
ENDBRANCH   5   6
ENDBRANCH   4   5
ENDBRANCH   3   4
ENDBRANCH   2   3
TORSDOF 11
ENDMDL
MODEL       91
REMARK 921   NORMALIZED FREE ENERGY PREDICTED BY IDOCK:   -4.08 KCAL/MOL
REMARK 922        TOTAL FREE ENERGY PREDICTED BY IDOCK:   -8.89 KCAL/MOL
REMARK 923 INTER-LIGAND FREE ENERGY PREDICTED BY IDOCK:   -7.49 KCAL/MOL
REMARK 924 INTRA-LIGAND FREE ENERGY PREDICTED BY IDOCK:   -1.40 KCAL/MOL
REMARK 927      BINDING AFFINITY PREDICTED BY RF-SCORE:    0.00 PKD
ROOT
HETATM    1  C   UNL     1      -7.018   8.359  70.833  1.00  0.00    -0.052 C  
HETATM    2  C   UNL     1      -7.406   8.272  72.288  1.00  0.00    -0.131 C  
ENDROOT
BRANCH   2   3
HETATM    3  C   UNL     1      -8.000   6.891  72.648  1.00  0.00    -0.104 C  
BRANCH   3   4
HETATM    4  C   UNL     1      -9.534   6.933  72.729  1.00  0.00    -0.161 C  
BRANCH   4   5
HETATM    5  C   UNL     1     -10.187   5.799  71.929  1.00  0.00    -0.246 C  
BRANCH   5   6
HETATM    6  C   UNL     1      -9.397   5.454  70.655  1.00  0.00    -0.204 C  
BRANCH   6   7
HETATM    7  C   UNL     1     -10.346   5.240  69.465  1.00  0.00    -0.333 C  
BRANCH   7   8
HETATM    8  C   UNL     1     -11.312   6.399  69.192  1.00  0.00    -0.366 C  
BRANCH   8   9
HETATM    9  C   UNL     1     -10.713   7.612  68.500  1.00  0.00    -0.094 C  
BRANCH   9  10
HETATM   10  C   UNL     1     -10.339   8.763  69.427  1.00  0.00    -0.217 C  
BRANCH  10  11
HETATM   11  C   UNL     1     -10.867  10.222  69.324  1.00  0.00    -0.238 C  
HETATM   12  O   UNL     1     -12.090  10.389  69.348  1.00  0.00    -0.163 OA 
BRANCH  11  13
HETATM   13  O   UNL     1      -9.994  11.255  68.996  1.00  0.00    -0.189 OA 
BRANCH  13  14
HETATM   14  C   UNL     1     -10.454  12.216  67.882  1.00  0.00    -0.208 C  
HETATM   15  C   UNL     1      -9.096  12.419  67.200  1.00  0.00    -0.199 C  
HETATM   16  C   UNL     1      -8.457  13.260  68.309  1.00  0.00    -0.160 C  
HETATM   17  C   UNL     1      -9.402  14.429  68.215  1.00  0.00    -0.206 C  
HETATM   18  C   UNL     1      -8.870  15.835  68.492  1.00  0.00    -0.193 C  
HETATM   19  C   UNL     1      -7.416  15.756  67.965  1.00  0.00    -0.136 C  
HETATM   20  C   UNL     1      -6.745  17.017  67.569  1.00  0.00    -0.168 C  
HETATM   21  C   UNL     1      -7.692  17.870  66.704  1.00  0.00    -0.275 C  
HETATM   22  C   UNL     1      -7.140  18.669  65.793  1.00  0.00    -0.261 C  
HETATM   23  C   UNL     1      -6.318  19.580  66.636  1.00  0.00    -0.183 C  
HETATM   24  O   UNL     1      -5.200  19.900  66.285  1.00  0.00    -0.162 OA 
HETATM   25  C   UNL     1      -6.998  20.034  67.964  1.00  0.00    -0.321 C  
HETATM   26  C   UNL     1      -8.267  19.191  68.524  1.00  0.00    -0.399 C  
HETATM   27  C   UNL     1      -8.978  18.285  67.439  1.00  0.00    -0.257 C  
HETATM   28  C   UNL     1      -9.912  19.246  66.688  1.00  0.00    -0.461 C  
HETATM   29  C   UNL     1      -9.695  16.846  67.641  1.00  0.00    -0.249 C  
HETATM   30  C   UNL     1     -11.226  16.522  67.851  1.00  0.00    -0.155 C  
HETATM   31  C   UNL     1     -11.607  14.957  67.457  1.00  0.00    -0.355 C  
HETATM   32  C   UNL     1     -10.834  13.848  68.346  1.00  0.00    -0.269 C  
HETATM   33  C   UNL     1     -11.663  13.754  69.629  1.00  0.00    -0.379 C  
ENDBRANCH  13  14
ENDBRANCH  11  13
ENDBRANCH  10  11
ENDBRANCH   9  10
ENDBRANCH   8   9
ENDBRANCH   7   8
ENDBRANCH   6   7
ENDBRANCH   5   6
ENDBRANCH   4   5
ENDBRANCH   3   4
ENDBRANCH   2   3
TORSDOF 11
ENDMDL
MODEL       92
REMARK 921   NORMALIZED FREE ENERGY PREDICTED BY IDOCK:   -4.07 KCAL/MOL
REMARK 922        TOTAL FREE ENERGY PREDICTED BY IDOCK:   -8.87 KCAL/MOL
REMARK 923 INTER-LIGAND FREE ENERGY PREDICTED BY IDOCK:   -7.75 KCAL/MOL
REMARK 924 INTRA-LIGAND FREE ENERGY PREDICTED BY IDOCK:   -1.12 KCAL/MOL
REMARK 927      BINDING AFFINITY PREDICTED BY RF-SCORE:    0.00 PKD
ROOT
HETATM    1  C   UNL     1     -10.651  19.313  65.925  1.00  0.00    -0.521 C  
HETATM    2  C   UNL     1      -9.867  18.469  66.899  1.00  0.00    -0.350 C  
ENDROOT
BRANCH   2   3
HETATM    3  C   UNL     1     -10.082  16.957  66.661  1.00  0.00    -0.306 C  
BRANCH   3   4
HETATM    4  C   UNL     1     -10.757  16.683  65.308  1.00  0.00    -0.219 C  
BRANCH   4   5
HETATM    5  C   UNL     1     -10.741  15.193  64.944  1.00  0.00    -0.421 C  
BRANCH   5   6
HETATM    6  C   UNL     1     -12.118  14.690  64.480  1.00  0.00    -0.490 C  
BRANCH   6   7
HETATM    7  C   UNL     1     -12.704  13.691  65.489  1.00  0.00    -0.514 C  
BRANCH   7   8
HETATM    8  C   UNL     1     -11.823  13.419  66.715  1.00  0.00    -0.452 C  
BRANCH   8   9
HETATM    9  C   UNL     1     -11.330  11.990  66.871  1.00  0.00    -0.400 C  
BRANCH   9  10
HETATM   10  C   UNL     1     -10.760  11.363  65.604  1.00  0.00    -0.301 C  
BRANCH  10  11
HETATM   11  C   UNL     1      -9.783  10.155  65.547  1.00  0.00    -0.281 C  
HETATM   12  O   UNL     1      -9.390   9.791  64.434  1.00  0.00    -0.263 OA 
BRANCH  11  13
HETATM   13  O   UNL     1      -9.548   9.396  66.689  1.00  0.00    -0.165 OA 
BRANCH  13  14
HETATM   14  C   UNL     1     -10.438   8.153  66.882  1.00  0.00    -0.309 C  
HETATM   15  C   UNL     1     -10.740   8.334  68.374  1.00  0.00    -0.072 C  
HETATM   16  C   UNL     1      -9.339   7.991  68.889  1.00  0.00    -0.150 C  
HETATM   17  C   UNL     1      -9.316   6.563  68.408  1.00  0.00    -0.122 C  
HETATM   18  C   UNL     1      -8.570   5.516  69.236  1.00  0.00    -0.104 C  
HETATM   19  C   UNL     1      -8.781   6.019  70.685  1.00  0.00    -0.138 C  
HETATM   20  C   UNL     1      -8.678   5.035  71.789  1.00  0.00    -0.137 C  
HETATM   21  C   UNL     1      -9.464   3.759  71.435  1.00  0.00    -0.225 C  
HETATM   22  C   UNL     1      -9.993   3.064  72.440  1.00  0.00    -0.235 C  
HETATM   23  C   UNL     1      -8.785   2.675  73.219  1.00  0.00    -0.078 C  
HETATM   24  O   UNL     1      -8.795   2.722  74.432  1.00  0.00    -0.077 OA 
HETATM   25  C   UNL     1      -7.558   2.251  72.354  1.00  0.00    -0.044 C  
HETATM   26  C   UNL     1      -7.522   2.666  70.786  1.00  0.00    -0.036 C  
HETATM   27  C   UNL     1      -8.933   3.047  70.179  1.00  0.00    -0.170 C  
HETATM   28  C   UNL     1      -9.581   1.697  69.837  1.00  0.00    -0.073 C  
HETATM   29  C   UNL     1      -9.276   4.142  69.036  1.00  0.00    -0.213 C  
HETATM   30  C   UNL     1      -9.487   3.925  67.486  1.00  0.00    -0.236 C  
HETATM   31  C   UNL     1     -10.354   5.151  66.782  1.00  0.00    -0.306 C  
HETATM   32  C   UNL     1      -9.648   6.603  66.894  1.00  0.00    -0.194 C  
HETATM   33  C   UNL     1      -8.641   6.619  65.742  1.00  0.00    -0.147 C  
ENDBRANCH  13  14
ENDBRANCH  11  13
ENDBRANCH  10  11
ENDBRANCH   9  10
ENDBRANCH   8   9
ENDBRANCH   7   8
ENDBRANCH   6   7
ENDBRANCH   5   6
ENDBRANCH   4   5
ENDBRANCH   3   4
ENDBRANCH   2   3
TORSDOF 11
ENDMDL
MODEL       93
REMARK 921   NORMALIZED FREE ENERGY PREDICTED BY IDOCK:   -4.07 KCAL/MOL
REMARK 922        TOTAL FREE ENERGY PREDICTED BY IDOCK:   -8.86 KCAL/MOL
REMARK 923 INTER-LIGAND FREE ENERGY PREDICTED BY IDOCK:   -7.07 KCAL/MOL
REMARK 924 INTRA-LIGAND FREE ENERGY PREDICTED BY IDOCK:   -1.79 KCAL/MOL
REMARK 927      BINDING AFFINITY PREDICTED BY RF-SCORE:    0.00 PKD
ROOT
HETATM    1  C   UNL     1     -11.530  14.774  67.223  1.00  0.00    -0.378 C  
HETATM    2  C   UNL     1     -10.529  15.272  66.210  1.00  0.00    -0.313 C  
ENDROOT
BRANCH   2   3
HETATM    3  C   UNL     1     -11.155  15.430  64.805  1.00  0.00    -0.416 C  
BRANCH   3   4
HETATM    4  C   UNL     1     -12.284  14.414  64.566  1.00  0.00    -0.483 C  
BRANCH   4   5
HETATM    5  C   UNL     1     -12.015  13.529  63.343  1.00  0.00    -0.314 C  
BRANCH   5   6
HETATM    6  C   UNL     1     -12.090  12.030  63.680  1.00  0.00    -0.627 C  
BRANCH   6   7
HETATM    7  C   UNL     1     -10.723  11.357  63.483  1.00  0.00    -0.453 C  
BRANCH   7   8
HETATM    8  C   UNL     1      -9.580  11.961  64.309  1.00  0.00    -0.045 C  
BRANCH   8   9
HETATM    9  C   UNL     1      -9.185  11.187  65.556  1.00  0.00    -0.236 C  
BRANCH   9  10
HETATM   10  C   UNL     1      -9.999  11.514  66.803  1.00  0.00    -0.235 C  
BRANCH  10  11
HETATM   11  C   UNL     1      -9.428  11.726  68.233  1.00  0.00    -0.193 C  
HETATM   12  O   UNL     1      -8.667  12.682  68.407  1.00  0.00    -0.175 OA 
BRANCH  11  13
HETATM   13  O   UNL     1      -9.603  10.744  69.204  1.00  0.00    -0.204 OA 
BRANCH  13  14
HETATM   14  C   UNL     1     -10.300   9.447  68.751  1.00  0.00    -0.209 C  
HETATM   15  C   UNL     1     -11.008   9.113  70.069  1.00  0.00    -0.240 C  
HETATM   16  C   UNL     1      -9.755   8.720  70.857  1.00  0.00    -0.277 C  
HETATM   17  C   UNL     1      -9.377   7.530  70.013  1.00  0.00    -0.154 C  
HETATM   18  C   UNL     1      -8.717   6.327  70.684  1.00  0.00    -0.140 C  
HETATM   19  C   UNL     1      -9.378   6.315  72.084  1.00  0.00    -0.152 C  
HETATM   20  C   UNL     1      -9.412   5.036  72.832  1.00  0.00    -0.153 C  
HETATM   21  C   UNL     1      -9.863   3.892  71.904  1.00  0.00    -0.248 C  
HETATM   22  C   UNL     1     -10.517   2.874  72.457  1.00  0.00    -0.139 C  
HETATM   23  C   UNL     1      -9.510   2.338  73.414  1.00  0.00    -0.083 C  
HETATM   24  O   UNL     1      -9.845   1.989  74.527  1.00  0.00    -0.087 OA 
HETATM   25  C   UNL     1      -8.048   2.305  72.872  1.00  0.00    -0.054 C  
HETATM   26  C   UNL     1      -7.669   3.208  71.578  1.00  0.00    -0.055 C  
HETATM   27  C   UNL     1      -8.913   3.666  70.715  1.00  0.00    -0.157 C  
HETATM   28  C   UNL     1      -9.224   2.458  69.818  1.00  0.00    -0.188 C  
HETATM   29  C   UNL     1      -9.116   5.046  69.891  1.00  0.00    -0.162 C  
HETATM   30  C   UNL     1      -8.875   5.329  68.357  1.00  0.00    -0.105 C  
HETATM   31  C   UNL     1      -9.712   6.654  67.814  1.00  0.00    -0.136 C  
HETATM   32  C   UNL     1      -9.303   8.036  68.548  1.00  0.00    -0.142 C  
HETATM   33  C   UNL     1      -8.045   8.495  67.808  1.00  0.00    -0.115 C  
ENDBRANCH  13  14
ENDBRANCH  11  13
ENDBRANCH  10  11
ENDBRANCH   9  10
ENDBRANCH   8   9
ENDBRANCH   7   8
ENDBRANCH   6   7
ENDBRANCH   5   6
ENDBRANCH   4   5
ENDBRANCH   3   4
ENDBRANCH   2   3
TORSDOF 11
ENDMDL
MODEL       94
REMARK 921   NORMALIZED FREE ENERGY PREDICTED BY IDOCK:   -4.05 KCAL/MOL
REMARK 922        TOTAL FREE ENERGY PREDICTED BY IDOCK:   -8.84 KCAL/MOL
REMARK 923 INTER-LIGAND FREE ENERGY PREDICTED BY IDOCK:   -6.83 KCAL/MOL
REMARK 924 INTRA-LIGAND FREE ENERGY PREDICTED BY IDOCK:   -2.01 KCAL/MOL
REMARK 927      BINDING AFFINITY PREDICTED BY RF-SCORE:    0.00 PKD
ROOT
HETATM    1  C   UNL     1      -5.559   7.865  69.847  1.00  0.00    -0.023 C  
HETATM    2  C   UNL     1      -6.151   9.140  70.396  1.00  0.00    -0.043 C  
ENDROOT
BRANCH   2   3
HETATM    3  C   UNL     1      -7.350   8.867  71.333  1.00  0.00    -0.106 C  
BRANCH   3   4
HETATM    4  C   UNL     1      -7.761   7.386  71.317  1.00  0.00    -0.087 C  
BRANCH   4   5
HETATM    5  C   UNL     1      -9.160   7.167  71.906  1.00  0.00    -0.144 C  
BRANCH   5   6
HETATM    6  C   UNL     1      -9.865   8.491  72.241  1.00  0.00    -0.383 C  
BRANCH   6   7
HETATM    7  C   UNL     1     -11.032   8.749  71.276  1.00  0.00    -0.345 C  
BRANCH   7   8
HETATM    8  C   UNL     1     -10.691   9.630  70.069  1.00  0.00    -0.298 C  
BRANCH   8   9
HETATM    9  C   UNL     1     -10.645   8.922  68.724  1.00  0.00    -0.185 C  
BRANCH   9  10
HETATM   10  C   UNL     1      -9.246   8.582  68.223  1.00  0.00    -0.140 C  
BRANCH  10  11
HETATM   11  C   UNL     1      -8.385   9.455  67.268  1.00  0.00    -0.125 C  
HETATM   12  O   UNL     1      -7.341   8.963  66.830  1.00  0.00    -0.081 OA 
BRANCH  11  13
HETATM   13  O   UNL     1      -8.681  10.806  67.105  1.00  0.00    -0.130 OA 
BRANCH  13  14
HETATM   14  C   UNL     1      -8.428  11.716  68.322  1.00  0.00    -0.160 C  
HETATM   15  C   UNL     1      -9.718  12.542  68.244  1.00  0.00    -0.220 C  
HETATM   16  C   UNL     1      -9.353  13.333  66.984  1.00  0.00    -0.242 C  
HETATM   17  C   UNL     1      -8.164  14.055  67.563  1.00  0.00    -0.195 C  
HETATM   18  C   UNL     1      -7.860  15.477  67.091  1.00  0.00    -0.256 C  
HETATM   19  C   UNL     1      -9.272  16.053  66.823  1.00  0.00    -0.264 C  
HETATM   20  C   UNL     1      -9.447  17.525  66.863  1.00  0.00    -0.278 C  
HETATM   21  C   UNL     1      -8.745  18.107  68.104  1.00  0.00    -0.285 C  
HETATM   22  C   UNL     1      -9.258  19.213  68.638  1.00  0.00    -0.429 C  
HETATM   23  C   UNL     1      -9.129  20.187  67.520  1.00  0.00    -0.356 C  
HETATM   24  O   UNL     1     -10.029  20.965  67.276  1.00  0.00    -0.387 OA 
HETATM   25  C   UNL     1      -7.795  20.089  66.717  1.00  0.00    -0.341 C  
HETATM   26  C   UNL     1      -6.902  18.739  66.843  1.00  0.00    -0.211 C  
HETATM   27  C   UNL     1      -7.227  17.858  68.115  1.00  0.00    -0.231 C  
HETATM   28  C   UNL     1      -6.437  18.521  69.254  1.00  0.00    -0.272 C  
HETATM   29  C   UNL     1      -7.180  16.245  68.264  1.00  0.00    -0.141 C  
HETATM   30  C   UNL     1      -6.023  15.335  68.835  1.00  0.00    -0.093 C  
HETATM   31  C   UNL     1      -6.567  13.848  69.329  1.00  0.00    -0.113 C  
HETATM   32  C   UNL     1      -7.229  12.964  68.148  1.00  0.00    -0.114 C  
HETATM   33  C   UNL     1      -6.031  12.321  67.445  1.00  0.00    -0.149 C  
ENDBRANCH  13  14
ENDBRANCH  11  13
ENDBRANCH  10  11
ENDBRANCH   9  10
ENDBRANCH   8   9
ENDBRANCH   7   8
ENDBRANCH   6   7
ENDBRANCH   5   6
ENDBRANCH   4   5
ENDBRANCH   3   4
ENDBRANCH   2   3
TORSDOF 11
ENDMDL
MODEL       95
REMARK 921   NORMALIZED FREE ENERGY PREDICTED BY IDOCK:   -4.04 KCAL/MOL
REMARK 922        TOTAL FREE ENERGY PREDICTED BY IDOCK:   -8.82 KCAL/MOL
REMARK 923 INTER-LIGAND FREE ENERGY PREDICTED BY IDOCK:   -5.97 KCAL/MOL
REMARK 924 INTRA-LIGAND FREE ENERGY PREDICTED BY IDOCK:   -2.86 KCAL/MOL
REMARK 927      BINDING AFFINITY PREDICTED BY RF-SCORE:    0.00 PKD
ROOT
HETATM    1  C   UNL     1     -11.825  13.102  67.763  1.00  0.00    -0.392 C  
HETATM    2  C   UNL     1     -10.641  12.174  67.867  1.00  0.00    -0.230 C  
ENDROOT
BRANCH   2   3
HETATM    3  C   UNL     1     -10.991  10.735  67.423  1.00  0.00    -0.361 C  
BRANCH   3   4
HETATM    4  C   UNL     1     -10.993   9.757  68.609  1.00  0.00    -0.189 C  
BRANCH   4   5
HETATM    5  C   UNL     1     -10.238  10.315  69.821  1.00  0.00    -0.262 C  
BRANCH   5   6
HETATM    6  C   UNL     1     -10.542   9.533  71.109  1.00  0.00    -0.388 C  
BRANCH   6   7
HETATM    7  C   UNL     1     -11.923   8.865  71.030  1.00  0.00    -0.307 C  
BRANCH   7   8
HETATM    8  C   UNL     1     -12.126   7.684  71.987  1.00  0.00    -0.336 C  
BRANCH   8   9
HETATM    9  C   UNL     1     -11.122   7.573  73.123  1.00  0.00    -0.378 C  
BRANCH   9  10
HETATM   10  C   UNL     1     -10.414   6.226  73.227  1.00  0.00    -0.267 C  
BRANCH  10  11
HETATM   11  C   UNL     1      -9.034   5.874  72.603  1.00  0.00    -0.131 C  
HETATM   12  O   UNL     1      -8.347   5.027  73.180  1.00  0.00    -0.107 OA 
BRANCH  11  13
HETATM   13  O   UNL     1      -8.521   6.650  71.568  1.00  0.00    -0.120 OA 
BRANCH  13  14
HETATM   14  C   UNL     1      -8.010   5.890  70.328  1.00  0.00    -0.106 C  
HETATM   15  C   UNL     1      -6.766   6.742  70.051  1.00  0.00    -0.049 C  
HETATM   16  C   UNL     1      -7.504   7.992  69.563  1.00  0.00    -0.092 C  
HETATM   17  C   UNL     1      -8.135   7.364  68.347  1.00  0.00    -0.125 C  
HETATM   18  C   UNL     1      -8.340   8.218  67.096  1.00  0.00    -0.123 C  
HETATM   19  C   UNL     1      -7.123   9.175  67.137  1.00  0.00    -0.082 C  
HETATM   20  C   UNL     1      -6.668   9.786  65.865  1.00  0.00    -0.091 C  
HETATM   21  C   UNL     1      -6.601   8.716  64.759  1.00  0.00    -0.066 C  
HETATM   22  C   UNL     1      -5.699   8.884  63.796  1.00  0.00    -0.071 C  
HETATM   23  C   UNL     1      -6.132  10.170  63.184  1.00  0.00    -0.140 C  
HETATM   24  O   UNL     1      -5.311  11.005  62.862  1.00  0.00    -0.167 OA 
HETATM   25  C   UNL     1      -7.676  10.337  63.036  1.00  0.00    -0.145 C  
HETATM   26  C   UNL     1      -8.655   9.379  63.905  1.00  0.00    -0.225 C  
HETATM   27  C   UNL     1      -7.964   8.068  64.458  1.00  0.00    -0.151 C  
HETATM   28  C   UNL     1      -8.003   7.085  63.278  1.00  0.00    -0.064 C  
HETATM   29  C   UNL     1      -8.248   7.288  65.849  1.00  0.00    -0.132 C  
HETATM   30  C   UNL     1      -9.168   6.032  66.112  1.00  0.00    -0.154 C  
HETATM   31  C   UNL     1      -8.758   5.218  67.497  1.00  0.00    -0.106 C  
HETATM   32  C   UNL     1      -8.891   6.105  68.844  1.00  0.00    -0.122 C  
HETATM   33  C   UNL     1     -10.376   6.019  69.203  1.00  0.00    -0.289 C  
ENDBRANCH  13  14
ENDBRANCH  11  13
ENDBRANCH  10  11
ENDBRANCH   9  10
ENDBRANCH   8   9
ENDBRANCH   7   8
ENDBRANCH   6   7
ENDBRANCH   5   6
ENDBRANCH   4   5
ENDBRANCH   3   4
ENDBRANCH   2   3
TORSDOF 11
ENDMDL
MODEL       96
REMARK 921   NORMALIZED FREE ENERGY PREDICTED BY IDOCK:   -4.04 KCAL/MOL
REMARK 922        TOTAL FREE ENERGY PREDICTED BY IDOCK:   -8.82 KCAL/MOL
REMARK 923 INTER-LIGAND FREE ENERGY PREDICTED BY IDOCK:   -7.50 KCAL/MOL
REMARK 924 INTRA-LIGAND FREE ENERGY PREDICTED BY IDOCK:   -1.32 KCAL/MOL
REMARK 927      BINDING AFFINITY PREDICTED BY RF-SCORE:    0.00 PKD
ROOT
HETATM    1  C   UNL     1      -9.071   8.258  73.221  1.00  0.00    -0.278 C  
HETATM    2  C   UNL     1      -7.896   7.346  72.968  1.00  0.00    -0.119 C  
ENDROOT
BRANCH   2   3
HETATM    3  C   UNL     1      -8.338   5.962  72.440  1.00  0.00    -0.117 C  
BRANCH   3   4
HETATM    4  C   UNL     1      -7.740   4.817  73.272  1.00  0.00    -0.092 C  
BRANCH   4   5
HETATM    5  C   UNL     1      -7.348   3.615  72.403  1.00  0.00    -0.050 C  
BRANCH   5   6
HETATM    6  C   UNL     1      -7.389   3.942  70.902  1.00  0.00    -0.037 C  
BRANCH   6   7
HETATM    7  C   UNL     1      -6.132   3.417  70.193  1.00  0.00    -0.023 C  
BRANCH   7   8
HETATM    8  C   UNL     1      -6.401   2.547  68.959  1.00  0.00    -0.029 C  
BRANCH   8   9
HETATM    9  C   UNL     1      -6.364   3.267  67.621  1.00  0.00    -0.036 C  
BRANCH   9  10
HETATM   10  C   UNL     1      -7.725   3.689  67.079  1.00  0.00    -0.080 C  
BRANCH  10  11
HETATM   11  C   UNL     1      -8.754   4.596  67.811  1.00  0.00    -0.104 C  
HETATM   12  O   UNL     1      -9.734   4.048  68.324  1.00  0.00    -0.144 OA 
BRANCH  11  13
HETATM   13  O   UNL     1      -8.670   5.980  67.690  1.00  0.00    -0.107 OA 
BRANCH  13  14
HETATM   14  C   UNL     1      -9.865   6.790  68.228  1.00  0.00    -0.142 C  
HETATM   15  C   UNL     1     -10.617   6.968  66.903  1.00  0.00    -0.372 C  
HETATM   16  C   UNL     1      -9.633   7.953  66.264  1.00  0.00    -0.200 C  
HETATM   17  C   UNL     1      -9.820   9.067  67.262  1.00  0.00    -0.252 C  
HETATM   18  C   UNL     1      -9.721  10.515  66.782  1.00  0.00    -0.220 C  
HETATM   19  C   UNL     1     -10.291  10.433  65.344  1.00  0.00    -0.270 C  
HETATM   20  C   UNL     1     -10.850  11.667  64.741  1.00  0.00    -0.367 C  
HETATM   21  C   UNL     1     -11.768  12.380  65.752  1.00  0.00    -0.470 C  
HETATM   22  C   UNL     1     -12.782  13.091  65.265  1.00  0.00    -0.432 C  
HETATM   23  C   UNL     1     -12.078  14.124  64.455  1.00  0.00    -0.468 C  
HETATM   24  O   UNL     1     -12.503  14.445  63.365  1.00  0.00    -0.709 OA 
HETATM   25  C   UNL     1     -10.783  14.697  65.110  1.00  0.00    -0.430 C  
HETATM   26  C   UNL     1     -10.086  13.873  66.323  1.00  0.00    -0.306 C  
HETATM   27  C   UNL     1     -11.035  12.824  67.029  1.00  0.00    -0.295 C  
HETATM   28  C   UNL     1     -11.853  13.657  68.028  1.00  0.00    -0.397 C  
HETATM   29  C   UNL     1     -10.649  11.390  67.677  1.00  0.00    -0.240 C  
HETATM   30  C   UNL     1     -10.347  11.032  69.185  1.00  0.00    -0.210 C  
HETATM   31  C   UNL     1     -10.549   9.419  69.511  1.00  0.00    -0.237 C  
HETATM   32  C   UNL     1      -9.572   8.449  68.663  1.00  0.00    -0.153 C  
HETATM   33  C   UNL     1      -8.257   8.468  69.444  1.00  0.00    -0.114 C  
ENDBRANCH  13  14
ENDBRANCH  11  13
ENDBRANCH  10  11
ENDBRANCH   9  10
ENDBRANCH   8   9
ENDBRANCH   7   8
ENDBRANCH   6   7
ENDBRANCH   5   6
ENDBRANCH   4   5
ENDBRANCH   3   4
ENDBRANCH   2   3
TORSDOF 11
ENDMDL
MODEL       97
REMARK 921   NORMALIZED FREE ENERGY PREDICTED BY IDOCK:   -4.03 KCAL/MOL
REMARK 922        TOTAL FREE ENERGY PREDICTED BY IDOCK:   -8.80 KCAL/MOL
REMARK 923 INTER-LIGAND FREE ENERGY PREDICTED BY IDOCK:   -7.59 KCAL/MOL
REMARK 924 INTRA-LIGAND FREE ENERGY PREDICTED BY IDOCK:   -1.21 KCAL/MOL
REMARK 927      BINDING AFFINITY PREDICTED BY RF-SCORE:    0.00 PKD
ROOT
HETATM    1  C   UNL     1     -10.815  19.191  66.477  1.00  0.00    -0.347 C  
HETATM    2  C   UNL     1      -9.922  20.038  67.349  1.00  0.00    -0.571 C  
ENDROOT
BRANCH   2   3
HETATM    3  C   UNL     1      -8.607  19.311  67.713  1.00  0.00    -0.341 C  
BRANCH   3   4
HETATM    4  C   UNL     1      -7.651  19.225  66.512  1.00  0.00    -0.264 C  
BRANCH   4   5
HETATM    5  C   UNL     1      -7.142  17.797  66.279  1.00  0.00    -0.329 C  
BRANCH   5   6
HETATM    6  C   UNL     1      -7.342  16.898  67.510  1.00  0.00    -0.177 C  
BRANCH   6   7
HETATM    7  C   UNL     1      -7.756  15.480  67.090  1.00  0.00    -0.257 C  
BRANCH   7   8
HETATM    8  C   UNL     1      -9.264  15.277  66.896  1.00  0.00    -0.255 C  
BRANCH   8   9
HETATM    9  C   UNL     1      -9.681  14.622  65.590  1.00  0.00    -0.302 C  
BRANCH   9  10
HETATM   10  C   UNL     1     -10.571  13.393  65.741  1.00  0.00    -0.286 C  
BRANCH  10  11
HETATM   11  C   UNL     1     -10.344  12.016  65.056  1.00  0.00    -0.281 C  
HETATM   12  O   UNL     1     -10.313  11.990  63.822  1.00  0.00    -0.352 OA 
BRANCH  11  13
HETATM   13  O   UNL     1     -10.398  10.847  65.811  1.00  0.00    -0.247 OA 
BRANCH  13  14
HETATM   14  C   UNL     1      -9.704  10.885  67.186  1.00  0.00    -0.174 C  
HETATM   15  C   UNL     1      -8.926   9.569  67.070  1.00  0.00    -0.150 C  
HETATM   16  C   UNL     1     -10.133   8.632  67.181  1.00  0.00    -0.329 C  
HETATM   17  C   UNL     1     -10.534   9.019  68.581  1.00  0.00    -0.229 C  
HETATM   18  C   UNL     1     -11.142   7.957  69.497  1.00  0.00     0.014 C  
HETATM   19  C   UNL     1     -10.412   6.667  69.049  1.00  0.00    -0.243 C  
HETATM   20  C   UNL     1     -10.322   5.544  70.012  1.00  0.00    -0.358 C  
HETATM   21  C   UNL     1      -9.900   6.068  71.398  1.00  0.00    -0.204 C  
HETATM   22  C   UNL     1      -9.203   5.246  72.179  1.00  0.00    -0.156 C  
HETATM   23  C   UNL     1     -10.154   4.116  72.370  1.00  0.00    -0.177 C  
HETATM   24  O   UNL     1      -9.759   2.968  72.335  1.00  0.00    -0.128 OA 
HETATM   25  C   UNL     1     -11.640   4.540  72.577  1.00  0.00     0.331 C  
HETATM   26  C   UNL     1     -12.096   6.038  72.148  1.00  0.00    -0.201 C  
HETATM   27  C   UNL     1     -10.903   7.066  72.000  1.00  0.00    -0.253 C  
HETATM   28  C   UNL     1     -10.619   7.533  73.436  1.00  0.00    -0.409 C  
HETATM   29  C   UNL     1     -10.762   8.306  70.967  1.00  0.00    -0.256 C  
HETATM   30  C   UNL     1     -11.083   9.834  71.203  1.00  0.00    -0.414 C  
HETATM   31  C   UNL     1     -10.295  10.824  70.131  1.00  0.00     0.273 C  
HETATM   32  C   UNL     1     -10.688  10.563  68.583  1.00  0.00    -0.247 C  
HETATM   33  C   UNL     1     -11.988  11.347  68.391  1.00  0.00    -0.270 C  
ENDBRANCH  13  14
ENDBRANCH  11  13
ENDBRANCH  10  11
ENDBRANCH   9  10
ENDBRANCH   8   9
ENDBRANCH   7   8
ENDBRANCH   6   7
ENDBRANCH   5   6
ENDBRANCH   4   5
ENDBRANCH   3   4
ENDBRANCH   2   3
TORSDOF 11
ENDMDL
MODEL       98
REMARK 921   NORMALIZED FREE ENERGY PREDICTED BY IDOCK:   -4.01 KCAL/MOL
REMARK 922        TOTAL FREE ENERGY PREDICTED BY IDOCK:   -8.77 KCAL/MOL
REMARK 923 INTER-LIGAND FREE ENERGY PREDICTED BY IDOCK:   -7.45 KCAL/MOL
REMARK 924 INTRA-LIGAND FREE ENERGY PREDICTED BY IDOCK:   -1.32 KCAL/MOL
REMARK 927      BINDING AFFINITY PREDICTED BY RF-SCORE:    0.00 PKD
ROOT
HETATM    1  C   UNL     1      -6.321  18.008  65.836  1.00  0.00    -0.294 C  
HETATM    2  C   UNL     1      -7.760  18.336  66.146  1.00  0.00    -0.255 C  
ENDROOT
BRANCH   2   3
HETATM    3  C   UNL     1      -8.665  17.083  66.091  1.00  0.00    -0.254 C  
BRANCH   3   4
HETATM    4  C   UNL     1      -8.869  16.465  67.483  1.00  0.00    -0.187 C  
BRANCH   4   5
HETATM    5  C   UNL     1      -9.905  17.235  68.311  1.00  0.00    -0.304 C  
BRANCH   5   6
HETATM    6  C   UNL     1     -10.880  16.297  69.043  1.00  0.00    -0.315 C  
BRANCH   6   7
HETATM    7  C   UNL     1     -10.684  14.842  68.591  1.00  0.00    -0.250 C  
BRANCH   7   8
HETATM    8  C   UNL     1     -11.961  14.131  68.130  1.00  0.00    -0.367 C  
BRANCH   8   9
HETATM    9  C   UNL     1     -12.372  14.377  66.687  1.00  0.00    -0.245 C  
BRANCH   9  10
HETATM   10  C   UNL     1     -11.927  13.304  65.699  1.00  0.00    -0.455 C  
BRANCH  10  11
HETATM   11  C   UNL     1     -10.475  12.775  65.523  1.00  0.00    -0.287 C  
HETATM   12  O   UNL     1      -9.899  13.033  64.463  1.00  0.00    -0.161 OA 
BRANCH  11  13
HETATM   13  O   UNL     1      -9.950  11.868  66.440  1.00  0.00    -0.205 OA 
BRANCH  13  14
HETATM   14  C   UNL     1     -10.557  10.452  66.429  1.00  0.00    -0.127 C  
HETATM   15  C   UNL     1     -11.404  10.572  67.701  1.00  0.00    -0.233 C  
HETATM   16  C   UNL     1     -10.241  10.575  68.697  1.00  0.00    -0.197 C  
HETATM   17  C   UNL     1      -9.737   9.188  68.390  1.00  0.00    -0.166 C  
HETATM   18  C   UNL     1      -9.128   8.356  69.518  1.00  0.00    -0.153 C  
HETATM   19  C   UNL     1      -9.947   8.809  70.752  1.00  0.00    -0.263 C  
HETATM   20  C   UNL     1     -10.034   7.888  71.911  1.00  0.00    -0.234 C  
HETATM   21  C   UNL     1     -10.345   6.459  71.428  1.00  0.00    -0.240 C  
HETATM   22  C   UNL     1     -11.033   5.669  72.249  1.00  0.00    -0.312 C  
HETATM   23  C   UNL     1     -10.130   5.584  73.430  1.00  0.00    -0.186 C  
HETATM   24  O   UNL     1     -10.582   5.640  74.555  1.00  0.00    -0.245 OA 
HETATM   25  C   UNL     1      -8.614   5.454  73.086  1.00  0.00    -0.117 C  
HETATM   26  C   UNL     1      -8.111   5.850  71.594  1.00  0.00    -0.118 C  
HETATM   27  C   UNL     1      -9.259   5.880  70.505  1.00  0.00    -0.167 C  
HETATM   28  C   UNL     1      -9.432   4.412  70.088  1.00  0.00    -0.245 C  
HETATM   29  C   UNL     1      -9.400   6.852  69.217  1.00  0.00    -0.144 C  
HETATM   30  C   UNL     1      -8.990   6.575  67.717  1.00  0.00    -0.114 C  
HETATM   31  C   UNL     1      -9.792   7.555  66.646  1.00  0.00    -0.274 C  
HETATM   32  C   UNL     1      -9.507   9.133  66.857  1.00  0.00    -0.222 C  
HETATM   33  C   UNL     1      -8.184   9.375  66.128  1.00  0.00    -0.111 C  
ENDBRANCH  13  14
ENDBRANCH  11  13
ENDBRANCH  10  11
ENDBRANCH   9  10
ENDBRANCH   8   9
ENDBRANCH   7   8
ENDBRANCH   6   7
ENDBRANCH   5   6
ENDBRANCH   4   5
ENDBRANCH   3   4
ENDBRANCH   2   3
TORSDOF 11
ENDMDL
MODEL       99
REMARK 921   NORMALIZED FREE ENERGY PREDICTED BY IDOCK:   -4.00 KCAL/MOL
REMARK 922        TOTAL FREE ENERGY PREDICTED BY IDOCK:   -8.75 KCAL/MOL
REMARK 923 INTER-LIGAND FREE ENERGY PREDICTED BY IDOCK:   -7.33 KCAL/MOL
REMARK 924 INTRA-LIGAND FREE ENERGY PREDICTED BY IDOCK:   -1.42 KCAL/MOL
REMARK 927      BINDING AFFINITY PREDICTED BY RF-SCORE:    0.00 PKD
ROOT
HETATM    1  C   UNL     1     -10.735  19.290  66.469  1.00  0.00    -0.487 C  
HETATM    2  C   UNL     1      -9.922  20.314  67.222  1.00  0.00    -0.580 C  
ENDROOT
BRANCH   2   3
HETATM    3  C   UNL     1      -8.458  19.858  67.424  1.00  0.00    -0.377 C  
BRANCH   3   4
HETATM    4  C   UNL     1      -7.620  20.051  66.151  1.00  0.00    -0.327 C  
BRANCH   4   5
HETATM    5  C   UNL     1      -6.884  18.769  65.742  1.00  0.00    -0.305 C  
BRANCH   5   6
HETATM    6  C   UNL     1      -6.682  17.809  66.927  1.00  0.00    -0.211 C  
BRANCH   6   7
HETATM    7  C   UNL     1      -7.187  16.400  66.582  1.00  0.00    -0.208 C  
BRANCH   7   8
HETATM    8  C   UNL     1      -8.691  16.185  66.788  1.00  0.00    -0.273 C  
BRANCH   8   9
HETATM    9  C   UNL     1      -9.433  15.542  65.627  1.00  0.00    -0.271 C  
BRANCH   9  10
HETATM   10  C   UNL     1     -10.456  14.483  66.024  1.00  0.00    -0.315 C  
BRANCH  10  11
HETATM   11  C   UNL     1     -10.572  13.058  65.413  1.00  0.00    -0.292 C  
HETATM   12  O   UNL     1     -10.753  12.972  64.195  1.00  0.00    -0.389 OA 
BRANCH  11  13
HETATM   13  O   UNL     1     -10.686  11.950  66.249  1.00  0.00    -0.251 OA 
BRANCH  13  14
HETATM   14  C   UNL     1      -9.460  11.020  66.326  1.00  0.00    -0.193 C  
HETATM   15  C   UNL     1     -10.197   9.682  66.188  1.00  0.00    -0.276 C  
HETATM   16  C   UNL     1     -10.864   9.695  67.567  1.00  0.00    -0.265 C  
HETATM   17  C   UNL     1      -9.596   9.647  68.380  1.00  0.00    -0.154 C  
HETATM   18  C   UNL     1      -9.599   8.898  69.712  1.00  0.00    -0.175 C  
HETATM   19  C   UNL     1     -10.591   7.739  69.445  1.00  0.00    -0.211 C  
HETATM   20  C   UNL     1     -10.477   6.515  70.273  1.00  0.00    -0.261 C  
HETATM   21  C   UNL     1      -9.002   6.082  70.376  1.00  0.00    -0.153 C  
HETATM   22  C   UNL     1      -8.752   4.783  70.520  1.00  0.00    -0.130 C  
HETATM   23  C   UNL     1      -9.426   4.477  71.812  1.00  0.00    -0.149 C  
HETATM   24  O   UNL     1     -10.063   3.452  71.945  1.00  0.00    -0.160 OA 
HETATM   25  C   UNL     1      -9.261   5.572  72.911  1.00  0.00    -0.137 C  
HETATM   26  C   UNL     1      -8.794   7.062  72.470  1.00  0.00    -0.139 C  
HETATM   27  C   UNL     1      -8.105   7.136  71.048  1.00  0.00    -0.104 C  
HETATM   28  C   UNL     1      -6.648   6.725  71.305  1.00  0.00    -0.053 C  
HETATM   29  C   UNL     1      -8.168   8.334  69.958  1.00  0.00    -0.119 C  
HETATM   30  C   UNL     1      -7.135   9.502  69.707  1.00  0.00    -0.075 C  
HETATM   31  C   UNL     1      -7.268  10.156  68.189  1.00  0.00    -0.081 C  
HETATM   32  C   UNL     1      -8.710  10.820  67.883  1.00  0.00    -0.129 C  
HETATM   33  C   UNL     1      -8.618  12.216  68.504  1.00  0.00    -0.079 C  
ENDBRANCH  13  14
ENDBRANCH  11  13
ENDBRANCH  10  11
ENDBRANCH   9  10
ENDBRANCH   8   9
ENDBRANCH   7   8
ENDBRANCH   6   7
ENDBRANCH   5   6
ENDBRANCH   4   5
ENDBRANCH   3   4
ENDBRANCH   2   3
TORSDOF 11
ENDMDL
MODEL      100
REMARK 921   NORMALIZED FREE ENERGY PREDICTED BY IDOCK:   -3.99 KCAL/MOL
REMARK 922        TOTAL FREE ENERGY PREDICTED BY IDOCK:   -8.74 KCAL/MOL
REMARK 923 INTER-LIGAND FREE ENERGY PREDICTED BY IDOCK:   -7.34 KCAL/MOL
REMARK 924 INTRA-LIGAND FREE ENERGY PREDICTED BY IDOCK:   -1.40 KCAL/MOL
REMARK 927      BINDING AFFINITY PREDICTED BY RF-SCORE:    0.00 PKD
ROOT
HETATM    1  C   UNL     1     -10.782  16.695  65.077  1.00  0.00    -0.171 C  
HETATM    2  C   UNL     1     -10.061  16.862  66.391  1.00  0.00    -0.331 C  
ENDROOT
BRANCH   2   3
HETATM    3  C   UNL     1     -10.685  15.995  67.509  1.00  0.00    -0.314 C  
BRANCH   3   4
HETATM    4  C   UNL     1     -10.470  14.495  67.256  1.00  0.00    -0.266 C  
BRANCH   4   5
HETATM    5  C   UNL     1     -11.772  13.694  67.381  1.00  0.00    -0.416 C  
BRANCH   5   6
HETATM    6  C   UNL     1     -12.021  12.792  66.161  1.00  0.00    -0.476 C  
BRANCH   6   7
HETATM    7  C   UNL     1     -10.791  12.763  65.241  1.00  0.00    -0.319 C  
BRANCH   7   8
HETATM    8  C   UNL     1     -11.001  12.042  63.904  1.00  0.00    -0.465 C  
BRANCH   8   9
HETATM    9  C   UNL     1     -10.072  10.869  63.633  1.00  0.00    -0.414 C  
BRANCH   9  10
HETATM   10  C   UNL     1      -8.975  10.663  64.671  1.00  0.00    -0.216 C  
BRANCH  10  11
HETATM   11  C   UNL     1      -8.314   9.304  65.039  1.00  0.00    -0.154 C  
HETATM   12  O   UNL     1      -7.453   8.863  64.273  1.00  0.00    -0.100 OA 
BRANCH  11  13
HETATM   13  O   UNL     1      -8.842   8.531  66.069  1.00  0.00    -0.153 OA 
BRANCH  13  14
HETATM   14  C   UNL     1      -8.110   8.600  67.423  1.00  0.00    -0.102 C  
HETATM   15  C   UNL     1      -7.723   7.121  67.533  1.00  0.00    -0.111 C  
HETATM   16  C   UNL     1      -9.132   6.579  67.790  1.00  0.00    -0.112 C  
HETATM   17  C   UNL     1      -9.358   7.282  69.103  1.00  0.00    -0.146 C  
HETATM   18  C   UNL     1     -10.195   6.589  70.178  1.00  0.00    -0.226 C  
HETATM   19  C   UNL     1      -9.858   5.094  69.956  1.00  0.00    -0.295 C  
HETATM   20  C   UNL     1     -10.037   4.159  71.093  1.00  0.00    -0.145 C  
HETATM   21  C   UNL     1      -9.436   4.765  72.375  1.00  0.00    -0.168 C  
HETATM   22  C   UNL     1      -8.957   3.922  73.287  1.00  0.00    -0.111 C  
HETATM   23  C   UNL     1     -10.169   3.140  73.656  1.00  0.00    -0.129 C  
HETATM   24  O   UNL     1     -10.101   1.939  73.815  1.00  0.00    -0.085 OA 
HETATM   25  C   UNL     1     -11.477   3.982  73.780  1.00  0.00    -0.104 C  
HETATM   26  C   UNL     1     -11.528   5.457  73.105  1.00  0.00    -0.273 C  
HETATM   27  C   UNL     1     -10.108   6.083  72.797  1.00  0.00    -0.201 C  
HETATM   28  C   UNL     1      -9.653   6.680  74.137  1.00  0.00    -0.281 C  
HETATM   29  C   UNL     1      -9.679   7.053  71.573  1.00  0.00    -0.166 C  
HETATM   30  C   UNL     1      -9.565   8.628  71.549  1.00  0.00    -0.327 C  
HETATM   31  C   UNL     1      -8.581   9.179  70.333  1.00  0.00    -0.236 C  
HETATM   32  C   UNL     1      -9.090   8.788  68.848  1.00  0.00    -0.141 C  
HETATM   33  C   UNL     1     -10.136   9.855  68.519  1.00  0.00    -0.186 C  
ENDBRANCH  13  14
ENDBRANCH  11  13
ENDBRANCH  10  11
ENDBRANCH   9  10
ENDBRANCH   8   9
ENDBRANCH   7   8
ENDBRANCH   6   7
ENDBRANCH   5   6
ENDBRANCH   4   5
ENDBRANCH   3   4
ENDBRANCH   2   3
TORSDOF 11
ENDMDL
MODEL      101
REMARK 921   NORMALIZED FREE ENERGY PREDICTED BY IDOCK:   -3.97 KCAL/MOL
REMARK 922        TOTAL FREE ENERGY PREDICTED BY IDOCK:   -8.71 KCAL/MOL
REMARK 923 INTER-LIGAND FREE ENERGY PREDICTED BY IDOCK:   -6.97 KCAL/MOL
REMARK 924 INTRA-LIGAND FREE ENERGY PREDICTED BY IDOCK:   -1.73 KCAL/MOL
REMARK 927      BINDING AFFINITY PREDICTED BY RF-SCORE:    0.00 PKD
ROOT
HETATM    1  C   UNL     1     -13.305  10.353  71.895  1.00  0.00    -0.469 C  
HETATM    2  C   UNL     1     -12.220   9.527  71.251  1.00  0.00    -0.433 C  
ENDROOT
BRANCH   2   3
HETATM    3  C   UNL     1     -11.089  10.406  70.669  1.00  0.00    -0.283 C  
BRANCH   3   4
HETATM    4  C   UNL     1     -11.244  10.604  69.152  1.00  0.00    -0.324 C  
BRANCH   4   5
HETATM    5  C   UNL     1     -12.150  11.794  68.814  1.00  0.00    -0.204 C  
BRANCH   5   6
HETATM    6  C   UNL     1     -11.469  13.144  69.094  1.00  0.00    -0.358 C  
BRANCH   6   7
HETATM    7  C   UNL     1     -10.454  13.484  67.993  1.00  0.00    -0.245 C  
BRANCH   7   8
HETATM    8  C   UNL     1     -10.950  13.246  66.561  1.00  0.00    -0.299 C  
BRANCH   8   9
HETATM    9  C   UNL     1     -10.011  12.464  65.657  1.00  0.00    -0.261 C  
BRANCH   9  10
HETATM   10  C   UNL     1     -10.504  11.075  65.265  1.00  0.00    -0.316 C  
BRANCH  10  11
HETATM   11  C   UNL     1      -9.742   9.740  65.498  1.00  0.00    -0.312 C  
HETATM   12  O   UNL     1      -9.026   9.324  64.583  1.00  0.00    -0.206 OA 
BRANCH  11  13
HETATM   13  O   UNL     1     -10.041   8.955  66.608  1.00  0.00    -0.256 OA 
BRANCH  13  14
HETATM   14  C   UNL     1      -9.541   7.498  66.572  1.00  0.00    -0.173 C  
HETATM   15  C   UNL     1     -10.791   6.827  67.154  1.00  0.00    -0.462 C  
HETATM   16  C   UNL     1     -10.628   7.343  68.586  1.00  0.00    -0.182 C  
HETATM   17  C   UNL     1      -9.328   6.642  68.883  1.00  0.00    -0.128 C  
HETATM   18  C   UNL     1      -9.060   6.152  70.306  1.00  0.00    -0.158 C  
HETATM   19  C   UNL     1     -10.475   5.763  70.801  1.00  0.00    -0.324 C  
HETATM   20  C   UNL     1     -10.585   4.776  71.902  1.00  0.00    -0.150 C  
HETATM   21  C   UNL     1      -9.651   3.581  71.636  1.00  0.00    -0.228 C  
HETATM   22  C   UNL     1     -10.018   2.395  72.115  1.00  0.00    -0.230 C  
HETATM   23  C   UNL     1     -10.054   2.649  73.582  1.00  0.00    -0.109 C  
HETATM   24  O   UNL     1     -10.954   2.198  74.261  1.00  0.00    -0.148 OA 
HETATM   25  C   UNL     1      -8.890   3.537  74.120  1.00  0.00    -0.089 C  
HETATM   26  C   UNL     1      -8.040   4.438  73.071  1.00  0.00    -0.095 C  
HETATM   27  C   UNL     1      -8.165   3.975  71.563  1.00  0.00    -0.079 C  
HETATM   28  C   UNL     1      -7.161   2.821  71.431  1.00  0.00    -0.032 C  
HETATM   29  C   UNL     1      -8.154   4.888  70.225  1.00  0.00    -0.077 C  
HETATM   30  C   UNL     1      -6.948   5.216  69.259  1.00  0.00    -0.055 C  
HETATM   31  C   UNL     1      -7.450   5.690  67.751  1.00  0.00    -0.077 C  
HETATM   32  C   UNL     1      -8.346   7.037  67.750  1.00  0.00    -0.117 C  
HETATM   33  C   UNL     1      -7.318   8.170  67.793  1.00  0.00    -0.093 C  
ENDBRANCH  13  14
ENDBRANCH  11  13
ENDBRANCH  10  11
ENDBRANCH   9  10
ENDBRANCH   8   9
ENDBRANCH   7   8
ENDBRANCH   6   7
ENDBRANCH   5   6
ENDBRANCH   4   5
ENDBRANCH   3   4
ENDBRANCH   2   3
TORSDOF 11
ENDMDL
MODEL      102
REMARK 921   NORMALIZED FREE ENERGY PREDICTED BY IDOCK:   -3.96 KCAL/MOL
REMARK 922        TOTAL FREE ENERGY PREDICTED BY IDOCK:   -8.69 KCAL/MOL
REMARK 923 INTER-LIGAND FREE ENERGY PREDICTED BY IDOCK:   -6.68 KCAL/MOL
REMARK 924 INTRA-LIGAND FREE ENERGY PREDICTED BY IDOCK:   -2.01 KCAL/MOL
REMARK 927      BINDING AFFINITY PREDICTED BY RF-SCORE:    0.00 PKD
ROOT
HETATM    1  C   UNL     1     -10.567   7.958  72.553  1.00  0.00    -0.378 C  
HETATM    2  C   UNL     1     -11.170   9.202  71.948  1.00  0.00    -0.400 C  
ENDROOT
BRANCH   2   3
HETATM    3  C   UNL     1     -12.546   8.923  71.301  1.00  0.00    -0.309 C  
BRANCH   3   4
HETATM    4  C   UNL     1     -13.114  10.173  70.610  1.00  0.00    -0.274 C  
BRANCH   4   5
HETATM    5  C   UNL     1     -12.056  11.268  70.433  1.00  0.00    -0.474 C  
BRANCH   5   6
HETATM    6  C   UNL     1     -11.957  11.754  68.977  1.00  0.00    -0.341 C  
BRANCH   6   7
HETATM    7  C   UNL     1     -11.398  13.184  68.915  1.00  0.00    -0.335 C  
BRANCH   7   8
HETATM    8  C   UNL     1     -10.989  13.657  67.515  1.00  0.00    -0.282 C  
BRANCH   8   9
HETATM    9  C   UNL     1      -9.853  12.887  66.862  1.00  0.00    -0.235 C  
BRANCH   9  10
HETATM   10  C   UNL     1     -10.269  11.981  65.708  1.00  0.00    -0.274 C  
BRANCH  10  11
HETATM   11  C   UNL     1      -9.798  10.516  65.487  1.00  0.00    -0.265 C  
HETATM   12  O   UNL     1      -9.859  10.065  64.339  1.00  0.00    -0.296 OA 
BRANCH  11  13
HETATM   13  O   UNL     1      -9.534   9.698  66.581  1.00  0.00    -0.155 OA 
BRANCH  13  14
HETATM   14  C   UNL     1     -10.325   8.378  66.659  1.00  0.00    -0.228 C  
HETATM   15  C   UNL     1     -10.689   8.433  68.148  1.00  0.00    -0.094 C  
HETATM   16  C   UNL     1      -9.282   8.168  68.691  1.00  0.00    -0.143 C  
HETATM   17  C   UNL     1      -9.127   6.783  68.120  1.00  0.00    -0.123 C  
HETATM   18  C   UNL     1      -8.325   5.745  68.906  1.00  0.00    -0.101 C  
HETATM   19  C   UNL     1      -8.623   6.130  70.375  1.00  0.00    -0.134 C  
HETATM   20  C   UNL     1      -8.476   5.084  71.417  1.00  0.00    -0.121 C  
HETATM   21  C   UNL     1      -9.143   3.777  70.951  1.00  0.00    -0.180 C  
HETATM   22  C   UNL     1      -9.646   2.976  71.888  1.00  0.00    -0.222 C  
HETATM   23  C   UNL     1      -8.436   2.632  72.685  1.00  0.00    -0.070 C  
HETATM   24  O   UNL     1      -8.489   2.596  73.897  1.00  0.00    -0.070 OA 
HETATM   25  C   UNL     1      -7.151   2.366  71.841  1.00  0.00    -0.034 C  
HETATM   26  C   UNL     1      -7.099   2.888  70.306  1.00  0.00    -0.034 C  
HETATM   27  C   UNL     1      -8.516   3.196  69.672  1.00  0.00    -0.100 C  
HETATM   28  C   UNL     1      -9.040   1.825  69.219  1.00  0.00    -0.160 C  
HETATM   29  C   UNL     1      -8.910   4.335  68.591  1.00  0.00    -0.136 C  
HETATM   30  C   UNL     1      -9.053   4.208  67.023  1.00  0.00    -0.155 C  
HETATM   31  C   UNL     1      -9.993   5.406  66.368  1.00  0.00    -0.218 C  
HETATM   32  C   UNL     1      -9.412   6.898  66.600  1.00  0.00    -0.209 C  
HETATM   33  C   UNL     1      -8.373   7.072  65.491  1.00  0.00    -0.135 C  
ENDBRANCH  13  14
ENDBRANCH  11  13
ENDBRANCH  10  11
ENDBRANCH   9  10
ENDBRANCH   8   9
ENDBRANCH   7   8
ENDBRANCH   6   7
ENDBRANCH   5   6
ENDBRANCH   4   5
ENDBRANCH   3   4
ENDBRANCH   2   3
TORSDOF 11
ENDMDL
MODEL      103
REMARK 921   NORMALIZED FREE ENERGY PREDICTED BY IDOCK:   -3.94 KCAL/MOL
REMARK 922        TOTAL FREE ENERGY PREDICTED BY IDOCK:   -8.65 KCAL/MOL
REMARK 923 INTER-LIGAND FREE ENERGY PREDICTED BY IDOCK:   -7.45 KCAL/MOL
REMARK 924 INTRA-LIGAND FREE ENERGY PREDICTED BY IDOCK:   -1.21 KCAL/MOL
REMARK 927      BINDING AFFINITY PREDICTED BY RF-SCORE:    0.00 PKD
ROOT
HETATM    1  C   UNL     1      -9.590  15.687  65.782  1.00  0.00    -0.361 C  
HETATM    2  C   UNL     1      -8.877  14.865  66.827  1.00  0.00    -0.291 C  
ENDROOT
BRANCH   2   3
HETATM    3  C   UNL     1      -9.520  13.471  67.006  1.00  0.00    -0.251 C  
BRANCH   3   4
HETATM    4  C   UNL     1     -10.938  13.416  66.416  1.00  0.00    -0.297 C  
BRANCH   4   5
HETATM    5  C   UNL     1     -11.999  13.138  67.487  1.00  0.00    -0.367 C  
BRANCH   5   6
HETATM    6  C   UNL     1     -11.959  14.167  68.629  1.00  0.00    -0.373 C  
BRANCH   6   7
HETATM    7  C   UNL     1     -11.819  13.468  69.990  1.00  0.00    -0.371 C  
BRANCH   7   8
HETATM    8  C   UNL     1     -11.879  11.936  69.940  1.00  0.00    -0.418 C  
BRANCH   8   9
HETATM    9  C   UNL     1     -13.132  11.304  70.523  1.00  0.00     0.102 C  
BRANCH   9  10
HETATM   10  C   UNL     1     -12.966  10.716  71.920  1.00  0.00    -0.542 C  
BRANCH  10  11
HETATM   11  C   UNL     1     -13.176   9.226  72.310  1.00  0.00    -0.460 C  
HETATM   12  O   UNL     1     -14.325   8.861  72.574  1.00  0.00    -0.579 OA 
BRANCH  11  13
HETATM   13  O   UNL     1     -12.075   8.411  72.560  1.00  0.00    -0.393 OA 
BRANCH  13  14
HETATM   14  C   UNL     1     -10.802   8.707  71.743  1.00  0.00    -0.325 C  
HETATM   15  C   UNL     1     -11.243   8.070  70.420  1.00  0.00    -0.230 C  
HETATM   16  C   UNL     1     -11.172   6.612  70.885  1.00  0.00    -0.352 C  
HETATM   17  C   UNL     1      -9.689   6.580  71.150  1.00  0.00    -0.188 C  
HETATM   18  C   UNL     1      -8.922   5.281  70.900  1.00  0.00    -0.160 C  
HETATM   19  C   UNL     1      -9.677   4.670  69.694  1.00  0.00    -0.283 C  
HETATM   20  C   UNL     1      -8.953   3.708  68.828  1.00  0.00    -0.181 C  
HETATM   21  C   UNL     1      -7.550   4.251  68.495  1.00  0.00    -0.063 C  
HETATM   22  C   UNL     1      -7.015   3.895  67.329  1.00  0.00    -0.055 C  
HETATM   23  C   UNL     1      -6.930   2.414  67.464  1.00  0.00    -0.044 C  
HETATM   24  O   UNL     1      -7.219   1.694  66.530  1.00  0.00    -0.049 OA 
HETATM   25  C   UNL     1      -6.485   1.911  68.872  1.00  0.00    -0.029 C  
HETATM   26  C   UNL     1      -6.578   2.926  70.134  1.00  0.00    -0.033 C  
HETATM   27  C   UNL     1      -6.667   4.455  69.737  1.00  0.00    -0.034 C  
HETATM   28  C   UNL     1      -5.210   4.869  69.476  1.00  0.00     0.000 C  
HETATM   29  C   UNL     1      -7.464   5.648  70.490  1.00  0.00    -0.085 C  
HETATM   30  C   UNL     1      -6.918   6.704  71.528  1.00  0.00    -0.071 C  
HETATM   31  C   UNL     1      -7.871   8.058  71.622  1.00  0.00    -0.116 C  
HETATM   32  C   UNL     1      -9.387   7.763  72.106  1.00  0.00    -0.204 C  
HETATM   33  C   UNL     1      -9.286   7.696  73.631  1.00  0.00    -0.344 C  
ENDBRANCH  13  14
ENDBRANCH  11  13
ENDBRANCH  10  11
ENDBRANCH   9  10
ENDBRANCH   8   9
ENDBRANCH   7   8
ENDBRANCH   6   7
ENDBRANCH   5   6
ENDBRANCH   4   5
ENDBRANCH   3   4
ENDBRANCH   2   3
TORSDOF 11
ENDMDL
MODEL      104
REMARK 921   NORMALIZED FREE ENERGY PREDICTED BY IDOCK:   -3.94 KCAL/MOL
REMARK 922        TOTAL FREE ENERGY PREDICTED BY IDOCK:   -8.65 KCAL/MOL
REMARK 923 INTER-LIGAND FREE ENERGY PREDICTED BY IDOCK:   -7.10 KCAL/MOL
REMARK 924 INTRA-LIGAND FREE ENERGY PREDICTED BY IDOCK:   -1.55 KCAL/MOL
REMARK 927      BINDING AFFINITY PREDICTED BY RF-SCORE:    0.00 PKD
ROOT
HETATM    1  C   UNL     1     -10.630   7.833  71.992  1.00  0.00    -0.279 C  
HETATM    2  C   UNL     1     -11.210   9.222  71.897  1.00  0.00    -0.331 C  
ENDROOT
BRANCH   2   3
HETATM    3  C   UNL     1     -12.454   9.270  70.980  1.00  0.00    -0.276 C  
BRANCH   3   4
HETATM    4  C   UNL     1     -13.342  10.486  71.286  1.00  0.00    -0.290 C  
BRANCH   4   5
HETATM    5  C   UNL     1     -12.518  11.729  71.646  1.00  0.00    -0.122 C  
BRANCH   5   6
HETATM    6  C   UNL     1     -13.337  13.025  71.533  1.00  0.00    -0.284 C  
BRANCH   6   7
HETATM    7  C   UNL     1     -13.200  13.871  72.808  1.00  0.00    -0.543 C  
BRANCH   7   8
HETATM    8  C   UNL     1     -13.165  15.387  72.577  1.00  0.00    -0.543 C  
BRANCH   8   9
HETATM    9  C   UNL     1     -12.026  15.898  71.710  1.00  0.00    -0.573 C  
BRANCH   9  10
HETATM   10  C   UNL     1     -12.355  16.036  70.228  1.00  0.00    -0.053 C  
BRANCH  10  11
HETATM   11  C   UNL     1     -11.372  15.784  69.051  1.00  0.00    -0.354 C  
HETATM   12  O   UNL     1     -11.285  16.658  68.183  1.00  0.00    -0.339 OA 
BRANCH  11  13
HETATM   13  O   UNL     1     -10.794  14.529  68.885  1.00  0.00    -0.238 OA 
BRANCH  13  14
HETATM   14  C   UNL     1     -11.308  13.687  67.701  1.00  0.00    -0.300 C  
HETATM   15  C   UNL     1     -11.586  12.387  68.467  1.00  0.00    -0.358 C  
HETATM   16  C   UNL     1     -10.124  12.003  68.715  1.00  0.00    -0.113 C  
HETATM   17  C   UNL     1      -9.738  11.825  67.269  1.00  0.00    -0.188 C  
HETATM   18  C   UNL     1      -8.705  10.759  66.906  1.00  0.00    -0.141 C  
HETATM   19  C   UNL     1      -8.984   9.649  67.950  1.00  0.00    -0.120 C  
HETATM   20  C   UNL     1      -8.574   8.262  67.623  1.00  0.00    -0.130 C  
HETATM   21  C   UNL     1      -9.003   7.909  66.187  1.00  0.00    -0.214 C  
HETATM   22  C   UNL     1      -9.283   6.635  65.925  1.00  0.00    -0.010 C  
HETATM   23  C   UNL     1      -7.984   5.965  66.210  1.00  0.00    -0.102 C  
HETATM   24  O   UNL     1      -7.956   4.903  66.798  1.00  0.00    -0.102 OA 
HETATM   25  C   UNL     1      -6.725   6.747  65.724  1.00  0.00    -0.052 C  
HETATM   26  C   UNL     1      -6.867   8.326  65.379  1.00  0.00    -0.062 C  
HETATM   27  C   UNL     1      -8.352   8.807  65.121  1.00  0.00    -0.176 C  
HETATM   28  C   UNL     1      -8.627   8.434  63.656  1.00  0.00     0.112 C  
HETATM   29  C   UNL     1      -9.024  10.239  65.472  1.00  0.00    -0.200 C  
HETATM   30  C   UNL     1      -9.232  11.493  64.536  1.00  0.00     0.063 C  
HETATM   31  C   UNL     1     -10.424  12.507  65.083  1.00  0.00    -0.320 C  
HETATM   32  C   UNL     1     -10.131  13.138  66.544  1.00  0.00    -0.280 C  
HETATM   33  C   UNL     1      -9.213  14.329  66.259  1.00  0.00    -0.181 C  
ENDBRANCH  13  14
ENDBRANCH  11  13
ENDBRANCH  10  11
ENDBRANCH   9  10
ENDBRANCH   8   9
ENDBRANCH   7   8
ENDBRANCH   6   7
ENDBRANCH   5   6
ENDBRANCH   4   5
ENDBRANCH   3   4
ENDBRANCH   2   3
TORSDOF 11
ENDMDL
MODEL      105
REMARK 921   NORMALIZED FREE ENERGY PREDICTED BY IDOCK:   -3.93 KCAL/MOL
REMARK 922        TOTAL FREE ENERGY PREDICTED BY IDOCK:   -8.65 KCAL/MOL
REMARK 923 INTER-LIGAND FREE ENERGY PREDICTED BY IDOCK:   -7.27 KCAL/MOL
REMARK 924 INTRA-LIGAND FREE ENERGY PREDICTED BY IDOCK:   -1.37 KCAL/MOL
REMARK 927      BINDING AFFINITY PREDICTED BY RF-SCORE:    0.00 PKD
ROOT
HETATM    1  C   UNL     1      -9.448   2.911  70.811  1.00  0.00    -0.223 C  
HETATM    2  C   UNL     1      -8.685   2.162  69.747  1.00  0.00    -0.119 C  
ENDROOT
BRANCH   2   3
HETATM    3  C   UNL     1      -9.522   1.964  68.463  1.00  0.00    -0.226 C  
BRANCH   3   4
HETATM    4  C   UNL     1      -8.778   2.461  67.214  1.00  0.00    -0.141 C  
BRANCH   4   5
HETATM    5  C   UNL     1      -9.526   3.599  66.509  1.00  0.00    -0.188 C  
BRANCH   5   6
HETATM    6  C   UNL     1      -9.688   4.836  67.408  1.00  0.00    -0.209 C  
BRANCH   6   7
HETATM    7  C   UNL     1      -8.320   5.354  67.877  1.00  0.00    -0.099 C  
BRANCH   7   8
HETATM    8  C   UNL     1      -8.376   6.431  68.968  1.00  0.00    -0.118 C  
BRANCH   8   9
HETATM    9  C   UNL     1      -8.245   7.867  68.487  1.00  0.00    -0.127 C  
BRANCH   9  10
HETATM   10  C   UNL     1      -9.501   8.717  68.647  1.00  0.00    -0.144 C  
BRANCH  10  11
HETATM   11  C   UNL     1     -10.356   9.302  67.488  1.00  0.00    -0.262 C  
HETATM   12  O   UNL     1     -10.691   8.534  66.582  1.00  0.00    -0.191 OA 
BRANCH  11  13
HETATM   13  O   UNL     1     -10.537  10.678  67.384  1.00  0.00    -0.222 OA 
BRANCH  13  14
HETATM   14  C   UNL     1      -9.805  11.547  68.424  1.00  0.00    -0.204 C  
HETATM   15  C   UNL     1     -10.900  12.599  68.635  1.00  0.00    -0.281 C  
HETATM   16  C   UNL     1     -10.762  13.284  67.272  1.00  0.00    -0.262 C  
HETATM   17  C   UNL     1      -9.352  13.781  67.462  1.00  0.00    -0.222 C  
HETATM   18  C   UNL     1      -8.945  15.111  66.829  1.00  0.00    -0.293 C  
HETATM   19  C   UNL     1     -10.252  15.937  66.908  1.00  0.00    -0.277 C  
HETATM   20  C   UNL     1     -10.149  17.416  66.892  1.00  0.00    -0.314 C  
HETATM   21  C   UNL     1      -9.042  17.879  67.858  1.00  0.00    -0.260 C  
HETATM   22  C   UNL     1      -9.187  19.071  68.431  1.00  0.00    -0.398 C  
HETATM   23  C   UNL     1      -9.200  19.983  67.255  1.00  0.00    -0.367 C  
HETATM   24  O   UNL     1      -9.982  20.911  67.206  1.00  0.00    -0.387 OA 
HETATM   25  C   UNL     1      -8.177  19.621  66.134  1.00  0.00    -0.355 C  
HETATM   26  C   UNL     1      -7.535  18.131  66.111  1.00  0.00    -0.297 C  
HETATM   27  C   UNL     1      -7.647  17.350  67.482  1.00  0.00    -0.201 C  
HETATM   28  C   UNL     1      -6.472  17.874  68.321  1.00  0.00    -0.193 C  
HETATM   29  C   UNL     1      -7.846  15.760  67.723  1.00  0.00    -0.155 C  
HETATM   30  C   UNL     1      -6.755  14.660  68.028  1.00  0.00    -0.152 C  
HETATM   31  C   UNL     1      -7.394  13.311  68.750  1.00  0.00    -0.070 C  
HETATM   32  C   UNL     1      -8.500  12.545  67.851  1.00  0.00    -0.171 C  
HETATM   33  C   UNL     1      -7.672  11.676  66.902  1.00  0.00    -0.147 C  
ENDBRANCH  13  14
ENDBRANCH  11  13
ENDBRANCH  10  11
ENDBRANCH   9  10
ENDBRANCH   8   9
ENDBRANCH   7   8
ENDBRANCH   6   7
ENDBRANCH   5   6
ENDBRANCH   4   5
ENDBRANCH   3   4
ENDBRANCH   2   3
TORSDOF 11
ENDMDL
MODEL      106
REMARK 921   NORMALIZED FREE ENERGY PREDICTED BY IDOCK:   -3.92 KCAL/MOL
REMARK 922        TOTAL FREE ENERGY PREDICTED BY IDOCK:   -8.62 KCAL/MOL
REMARK 923 INTER-LIGAND FREE ENERGY PREDICTED BY IDOCK:   -7.09 KCAL/MOL
REMARK 924 INTRA-LIGAND FREE ENERGY PREDICTED BY IDOCK:   -1.54 KCAL/MOL
REMARK 927      BINDING AFFINITY PREDICTED BY RF-SCORE:    0.00 PKD
ROOT
HETATM    1  C   UNL     1      -6.157  14.953  70.194  1.00  0.00    -0.157 C  
HETATM    2  C   UNL     1      -5.143  13.965  69.673  1.00  0.00    -0.084 C  
ENDROOT
BRANCH   2   3
HETATM    3  C   UNL     1      -5.387  12.540  70.221  1.00  0.00    -0.123 C  
BRANCH   3   4
HETATM    4  C   UNL     1      -6.554  11.845  69.503  1.00  0.00    -0.093 C  
BRANCH   4   5
HETATM    5  C   UNL     1      -6.607  10.343  69.806  1.00  0.00    -0.103 C  
BRANCH   5   6
HETATM    6  C   UNL     1      -8.035   9.858  70.105  1.00  0.00    -0.181 C  
BRANCH   6   7
HETATM    7  C   UNL     1      -8.339   8.554  69.351  1.00  0.00    -0.119 C  
BRANCH   7   8
HETATM    8  C   UNL     1      -9.727   7.959  69.623  1.00  0.00    -0.173 C  
BRANCH   8   9
HETATM    9  C   UNL     1     -10.620   7.781  68.406  1.00  0.00    -0.157 C  
BRANCH   9  10
HETATM   10  C   UNL     1      -9.887   7.744  67.069  1.00  0.00    -0.286 C  
BRANCH  10  11
HETATM   11  C   UNL     1      -9.704   8.945  66.099  1.00  0.00    -0.268 C  
HETATM   12  O   UNL     1      -9.023   8.761  65.086  1.00  0.00    -0.184 OA 
BRANCH  11  13
HETATM   13  O   UNL     1     -10.111  10.219  66.484  1.00  0.00    -0.213 OA 
BRANCH  13  14
HETATM   14  C   UNL     1      -9.792  11.367  65.507  1.00  0.00    -0.231 C  
HETATM   15  C   UNL     1      -8.548  11.913  66.218  1.00  0.00    -0.016 C  
HETATM   16  C   UNL     1      -9.275  12.514  67.425  1.00  0.00    -0.186 C  
HETATM   17  C   UNL     1     -10.077  13.535  66.662  1.00  0.00    -0.277 C  
HETATM   18  C   UNL     1     -10.386  14.878  67.323  1.00  0.00    -0.251 C  
HETATM   19  C   UNL     1      -9.126  15.126  68.188  1.00  0.00    -0.176 C  
HETATM   20  C   UNL     1      -8.797  16.523  68.562  1.00  0.00    -0.228 C  
HETATM   21  C   UNL     1      -8.917  17.441  67.331  1.00  0.00    -0.232 C  
HETATM   22  C   UNL     1      -8.129  18.512  67.285  1.00  0.00    -0.245 C  
HETATM   23  C   UNL     1      -8.566  19.273  68.487  1.00  0.00    -0.365 C  
HETATM   24  O   UNL     1      -7.748  19.814  69.203  1.00  0.00    -0.297 OA 
HETATM   25  C   UNL     1     -10.106  19.276  68.735  1.00  0.00    -0.477 C  
HETATM   26  C   UNL     1     -11.022  18.160  67.994  1.00  0.00    -0.037 C  
HETATM   27  C   UNL     1     -10.337  17.481  66.740  1.00  0.00    -0.314 C  
HETATM   28  C   UNL     1     -10.567  18.475  65.591  1.00  0.00    -0.143 C  
HETATM   29  C   UNL     1     -10.492  15.960  66.206  1.00  0.00    -0.324 C  
HETATM   30  C   UNL     1     -11.437  15.397  65.073  1.00  0.00    -0.263 C  
HETATM   31  C   UNL     1     -10.906  13.952  64.458  1.00  0.00    -0.381 C  
HETATM   32  C   UNL     1     -10.832  12.760  65.550  1.00  0.00    -0.301 C  
HETATM   33  C   UNL     1     -12.266  12.231  65.624  1.00  0.00    -0.203 C  
ENDBRANCH  13  14
ENDBRANCH  11  13
ENDBRANCH  10  11
ENDBRANCH   9  10
ENDBRANCH   8   9
ENDBRANCH   7   8
ENDBRANCH   6   7
ENDBRANCH   5   6
ENDBRANCH   4   5
ENDBRANCH   3   4
ENDBRANCH   2   3
TORSDOF 11
ENDMDL
MODEL      107
REMARK 921   NORMALIZED FREE ENERGY PREDICTED BY IDOCK:   -3.92 KCAL/MOL
REMARK 922        TOTAL FREE ENERGY PREDICTED BY IDOCK:   -8.62 KCAL/MOL
REMARK 923 INTER-LIGAND FREE ENERGY PREDICTED BY IDOCK:   -6.63 KCAL/MOL
REMARK 924 INTRA-LIGAND FREE ENERGY PREDICTED BY IDOCK:   -1.99 KCAL/MOL
REMARK 927      BINDING AFFINITY PREDICTED BY RF-SCORE:    0.00 PKD
ROOT
HETATM    1  C   UNL     1      -6.142   8.329  66.827  1.00  0.00    -0.054 C  
HETATM    2  C   UNL     1      -6.177   8.073  68.313  1.00  0.00    -0.049 C  
ENDROOT
BRANCH   2   3
HETATM    3  C   UNL     1      -5.743   6.631  68.664  1.00  0.00    -0.017 C  
BRANCH   3   4
HETATM    4  C   UNL     1      -6.903   5.814  69.256  1.00  0.00    -0.062 C  
BRANCH   4   5
HETATM    5  C   UNL     1      -7.132   4.501  68.498  1.00  0.00    -0.053 C  
BRANCH   5   6
HETATM    6  C   UNL     1      -6.534   4.533  67.082  1.00  0.00    -0.042 C  
BRANCH   6   7
HETATM    7  C   UNL     1      -7.641   4.466  66.019  1.00  0.00    -0.086 C  
BRANCH   7   8
HETATM    8  C   UNL     1      -8.944   3.803  66.484  1.00  0.00    -0.143 C  
BRANCH   8   9
HETATM    9  C   UNL     1     -10.209   4.622  66.287  1.00  0.00    -0.306 C  
BRANCH   9  10
HETATM   10  C   UNL     1     -10.017   6.133  66.364  1.00  0.00    -0.130 C  
BRANCH  10  11
HETATM   11  C   UNL     1      -9.908   6.970  67.670  1.00  0.00    -0.147 C  
HETATM   12  O   UNL     1     -10.319   6.455  68.714  1.00  0.00    -0.166 OA 
BRANCH  11  13
HETATM   13  O   UNL     1      -9.565   8.317  67.605  1.00  0.00    -0.145 OA 
BRANCH  13  14
HETATM   14  C   UNL     1     -10.732   9.319  67.513  1.00  0.00    -0.203 C  
HETATM   15  C   UNL     1     -10.250  10.098  66.283  1.00  0.00    -0.288 C  
HETATM   16  C   UNL     1      -9.075  10.808  66.964  1.00  0.00    -0.155 C  
HETATM   17  C   UNL     1      -9.893  11.605  67.947  1.00  0.00    -0.189 C  
HETATM   18  C   UNL     1      -9.411  12.998  68.351  1.00  0.00    -0.165 C  
HETATM   19  C   UNL     1      -8.734  13.510  67.056  1.00  0.00    -0.197 C  
HETATM   20  C   UNL     1      -8.613  14.975  66.862  1.00  0.00    -0.280 C  
HETATM   21  C   UNL     1      -9.947  15.666  67.200  1.00  0.00    -0.240 C  
HETATM   22  C   UNL     1     -10.239  16.790  66.551  1.00  0.00    -0.319 C  
HETATM   23  C   UNL     1      -9.125  17.687  66.965  1.00  0.00    -0.250 C  
HETATM   24  O   UNL     1      -8.590  18.417  66.155  1.00  0.00    -0.456 OA 
HETATM   25  C   UNL     1      -8.716  17.572  68.466  1.00  0.00    -0.282 C  
HETATM   26  C   UNL     1      -9.178  16.263  69.307  1.00  0.00    -0.192 C  
HETATM   27  C   UNL     1     -10.382  15.464  68.662  1.00  0.00    -0.234 C  
HETATM   28  C   UNL     1     -11.635  16.231  69.111  1.00  0.00    -0.213 C  
HETATM   29  C   UNL     1     -10.660  13.869  68.684  1.00  0.00    -0.265 C  
HETATM   30  C   UNL     1     -11.588  13.037  69.654  1.00  0.00    -0.322 C  
HETATM   31  C   UNL     1     -12.032  11.573  69.014  1.00  0.00    -0.377 C  
HETATM   32  C   UNL     1     -10.788  10.588  68.702  1.00  0.00    -0.276 C  
HETATM   33  C   UNL     1     -10.481   9.933  70.051  1.00  0.00    -0.331 C  
ENDBRANCH  13  14
ENDBRANCH  11  13
ENDBRANCH  10  11
ENDBRANCH   9  10
ENDBRANCH   8   9
ENDBRANCH   7   8
ENDBRANCH   6   7
ENDBRANCH   5   6
ENDBRANCH   4   5
ENDBRANCH   3   4
ENDBRANCH   2   3
TORSDOF 11
ENDMDL
MODEL      108
REMARK 921   NORMALIZED FREE ENERGY PREDICTED BY IDOCK:   -3.91 KCAL/MOL
REMARK 922        TOTAL FREE ENERGY PREDICTED BY IDOCK:   -8.61 KCAL/MOL
REMARK 923 INTER-LIGAND FREE ENERGY PREDICTED BY IDOCK:   -6.97 KCAL/MOL
REMARK 924 INTRA-LIGAND FREE ENERGY PREDICTED BY IDOCK:   -1.65 KCAL/MOL
REMARK 927      BINDING AFFINITY PREDICTED BY RF-SCORE:    0.00 PKD
ROOT
HETATM    1  C   UNL     1     -12.293  15.513  70.113  1.00  0.00    -0.384 C  
HETATM    2  C   UNL     1     -11.659  15.235  68.772  1.00  0.00    -0.379 C  
ENDROOT
BRANCH   2   3
HETATM    3  C   UNL     1     -12.119  13.882  68.183  1.00  0.00    -0.317 C  
BRANCH   3   4
HETATM    4  C   UNL     1     -12.284  13.950  66.657  1.00  0.00    -0.465 C  
BRANCH   4   5
HETATM    5  C   UNL     1     -11.069  13.378  65.917  1.00  0.00    -0.293 C  
BRANCH   5   6
HETATM    6  C   UNL     1     -10.463  14.383  64.923  1.00  0.00    -0.448 C  
BRANCH   6   7
HETATM    7  C   UNL     1     -10.910  15.815  65.254  1.00  0.00    -0.409 C  
BRANCH   7   8
HETATM    8  C   UNL     1      -9.958  16.593  66.170  1.00  0.00    -0.356 C  
BRANCH   8   9
HETATM    9  C   UNL     1      -8.477  16.305  65.985  1.00  0.00    -0.185 C  
BRANCH   9  10
HETATM   10  C   UNL     1      -7.751  15.832  67.239  1.00  0.00    -0.232 C  
BRANCH  10  11
HETATM   11  C   UNL     1      -8.103  14.567  68.071  1.00  0.00    -0.139 C  
HETATM   12  O   UNL     1      -8.148  14.685  69.299  1.00  0.00    -0.123 OA 
BRANCH  11  13
HETATM   13  O   UNL     1      -8.142  13.319  67.455  1.00  0.00    -0.162 OA 
BRANCH  13  14
HETATM   14  C   UNL     1      -7.708  12.115  68.314  1.00  0.00    -0.135 C  
HETATM   15  C   UNL     1      -6.867  11.390  67.257  1.00  0.00    -0.115 C  
HETATM   16  C   UNL     1      -8.033  10.938  66.373  1.00  0.00    -0.157 C  
HETATM   17  C   UNL     1      -8.694  10.044  67.390  1.00  0.00    -0.125 C  
HETATM   18  C   UNL     1      -9.410   8.781  66.910  1.00  0.00    -0.213 C  
HETATM   19  C   UNL     1      -8.557   8.351  65.692  1.00  0.00    -0.197 C  
HETATM   20  C   UNL     1      -8.593   6.927  65.280  1.00  0.00    -0.006 C  
HETATM   21  C   UNL     1      -8.449   6.016  66.513  1.00  0.00    -0.115 C  
HETATM   22  C   UNL     1      -7.869   4.832  66.337  1.00  0.00    -0.099 C  
HETATM   23  C   UNL     1      -8.789   4.175  65.368  1.00  0.00    -0.124 C  
HETATM   24  O   UNL     1      -8.345   3.524  64.444  1.00  0.00    -0.092 OA 
HETATM   25  C   UNL     1     -10.305   4.424  65.635  1.00  0.00    -0.252 C  
HETATM   26  C   UNL     1     -10.741   5.658  66.595  1.00  0.00    -0.339 C  
HETATM   27  C   UNL     1      -9.586   6.193  67.535  1.00  0.00    -0.117 C  
HETATM   28  C   UNL     1      -9.583   5.227  68.729  1.00  0.00    -0.187 C  
HETATM   29  C   UNL     1      -9.315   7.709  68.037  1.00  0.00    -0.144 C  
HETATM   30  C   UNL     1      -9.738   8.394  69.396  1.00  0.00    -0.177 C  
HETATM   31  C   UNL     1      -8.814   9.722  69.756  1.00  0.00    -0.241 C  
HETATM   32  C   UNL     1      -8.912  10.908  68.659  1.00  0.00    -0.162 C  
HETATM   33  C   UNL     1     -10.188  11.662  69.037  1.00  0.00    -0.077 C  
ENDBRANCH  13  14
ENDBRANCH  11  13
ENDBRANCH  10  11
ENDBRANCH   9  10
ENDBRANCH   8   9
ENDBRANCH   7   8
ENDBRANCH   6   7
ENDBRANCH   5   6
ENDBRANCH   4   5
ENDBRANCH   3   4
ENDBRANCH   2   3
TORSDOF 11
ENDMDL
MODEL      109
REMARK 921   NORMALIZED FREE ENERGY PREDICTED BY IDOCK:   -3.88 KCAL/MOL
REMARK 922        TOTAL FREE ENERGY PREDICTED BY IDOCK:   -8.56 KCAL/MOL
REMARK 923 INTER-LIGAND FREE ENERGY PREDICTED BY IDOCK:   -6.93 KCAL/MOL
REMARK 924 INTRA-LIGAND FREE ENERGY PREDICTED BY IDOCK:   -1.64 KCAL/MOL
REMARK 927      BINDING AFFINITY PREDICTED BY RF-SCORE:    0.00 PKD
ROOT
HETATM    1  C   UNL     1      -9.590   3.779  71.388  1.00  0.00    -0.236 C  
HETATM    2  C   UNL     1     -10.485   3.993  72.583  1.00  0.00    -0.222 C  
ENDROOT
BRANCH   2   3
HETATM    3  C   UNL     1     -11.078   5.421  72.615  1.00  0.00    -0.332 C  
BRANCH   3   4
HETATM    4  C   UNL     1      -9.980   6.496  72.563  1.00  0.00    -0.184 C  
BRANCH   4   5
HETATM    5  C   UNL     1      -9.805   7.210  73.909  1.00  0.00    -0.346 C  
BRANCH   5   6
HETATM    6  C   UNL     1      -8.404   6.996  74.505  1.00  0.00    -0.202 C  
BRANCH   6   7
HETATM    7  C   UNL     1      -7.510   6.211  73.533  1.00  0.00    -0.088 C  
BRANCH   7   8
HETATM    8  C   UNL     1      -6.259   6.960  73.058  1.00  0.00    -0.057 C  
BRANCH   8   9
HETATM    9  C   UNL     1      -5.930   6.827  71.580  1.00  0.00    -0.037 C  
BRANCH   9  10
HETATM   10  C   UNL     1      -6.973   6.084  70.752  1.00  0.00    -0.067 C  
BRANCH  10  11
HETATM   11  C   UNL     1      -7.527   6.534  69.371  1.00  0.00    -0.094 C  
HETATM   12  O   UNL     1      -7.804   5.652  68.553  1.00  0.00    -0.094 OA 
BRANCH  11  13
HETATM   13  O   UNL     1      -7.495   7.879  69.014  1.00  0.00    -0.092 OA 
BRANCH  13  14
HETATM   14  C   UNL     1      -8.449   8.312  67.884  1.00  0.00    -0.132 C  
HETATM   15  C   UNL     1      -7.497   9.266  67.153  1.00  0.00    -0.091 C  
HETATM   16  C   UNL     1      -7.494  10.371  68.213  1.00  0.00    -0.090 C  
HETATM   17  C   UNL     1      -8.955  10.722  68.111  1.00  0.00    -0.140 C  
HETATM   18  C   UNL     1      -9.384  12.174  68.325  1.00  0.00    -0.198 C  
HETATM   19  C   UNL     1      -8.183  12.968  67.754  1.00  0.00    -0.168 C  
HETATM   20  C   UNL     1      -8.417  14.358  67.295  1.00  0.00    -0.229 C  
HETATM   21  C   UNL     1      -9.691  14.423  66.433  1.00  0.00    -0.320 C  
HETATM   22  C   UNL     1      -9.742  15.350  65.480  1.00  0.00    -0.318 C  
HETATM   23  C   UNL     1      -9.638  16.611  66.265  1.00  0.00    -0.299 C  
HETATM   24  O   UNL     1      -8.945  17.526  65.870  1.00  0.00    -0.517 OA 
HETATM   25  C   UNL     1     -10.447  16.619  67.599  1.00  0.00    -0.320 C  
HETATM   26  C   UNL     1     -10.940  15.206  68.226  1.00  0.00    -0.276 C  
HETATM   27  C   UNL     1     -10.961  14.006  67.195  1.00  0.00    -0.303 C  
HETATM   28  C   UNL     1     -12.291  14.169  66.443  1.00  0.00    -0.431 C  
HETATM   29  C   UNL     1     -10.657  12.438  67.466  1.00  0.00    -0.240 C  
HETATM   30  C   UNL     1     -11.677  11.262  67.735  1.00  0.00    -0.254 C  
HETATM   31  C   UNL     1     -11.032   9.771  67.406  1.00  0.00    -0.176 C  
HETATM   32  C   UNL     1      -9.740   9.399  68.306  1.00  0.00    -0.162 C  
HETATM   33  C   UNL     1     -10.335   8.880  69.617  1.00  0.00    -0.214 C  
ENDBRANCH  13  14
ENDBRANCH  11  13
ENDBRANCH  10  11
ENDBRANCH   9  10
ENDBRANCH   8   9
ENDBRANCH   7   8
ENDBRANCH   6   7
ENDBRANCH   5   6
ENDBRANCH   4   5
ENDBRANCH   3   4
ENDBRANCH   2   3
TORSDOF 11
ENDMDL
MODEL      110
REMARK 921   NORMALIZED FREE ENERGY PREDICTED BY IDOCK:   -3.87 KCAL/MOL
REMARK 922        TOTAL FREE ENERGY PREDICTED BY IDOCK:   -8.55 KCAL/MOL
REMARK 923 INTER-LIGAND FREE ENERGY PREDICTED BY IDOCK:   -6.31 KCAL/MOL
REMARK 924 INTRA-LIGAND FREE ENERGY PREDICTED BY IDOCK:   -2.24 KCAL/MOL
REMARK 927      BINDING AFFINITY PREDICTED BY RF-SCORE:    0.00 PKD
ROOT
HETATM    1  C   UNL     1      -6.105  14.365  70.697  1.00  0.00    -0.183 C  
HETATM    2  C   UNL     1      -5.531  13.241  69.871  1.00  0.00    -0.101 C  
ENDROOT
BRANCH   2   3
HETATM    3  C   UNL     1      -5.780  11.859  70.518  1.00  0.00    -0.156 C  
BRANCH   3   4
HETATM    4  C   UNL     1      -6.813  11.038  69.731  1.00  0.00    -0.116 C  
BRANCH   4   5
HETATM    5  C   UNL     1      -7.089   9.678  70.383  1.00  0.00    -0.138 C  
BRANCH   5   6
HETATM    6  C   UNL     1      -8.076   8.828  69.564  1.00  0.00    -0.105 C  
BRANCH   6   7
HETATM    7  C   UNL     1      -7.497   7.432  69.288  1.00  0.00    -0.092 C  
BRANCH   7   8
HETATM    8  C   UNL     1      -8.506   6.408  68.757  1.00  0.00    -0.121 C  
BRANCH   8   9
HETATM    9  C   UNL     1      -8.036   5.561  67.585  1.00  0.00    -0.101 C  
BRANCH   9  10
HETATM   10  C   UNL     1      -6.689   5.969  66.997  1.00  0.00    -0.058 C  
BRANCH  10  11
HETATM   11  C   UNL     1      -6.475   6.960  65.818  1.00  0.00    -0.050 C  
HETATM   12  O   UNL     1      -6.087   6.494  64.743  1.00  0.00    -0.035 OA 
BRANCH  11  13
HETATM   13  O   UNL     1      -6.510   8.333  66.049  1.00  0.00    -0.049 OA 
BRANCH  13  14
HETATM   14  C   UNL     1      -7.295   9.181  65.030  1.00  0.00    -0.100 C  
HETATM   15  C   UNL     1      -6.452  10.459  65.119  1.00  0.00    -0.096 C  
HETATM   16  C   UNL     1      -6.902  10.878  66.522  1.00  0.00    -0.132 C  
HETATM   17  C   UNL     1      -8.356  11.091  66.188  1.00  0.00    -0.163 C  
HETATM   18  C   UNL     1      -9.128  12.190  66.917  1.00  0.00    -0.203 C  
HETATM   19  C   UNL     1      -8.045  13.274  67.138  1.00  0.00    -0.099 C  
HETATM   20  C   UNL     1      -8.486  14.677  67.326  1.00  0.00    -0.234 C  
HETATM   21  C   UNL     1      -9.548  15.043  66.273  1.00  0.00    -0.335 C  
HETATM   22  C   UNL     1      -9.614  16.314  65.882  1.00  0.00    -0.336 C  
HETATM   23  C   UNL     1      -9.948  17.013  67.154  1.00  0.00    -0.281 C  
HETATM   24  O   UNL     1      -9.411  18.065  67.436  1.00  0.00    -0.251 OA 
HETATM   25  C   UNL     1     -10.985  16.274  68.054  1.00  0.00    -0.328 C  
HETATM   26  C   UNL     1     -11.267  14.697  67.793  1.00  0.00    -0.320 C  
HETATM   27  C   UNL     1     -10.819  14.181  66.367  1.00  0.00    -0.304 C  
HETATM   28  C   UNL     1     -11.976  14.572  65.435  1.00  0.00    -0.332 C  
HETATM   29  C   UNL     1     -10.235  12.726  65.958  1.00  0.00    -0.290 C  
HETATM   30  C   UNL     1     -11.001  11.483  65.358  1.00  0.00    -0.288 C  
HETATM   31  C   UNL     1      -9.990  10.428  64.574  1.00  0.00    -0.401 C  
HETATM   32  C   UNL     1      -8.851   9.780  65.524  1.00  0.00    -0.192 C  
HETATM   33  C   UNL     1      -9.563   8.619  66.222  1.00  0.00    -0.322 C  
ENDBRANCH  13  14
ENDBRANCH  11  13
ENDBRANCH  10  11
ENDBRANCH   9  10
ENDBRANCH   8   9
ENDBRANCH   7   8
ENDBRANCH   6   7
ENDBRANCH   5   6
ENDBRANCH   4   5
ENDBRANCH   3   4
ENDBRANCH   2   3
TORSDOF 11
ENDMDL
MODEL      111
REMARK 921   NORMALIZED FREE ENERGY PREDICTED BY IDOCK:   -3.84 KCAL/MOL
REMARK 922        TOTAL FREE ENERGY PREDICTED BY IDOCK:   -8.49 KCAL/MOL
REMARK 923 INTER-LIGAND FREE ENERGY PREDICTED BY IDOCK:   -6.63 KCAL/MOL
REMARK 924 INTRA-LIGAND FREE ENERGY PREDICTED BY IDOCK:   -1.86 KCAL/MOL
REMARK 927      BINDING AFFINITY PREDICTED BY RF-SCORE:    0.00 PKD
ROOT
HETATM    1  C   UNL     1      -5.355   9.248  69.158  1.00  0.00    -0.036 C  
HETATM    2  C   UNL     1      -6.625   8.757  69.807  1.00  0.00    -0.041 C  
ENDROOT
BRANCH   2   3
HETATM    3  C   UNL     1      -6.621   7.224  70.005  1.00  0.00    -0.046 C  
BRANCH   3   4
HETATM    4  C   UNL     1      -8.002   6.700  70.430  1.00  0.00    -0.115 C  
BRANCH   4   5
HETATM    5  C   UNL     1      -8.452   5.503  69.584  1.00  0.00    -0.101 C  
BRANCH   5   6
HETATM    6  C   UNL     1      -7.641   5.369  68.285  1.00  0.00    -0.081 C  
BRANCH   6   7
HETATM    7  C   UNL     1      -8.567   5.125  67.084  1.00  0.00    -0.105 C  
BRANCH   7   8
HETATM    8  C   UNL     1     -10.049   4.944  67.437  1.00  0.00    -0.196 C  
BRANCH   8   9
HETATM    9  C   UNL     1     -10.992   6.006  66.895  1.00  0.00    -0.350 C  
BRANCH   9  10
HETATM   10  C   UNL     1     -10.397   7.406  66.796  1.00  0.00    -0.321 C  
BRANCH  10  11
HETATM   11  C   UNL     1     -10.443   8.494  67.906  1.00  0.00    -0.201 C  
HETATM   12  O   UNL     1     -10.773   8.138  69.041  1.00  0.00    -0.185 OA 
BRANCH  11  13
HETATM   13  O   UNL     1     -10.330   9.839  67.566  1.00  0.00    -0.205 OA 
BRANCH  13  14
HETATM   14  C   UNL     1      -9.595  10.743  68.575  1.00  0.00    -0.183 C  
HETATM   15  C   UNL     1     -10.761  11.681  68.911  1.00  0.00    -0.244 C  
HETATM   16  C   UNL     1     -10.800  12.415  67.567  1.00  0.00    -0.271 C  
HETATM   17  C   UNL     1      -9.430  13.035  67.661  1.00  0.00    -0.201 C  
HETATM   18  C   UNL     1      -9.199  14.415  67.046  1.00  0.00    -0.246 C  
HETATM   19  C   UNL     1     -10.565  15.112  67.260  1.00  0.00    -0.286 C  
HETATM   20  C   UNL     1     -10.599  16.594  67.289  1.00  0.00    -0.281 C  
HETATM   21  C   UNL     1      -9.462  17.131  68.179  1.00  0.00    -0.269 C  
HETATM   22  C   UNL     1      -9.666  18.288  68.806  1.00  0.00    -0.348 C  
HETATM   23  C   UNL     1      -9.861  19.228  67.668  1.00  0.00    -0.339 C  
HETATM   24  O   UNL     1     -10.725  20.080  67.716  1.00  0.00    -0.313 OA 
HETATM   25  C   UNL     1      -8.906  18.996  66.457  1.00  0.00    -0.334 C  
HETATM   26  C   UNL     1      -8.135  17.573  66.327  1.00  0.00    -0.289 C  
HETATM   27  C   UNL     1      -8.061  16.746  67.673  1.00  0.00    -0.188 C  
HETATM   28  C   UNL     1      -6.872  17.354  68.434  1.00  0.00    -0.194 C  
HETATM   29  C   UNL     1      -8.093  15.139  67.872  1.00  0.00    -0.144 C  
HETATM   30  C   UNL     1      -6.885  14.137  68.048  1.00  0.00    -0.149 C  
HETATM   31  C   UNL     1      -7.336  12.714  68.770  1.00  0.00    -0.066 C  
HETATM   32  C   UNL     1      -8.439  11.874  67.935  1.00  0.00    -0.154 C  
HETATM   33  C   UNL     1      -7.618  11.114  66.891  1.00  0.00    -0.145 C  
ENDBRANCH  13  14
ENDBRANCH  11  13
ENDBRANCH  10  11
ENDBRANCH   9  10
ENDBRANCH   8   9
ENDBRANCH   7   8
ENDBRANCH   6   7
ENDBRANCH   5   6
ENDBRANCH   4   5
ENDBRANCH   3   4
ENDBRANCH   2   3
TORSDOF 11
ENDMDL
MODEL      112
REMARK 921   NORMALIZED FREE ENERGY PREDICTED BY IDOCK:   -3.83 KCAL/MOL
REMARK 922        TOTAL FREE ENERGY PREDICTED BY IDOCK:   -8.48 KCAL/MOL
REMARK 923 INTER-LIGAND FREE ENERGY PREDICTED BY IDOCK:   -7.51 KCAL/MOL
REMARK 924 INTRA-LIGAND FREE ENERGY PREDICTED BY IDOCK:   -0.98 KCAL/MOL
REMARK 927      BINDING AFFINITY PREDICTED BY RF-SCORE:    0.00 PKD
ROOT
HETATM    1  C   UNL     1      -5.791   8.073  69.188  1.00  0.00    -0.034 C  
HETATM    2  C   UNL     1      -5.177   8.207  70.559  1.00  0.00    -0.022 C  
ENDROOT
BRANCH   2   3
HETATM    3  C   UNL     1      -6.248   8.386  71.660  1.00  0.00    -0.052 C  
BRANCH   3   4
HETATM    4  C   UNL     1      -6.582   7.055  72.352  1.00  0.00    -0.057 C  
BRANCH   4   5
HETATM    5  C   UNL     1      -6.851   7.234  73.851  1.00  0.00    -0.084 C  
BRANCH   5   6
HETATM    6  C   UNL     1      -8.299   7.665  74.137  1.00  0.00    -0.272 C  
BRANCH   6   7
HETATM    7  C   UNL     1      -9.244   6.455  74.113  1.00  0.00    -0.181 C  
BRANCH   7   8
HETATM    8  C   UNL     1     -10.715   6.788  73.832  1.00  0.00    -0.141 C  
BRANCH   8   9
HETATM    9  C   UNL     1     -11.493   5.741  73.051  1.00  0.00    -0.199 C  
BRANCH   9  10
HETATM   10  C   UNL     1     -11.144   5.652  71.570  1.00  0.00    -0.235 C  
BRANCH  10  11
HETATM   11  C   UNL     1     -10.066   6.499  70.837  1.00  0.00    -0.185 C  
HETATM   12  O   UNL     1      -8.917   6.049  70.795  1.00  0.00    -0.146 OA 
BRANCH  11  13
HETATM   13  O   UNL     1     -10.354   7.804  70.447  1.00  0.00    -0.206 OA 
BRANCH  13  14
HETATM   14  C   UNL     1      -9.308   8.501  69.554  1.00  0.00    -0.161 C  
HETATM   15  C   UNL     1      -9.658   9.952  69.906  1.00  0.00    -0.265 C  
HETATM   16  C   UNL     1     -11.003   9.999  69.176  1.00  0.00    -0.256 C  
HETATM   17  C   UNL     1     -10.461   9.790  67.786  1.00  0.00    -0.297 C  
HETATM   18  C   UNL     1     -11.158  10.472  66.609  1.00  0.00    -0.006 C  
HETATM   19  C   UNL     1     -11.657  11.798  67.235  1.00  0.00    -0.344 C  
HETATM   20  C   UNL     1     -11.907  12.948  66.333  1.00  0.00    -0.478 C  
HETATM   21  C   UNL     1     -10.736  13.110  65.346  1.00  0.00    -0.308 C  
HETATM   22  C   UNL     1     -10.466  14.337  64.909  1.00  0.00    -0.454 C  
HETATM   23  C   UNL     1     -11.729  14.704  64.210  1.00  0.00    -0.275 C  
HETATM   24  O   UNL     1     -12.196  15.818  64.328  1.00  0.00    -0.463 OA 
HETATM   25  C   UNL     1     -12.373  13.553  63.377  1.00  0.00    -0.264 C  
HETATM   26  C   UNL     1     -11.917  12.023  63.669  1.00  0.00    -0.612 C  
HETATM   27  C   UNL     1     -10.538  11.887  64.433  1.00  0.00    -0.366 C  
HETATM   28  C   UNL     1      -9.474  12.025  63.334  1.00  0.00     0.036 C  
HETATM   29  C   UNL     1     -10.090  10.766  65.513  1.00  0.00    -0.335 C  
HETATM   30  C   UNL     1      -9.255   9.446  65.283  1.00  0.00    -0.299 C  
HETATM   31  C   UNL     1      -8.546   8.888  66.674  1.00  0.00    -0.130 C  
HETATM   32  C   UNL     1      -9.599   8.501  67.839  1.00  0.00    -0.177 C  
HETATM   33  C   UNL     1     -10.056   7.087  67.475  1.00  0.00    -0.236 C  
ENDBRANCH  13  14
ENDBRANCH  11  13
ENDBRANCH  10  11
ENDBRANCH   9  10
ENDBRANCH   8   9
ENDBRANCH   7   8
ENDBRANCH   6   7
ENDBRANCH   5   6
ENDBRANCH   4   5
ENDBRANCH   3   4
ENDBRANCH   2   3
TORSDOF 11
ENDMDL
MODEL      113
REMARK 921   NORMALIZED FREE ENERGY PREDICTED BY IDOCK:   -3.82 KCAL/MOL
REMARK 922        TOTAL FREE ENERGY PREDICTED BY IDOCK:   -8.47 KCAL/MOL
REMARK 923 INTER-LIGAND FREE ENERGY PREDICTED BY IDOCK:   -7.38 KCAL/MOL
REMARK 924 INTRA-LIGAND FREE ENERGY PREDICTED BY IDOCK:   -1.08 KCAL/MOL
REMARK 927      BINDING AFFINITY PREDICTED BY RF-SCORE:    0.00 PKD
ROOT
HETATM    1  C   UNL     1     -10.911  19.567  66.434  1.00  0.00    -0.443 C  
HETATM    2  C   UNL     1     -10.295  18.611  67.425  1.00  0.00    -0.447 C  
ENDROOT
BRANCH   2   3
HETATM    3  C   UNL     1     -10.588  17.136  67.067  1.00  0.00    -0.227 C  
BRANCH   3   4
HETATM    4  C   UNL     1     -10.652  16.920  65.546  1.00  0.00    -0.215 C  
BRANCH   4   5
HETATM    5  C   UNL     1     -10.717  15.433  65.175  1.00  0.00    -0.460 C  
BRANCH   5   6
HETATM    6  C   UNL     1     -12.062  15.050  64.535  1.00  0.00    -0.373 C  
BRANCH   6   7
HETATM    7  C   UNL     1     -12.832  14.066  65.429  1.00  0.00    -0.442 C  
BRANCH   7   8
HETATM    8  C   UNL     1     -12.077  13.603  66.682  1.00  0.00    -0.459 C  
BRANCH   8   9
HETATM    9  C   UNL     1     -11.526  12.187  66.636  1.00  0.00    -0.426 C  
BRANCH   9  10
HETATM   10  C   UNL     1     -11.036  11.731  65.267  1.00  0.00    -0.350 C  
BRANCH  10  11
HETATM   11  C   UNL     1      -9.750  10.900  64.992  1.00  0.00    -0.267 C  
HETATM   12  O   UNL     1      -9.552  10.522  63.834  1.00  0.00    -0.261 OA 
BRANCH  11  13
HETATM   13  O   UNL     1      -8.987  10.427  66.056  1.00  0.00    -0.151 OA 
BRANCH  13  14
HETATM   14  C   UNL     1      -8.635   8.927  66.035  1.00  0.00    -0.145 C  
HETATM   15  C   UNL     1      -9.987   8.383  66.513  1.00  0.00    -0.335 C  
HETATM   16  C   UNL     1      -9.880   8.869  67.961  1.00  0.00    -0.199 C  
HETATM   17  C   UNL     1      -8.683   8.037  68.342  1.00  0.00    -0.130 C  
HETATM   18  C   UNL     1      -8.573   7.512  69.774  1.00  0.00    -0.140 C  
HETATM   19  C   UNL     1     -10.053   7.264  70.157  1.00  0.00    -0.192 C  
HETATM   20  C   UNL     1     -10.344   6.285  71.232  1.00  0.00    -0.255 C  
HETATM   21  C   UNL     1      -9.517   5.004  71.017  1.00  0.00    -0.220 C  
HETATM   22  C   UNL     1     -10.037   3.857  71.450  1.00  0.00    -0.124 C  
HETATM   23  C   UNL     1     -10.157   4.103  72.913  1.00  0.00    -0.159 C  
HETATM   24  O   UNL     1     -11.145   3.741  73.518  1.00  0.00    -0.227 OA 
HETATM   25  C   UNL     1      -8.953   4.864  73.550  1.00  0.00    -0.111 C  
HETATM   26  C   UNL     1      -7.941   5.682  72.580  1.00  0.00    -0.103 C  
HETATM   27  C   UNL     1      -7.998   5.246  71.060  1.00  0.00    -0.103 C  
HETATM   28  C   UNL     1      -7.108   3.996  70.985  1.00  0.00    -0.033 C  
HETATM   29  C   UNL     1      -7.795   6.162  69.740  1.00  0.00    -0.106 C  
HETATM   30  C   UNL     1      -6.494   6.374  68.870  1.00  0.00    -0.043 C  
HETATM   31  C   UNL     1      -6.831   6.908  67.337  1.00  0.00    -0.076 C  
HETATM   32  C   UNL     1      -7.584   8.339  67.291  1.00  0.00    -0.097 C  
HETATM   33  C   UNL     1      -6.453   9.361  67.426  1.00  0.00    -0.063 C  
ENDBRANCH  13  14
ENDBRANCH  11  13
ENDBRANCH  10  11
ENDBRANCH   9  10
ENDBRANCH   8   9
ENDBRANCH   7   8
ENDBRANCH   6   7
ENDBRANCH   5   6
ENDBRANCH   4   5
ENDBRANCH   3   4
ENDBRANCH   2   3
TORSDOF 11
ENDMDL
MODEL      114
REMARK 921   NORMALIZED FREE ENERGY PREDICTED BY IDOCK:   -3.82 KCAL/MOL
REMARK 922        TOTAL FREE ENERGY PREDICTED BY IDOCK:   -8.45 KCAL/MOL
REMARK 923 INTER-LIGAND FREE ENERGY PREDICTED BY IDOCK:   -6.59 KCAL/MOL
REMARK 924 INTRA-LIGAND FREE ENERGY PREDICTED BY IDOCK:   -1.86 KCAL/MOL
REMARK 927      BINDING AFFINITY PREDICTED BY RF-SCORE:    0.00 PKD
ROOT
HETATM    1  C   UNL     1     -10.632  19.556  67.691  1.00  0.00    -0.566 C  
HETATM    2  C   UNL     1      -9.533  19.016  68.574  1.00  0.00    -0.436 C  
ENDROOT
BRANCH   2   3
HETATM    3  C   UNL     1      -9.407  17.479  68.468  1.00  0.00    -0.286 C  
BRANCH   3   4
HETATM    4  C   UNL     1     -10.715  16.771  68.856  1.00  0.00    -0.333 C  
BRANCH   4   5
HETATM    5  C   UNL     1     -10.492  15.679  69.910  1.00  0.00    -0.327 C  
BRANCH   5   6
HETATM    6  C   UNL     1     -11.194  14.362  69.543  1.00  0.00    -0.294 C  
BRANCH   6   7
HETATM    7  C   UNL     1     -11.990  14.512  68.237  1.00  0.00    -0.303 C  
BRANCH   7   8
HETATM    8  C   UNL     1     -11.679  13.459  67.166  1.00  0.00    -0.424 C  
BRANCH   8   9
HETATM    9  C   UNL     1     -10.921  13.959  65.947  1.00  0.00    -0.284 C  
BRANCH   9  10
HETATM   10  C   UNL     1      -9.504  14.448  66.226  1.00  0.00    -0.297 C  
BRANCH  10  11
HETATM   11  C   UNL     1      -8.459  13.738  67.134  1.00  0.00    -0.175 C  
HETATM   12  O   UNL     1      -7.805  14.442  67.909  1.00  0.00    -0.124 OA 
BRANCH  11  13
HETATM   13  O   UNL     1      -8.136  12.403  66.909  1.00  0.00    -0.151 OA 
BRANCH  13  14
HETATM   14  C   UNL     1      -8.877  11.363  67.771  1.00  0.00    -0.143 C  
HETATM   15  C   UNL     1      -7.663  10.802  68.522  1.00  0.00    -0.118 C  
HETATM   16  C   UNL     1      -7.036  10.066  67.334  1.00  0.00    -0.084 C  
HETATM   17  C   UNL     1      -8.162   9.088  67.115  1.00  0.00    -0.110 C  
HETATM   18  C   UNL     1      -7.832   7.679  66.622  1.00  0.00    -0.106 C  
HETATM   19  C   UNL     1      -6.460   7.402  67.285  1.00  0.00    -0.060 C  
HETATM   20  C   UNL     1      -6.053   5.991  67.491  1.00  0.00    -0.018 C  
HETATM   21  C   UNL     1      -7.223   5.186  68.086  1.00  0.00    -0.067 C  
HETATM   22  C   UNL     1      -6.923   4.155  68.872  1.00  0.00    -0.047 C  
HETATM   23  C   UNL     1      -6.161   3.271  67.948  1.00  0.00    -0.028 C  
HETATM   24  O   UNL     1      -5.160   2.699  68.331  1.00  0.00    -0.010 OA 
HETATM   25  C   UNL     1      -6.737   3.185  66.501  1.00  0.00    -0.048 C  
HETATM   26  C   UNL     1      -7.775   4.327  66.001  1.00  0.00    -0.090 C  
HETATM   27  C   UNL     1      -8.460   5.144  67.171  1.00  0.00    -0.106 C  
HETATM   28  C   UNL     1      -9.620   4.251  67.635  1.00  0.00    -0.215 C  
HETATM   29  C   UNL     1      -8.906   6.701  67.186  1.00  0.00    -0.115 C  
HETATM   30  C   UNL     1     -10.328   7.327  66.904  1.00  0.00    -0.358 C  
HETATM   31  C   UNL     1     -10.499   8.843  67.555  1.00  0.00    -0.337 C  
HETATM   32  C   UNL     1      -9.455   9.931  66.969  1.00  0.00    -0.196 C  
HETATM   33  C   UNL     1     -10.095  10.395  65.659  1.00  0.00    -0.337 C  
ENDBRANCH  13  14
ENDBRANCH  11  13
ENDBRANCH  10  11
ENDBRANCH   9  10
ENDBRANCH   8   9
ENDBRANCH   7   8
ENDBRANCH   6   7
ENDBRANCH   5   6
ENDBRANCH   4   5
ENDBRANCH   3   4
ENDBRANCH   2   3
TORSDOF 11
ENDMDL
MODEL      115
REMARK 921   NORMALIZED FREE ENERGY PREDICTED BY IDOCK:   -3.82 KCAL/MOL
REMARK 922        TOTAL FREE ENERGY PREDICTED BY IDOCK:   -8.45 KCAL/MOL
REMARK 923 INTER-LIGAND FREE ENERGY PREDICTED BY IDOCK:   -6.96 KCAL/MOL
REMARK 924 INTRA-LIGAND FREE ENERGY PREDICTED BY IDOCK:   -1.49 KCAL/MOL
REMARK 927      BINDING AFFINITY PREDICTED BY RF-SCORE:    0.00 PKD
ROOT
HETATM    1  C   UNL     1     -10.213   2.967  72.689  1.00  0.00    -0.231 C  
HETATM    2  C   UNL     1     -11.018   3.807  73.649  1.00  0.00    -0.334 C  
ENDROOT
BRANCH   2   3
HETATM    3  C   UNL     1     -11.409   5.172  73.039  1.00  0.00    -0.381 C  
BRANCH   3   4
HETATM    4  C   UNL     1     -10.199   5.886  72.417  1.00  0.00    -0.217 C  
BRANCH   4   5
HETATM    5  C   UNL     1      -9.811   7.151  73.193  1.00  0.00    -0.251 C  
BRANCH   5   6
HETATM    6  C   UNL     1      -8.865   6.849  74.366  1.00  0.00    -0.217 C  
BRANCH   6   7
HETATM    7  C   UNL     1      -7.560   6.211  73.866  1.00  0.00    -0.090 C  
BRANCH   7   8
HETATM    8  C   UNL     1      -6.513   7.204  73.346  1.00  0.00    -0.065 C  
BRANCH   8   9
HETATM    9  C   UNL     1      -5.847   6.834  72.031  1.00  0.00    -0.038 C  
BRANCH   9  10
HETATM   10  C   UNL     1      -6.689   5.965  71.104  1.00  0.00    -0.058 C  
BRANCH  10  11
HETATM   11  C   UNL     1      -6.698   6.035  69.551  1.00  0.00    -0.056 C  
HETATM   12  O   UNL     1      -5.671   5.690  68.959  1.00  0.00    -0.013 OA 
BRANCH  11  13
HETATM   13  O   UNL     1      -7.745   6.669  68.889  1.00  0.00    -0.105 OA 
BRANCH  13  14
HETATM   14  C   UNL     1      -7.364   7.546  67.681  1.00  0.00    -0.103 C  
HETATM   15  C   UNL     1      -7.046   8.837  68.445  1.00  0.00    -0.077 C  
HETATM   16  C   UNL     1      -8.487   9.179  68.836  1.00  0.00    -0.129 C  
HETATM   17  C   UNL     1      -9.011   9.375  67.437  1.00  0.00    -0.134 C  
HETATM   18  C   UNL     1     -10.098  10.421  67.194  1.00  0.00    -0.254 C  
HETATM   19  C   UNL     1      -9.750  11.517  68.231  1.00  0.00    -0.198 C  
HETATM   20  C   UNL     1     -10.220  12.900  67.974  1.00  0.00    -0.229 C  
HETATM   21  C   UNL     1      -9.936  13.291  66.512  1.00  0.00    -0.280 C  
HETATM   22  C   UNL     1      -9.711  14.577  66.252  1.00  0.00    -0.330 C  
HETATM   23  C   UNL     1     -10.993  15.208  66.671  1.00  0.00    -0.318 C  
HETATM   24  O   UNL     1     -10.991  16.257  67.282  1.00  0.00    -0.264 OA 
HETATM   25  C   UNL     1     -12.274  14.404  66.287  1.00  0.00    -0.366 C  
HETATM   26  C   UNL     1     -12.127  12.835  65.897  1.00  0.00    -0.485 C  
HETATM   27  C   UNL     1     -10.662  12.397  65.491  1.00  0.00    -0.315 C  
HETATM   28  C   UNL     1     -10.533  12.806  64.016  1.00  0.00    -0.433 C  
HETATM   29  C   UNL     1      -9.927  10.977  65.748  1.00  0.00    -0.294 C  
HETATM   30  C   UNL     1      -9.777   9.747  64.769  1.00  0.00    -0.213 C  
HETATM   31  C   UNL     1      -8.515   8.753  65.182  1.00  0.00    -0.192 C  
HETATM   32  C   UNL     1      -8.656   8.086  66.650  1.00  0.00    -0.141 C  
HETATM   33  C   UNL     1      -9.568   6.878  66.425  1.00  0.00    -0.152 C  
ENDBRANCH  13  14
ENDBRANCH  11  13
ENDBRANCH  10  11
ENDBRANCH   9  10
ENDBRANCH   8   9
ENDBRANCH   7   8
ENDBRANCH   6   7
ENDBRANCH   5   6
ENDBRANCH   4   5
ENDBRANCH   3   4
ENDBRANCH   2   3
TORSDOF 11
ENDMDL
MODEL      116
REMARK 921   NORMALIZED FREE ENERGY PREDICTED BY IDOCK:   -3.79 KCAL/MOL
REMARK 922        TOTAL FREE ENERGY PREDICTED BY IDOCK:   -8.42 KCAL/MOL
REMARK 923 INTER-LIGAND FREE ENERGY PREDICTED BY IDOCK:   -7.40 KCAL/MOL
REMARK 924 INTRA-LIGAND FREE ENERGY PREDICTED BY IDOCK:   -1.01 KCAL/MOL
REMARK 927      BINDING AFFINITY PREDICTED BY RF-SCORE:    0.00 PKD
ROOT
HETATM    1  C   UNL     1      -9.776  20.445  66.086  1.00  0.00    -0.309 C  
HETATM    2  C   UNL     1     -10.045  19.878  67.458  1.00  0.00    -0.566 C  
ENDROOT
BRANCH   2   3
HETATM    3  C   UNL     1     -10.249  18.346  67.423  1.00  0.00    -0.393 C  
BRANCH   3   4
HETATM    4  C   UNL     1      -9.858  17.749  66.062  1.00  0.00    -0.181 C  
BRANCH   4   5
HETATM    5  C   UNL     1      -8.921  16.544  66.207  1.00  0.00    -0.359 C  
BRANCH   5   6
HETATM    6  C   UNL     1      -9.648  15.209  65.974  1.00  0.00    -0.365 C  
BRANCH   6   7
HETATM    7  C   UNL     1     -10.869  15.403  65.063  1.00  0.00    -0.462 C  
BRANCH   7   8
HETATM    8  C   UNL     1     -11.922  14.291  65.148  1.00  0.00    -0.395 C  
BRANCH   8   9
HETATM    9  C   UNL     1     -11.399  12.912  65.517  1.00  0.00    -0.340 C  
BRANCH   9  10
HETATM   10  C   UNL     1     -11.963  12.334  66.811  1.00  0.00    -0.230 C  
BRANCH  10  11
HETATM   11  C   UNL     1     -11.614  12.813  68.248  1.00  0.00    -0.334 C  
HETATM   12  O   UNL     1     -11.808  14.002  68.517  1.00  0.00    -0.332 OA 
BRANCH  11  13
HETATM   13  O   UNL     1     -10.908  11.975  69.107  1.00  0.00    -0.203 OA 
BRANCH  13  14
HETATM   14  C   UNL     1     -10.434  10.632  68.520  1.00  0.00    -0.191 C  
HETATM   15  C   UNL     1     -11.526   9.738  69.119  1.00  0.00     0.049 C  
HETATM   16  C   UNL     1     -11.047   9.809  70.572  1.00  0.00    -0.384 C  
HETATM   17  C   UNL     1      -9.716   9.137  70.356  1.00  0.00    -0.266 C  
HETATM   18  C   UNL     1      -9.141   8.261  71.468  1.00  0.00    -0.229 C  
HETATM   19  C   UNL     1     -10.412   7.650  72.108  1.00  0.00    -0.270 C  
HETATM   20  C   UNL     1     -10.277   6.373  72.850  1.00  0.00    -0.209 C  
HETATM   21  C   UNL     1      -9.430   5.377  72.037  1.00  0.00    -0.172 C  
HETATM   22  C   UNL     1      -9.686   4.080  72.195  1.00  0.00    -0.221 C  
HETATM   23  C   UNL     1      -9.395   3.879  73.641  1.00  0.00    -0.103 C  
HETATM   24  O   UNL     1     -10.122   3.188  74.324  1.00  0.00    -0.116 OA 
HETATM   25  C   UNL     1      -8.137   4.638  74.167  1.00  0.00    -0.100 C  
HETATM   26  C   UNL     1      -7.538   5.865  73.290  1.00  0.00    -0.098 C  
HETATM   27  C   UNL     1      -7.996   5.870  71.775  1.00  0.00    -0.111 C  
HETATM   28  C   UNL     1      -7.050   4.877  71.084  1.00  0.00    -0.052 C  
HETATM   29  C   UNL     1      -8.279   7.141  70.812  1.00  0.00    -0.120 C  
HETATM   30  C   UNL     1      -7.318   7.822  69.760  1.00  0.00    -0.080 C  
HETATM   31  C   UNL     1      -8.140   8.694  68.614  1.00  0.00    -0.117 C  
HETATM   32  C   UNL     1      -9.009   9.918  69.218  1.00  0.00    -0.184 C  
HETATM   33  C   UNL     1      -7.993  11.049  69.387  1.00  0.00     0.036 C  
ENDBRANCH  13  14
ENDBRANCH  11  13
ENDBRANCH  10  11
ENDBRANCH   9  10
ENDBRANCH   8   9
ENDBRANCH   7   8
ENDBRANCH   6   7
ENDBRANCH   5   6
ENDBRANCH   4   5
ENDBRANCH   3   4
ENDBRANCH   2   3
TORSDOF 11
ENDMDL
MODEL      117
REMARK 921   NORMALIZED FREE ENERGY PREDICTED BY IDOCK:   -3.77 KCAL/MOL
REMARK 922        TOTAL FREE ENERGY PREDICTED BY IDOCK:   -8.38 KCAL/MOL
REMARK 923 INTER-LIGAND FREE ENERGY PREDICTED BY IDOCK:   -6.97 KCAL/MOL
REMARK 924 INTRA-LIGAND FREE ENERGY PREDICTED BY IDOCK:   -1.41 KCAL/MOL
REMARK 927      BINDING AFFINITY PREDICTED BY RF-SCORE:    0.00 PKD
ROOT
HETATM    1  C   UNL     1     -13.444   9.170  71.683  1.00  0.00    -0.452 C  
HETATM    2  C   UNL     1     -12.898   7.820  71.292  1.00  0.00    -0.265 C  
ENDROOT
BRANCH   2   3
HETATM    3  C   UNL     1     -11.610   7.467  72.070  1.00  0.00    -0.326 C  
BRANCH   3   4
HETATM    4  C   UNL     1     -10.721   8.701  72.292  1.00  0.00    -0.383 C  
BRANCH   4   5
HETATM    5  C   UNL     1      -9.539   8.745  71.315  1.00  0.00    -0.323 C  
BRANCH   5   6
HETATM    6  C   UNL     1      -8.188   8.558  72.026  1.00  0.00    -0.192 C  
BRANCH   6   7
HETATM    7  C   UNL     1      -7.852   7.067  72.177  1.00  0.00    -0.092 C  
BRANCH   7   8
HETATM    8  C   UNL     1      -8.165   6.205  70.948  1.00  0.00    -0.126 C  
BRANCH   8   9
HETATM    9  C   UNL     1      -7.428   4.878  70.865  1.00  0.00    -0.065 C  
BRANCH   9  10
HETATM   10  C   UNL     1      -6.315   4.824  69.825  1.00  0.00    -0.030 C  
BRANCH  10  11
HETATM   11  C   UNL     1      -6.195   5.739  68.573  1.00  0.00    -0.029 C  
HETATM   12  O   UNL     1      -5.745   5.236  67.540  1.00  0.00    -0.012 OA 
BRANCH  11  13
HETATM   13  O   UNL     1      -6.382   7.113  68.696  1.00  0.00    -0.033 OA 
BRANCH  13  14
HETATM   14  C   UNL     1      -6.348   7.930  67.390  1.00  0.00    -0.055 C  
HETATM   15  C   UNL     1      -6.023   9.298  68.001  1.00  0.00    -0.049 C  
HETATM   16  C   UNL     1      -7.384   9.531  68.665  1.00  0.00    -0.075 C  
HETATM   17  C   UNL     1      -8.198   9.572  67.398  1.00  0.00    -0.114 C  
HETATM   18  C   UNL     1      -9.418  10.491  67.331  1.00  0.00    -0.172 C  
HETATM   19  C   UNL     1      -8.986  11.689  68.212  1.00  0.00    -0.185 C  
HETATM   20  C   UNL     1      -9.645  12.998  67.986  1.00  0.00    -0.224 C  
HETATM   21  C   UNL     1      -9.706  13.304  66.477  1.00  0.00    -0.273 C  
HETATM   22  C   UNL     1      -9.677  14.582  66.108  1.00  0.00    -0.340 C  
HETATM   23  C   UNL     1     -10.909  15.120  66.751  1.00  0.00    -0.322 C  
HETATM   24  O   UNL     1     -10.896  16.207  67.291  1.00  0.00    -0.309 OA 
HETATM   25  C   UNL     1     -12.146  14.172  66.687  1.00  0.00    -0.480 C  
HETATM   26  C   UNL     1     -11.914  12.599  66.359  1.00  0.00    -0.425 C  
HETATM   27  C   UNL     1     -10.523  12.272  65.681  1.00  0.00    -0.293 C  
HETATM   28  C   UNL     1     -10.740  12.580  64.191  1.00  0.00    -0.423 C  
HETATM   29  C   UNL     1      -9.603  10.950  65.854  1.00  0.00    -0.257 C  
HETATM   30  C   UNL     1      -9.523   9.670  64.933  1.00  0.00    -0.288 C  
HETATM   31  C   UNL     1      -8.104   8.833  65.126  1.00  0.00    -0.133 C  
HETATM   32  C   UNL     1      -7.873   8.268  66.624  1.00  0.00    -0.094 C  
HETATM   33  C   UNL     1      -8.676   6.966  66.660  1.00  0.00    -0.129 C  
ENDBRANCH  13  14
ENDBRANCH  11  13
ENDBRANCH  10  11
ENDBRANCH   9  10
ENDBRANCH   8   9
ENDBRANCH   7   8
ENDBRANCH   6   7
ENDBRANCH   5   6
ENDBRANCH   4   5
ENDBRANCH   3   4
ENDBRANCH   2   3
TORSDOF 11
ENDMDL
MODEL      118
REMARK 921   NORMALIZED FREE ENERGY PREDICTED BY IDOCK:   -3.69 KCAL/MOL
REMARK 922        TOTAL FREE ENERGY PREDICTED BY IDOCK:   -8.25 KCAL/MOL
REMARK 923 INTER-LIGAND FREE ENERGY PREDICTED BY IDOCK:   -6.40 KCAL/MOL
REMARK 924 INTRA-LIGAND FREE ENERGY PREDICTED BY IDOCK:   -1.85 KCAL/MOL
REMARK 927      BINDING AFFINITY PREDICTED BY RF-SCORE:    0.00 PKD
ROOT
HETATM    1  C   UNL     1     -10.431  10.934  64.138  1.00  0.00    -0.397 C  
HETATM    2  C   UNL     1     -11.074  11.807  63.089  1.00  0.00    -0.251 C  
ENDROOT
BRANCH   2   3
HETATM    3  C   UNL     1     -12.273  12.603  63.652  1.00  0.00    -0.624 C  
BRANCH   3   4
HETATM    4  C   UNL     1     -12.354  12.506  65.184  1.00  0.00    -0.496 C  
BRANCH   4   5
HETATM    5  C   UNL     1     -12.485  13.884  65.845  1.00  0.00    -0.519 C  
BRANCH   5   6
HETATM    6  C   UNL     1     -11.166  14.355  66.479  1.00  0.00    -0.340 C  
BRANCH   6   7
HETATM    7  C   UNL     1     -10.310  15.119  65.458  1.00  0.00    -0.399 C  
BRANCH   7   8
HETATM    8  C   UNL     1     -10.184  16.625  65.718  1.00  0.00    -0.328 C  
BRANCH   8   9
HETATM    9  C   UNL     1      -9.122  17.036  66.725  1.00  0.00    -0.266 C  
BRANCH   9  10
HETATM   10  C   UNL     1      -7.701  16.613  66.370  1.00  0.00    -0.328 C  
BRANCH  10  11
HETATM   11  C   UNL     1      -6.708  15.878  67.314  1.00  0.00    -0.186 C  
HETATM   12  O   UNL     1      -5.774  16.536  67.783  1.00  0.00    -0.115 OA 
BRANCH  11  13
HETATM   13  O   UNL     1      -6.760  14.492  67.435  1.00  0.00    -0.258 OA 
BRANCH  13  14
HETATM   14  C   UNL     1      -7.874  13.923  68.334  1.00  0.00    -0.138 C  
HETATM   15  C   UNL     1      -7.069  13.822  69.635  1.00  0.00     0.198 C  
HETATM   16  C   UNL     1      -6.171  12.657  69.207  1.00  0.00    -0.105 C  
HETATM   17  C   UNL     1      -7.266  11.635  69.050  1.00  0.00    -0.094 C  
HETATM   18  C   UNL     1      -6.966  10.173  69.382  1.00  0.00    -0.076 C  
HETATM   19  C   UNL     1      -5.948  10.292  70.542  1.00  0.00    -0.106 C  
HETATM   20  C   UNL     1      -5.815   9.149  71.477  1.00  0.00    -0.069 C  
HETATM   21  C   UNL     1      -7.209   8.647  71.900  1.00  0.00    -0.092 C  
HETATM   22  C   UNL     1      -7.325   8.101  73.108  1.00  0.00    -0.164 C  
HETATM   23  C   UNL     1      -6.410   6.930  73.010  1.00  0.00    -0.061 C  
HETATM   24  O   UNL     1      -5.679   6.642  73.936  1.00  0.00    -0.053 OA 
HETATM   25  C   UNL     1      -6.464   6.170  71.648  1.00  0.00    -0.050 C  
HETATM   26  C   UNL     1      -7.119   6.911  70.362  1.00  0.00    -0.067 C  
HETATM   27  C   UNL     1      -8.053   8.136  70.720  1.00  0.00    -0.102 C  
HETATM   28  C   UNL     1      -9.404   7.498  71.076  1.00  0.00    -0.157 C  
HETATM   29  C   UNL     1      -8.281   9.507  69.888  1.00  0.00    -0.169 C  
HETATM   30  C   UNL     1      -9.432   9.870  68.869  1.00  0.00    -0.170 C  
HETATM   31  C   UNL     1      -9.624  11.506  68.679  1.00  0.00    -0.159 C  
HETATM   32  C   UNL     1      -8.317  12.258  68.094  1.00  0.00    -0.174 C  
HETATM   33  C   UNL     1      -8.408  12.045  66.582  1.00  0.00    -0.085 C  
ENDBRANCH  13  14
ENDBRANCH  11  13
ENDBRANCH  10  11
ENDBRANCH   9  10
ENDBRANCH   8   9
ENDBRANCH   7   8
ENDBRANCH   6   7
ENDBRANCH   5   6
ENDBRANCH   4   5
ENDBRANCH   3   4
ENDBRANCH   2   3
TORSDOF 11
ENDMDL
MODEL      119
REMARK 921   NORMALIZED FREE ENERGY PREDICTED BY IDOCK:   -3.69 KCAL/MOL
REMARK 922        TOTAL FREE ENERGY PREDICTED BY IDOCK:   -8.24 KCAL/MOL
REMARK 923 INTER-LIGAND FREE ENERGY PREDICTED BY IDOCK:   -6.77 KCAL/MOL
REMARK 924 INTRA-LIGAND FREE ENERGY PREDICTED BY IDOCK:   -1.47 KCAL/MOL
REMARK 927      BINDING AFFINITY PREDICTED BY RF-SCORE:    0.00 PKD
ROOT
HETATM    1  C   UNL     1      -6.230   9.145  63.749  1.00  0.00    -0.088 C  
HETATM    2  C   UNL     1      -6.400   7.724  63.274  1.00  0.00    -0.067 C  
ENDROOT
BRANCH   2   3
HETATM    3  C   UNL     1      -6.802   6.772  64.425  1.00  0.00    -0.046 C  
BRANCH   3   4
HETATM    4  C   UNL     1      -7.084   5.349  63.917  1.00  0.00    -0.049 C  
BRANCH   4   5
HETATM    5  C   UNL     1      -8.480   5.222  63.297  1.00  0.00    -0.096 C  
BRANCH   5   6
HETATM    6  C   UNL     1      -8.913   3.756  63.130  1.00  0.00    -0.102 C  
BRANCH   6   7
HETATM    7  C   UNL     1      -9.747   3.291  64.334  1.00  0.00    -0.163 C  
BRANCH   7   8
HETATM    8  C   UNL     1     -10.657   4.365  64.943  1.00  0.00    -0.120 C  
BRANCH   8   9
HETATM    9  C   UNL     1     -10.369   4.733  66.390  1.00  0.00    -0.312 C  
BRANCH   9  10
HETATM   10  C   UNL     1     -10.073   6.209  66.631  1.00  0.00    -0.218 C  
BRANCH  10  11
HETATM   11  C   UNL     1      -8.865   6.776  67.430  1.00  0.00    -0.117 C  
HETATM   12  O   UNL     1      -8.127   5.966  67.998  1.00  0.00    -0.104 OA 
BRANCH  11  13
HETATM   13  O   UNL     1      -8.768   8.144  67.667  1.00  0.00    -0.129 OA 
BRANCH  13  14
HETATM   14  C   UNL     1     -10.061   8.964  67.491  1.00  0.00    -0.227 C  
HETATM   15  C   UNL     1      -9.624   9.798  66.281  1.00  0.00    -0.271 C  
HETATM   16  C   UNL     1      -8.608  10.675  67.018  1.00  0.00    -0.128 C  
HETATM   17  C   UNL     1      -9.590  11.351  67.940  1.00  0.00    -0.180 C  
HETATM   18  C   UNL     1      -9.341  12.802  68.351  1.00  0.00    -0.143 C  
HETATM   19  C   UNL     1      -8.669  13.399  67.090  1.00  0.00    -0.220 C  
HETATM   20  C   UNL     1      -8.751  14.865  66.882  1.00  0.00    -0.276 C  
HETATM   21  C   UNL     1     -10.189  15.355  67.131  1.00  0.00    -0.251 C  
HETATM   22  C   UNL     1     -10.602  16.421  66.450  1.00  0.00    -0.236 C  
HETATM   23  C   UNL     1      -9.656  17.473  66.914  1.00  0.00    -0.278 C  
HETATM   24  O   UNL     1      -9.186  18.269  66.126  1.00  0.00    -0.475 OA 
HETATM   25  C   UNL     1      -9.325  17.428  68.438  1.00  0.00    -0.285 C  
HETATM   26  C   UNL     1      -9.642  16.071  69.270  1.00  0.00    -0.255 C  
HETATM   27  C   UNL     1     -10.677  15.102  68.568  1.00  0.00    -0.240 C  
HETATM   28  C   UNL     1     -12.053  15.680  68.931  1.00  0.00    -0.183 C  
HETATM   29  C   UNL     1     -10.721  13.483  68.597  1.00  0.00    -0.271 C  
HETATM   30  C   UNL     1     -11.574  12.531  69.524  1.00  0.00    -0.348 C  
HETATM   31  C   UNL     1     -11.762  11.014  68.881  1.00  0.00    -0.400 C  
HETATM   32  C   UNL     1     -10.371  10.218  68.656  1.00  0.00    -0.203 C  
HETATM   33  C   UNL     1     -10.055   9.624  70.030  1.00  0.00    -0.293 C  
ENDBRANCH  13  14
ENDBRANCH  11  13
ENDBRANCH  10  11
ENDBRANCH   9  10
ENDBRANCH   8   9
ENDBRANCH   7   8
ENDBRANCH   6   7
ENDBRANCH   5   6
ENDBRANCH   4   5
ENDBRANCH   3   4
ENDBRANCH   2   3
TORSDOF 11
ENDMDL
MODEL      120
REMARK 921   NORMALIZED FREE ENERGY PREDICTED BY IDOCK:   -3.68 KCAL/MOL
REMARK 922        TOTAL FREE ENERGY PREDICTED BY IDOCK:   -8.23 KCAL/MOL
REMARK 923 INTER-LIGAND FREE ENERGY PREDICTED BY IDOCK:   -7.05 KCAL/MOL
REMARK 924 INTRA-LIGAND FREE ENERGY PREDICTED BY IDOCK:   -1.18 KCAL/MOL
REMARK 927      BINDING AFFINITY PREDICTED BY RF-SCORE:    0.00 PKD
ROOT
HETATM    1  C   UNL     1      -9.833  19.864  66.849  1.00  0.00    -0.540 C  
HETATM    2  C   UNL     1     -10.246  19.399  68.223  1.00  0.00    -0.535 C  
ENDROOT
BRANCH   2   3
HETATM    3  C   UNL     1      -9.779  17.953  68.511  1.00  0.00    -0.352 C  
BRANCH   3   4
HETATM    4  C   UNL     1     -10.856  16.921  68.140  1.00  0.00    -0.351 C  
BRANCH   4   5
HETATM    5  C   UNL     1     -11.282  16.072  69.344  1.00  0.00    -0.349 C  
BRANCH   5   6
HETATM    6  C   UNL     1     -11.964  14.760  68.921  1.00  0.00    -0.298 C  
BRANCH   6   7
HETATM    7  C   UNL     1     -12.096  14.681  67.392  1.00  0.00    -0.216 C  
BRANCH   7   8
HETATM    8  C   UNL     1     -11.941  13.274  66.802  1.00  0.00    -0.438 C  
BRANCH   8   9
HETATM    9  C   UNL     1     -10.773  13.081  65.849  1.00  0.00    -0.292 C  
BRANCH   9  10
HETATM   10  C   UNL     1      -9.430  13.584  66.366  1.00  0.00    -0.236 C  
BRANCH  10  11
HETATM   11  C   UNL     1      -8.836  13.306  67.776  1.00  0.00    -0.197 C  
HETATM   12  O   UNL     1      -8.496  14.279  68.455  1.00  0.00    -0.156 OA 
BRANCH  11  13
HETATM   13  O   UNL     1      -8.506  12.005  68.147  1.00  0.00    -0.157 OA 
BRANCH  13  14
HETATM   14  C   UNL     1      -9.565  10.921  67.865  1.00  0.00    -0.166 C  
HETATM   15  C   UNL     1      -9.816  10.484  69.313  1.00  0.00    -0.225 C  
HETATM   16  C   UNL     1      -8.472   9.781  69.528  1.00  0.00    -0.176 C  
HETATM   17  C   UNL     1      -8.663   8.705  68.491  1.00  0.00    -0.139 C  
HETATM   18  C   UNL     1      -8.065   7.321  68.743  1.00  0.00    -0.124 C  
HETATM   19  C   UNL     1      -8.180   7.178  70.280  1.00  0.00    -0.131 C  
HETATM   20  C   UNL     1      -8.205   5.812  70.857  1.00  0.00    -0.121 C  
HETATM   21  C   UNL     1      -9.174   4.919  70.059  1.00  0.00    -0.182 C  
HETATM   22  C   UNL     1      -9.783   3.934  70.714  1.00  0.00    -0.255 C  
HETATM   23  C   UNL     1      -8.633   3.102  71.164  1.00  0.00    -0.068 C  
HETATM   24  O   UNL     1      -8.618   2.627  72.281  1.00  0.00    -0.065 OA 
HETATM   25  C   UNL     1      -7.493   2.938  70.112  1.00  0.00    -0.043 C  
HETATM   26  C   UNL     1      -7.421   3.975  68.866  1.00  0.00    -0.055 C  
HETATM   27  C   UNL     1      -8.770   4.752  68.584  1.00  0.00    -0.111 C  
HETATM   28  C   UNL     1      -9.612   3.771  67.755  1.00  0.00    -0.193 C  
HETATM   29  C   UNL     1      -8.967   6.264  68.037  1.00  0.00    -0.114 C  
HETATM   30  C   UNL     1      -9.230   6.758  66.560  1.00  0.00    -0.190 C  
HETATM   31  C   UNL     1      -9.919   8.266  66.505  1.00  0.00    -0.320 C  
HETATM   32  C   UNL     1      -9.008   9.429  67.164  1.00  0.00    -0.144 C  
HETATM   33  C   UNL     1      -8.026   9.809  66.054  1.00  0.00    -0.111 C  
ENDBRANCH  13  14
ENDBRANCH  11  13
ENDBRANCH  10  11
ENDBRANCH   9  10
ENDBRANCH   8   9
ENDBRANCH   7   8
ENDBRANCH   6   7
ENDBRANCH   5   6
ENDBRANCH   4   5
ENDBRANCH   3   4
ENDBRANCH   2   3
TORSDOF 11
ENDMDL
MODEL      121
REMARK 921   NORMALIZED FREE ENERGY PREDICTED BY IDOCK:   -3.66 KCAL/MOL
REMARK 922        TOTAL FREE ENERGY PREDICTED BY IDOCK:   -8.20 KCAL/MOL
REMARK 923 INTER-LIGAND FREE ENERGY PREDICTED BY IDOCK:   -7.06 KCAL/MOL
REMARK 924 INTRA-LIGAND FREE ENERGY PREDICTED BY IDOCK:   -1.14 KCAL/MOL
REMARK 927      BINDING AFFINITY PREDICTED BY RF-SCORE:    0.00 PKD
ROOT
HETATM    1  C   UNL     1      -6.404  16.239  69.264  1.00  0.00    -0.177 C  
HETATM    2  C   UNL     1      -6.868  17.589  68.776  1.00  0.00    -0.233 C  
ENDROOT
BRANCH   2   3
HETATM    3  C   UNL     1      -6.318  17.918  67.369  1.00  0.00    -0.175 C  
BRANCH   3   4
HETATM    4  C   UNL     1      -6.764  19.309  66.892  1.00  0.00    -0.203 C  
BRANCH   4   5
HETATM    5  C   UNL     1      -7.976  19.827  67.675  1.00  0.00    -0.325 C  
BRANCH   5   6
HETATM    6  C   UNL     1      -9.232  19.946  66.796  1.00  0.00    -0.480 C  
BRANCH   6   7
HETATM    7  C   UNL     1      -9.743  18.557  66.383  1.00  0.00    -0.347 C  
BRANCH   7   8
HETATM    8  C   UNL     1     -10.855  17.987  67.272  1.00  0.00    -0.214 C  
BRANCH   8   9
HETATM    9  C   UNL     1     -10.452  16.836  68.180  1.00  0.00    -0.332 C  
BRANCH   9  10
HETATM   10  C   UNL     1     -11.484  15.721  68.303  1.00  0.00    -0.338 C  
BRANCH  10  11
HETATM   11  C   UNL     1     -11.556  14.446  67.416  1.00  0.00    -0.375 C  
HETATM   12  O   UNL     1     -12.357  14.448  66.477  1.00  0.00    -0.411 OA 
BRANCH  11  13
HETATM   13  O   UNL     1     -10.899  13.285  67.814  1.00  0.00    -0.244 OA 
BRANCH  13  14
HETATM   14  C   UNL     1      -9.943  12.650  66.786  1.00  0.00    -0.234 C  
HETATM   15  C   UNL     1     -10.931  11.662  66.155  1.00  0.00    -0.339 C  
HETATM   16  C   UNL     1     -11.030  10.711  67.352  1.00  0.00    -0.361 C  
HETATM   17  C   UNL     1      -9.590  10.268  67.348  1.00  0.00    -0.183 C  
HETATM   18  C   UNL     1      -9.256   8.836  67.768  1.00  0.00    -0.146 C  
HETATM   19  C   UNL     1     -10.486   8.042  67.267  1.00  0.00    -0.384 C  
HETATM   20  C   UNL     1     -10.325   6.591  67.005  1.00  0.00    -0.319 C  
HETATM   21  C   UNL     1      -9.033   6.340  66.204  1.00  0.00    -0.164 C  
HETATM   22  C   UNL     1      -9.013   5.291  65.385  1.00  0.00    -0.147 C  
HETATM   23  C   UNL     1      -9.215   4.156  66.327  1.00  0.00    -0.155 C  
HETATM   24  O   UNL     1      -9.950   3.236  66.032  1.00  0.00     0.100 OA 
HETATM   25  C   UNL     1      -8.444   4.282  67.677  1.00  0.00    -0.101 C  
HETATM   26  C   UNL     1      -7.883   5.736  68.128  1.00  0.00    -0.104 C  
HETATM   27  C   UNL     1      -7.761   6.783  66.948  1.00  0.00    -0.103 C  
HETATM   28  C   UNL     1      -6.425   6.445  66.270  1.00  0.00    -0.043 C  
HETATM   29  C   UNL     1      -7.977   8.388  66.997  1.00  0.00    -0.100 C  
HETATM   30  C   UNL     1      -6.897   9.530  67.143  1.00  0.00    -0.084 C  
HETATM   31  C   UNL     1      -7.441  10.997  66.595  1.00  0.00    -0.146 C  
HETATM   32  C   UNL     1      -8.732  11.559  67.393  1.00  0.00    -0.147 C  
HETATM   33  C   UNL     1      -8.142  12.216  68.643  1.00  0.00    -0.048 C  
ENDBRANCH  13  14
ENDBRANCH  11  13
ENDBRANCH  10  11
ENDBRANCH   9  10
ENDBRANCH   8   9
ENDBRANCH   7   8
ENDBRANCH   6   7
ENDBRANCH   5   6
ENDBRANCH   4   5
ENDBRANCH   3   4
ENDBRANCH   2   3
TORSDOF 11
ENDMDL
MODEL      122
REMARK 921   NORMALIZED FREE ENERGY PREDICTED BY IDOCK:   -3.66 KCAL/MOL
REMARK 922        TOTAL FREE ENERGY PREDICTED BY IDOCK:   -8.20 KCAL/MOL
REMARK 923 INTER-LIGAND FREE ENERGY PREDICTED BY IDOCK:   -7.56 KCAL/MOL
REMARK 924 INTRA-LIGAND FREE ENERGY PREDICTED BY IDOCK:   -0.64 KCAL/MOL
REMARK 927      BINDING AFFINITY PREDICTED BY RF-SCORE:    0.00 PKD
ROOT
HETATM    1  C   UNL     1     -10.203  16.858  67.650  1.00  0.00    -0.306 C  
HETATM    2  C   UNL     1      -9.278  15.870  68.317  1.00  0.00    -0.189 C  
ENDROOT
BRANCH   2   3
HETATM    3  C   UNL     1      -9.797  14.418  68.196  1.00  0.00    -0.223 C  
BRANCH   3   4
HETATM    4  C   UNL     1     -11.286  14.374  67.820  1.00  0.00    -0.331 C  
BRANCH   4   5
HETATM    5  C   UNL     1     -12.113  13.562  68.824  1.00  0.00    -0.305 C  
BRANCH   5   6
HETATM    6  C   UNL     1     -12.442  14.365  70.093  1.00  0.00    -0.395 C  
BRANCH   6   7
HETATM    7  C   UNL     1     -12.597  13.433  71.305  1.00  0.00    -0.411 C  
BRANCH   7   8
HETATM    8  C   UNL     1     -12.331  11.950  71.019  1.00  0.00    -0.362 C  
BRANCH   8   9
HETATM    9  C   UNL     1     -13.135  10.961  71.847  1.00  0.00    -0.537 C  
BRANCH   9  10
HETATM   10  C   UNL     1     -12.467   9.607  72.060  1.00  0.00    -0.412 C  
BRANCH  10  11
HETATM   11  C   UNL     1     -13.064   8.227  71.665  1.00  0.00    -0.334 C  
HETATM   12  O   UNL     1     -14.291   8.144  71.563  1.00  0.00    -0.426 OA 
BRANCH  11  13
HETATM   13  O   UNL     1     -12.251   7.097  71.651  1.00  0.00    -0.312 OA 
BRANCH  13  14
HETATM   14  C   UNL     1     -10.783   7.313  71.237  1.00  0.00    -0.225 C  
HETATM   15  C   UNL     1     -11.033   7.812  69.809  1.00  0.00    -0.162 C  
HETATM   16  C   UNL     1     -11.493   6.474  69.224  1.00  0.00    -0.307 C  
HETATM   17  C   UNL     1     -10.195   5.735  69.426  1.00  0.00    -0.301 C  
HETATM   18  C   UNL     1      -9.784   4.672  68.407  1.00  0.00    -0.198 C  
HETATM   19  C   UNL     1     -10.348   5.238  67.081  1.00  0.00    -0.268 C  
HETATM   20  C   UNL     1      -9.726   4.796  65.810  1.00  0.00    -0.200 C  
HETATM   21  C   UNL     1      -8.191   4.851  65.925  1.00  0.00    -0.113 C  
HETATM   22  C   UNL     1      -7.499   5.089  64.814  1.00  0.00    -0.075 C  
HETATM   23  C   UNL     1      -7.869   3.925  63.962  1.00  0.00    -0.084 C  
HETATM   24  O   UNL     1      -8.099   4.077  62.780  1.00  0.00    -0.073 OA 
HETATM   25  C   UNL     1      -7.953   2.563  64.717  1.00  0.00    -0.081 C  
HETATM   26  C   UNL     1      -8.077   2.569  66.335  1.00  0.00    -0.084 C  
HETATM   27  C   UNL     1      -7.631   3.925  67.019  1.00  0.00    -0.080 C  
HETATM   28  C   UNL     1      -6.100   3.825  67.107  1.00  0.00    -0.025 C  
HETATM   29  C   UNL     1      -8.227   4.626  68.352  1.00  0.00    -0.083 C  
HETATM   30  C   UNL     1      -7.690   4.554  69.835  1.00  0.00    -0.057 C  
HETATM   31  C   UNL     1      -8.219   5.819  70.767  1.00  0.00    -0.123 C  
HETATM   32  C   UNL     1      -9.827   5.893  70.924  1.00  0.00    -0.224 C  
HETATM   33  C   UNL     1     -10.140   4.902  72.047  1.00  0.00    -0.256 C  
ENDBRANCH  13  14
ENDBRANCH  11  13
ENDBRANCH  10  11
ENDBRANCH   9  10
ENDBRANCH   8   9
ENDBRANCH   7   8
ENDBRANCH   6   7
ENDBRANCH   5   6
ENDBRANCH   4   5
ENDBRANCH   3   4
ENDBRANCH   2   3
TORSDOF 11
ENDMDL
MODEL      123
REMARK 921   NORMALIZED FREE ENERGY PREDICTED BY IDOCK:   -3.65 KCAL/MOL
REMARK 922        TOTAL FREE ENERGY PREDICTED BY IDOCK:   -8.17 KCAL/MOL
REMARK 923 INTER-LIGAND FREE ENERGY PREDICTED BY IDOCK:   -6.92 KCAL/MOL
REMARK 924 INTRA-LIGAND FREE ENERGY PREDICTED BY IDOCK:   -1.25 KCAL/MOL
REMARK 927      BINDING AFFINITY PREDICTED BY RF-SCORE:    0.00 PKD
ROOT
HETATM    1  C   UNL     1      -6.807  16.751  69.492  1.00  0.00    -0.139 C  
HETATM    2  C   UNL     1      -7.307  18.029  68.865  1.00  0.00    -0.249 C  
ENDROOT
BRANCH   2   3
HETATM    3  C   UNL     1      -6.846  18.172  67.396  1.00  0.00    -0.206 C  
BRANCH   3   4
HETATM    4  C   UNL     1      -7.341  19.485  66.768  1.00  0.00    -0.242 C  
BRANCH   4   5
HETATM    5  C   UNL     1      -8.594  20.024  67.469  1.00  0.00    -0.401 C  
BRANCH   5   6
HETATM    6  C   UNL     1      -9.826  20.018  66.548  1.00  0.00    -0.581 C  
BRANCH   6   7
HETATM    7  C   UNL     1     -10.087  18.610  65.994  1.00  0.00    -0.326 C  
BRANCH   7   8
HETATM    8  C   UNL     1     -10.907  17.695  66.912  1.00  0.00    -0.035 C  
BRANCH   8   9
HETATM    9  C   UNL     1     -10.155  16.525  67.524  1.00  0.00    -0.267 C  
BRANCH   9  10
HETATM   10  C   UNL     1     -10.991  15.272  67.755  1.00  0.00    -0.312 C  
BRANCH  10  11
HETATM   11  C   UNL     1     -10.932  13.970  66.907  1.00  0.00    -0.298 C  
HETATM   12  O   UNL     1     -11.727  13.863  65.969  1.00  0.00    -0.338 OA 
BRANCH  11  13
HETATM   13  O   UNL     1     -10.162  12.893  67.339  1.00  0.00    -0.227 OA 
BRANCH  13  14
HETATM   14  C   UNL     1     -10.773  11.492  67.146  1.00  0.00    -0.254 C  
HETATM   15  C   UNL     1     -11.228  11.255  68.591  1.00  0.00    -0.310 C  
HETATM   16  C   UNL     1      -9.833  11.078  69.197  1.00  0.00    -0.117 C  
HETATM   17  C   UNL     1      -9.460   9.836  68.431  1.00  0.00    -0.146 C  
HETATM   18  C   UNL     1      -8.574   8.789  69.106  1.00  0.00    -0.128 C  
HETATM   19  C   UNL     1      -9.007   8.885  70.589  1.00  0.00    -0.237 C  
HETATM   20  C   UNL     1      -8.782   7.708  71.462  1.00  0.00    -0.131 C  
HETATM   21  C   UNL     1      -9.241   6.424  70.746  1.00  0.00    -0.161 C  
HETATM   22  C   UNL     1      -9.685   5.424  71.503  1.00  0.00    -0.209 C  
HETATM   23  C   UNL     1      -8.490   5.104  72.331  1.00  0.00    -0.121 C  
HETATM   24  O   UNL     1      -8.608   4.862  73.514  1.00  0.00    -0.106 OA 
HETATM   25  C   UNL     1      -7.133   5.141  71.561  1.00  0.00    -0.062 C  
HETATM   26  C   UNL     1      -7.061   5.912  70.135  1.00  0.00    -0.071 C  
HETATM   27  C   UNL     1      -8.466   6.144  69.447  1.00  0.00    -0.120 C  
HETATM   28  C   UNL     1      -8.775   4.813  68.744  1.00  0.00    -0.109 C  
HETATM   29  C   UNL     1      -8.946   7.390  68.528  1.00  0.00    -0.128 C  
HETATM   30  C   UNL     1      -8.977   7.507  66.954  1.00  0.00    -0.152 C  
HETATM   31  C   UNL     1     -10.029   8.673  66.421  1.00  0.00    -0.331 C  
HETATM   32  C   UNL     1      -9.668  10.165  66.930  1.00  0.00    -0.233 C  
HETATM   33  C   UNL     1      -8.598  10.646  65.947  1.00  0.00    -0.177 C  
ENDBRANCH  13  14
ENDBRANCH  11  13
ENDBRANCH  10  11
ENDBRANCH   9  10
ENDBRANCH   8   9
ENDBRANCH   7   8
ENDBRANCH   6   7
ENDBRANCH   5   6
ENDBRANCH   4   5
ENDBRANCH   3   4
ENDBRANCH   2   3
TORSDOF 11
ENDMDL
MODEL      124
REMARK 921   NORMALIZED FREE ENERGY PREDICTED BY IDOCK:   -3.62 KCAL/MOL
REMARK 922        TOTAL FREE ENERGY PREDICTED BY IDOCK:   -8.13 KCAL/MOL
REMARK 923 INTER-LIGAND FREE ENERGY PREDICTED BY IDOCK:   -7.56 KCAL/MOL
REMARK 924 INTRA-LIGAND FREE ENERGY PREDICTED BY IDOCK:   -0.57 KCAL/MOL
REMARK 927      BINDING AFFINITY PREDICTED BY RF-SCORE:    0.00 PKD
ROOT
HETATM    1  C   UNL     1      -8.855   1.709  71.021  1.00  0.00    -0.108 C  
HETATM    2  C   UNL     1      -9.734   2.912  71.258  1.00  0.00    -0.205 C  
ENDROOT
BRANCH   2   3
HETATM    3  C   UNL     1      -9.096   4.212  70.716  1.00  0.00    -0.175 C  
BRANCH   3   4
HETATM    4  C   UNL     1     -10.056   4.976  69.792  1.00  0.00    -0.337 C  
BRANCH   4   5
HETATM    5  C   UNL     1     -11.084   5.799  70.578  1.00  0.00    -0.280 C  
BRANCH   5   6
HETATM    6  C   UNL     1     -10.585   6.167  71.984  1.00  0.00    -0.259 C  
BRANCH   6   7
HETATM    7  C   UNL     1     -10.413   7.688  72.123  1.00  0.00    -0.270 C  
BRANCH   7   8
HETATM    8  C   UNL     1     -11.196   8.522  71.102  1.00  0.00    -0.317 C  
BRANCH   8   9
HETATM    9  C   UNL     1     -12.609   8.909  71.508  1.00  0.00    -0.385 C  
BRANCH   9  10
HETATM   10  C   UNL     1     -13.153  10.163  70.832  1.00  0.00    -0.412 C  
BRANCH  10  11
HETATM   11  C   UNL     1     -12.624  11.610  71.041  1.00  0.00    -0.331 C  
HETATM   12  O   UNL     1     -13.214  12.320  71.862  1.00  0.00    -0.473 OA 
BRANCH  11  13
HETATM   13  O   UNL     1     -11.670  12.134  70.174  1.00  0.00    -0.303 OA 
BRANCH  13  14
HETATM   14  C   UNL     1     -12.058  13.422  69.422  1.00  0.00    -0.269 C  
HETATM   15  C   UNL     1     -11.289  13.153  68.124  1.00  0.00    -0.328 C  
HETATM   16  C   UNL     1      -9.883  13.352  68.698  1.00  0.00    -0.116 C  
HETATM   17  C   UNL     1     -10.041  14.806  69.060  1.00  0.00    -0.232 C  
HETATM   18  C   UNL     1      -8.828  15.730  68.956  1.00  0.00    -0.236 C  
HETATM   19  C   UNL     1      -8.054  15.138  67.753  1.00  0.00    -0.157 C  
HETATM   20  C   UNL     1      -7.129  16.027  67.009  1.00  0.00    -0.233 C  
HETATM   21  C   UNL     1      -7.809  17.380  66.728  1.00  0.00    -0.273 C  
HETATM   22  C   UNL     1      -7.442  18.035  65.629  1.00  0.00     0.028 C  
HETATM   23  C   UNL     1      -5.994  18.275  65.878  1.00  0.00    -0.212 C  
HETATM   24  O   UNL     1      -5.185  18.138  64.983  1.00  0.00    -0.140 OA 
HETATM   25  C   UNL     1      -5.639  18.670  67.345  1.00  0.00    -0.142 C  
HETATM   26  C   UNL     1      -6.717  18.372  68.520  1.00  0.00    -0.253 C  
HETATM   27  C   UNL     1      -8.196  18.142  68.007  1.00  0.00    -0.266 C  
HETATM   28  C   UNL     1      -8.758  19.558  67.811  1.00  0.00    -0.364 C  
HETATM   29  C   UNL     1      -9.334  17.164  68.616  1.00  0.00    -0.269 C  
HETATM   30  C   UNL     1     -10.513  17.511  69.608  1.00  0.00     0.237 C  
HETATM   31  C   UNL     1     -11.749  16.408  69.540  1.00  0.00     0.060 C  
HETATM   32  C   UNL     1     -11.312  14.904  69.944  1.00  0.00    -0.311 C  
HETATM   33  C   UNL     1     -11.358  14.899  71.473  1.00  0.00    -0.232 C  
ENDBRANCH  13  14
ENDBRANCH  11  13
ENDBRANCH  10  11
ENDBRANCH   9  10
ENDBRANCH   8   9
ENDBRANCH   7   8
ENDBRANCH   6   7
ENDBRANCH   5   6
ENDBRANCH   4   5
ENDBRANCH   3   4
ENDBRANCH   2   3
TORSDOF 11
ENDMDL
MODEL      125
REMARK 921   NORMALIZED FREE ENERGY PREDICTED BY IDOCK:   -3.61 KCAL/MOL
REMARK 922        TOTAL FREE ENERGY PREDICTED BY IDOCK:   -8.12 KCAL/MOL
REMARK 923 INTER-LIGAND FREE ENERGY PREDICTED BY IDOCK:   -6.86 KCAL/MOL
REMARK 924 INTRA-LIGAND FREE ENERGY PREDICTED BY IDOCK:   -1.26 KCAL/MOL
REMARK 927      BINDING AFFINITY PREDICTED BY RF-SCORE:    0.00 PKD
ROOT
HETATM    1  C   UNL     1      -9.190   2.804  68.609  1.00  0.00    -0.238 C  
HETATM    2  C   UNL     1      -8.391   1.760  69.349  1.00  0.00    -0.069 C  
ENDROOT
BRANCH   2   3
HETATM    3  C   UNL     1      -8.285   2.073  70.859  1.00  0.00    -0.064 C  
BRANCH   3   4
HETATM    4  C   UNL     1      -7.213   3.136  71.147  1.00  0.00    -0.033 C  
BRANCH   4   5
HETATM    5  C   UNL     1      -7.817   4.430  71.708  1.00  0.00    -0.087 C  
BRANCH   5   6
HETATM    6  C   UNL     1      -8.063   4.351  73.223  1.00  0.00    -0.095 C  
BRANCH   6   7
HETATM    7  C   UNL     1      -9.388   5.031  73.599  1.00  0.00    -0.129 C  
BRANCH   7   8
HETATM    8  C   UNL     1     -10.428   5.085  72.474  1.00  0.00    -0.270 C  
BRANCH   8   9
HETATM    9  C   UNL     1     -10.884   6.475  72.061  1.00  0.00    -0.267 C  
BRANCH   9  10
HETATM   10  C   UNL     1     -11.434   6.577  70.642  1.00  0.00    -0.433 C  
BRANCH  10  11
HETATM   11  C   UNL     1     -10.639   7.043  69.390  1.00  0.00    -0.230 C  
HETATM   12  O   UNL     1      -9.790   6.271  68.934  1.00  0.00    -0.130 OA 
BRANCH  11  13
HETATM   13  O   UNL     1     -10.738   8.361  68.953  1.00  0.00    -0.179 OA 
BRANCH  13  14
HETATM   14  C   UNL     1      -9.775   9.374  69.602  1.00  0.00    -0.190 C  
HETATM   15  C   UNL     1     -10.821  10.386  70.085  1.00  0.00    -0.333 C  
HETATM   16  C   UNL     1     -11.207  10.924  68.704  1.00  0.00    -0.326 C  
HETATM   17  C   UNL     1      -9.862  11.508  68.356  1.00  0.00    -0.204 C  
HETATM   18  C   UNL     1      -9.805  12.781  67.511  1.00  0.00    -0.211 C  
HETATM   19  C   UNL     1     -11.075  13.544  67.963  1.00  0.00    -0.283 C  
HETATM   20  C   UNL     1     -11.108  15.015  67.786  1.00  0.00    -0.312 C  
HETATM   21  C   UNL     1      -9.784  15.636  68.271  1.00  0.00    -0.201 C  
HETATM   22  C   UNL     1      -9.828  16.875  68.756  1.00  0.00    -0.269 C  
HETATM   23  C   UNL     1     -10.313  17.652  67.582  1.00  0.00    -0.368 C  
HETATM   24  O   UNL     1     -11.141  18.528  67.724  1.00  0.00    -0.226 OA 
HETATM   25  C   UNL     1      -9.699  17.222  66.214  1.00  0.00    -0.282 C  
HETATM   26  C   UNL     1      -8.978  15.772  66.099  1.00  0.00    -0.372 C  
HETATM   27  C   UNL     1      -8.557  15.140  67.487  1.00  0.00    -0.193 C  
HETATM   28  C   UNL     1      -7.217  15.811  67.824  1.00  0.00    -0.172 C  
HETATM   29  C   UNL     1      -8.528  13.578  67.916  1.00  0.00    -0.179 C  
HETATM   30  C   UNL     1      -7.310  12.573  67.921  1.00  0.00    -0.115 C  
HETATM   31  C   UNL     1      -7.553  11.281  68.931  1.00  0.00    -0.126 C  
HETATM   32  C   UNL     1      -8.828  10.367  68.534  1.00  0.00    -0.142 C  
HETATM   33  C   UNL     1      -8.297   9.443  67.436  1.00  0.00    -0.125 C  
ENDBRANCH  13  14
ENDBRANCH  11  13
ENDBRANCH  10  11
ENDBRANCH   9  10
ENDBRANCH   8   9
ENDBRANCH   7   8
ENDBRANCH   6   7
ENDBRANCH   5   6
ENDBRANCH   4   5
ENDBRANCH   3   4
ENDBRANCH   2   3
TORSDOF 11
ENDMDL
MODEL      126
REMARK 921   NORMALIZED FREE ENERGY PREDICTED BY IDOCK:   -3.59 KCAL/MOL
REMARK 922        TOTAL FREE ENERGY PREDICTED BY IDOCK:   -8.08 KCAL/MOL
REMARK 923 INTER-LIGAND FREE ENERGY PREDICTED BY IDOCK:   -7.09 KCAL/MOL
REMARK 924 INTRA-LIGAND FREE ENERGY PREDICTED BY IDOCK:   -0.99 KCAL/MOL
REMARK 927      BINDING AFFINITY PREDICTED BY RF-SCORE:    0.00 PKD
ROOT
HETATM    1  C   UNL     1      -6.320  11.447  69.531  1.00  0.00    -0.113 C  
HETATM    2  C   UNL     1      -7.533  10.553  69.599  1.00  0.00    -0.145 C  
ENDROOT
BRANCH   2   3
HETATM    3  C   UNL     1      -7.210   9.185  70.243  1.00  0.00    -0.075 C  
BRANCH   3   4
HETATM    4  C   UNL     1      -8.476   8.489  70.767  1.00  0.00    -0.166 C  
BRANCH   4   5
HETATM    5  C   UNL     1      -8.915   7.331  69.862  1.00  0.00    -0.142 C  
BRANCH   5   6
HETATM    6  C   UNL     1      -7.756   6.777  69.018  1.00  0.00    -0.110 C  
BRANCH   6   7
HETATM    7  C   UNL     1      -8.249   6.338  67.632  1.00  0.00    -0.117 C  
BRANCH   7   8
HETATM    8  C   UNL     1      -8.101   7.394  66.529  1.00  0.00    -0.117 C  
BRANCH   8   9
HETATM    9  C   UNL     1      -9.314   8.279  66.293  1.00  0.00    -0.267 C  
BRANCH   9  10
HETATM   10  C   UNL     1      -9.271   9.631  66.997  1.00  0.00    -0.167 C  
BRANCH  10  11
HETATM   11  C   UNL     1     -10.290  10.789  66.804  1.00  0.00    -0.243 C  
HETATM   12  O   UNL     1     -10.984  10.775  65.784  1.00  0.00    -0.074 OA 
BRANCH  11  13
HETATM   13  O   UNL     1     -10.249  11.898  67.645  1.00  0.00    -0.196 OA 
BRANCH  13  14
HETATM   14  C   UNL     1     -10.920  13.182  67.121  1.00  0.00    -0.268 C  
HETATM   15  C   UNL     1      -9.905  13.523  66.024  1.00  0.00    -0.277 C  
HETATM   16  C   UNL     1      -8.761  13.938  66.954  1.00  0.00    -0.177 C  
HETATM   17  C   UNL     1      -9.455  15.122  67.575  1.00  0.00    -0.206 C  
HETATM   18  C   UNL     1      -8.623  16.341  67.975  1.00  0.00    -0.176 C  
HETATM   19  C   UNL     1      -7.511  16.359  66.897  1.00  0.00    -0.269 C  
HETATM   20  C   UNL     1      -6.831  17.646  66.615  1.00  0.00    -0.252 C  
HETATM   21  C   UNL     1      -7.870  18.774  66.479  1.00  0.00    -0.286 C  
HETATM   22  C   UNL     1      -7.572  19.791  65.674  1.00  0.00    -0.223 C  
HETATM   23  C   UNL     1      -6.349  20.348  66.315  1.00  0.00    -0.211 C  
HETATM   24  O   UNL     1      -5.408  20.706  65.637  1.00  0.00    -0.176 OA 
HETATM   25  C   UNL     1      -6.391  20.393  67.874  1.00  0.00    -0.304 C  
HETATM   26  C   UNL     1      -7.482  19.480  68.656  1.00  0.00    -0.380 C  
HETATM   27  C   UNL     1      -8.693  18.999  67.759  1.00  0.00    -0.328 C  
HETATM   28  C   UNL     1      -9.659  20.194  67.746  1.00  0.00    -0.508 C  
HETATM   29  C   UNL     1      -9.519  17.609  67.843  1.00  0.00    -0.276 C  
HETATM   30  C   UNL     1     -10.891  17.312  68.567  1.00  0.00    -0.240 C  
HETATM   31  C   UNL     1     -11.656  15.972  67.960  1.00  0.00    -0.119 C  
HETATM   32  C   UNL     1     -10.810  14.602  68.120  1.00  0.00    -0.256 C  
HETATM   33  C   UNL     1     -11.100  14.150  69.553  1.00  0.00    -0.222 C  
ENDBRANCH  13  14
ENDBRANCH  11  13
ENDBRANCH  10  11
ENDBRANCH   9  10
ENDBRANCH   8   9
ENDBRANCH   7   8
ENDBRANCH   6   7
ENDBRANCH   5   6
ENDBRANCH   4   5
ENDBRANCH   3   4
ENDBRANCH   2   3
TORSDOF 11
ENDMDL
MODEL      127
REMARK 921   NORMALIZED FREE ENERGY PREDICTED BY IDOCK:   -3.58 KCAL/MOL
REMARK 922        TOTAL FREE ENERGY PREDICTED BY IDOCK:   -8.07 KCAL/MOL
REMARK 923 INTER-LIGAND FREE ENERGY PREDICTED BY IDOCK:   -7.13 KCAL/MOL
REMARK 924 INTRA-LIGAND FREE ENERGY PREDICTED BY IDOCK:   -0.94 KCAL/MOL
REMARK 927      BINDING AFFINITY PREDICTED BY RF-SCORE:    0.00 PKD
ROOT
HETATM    1  C   UNL     1      -6.994   9.866  62.745  1.00  0.00    -0.119 C  
HETATM    2  C   UNL     1      -8.490   9.852  62.942  1.00  0.00    -0.172 C  
ENDROOT
BRANCH   2   3
HETATM    3  C   UNL     1      -8.877   9.832  64.439  1.00  0.00    -0.258 C  
BRANCH   3   4
HETATM    4  C   UNL     1     -10.027  10.805  64.744  1.00  0.00    -0.382 C  
BRANCH   4   5
HETATM    5  C   UNL     1     -10.142  11.912  63.689  1.00  0.00    -0.450 C  
BRANCH   5   6
HETATM    6  C   UNL     1     -11.370  12.809  63.917  1.00  0.00    -0.498 C  
BRANCH   6   7
HETATM    7  C   UNL     1     -10.985  14.078  64.692  1.00  0.00    -0.401 C  
BRANCH   7   8
HETATM    8  C   UNL     1     -11.751  14.292  66.004  1.00  0.00    -0.384 C  
BRANCH   8   9
HETATM    9  C   UNL     1     -10.896  14.463  67.249  1.00  0.00    -0.290 C  
BRANCH   9  10
HETATM   10  C   UNL     1     -10.344  13.167  67.834  1.00  0.00    -0.232 C  
BRANCH  10  11
HETATM   11  C   UNL     1     -10.979  11.757  67.680  1.00  0.00    -0.233 C  
HETATM   12  O   UNL     1     -12.199  11.697  67.501  1.00  0.00    -0.501 OA 
BRANCH  11  13
HETATM   13  O   UNL     1     -10.224  10.620  67.956  1.00  0.00    -0.165 OA 
BRANCH  13  14
HETATM   14  C   UNL     1     -10.894   9.548  68.838  1.00  0.00    -0.150 C  
HETATM   15  C   UNL     1     -10.170   9.868  70.151  1.00  0.00    -0.326 C  
HETATM   16  C   UNL     1      -8.794   9.339  69.736  1.00  0.00    -0.174 C  
HETATM   17  C   UNL     1      -9.200   7.899  69.561  1.00  0.00    -0.152 C  
HETATM   18  C   UNL     1      -8.191   6.800  69.896  1.00  0.00    -0.127 C  
HETATM   19  C   UNL     1      -7.397   7.419  71.073  1.00  0.00    -0.073 C  
HETATM   20  C   UNL     1      -6.703   6.502  72.009  1.00  0.00    -0.063 C  
HETATM   21  C   UNL     1      -7.641   5.347  72.409  1.00  0.00    -0.097 C  
HETATM   22  C   UNL     1      -7.474   4.809  73.614  1.00  0.00    -0.090 C  
HETATM   23  C   UNL     1      -6.083   4.282  73.530  1.00  0.00    -0.023 C  
HETATM   24  O   UNL     1      -5.321   4.405  74.467  1.00  0.00    -0.007 OA 
HETATM   25  C   UNL     1      -5.718   3.616  72.167  1.00  0.00    -0.008 C  
HETATM   26  C   UNL     1      -6.646   3.922  70.871  1.00  0.00    -0.031 C  
HETATM   27  C   UNL     1      -8.084   4.483  71.215  1.00  0.00    -0.087 C  
HETATM   28  C   UNL     1      -8.914   3.235  71.550  1.00  0.00    -0.153 C  
HETATM   29  C   UNL     1      -8.978   5.546  70.381  1.00  0.00    -0.156 C  
HETATM   30  C   UNL     1     -10.137   5.269  69.344  1.00  0.00    -0.311 C  
HETATM   31  C   UNL     1     -11.145   6.571  69.153  1.00  0.00    -0.387 C  
HETATM   32  C   UNL     1     -10.408   7.897  68.589  1.00  0.00    -0.224 C  
HETATM   33  C   UNL     1     -10.357   7.681  67.075  1.00  0.00    -0.400 C  
ENDBRANCH  13  14
ENDBRANCH  11  13
ENDBRANCH  10  11
ENDBRANCH   9  10
ENDBRANCH   8   9
ENDBRANCH   7   8
ENDBRANCH   6   7
ENDBRANCH   5   6
ENDBRANCH   4   5
ENDBRANCH   3   4
ENDBRANCH   2   3
TORSDOF 11
ENDMDL
MODEL      128
REMARK 921   NORMALIZED FREE ENERGY PREDICTED BY IDOCK:   -3.56 KCAL/MOL
REMARK 922        TOTAL FREE ENERGY PREDICTED BY IDOCK:   -8.03 KCAL/MOL
REMARK 923 INTER-LIGAND FREE ENERGY PREDICTED BY IDOCK:   -6.17 KCAL/MOL
REMARK 924 INTRA-LIGAND FREE ENERGY PREDICTED BY IDOCK:   -1.86 KCAL/MOL
REMARK 927      BINDING AFFINITY PREDICTED BY RF-SCORE:    0.00 PKD
ROOT
HETATM    1  C   UNL     1     -10.390  10.966  64.130  1.00  0.00    -0.432 C  
HETATM    2  C   UNL     1     -10.862  12.054  63.198  1.00  0.00    -0.275 C  
ENDROOT
BRANCH   2   3
HETATM    3  C   UNL     1     -11.802  13.057  63.906  1.00  0.00    -0.542 C  
BRANCH   3   4
HETATM    4  C   UNL     1     -12.255  12.542  65.281  1.00  0.00    -0.493 C  
BRANCH   4   5
HETATM    5  C   UNL     1     -12.119  13.609  66.373  1.00  0.00    -0.478 C  
BRANCH   5   6
HETATM    6  C   UNL     1     -10.959  13.312  67.338  1.00  0.00    -0.287 C  
BRANCH   6   7
HETATM    7  C   UNL     1      -9.681  14.044  66.898  1.00  0.00    -0.272 C  
BRANCH   7   8
HETATM    8  C   UNL     1      -9.291  15.244  67.770  1.00  0.00    -0.196 C  
BRANCH   8   9
HETATM    9  C   UNL     1      -8.561  14.913  69.062  1.00  0.00    -0.170 C  
BRANCH   9  10
HETATM   10  C   UNL     1      -7.142  14.385  68.882  1.00  0.00    -0.116 C  
BRANCH  10  11
HETATM   11  C   UNL     1      -6.547  13.124  69.569  1.00  0.00    -0.034 C  
HETATM   12  O   UNL     1      -5.857  13.295  70.578  1.00  0.00    -0.167 OA 
BRANCH  11  13
HETATM   13  O   UNL     1      -6.617  11.888  68.933  1.00  0.00    -0.073 OA 
BRANCH  13  14
HETATM   14  C   UNL     1      -7.999  11.205  68.909  1.00  0.00    -0.126 C  
HETATM   15  C   UNL     1      -7.749  10.176  70.019  1.00  0.00    -0.150 C  
HETATM   16  C   UNL     1      -6.776   9.292  69.234  1.00  0.00    -0.049 C  
HETATM   17  C   UNL     1      -7.748   8.860  68.166  1.00  0.00    -0.100 C  
HETATM   18  C   UNL     1      -7.621   7.456  67.575  1.00  0.00    -0.106 C  
HETATM   19  C   UNL     1      -7.117   6.626  68.781  1.00  0.00    -0.082 C  
HETATM   20  C   UNL     1      -7.368   5.165  68.779  1.00  0.00    -0.062 C  
HETATM   21  C   UNL     1      -8.826   4.879  68.372  1.00  0.00    -0.115 C  
HETATM   22  C   UNL     1      -9.401   3.788  68.872  1.00  0.00    -0.234 C  
HETATM   23  C   UNL     1      -8.537   2.704  68.328  1.00  0.00    -0.081 C  
HETATM   24  O   UNL     1      -8.217   1.764  69.026  1.00  0.00    -0.048 OA 
HETATM   25  C   UNL     1      -8.084   2.909  66.849  1.00  0.00    -0.080 C  
HETATM   26  C   UNL     1      -8.189   4.391  66.195  1.00  0.00    -0.102 C  
HETATM   27  C   UNL     1      -9.169   5.372  66.956  1.00  0.00    -0.113 C  
HETATM   28  C   UNL     1     -10.565   5.008  66.428  1.00  0.00    -0.317 C  
HETATM   29  C   UNL     1      -9.041   6.976  67.148  1.00  0.00    -0.137 C  
HETATM   30  C   UNL     1      -9.713   8.132  66.309  1.00  0.00    -0.223 C  
HETATM   31  C   UNL     1      -9.791   9.563  67.143  1.00  0.00    -0.239 C  
HETATM   32  C   UNL     1      -8.346  10.158  67.565  1.00  0.00    -0.118 C  
HETATM   33  C   UNL     1      -7.861  10.886  66.309  1.00  0.00    -0.158 C  
ENDBRANCH  13  14
ENDBRANCH  11  13
ENDBRANCH  10  11
ENDBRANCH   9  10
ENDBRANCH   8   9
ENDBRANCH   7   8
ENDBRANCH   6   7
ENDBRANCH   5   6
ENDBRANCH   4   5
ENDBRANCH   3   4
ENDBRANCH   2   3
TORSDOF 11
ENDMDL
MODEL      129
REMARK 921   NORMALIZED FREE ENERGY PREDICTED BY IDOCK:   -3.55 KCAL/MOL
REMARK 922        TOTAL FREE ENERGY PREDICTED BY IDOCK:   -8.02 KCAL/MOL
REMARK 923 INTER-LIGAND FREE ENERGY PREDICTED BY IDOCK:   -5.47 KCAL/MOL
REMARK 924 INTRA-LIGAND FREE ENERGY PREDICTED BY IDOCK:   -2.55 KCAL/MOL
REMARK 927      BINDING AFFINITY PREDICTED BY RF-SCORE:    0.00 PKD
ROOT
HETATM    1  C   UNL     1      -8.495  10.500  63.208  1.00  0.00    -0.157 C  
HETATM    2  C   UNL     1      -8.652   9.039  63.547  1.00  0.00    -0.146 C  
ENDROOT
BRANCH   2   3
HETATM    3  C   UNL     1      -8.023   8.690  64.915  1.00  0.00    -0.138 C  
BRANCH   3   4
HETATM    4  C   UNL     1      -8.502   7.324  65.432  1.00  0.00    -0.096 C  
BRANCH   4   5
HETATM    5  C   UNL     1      -7.405   6.256  65.350  1.00  0.00    -0.076 C  
BRANCH   5   6
HETATM    6  C   UNL     1      -6.950   5.779  66.739  1.00  0.00    -0.065 C  
BRANCH   6   7
HETATM    7  C   UNL     1      -7.353   4.315  66.973  1.00  0.00    -0.073 C  
BRANCH   7   8
HETATM    8  C   UNL     1      -6.922   3.734  68.325  1.00  0.00    -0.051 C  
BRANCH   8   9
HETATM    9  C   UNL     1      -5.936   4.573  69.122  1.00  0.00    -0.022 C  
BRANCH   9  10
HETATM   10  C   UNL     1      -6.533   5.302  70.321  1.00  0.00    -0.034 C  
BRANCH  10  11
HETATM   11  C   UNL     1      -8.035   5.652  70.517  1.00  0.00    -0.104 C  
HETATM   12  O   UNL     1      -8.695   4.933  71.272  1.00  0.00    -0.123 OA 
BRANCH  11  13
HETATM   13  O   UNL     1      -8.640   6.601  69.697  1.00  0.00    -0.131 OA 
BRANCH  13  14
HETATM   14  C   UNL     1      -8.644   8.052  70.215  1.00  0.00    -0.132 C  
HETATM   15  C   UNL     1     -10.149   8.320  70.092  1.00  0.00    -0.191 C  
HETATM   16  C   UNL     1     -10.203   8.369  68.562  1.00  0.00    -0.228 C  
HETATM   17  C   UNL     1      -9.321   9.578  68.390  1.00  0.00    -0.137 C  
HETATM   18  C   UNL     1      -9.600  10.538  67.234  1.00  0.00    -0.188 C  
HETATM   19  C   UNL     1     -11.142  10.471  67.105  1.00  0.00    -0.232 C  
HETATM   20  C   UNL     1     -11.842  11.619  66.479  1.00  0.00     0.128 C  
HETATM   21  C   UNL     1     -11.307  12.943  67.056  1.00  0.00    -0.355 C  
HETATM   22  C   UNL     1     -12.147  13.974  67.109  1.00  0.00    -0.436 C  
HETATM   23  C   UNL     1     -12.476  14.182  65.672  1.00  0.00    -0.469 C  
HETATM   24  O   UNL     1     -13.615  14.427  65.331  1.00  0.00    -0.428 OA 
HETATM   25  C   UNL     1     -11.268  14.030  64.696  1.00  0.00    -0.377 C  
HETATM   26  C   UNL     1      -9.934  13.264  65.213  1.00  0.00    -0.192 C  
HETATM   27  C   UNL     1      -9.808  13.161  66.787  1.00  0.00    -0.251 C  
HETATM   28  C   UNL     1      -9.230  14.518  67.216  1.00  0.00    -0.213 C  
HETATM   29  C   UNL     1      -9.160  11.968  67.670  1.00  0.00    -0.179 C  
HETATM   30  C   UNL     1      -7.708  11.864  68.282  1.00  0.00    -0.127 C  
HETATM   31  C   UNL     1      -7.624  10.799  69.550  1.00  0.00    -0.094 C  
HETATM   32  C   UNL     1      -8.007   9.277  69.157  1.00  0.00    -0.097 C  
HETATM   33  C   UNL     1      -6.716   8.709  68.562  1.00  0.00    -0.060 C  
ENDBRANCH  13  14
ENDBRANCH  11  13
ENDBRANCH  10  11
ENDBRANCH   9  10
ENDBRANCH   8   9
ENDBRANCH   7   8
ENDBRANCH   6   7
ENDBRANCH   5   6
ENDBRANCH   4   5
ENDBRANCH   3   4
ENDBRANCH   2   3
TORSDOF 11
ENDMDL
MODEL      130
REMARK 921   NORMALIZED FREE ENERGY PREDICTED BY IDOCK:   -3.55 KCAL/MOL
REMARK 922        TOTAL FREE ENERGY PREDICTED BY IDOCK:   -8.01 KCAL/MOL
REMARK 923 INTER-LIGAND FREE ENERGY PREDICTED BY IDOCK:   -7.05 KCAL/MOL
REMARK 924 INTRA-LIGAND FREE ENERGY PREDICTED BY IDOCK:   -0.97 KCAL/MOL
REMARK 927      BINDING AFFINITY PREDICTED BY RF-SCORE:    0.00 PKD
ROOT
HETATM    1  C   UNL     1      -9.818  19.840  68.025  1.00  0.00    -0.533 C  
HETATM    2  C   UNL     1      -9.338  18.934  69.131  1.00  0.00    -0.150 C  
ENDROOT
BRANCH   2   3
HETATM    3  C   UNL     1      -9.232  17.462  68.671  1.00  0.00    -0.265 C  
BRANCH   3   4
HETATM    4  C   UNL     1      -9.651  17.292  67.202  1.00  0.00    -0.257 C  
BRANCH   4   5
HETATM    5  C   UNL     1      -8.859  16.182  66.500  1.00  0.00    -0.331 C  
BRANCH   5   6
HETATM    6  C   UNL     1      -9.646  14.864  66.422  1.00  0.00    -0.317 C  
BRANCH   6   7
HETATM    7  C   UNL     1     -11.138  15.131  66.171  1.00  0.00    -0.311 C  
BRANCH   7   8
HETATM    8  C   UNL     1     -12.064  13.941  66.450  1.00  0.00    -0.489 C  
BRANCH   8   9
HETATM    9  C   UNL     1     -11.453  12.564  66.245  1.00  0.00    -0.421 C  
BRANCH   9  10
HETATM   10  C   UNL     1     -11.526  11.641  67.455  1.00  0.00    -0.360 C  
BRANCH  10  11
HETATM   11  C   UNL     1     -10.730  11.813  68.780  1.00  0.00    -0.221 C  
HETATM   12  O   UNL     1     -10.351  12.950  69.074  1.00  0.00    -0.094 OA 
BRANCH  11  13
HETATM   13  O   UNL     1     -10.287  10.692  69.475  1.00  0.00    -0.223 OA 
BRANCH  13  14
HETATM   14  C   UNL     1     -10.954   9.351  69.113  1.00  0.00    -0.090 C  
HETATM   15  C   UNL     1     -11.409   8.950  70.522  1.00  0.00    -0.268 C  
HETATM   16  C   UNL     1     -10.017   8.644  71.084  1.00  0.00    -0.289 C  
HETATM   17  C   UNL     1      -9.699   7.495  70.162  1.00  0.00    -0.172 C  
HETATM   18  C   UNL     1      -8.852   6.337  70.688  1.00  0.00    -0.144 C  
HETATM   19  C   UNL     1      -9.271   6.261  72.177  1.00  0.00    -0.144 C  
HETATM   20  C   UNL     1      -9.088   4.975  72.892  1.00  0.00    -0.127 C  
HETATM   21  C   UNL     1      -9.602   3.811  72.024  1.00  0.00    -0.213 C  
HETATM   22  C   UNL     1     -10.081   2.741  72.653  1.00  0.00    -0.232 C  
HETATM   23  C   UNL     1      -8.894   2.272  73.419  1.00  0.00    -0.070 C  
HETATM   24  O   UNL     1      -9.014   1.886  74.564  1.00  0.00    -0.060 OA 
HETATM   25  C   UNL     1      -7.542   2.354  72.645  1.00  0.00    -0.051 C  
HETATM   26  C   UNL     1      -7.448   3.296  71.327  1.00  0.00    -0.037 C  
HETATM   27  C   UNL     1      -8.848   3.669  70.690  1.00  0.00    -0.138 C  
HETATM   28  C   UNL     1      -9.214   2.451  69.828  1.00  0.00    -0.188 C  
HETATM   29  C   UNL     1      -9.283   5.039  69.943  1.00  0.00    -0.175 C  
HETATM   30  C   UNL     1      -9.320   5.356  68.396  1.00  0.00    -0.138 C  
HETATM   31  C   UNL     1     -10.328   6.620  68.028  1.00  0.00    -0.226 C  
HETATM   32  C   UNL     1      -9.905   8.021  68.718  1.00  0.00    -0.176 C  
HETATM   33  C   UNL     1      -8.823   8.581  67.792  1.00  0.00    -0.137 C  
ENDBRANCH  13  14
ENDBRANCH  11  13
ENDBRANCH  10  11
ENDBRANCH   9  10
ENDBRANCH   8   9
ENDBRANCH   7   8
ENDBRANCH   6   7
ENDBRANCH   5   6
ENDBRANCH   4   5
ENDBRANCH   3   4
ENDBRANCH   2   3
TORSDOF 11
ENDMDL
MODEL      131
REMARK 921   NORMALIZED FREE ENERGY PREDICTED BY IDOCK:   -3.53 KCAL/MOL
REMARK 922        TOTAL FREE ENERGY PREDICTED BY IDOCK:   -7.98 KCAL/MOL
REMARK 923 INTER-LIGAND FREE ENERGY PREDICTED BY IDOCK:   -6.74 KCAL/MOL
REMARK 924 INTRA-LIGAND FREE ENERGY PREDICTED BY IDOCK:   -1.25 KCAL/MOL
REMARK 927      BINDING AFFINITY PREDICTED BY RF-SCORE:    0.00 PKD
ROOT
HETATM    1  C   UNL     1     -10.507  18.525  66.076  1.00  0.00    -0.433 C  
HETATM    2  C   UNL     1     -10.524  19.017  67.502  1.00  0.00    -0.537 C  
ENDROOT
BRANCH   2   3
HETATM    3  C   UNL     1     -10.283  17.874  68.514  1.00  0.00    -0.393 C  
BRANCH   3   4
HETATM    4  C   UNL     1     -10.834  16.533  68.002  1.00  0.00    -0.337 C  
BRANCH   4   5
HETATM    5  C   UNL     1     -11.357  15.650  69.141  1.00  0.00    -0.341 C  
BRANCH   5   6
HETATM    6  C   UNL     1     -11.924  14.315  68.631  1.00  0.00    -0.348 C  
BRANCH   6   7
HETATM    7  C   UNL     1     -11.996  14.302  67.097  1.00  0.00    -0.449 C  
BRANCH   7   8
HETATM    8  C   UNL     1     -11.723  12.939  66.448  1.00  0.00    -0.454 C  
BRANCH   8   9
HETATM    9  C   UNL     1     -10.365  12.783  65.783  1.00  0.00    -0.297 C  
BRANCH   9  10
HETATM   10  C   UNL     1      -9.178  13.229  66.630  1.00  0.00    -0.222 C  
BRANCH  10  11
HETATM   11  C   UNL     1      -8.880  12.778  68.088  1.00  0.00    -0.194 C  
HETATM   12  O   UNL     1      -8.096  13.464  68.749  1.00  0.00    -0.081 OA 
BRANCH  11  13
HETATM   13  O   UNL     1      -9.316  11.533  68.532  1.00  0.00    -0.184 OA 
BRANCH  13  14
HETATM   14  C   UNL     1      -8.244  10.608  69.142  1.00  0.00    -0.139 C  
HETATM   15  C   UNL     1      -7.619  10.112  67.832  1.00  0.00    -0.089 C  
HETATM   16  C   UNL     1      -8.795   9.237  67.387  1.00  0.00    -0.124 C  
HETATM   17  C   UNL     1      -8.738   8.262  68.535  1.00  0.00    -0.133 C  
HETATM   18  C   UNL     1      -9.112   6.801  68.283  1.00  0.00    -0.124 C  
HETATM   19  C   UNL     1      -8.629   6.574  66.830  1.00  0.00    -0.117 C  
HETATM   20  C   UNL     1      -8.327   5.187  66.401  1.00  0.00    -0.108 C  
HETATM   21  C   UNL     1      -7.482   4.474  67.473  1.00  0.00    -0.074 C  
HETATM   22  C   UNL     1      -6.638   3.531  67.063  1.00  0.00    -0.038 C  
HETATM   23  C   UNL     1      -7.557   2.536  66.445  1.00  0.00    -0.071 C  
HETATM   24  O   UNL     1      -7.262   1.992  65.401  1.00  0.00    -0.054 OA 
HETATM   25  C   UNL     1      -8.887   2.302  67.227  1.00  0.00    -0.156 C  
HETATM   26  C   UNL     1      -9.355   3.401  68.326  1.00  0.00    -0.239 C  
HETATM   27  C   UNL     1      -8.198   4.354  68.829  1.00  0.00    -0.083 C  
HETATM   28  C   UNL     1      -7.473   3.540  69.911  1.00  0.00    -0.045 C  
HETATM   29  C   UNL     1      -8.293   5.911  69.266  1.00  0.00    -0.113 C  
HETATM   30  C   UNL     1      -8.434   6.529  70.713  1.00  0.00    -0.134 C  
HETATM   31  C   UNL     1      -7.939   8.110  70.783  1.00  0.00    -0.097 C  
HETATM   32  C   UNL     1      -8.788   9.108  69.834  1.00  0.00    -0.176 C  
HETATM   33  C   UNL     1     -10.036   9.435  70.657  1.00  0.00    -0.349 C  
ENDBRANCH  13  14
ENDBRANCH  11  13
ENDBRANCH  10  11
ENDBRANCH   9  10
ENDBRANCH   8   9
ENDBRANCH   7   8
ENDBRANCH   6   7
ENDBRANCH   5   6
ENDBRANCH   4   5
ENDBRANCH   3   4
ENDBRANCH   2   3
TORSDOF 11
ENDMDL
MODEL      132
REMARK 921   NORMALIZED FREE ENERGY PREDICTED BY IDOCK:   -3.52 KCAL/MOL
REMARK 922        TOTAL FREE ENERGY PREDICTED BY IDOCK:   -7.96 KCAL/MOL
REMARK 923 INTER-LIGAND FREE ENERGY PREDICTED BY IDOCK:   -5.97 KCAL/MOL
REMARK 924 INTRA-LIGAND FREE ENERGY PREDICTED BY IDOCK:   -2.00 KCAL/MOL
REMARK 927      BINDING AFFINITY PREDICTED BY RF-SCORE:    0.00 PKD
ROOT
HETATM    1  C   UNL     1     -10.686  15.930  67.823  1.00  0.00    -0.320 C  
HETATM    2  C   UNL     1     -11.601  14.748  68.028  1.00  0.00    -0.367 C  
ENDROOT
BRANCH   2   3
HETATM    3  C   UNL     1     -12.170  14.216  66.693  1.00  0.00    -0.450 C  
BRANCH   3   4
HETATM    4  C   UNL     1     -11.423  12.962  66.214  1.00  0.00    -0.395 C  
BRANCH   4   5
HETATM    5  C   UNL     1     -11.350  11.882  67.300  1.00  0.00    -0.393 C  
BRANCH   5   6
HETATM    6  C   UNL     1      -9.902  11.557  67.703  1.00  0.00    -0.192 C  
BRANCH   6   7
HETATM    7  C   UNL     1      -8.908  12.436  66.929  1.00  0.00    -0.205 C  
BRANCH   7   8
HETATM    8  C   UNL     1      -8.039  13.351  67.801  1.00  0.00    -0.173 C  
BRANCH   8   9
HETATM    9  C   UNL     1      -6.538  13.130  67.700  1.00  0.00    -0.165 C  
BRANCH   9  10
HETATM   10  C   UNL     1      -5.834  12.883  69.029  1.00  0.00    -0.079 C  
BRANCH  10  11
HETATM   11  C   UNL     1      -6.264  11.850  70.108  1.00  0.00    -0.087 C  
HETATM   12  O   UNL     1      -5.560  11.751  71.117  1.00  0.00    -0.346 OA 
BRANCH  11  13
HETATM   13  O   UNL     1      -7.274  10.933  69.829  1.00  0.00    -0.136 OA 
BRANCH  13  14
HETATM   14  C   UNL     1      -6.953   9.452  70.110  1.00  0.00    -0.077 C  
HETATM   15  C   UNL     1      -6.131   9.167  68.848  1.00  0.00    -0.044 C  
HETATM   16  C   UNL     1      -7.296   9.213  67.855  1.00  0.00    -0.084 C  
HETATM   17  C   UNL     1      -8.051   8.032  68.408  1.00  0.00    -0.122 C  
HETATM   18  C   UNL     1      -8.838   7.142  67.447  1.00  0.00    -0.119 C  
HETATM   19  C   UNL     1      -7.978   7.190  66.161  1.00  0.00    -0.112 C  
HETATM   20  C   UNL     1      -8.099   6.072  65.194  1.00  0.00    -0.132 C  
HETATM   21  C   UNL     1      -8.060   4.724  65.938  1.00  0.00    -0.107 C  
HETATM   22  C   UNL     1      -7.559   3.677  65.286  1.00  0.00    -0.078 C  
HETATM   23  C   UNL     1      -8.491   3.554  64.131  1.00  0.00    -0.090 C  
HETATM   24  O   UNL     1      -8.064   3.312  63.021  1.00  0.00    -0.071 OA 
HETATM   25  C   UNL     1      -9.994   3.788  64.476  1.00  0.00    -0.201 C  
HETATM   26  C   UNL     1     -10.373   4.543  65.862  1.00  0.00    -0.289 C  
HETATM   27  C   UNL     1      -9.215   4.549  66.940  1.00  0.00    -0.142 C  
HETATM   28  C   UNL     1      -9.320   3.178  67.624  1.00  0.00    -0.247 C  
HETATM   29  C   UNL     1      -8.856   5.695  68.027  1.00  0.00    -0.105 C  
HETATM   30  C   UNL     1      -9.274   5.786  69.547  1.00  0.00    -0.150 C  
HETATM   31  C   UNL     1      -8.271   6.771  70.427  1.00  0.00    -0.125 C  
HETATM   32  C   UNL     1      -8.249   8.307  69.922  1.00  0.00    -0.123 C  
HETATM   33  C   UNL     1      -9.482   8.933  70.578  1.00  0.00    -0.243 C  
ENDBRANCH  13  14
ENDBRANCH  11  13
ENDBRANCH  10  11
ENDBRANCH   9  10
ENDBRANCH   8   9
ENDBRANCH   7   8
ENDBRANCH   6   7
ENDBRANCH   5   6
ENDBRANCH   4   5
ENDBRANCH   3   4
ENDBRANCH   2   3
TORSDOF 11
ENDMDL
MODEL      133
REMARK 921   NORMALIZED FREE ENERGY PREDICTED BY IDOCK:   -3.51 KCAL/MOL
REMARK 922        TOTAL FREE ENERGY PREDICTED BY IDOCK:   -7.95 KCAL/MOL
REMARK 923 INTER-LIGAND FREE ENERGY PREDICTED BY IDOCK:   -6.77 KCAL/MOL
REMARK 924 INTRA-LIGAND FREE ENERGY PREDICTED BY IDOCK:   -1.19 KCAL/MOL
REMARK 927      BINDING AFFINITY PREDICTED BY RF-SCORE:    0.00 PKD
ROOT
HETATM    1  C   UNL     1      -9.376  19.980  67.088  1.00  0.00    -0.502 C  
HETATM    2  C   UNL     1      -8.886  18.570  67.305  1.00  0.00    -0.276 C  
ENDROOT
BRANCH   2   3
HETATM    3  C   UNL     1      -9.927  17.519  66.857  1.00  0.00    -0.313 C  
BRANCH   3   4
HETATM    4  C   UNL     1      -9.258  16.276  66.250  1.00  0.00    -0.363 C  
BRANCH   4   5
HETATM    5  C   UNL     1      -7.732  16.312  66.394  1.00  0.00    -0.193 C  
BRANCH   5   6
HETATM    6  C   UNL     1      -7.233  15.423  67.545  1.00  0.00    -0.224 C  
BRANCH   6   7
HETATM    7  C   UNL     1      -7.791  15.906  68.892  1.00  0.00    -0.198 C  
BRANCH   7   8
HETATM    8  C   UNL     1      -8.797  14.957  69.553  1.00  0.00     0.021 C  
BRANCH   8   9
HETATM    9  C   UNL     1     -10.094  15.593  70.026  1.00  0.00    -0.220 C  
BRANCH   9  10
HETATM   10  C   UNL     1     -11.285  15.399  69.093  1.00  0.00    -0.291 C  
BRANCH  10  11
HETATM   11  C   UNL     1     -11.540  14.159  68.191  1.00  0.00    -0.331 C  
HETATM   12  O   UNL     1     -12.219  14.324  67.173  1.00  0.00    -0.410 OA 
BRANCH  11  13
HETATM   13  O   UNL     1     -11.196  12.888  68.643  1.00  0.00    -0.248 OA 
BRANCH  13  14
HETATM   14  C   UNL     1     -11.488  11.716  67.685  1.00  0.00    -0.303 C  
HETATM   15  C   UNL     1     -12.083  10.744  68.711  1.00  0.00    -0.042 C  
HETATM   16  C   UNL     1     -10.777  10.432  69.447  1.00  0.00    -0.277 C  
HETATM   17  C   UNL     1     -10.066   9.784  68.287  1.00  0.00    -0.189 C  
HETATM   18  C   UNL     1      -9.095   8.637  68.562  1.00  0.00    -0.138 C  
HETATM   19  C   UNL     1      -9.738   7.934  69.782  1.00  0.00    -0.176 C  
HETATM   20  C   UNL     1      -9.411   6.508  70.023  1.00  0.00    -0.160 C  
HETATM   21  C   UNL     1      -9.506   5.715  68.706  1.00  0.00    -0.155 C  
HETATM   22  C   UNL     1      -9.847   4.431  68.786  1.00  0.00    -0.149 C  
HETATM   23  C   UNL     1      -8.737   3.864  69.601  1.00  0.00    -0.077 C  
HETATM   24  O   UNL     1      -8.968   3.052  70.474  1.00  0.00    -0.081 OA 
HETATM   25  C   UNL     1      -7.321   4.419  69.253  1.00  0.00    -0.052 C  
HETATM   26  C   UNL     1      -7.205   5.803  68.413  1.00  0.00    -0.079 C  
HETATM   27  C   UNL     1      -8.520   6.203  67.630  1.00  0.00    -0.108 C  
HETATM   28  C   UNL     1      -8.463   5.378  66.336  1.00  0.00    -0.114 C  
HETATM   29  C   UNL     1      -9.103   7.684  67.329  1.00  0.00    -0.142 C  
HETATM   30  C   UNL     1      -8.939   8.569  66.031  1.00  0.00    -0.228 C  
HETATM   31  C   UNL     1     -10.115   9.730  65.897  1.00  0.00    -0.314 C  
HETATM   32  C   UNL     1     -10.127  10.797  67.114  1.00  0.00    -0.243 C  
HETATM   33  C   UNL     1      -9.046  11.811  66.732  1.00  0.00    -0.194 C  
ENDBRANCH  13  14
ENDBRANCH  11  13
ENDBRANCH  10  11
ENDBRANCH   9  10
ENDBRANCH   8   9
ENDBRANCH   7   8
ENDBRANCH   6   7
ENDBRANCH   5   6
ENDBRANCH   4   5
ENDBRANCH   3   4
ENDBRANCH   2   3
TORSDOF 11
ENDMDL
MODEL      134
REMARK 921   NORMALIZED FREE ENERGY PREDICTED BY IDOCK:   -3.50 KCAL/MOL
REMARK 922        TOTAL FREE ENERGY PREDICTED BY IDOCK:   -7.93 KCAL/MOL
REMARK 923 INTER-LIGAND FREE ENERGY PREDICTED BY IDOCK:   -5.74 KCAL/MOL
REMARK 924 INTRA-LIGAND FREE ENERGY PREDICTED BY IDOCK:   -2.19 KCAL/MOL
REMARK 927      BINDING AFFINITY PREDICTED BY RF-SCORE:    0.00 PKD
ROOT
HETATM    1  C   UNL     1      -8.098   9.658  69.979  1.00  0.00    -0.190 C  
HETATM    2  C   UNL     1      -8.530  10.045  68.587  1.00  0.00    -0.118 C  
ENDROOT
BRANCH   2   3
HETATM    3  C   UNL     1      -7.324  10.339  67.665  1.00  0.00    -0.088 C  
BRANCH   3   4
HETATM    4  C   UNL     1      -7.514   9.733  66.266  1.00  0.00    -0.100 C  
BRANCH   4   5
HETATM    5  C   UNL     1      -7.108   8.255  66.215  1.00  0.00    -0.070 C  
BRANCH   5   6
HETATM    6  C   UNL     1      -7.309   7.642  64.819  1.00  0.00    -0.076 C  
BRANCH   6   7
HETATM    7  C   UNL     1      -6.177   6.659  64.485  1.00  0.00    -0.035 C  
BRANCH   7   8
HETATM    8  C   UNL     1      -6.087   6.254  63.009  1.00  0.00    -0.026 C  
BRANCH   8   9
HETATM    9  C   UNL     1      -5.639   4.827  62.740  1.00  0.00    -0.013 C  
BRANCH   9  10
HETATM   10  C   UNL     1      -6.127   3.797  63.753  1.00  0.00    -0.015 C  
BRANCH  10  11
HETATM   11  C   UNL     1      -7.606   3.379  63.984  1.00  0.00    -0.075 C  
HETATM   12  O   UNL     1      -8.026   2.399  63.361  1.00  0.00    -0.070 OA 
BRANCH  11  13
HETATM   13  O   UNL     1      -8.463   4.216  64.693  1.00  0.00    -0.105 OA 
BRANCH  13  14
HETATM   14  C   UNL     1      -9.322   3.551  65.787  1.00  0.00    -0.157 C  
HETATM   15  C   UNL     1     -10.496   4.538  65.767  1.00  0.00    -0.268 C  
HETATM   16  C   UNL     1      -9.755   5.717  66.405  1.00  0.00    -0.175 C  
HETATM   17  C   UNL     1      -9.489   5.064  67.736  1.00  0.00    -0.159 C  
HETATM   18  C   UNL     1      -9.482   5.930  68.996  1.00  0.00    -0.149 C  
HETATM   19  C   UNL     1     -10.545   7.008  68.672  1.00  0.00    -0.238 C  
HETATM   20  C   UNL     1     -11.207   7.702  69.803  1.00  0.00    -0.042 C  
HETATM   21  C   UNL     1     -11.640   6.679  70.870  1.00  0.00    -0.416 C  
HETATM   22  C   UNL     1     -12.713   6.970  71.600  1.00  0.00    -0.417 C  
HETATM   23  C   UNL     1     -12.292   8.222  72.288  1.00  0.00    -0.356 C  
HETATM   24  O   UNL     1     -13.068   9.148  72.408  1.00  0.00    -0.420 OA 
HETATM   25  C   UNL     1     -10.813   8.229  72.784  1.00  0.00    -0.308 C  
HETATM   26  C   UNL     1      -9.773   7.147  72.167  1.00  0.00    -0.163 C  
HETATM   27  C   UNL     1     -10.460   5.900  71.478  1.00  0.00    -0.287 C  
HETATM   28  C   UNL     1     -10.797   4.955  72.642  1.00  0.00    -0.264 C  
HETATM   29  C   UNL     1      -9.955   5.052  70.194  1.00  0.00    -0.328 C  
HETATM   30  C   UNL     1      -9.142   3.699  70.156  1.00  0.00    -0.199 C  
HETATM   31  C   UNL     1      -9.314   2.892  68.718  1.00  0.00    -0.234 C  
HETATM   32  C   UNL     1      -8.783   3.718  67.432  1.00  0.00    -0.125 C  
HETATM   33  C   UNL     1      -7.274   3.465  67.423  1.00  0.00    -0.059 C  
ENDBRANCH  13  14
ENDBRANCH  11  13
ENDBRANCH  10  11
ENDBRANCH   9  10
ENDBRANCH   8   9
ENDBRANCH   7   8
ENDBRANCH   6   7
ENDBRANCH   5   6
ENDBRANCH   4   5
ENDBRANCH   3   4
ENDBRANCH   2   3
TORSDOF 11
ENDMDL
MODEL      135
REMARK 921   NORMALIZED FREE ENERGY PREDICTED BY IDOCK:   -3.46 KCAL/MOL
REMARK 922        TOTAL FREE ENERGY PREDICTED BY IDOCK:   -7.87 KCAL/MOL
REMARK 923 INTER-LIGAND FREE ENERGY PREDICTED BY IDOCK:   -6.27 KCAL/MOL
REMARK 924 INTRA-LIGAND FREE ENERGY PREDICTED BY IDOCK:   -1.61 KCAL/MOL
REMARK 927      BINDING AFFINITY PREDICTED BY RF-SCORE:    0.00 PKD
ROOT
HETATM    1  C   UNL     1     -10.528  15.671  66.284  1.00  0.00    -0.313 C  
HETATM    2  C   UNL     1      -9.876  16.280  67.501  1.00  0.00    -0.238 C  
ENDROOT
BRANCH   2   3
HETATM    3  C   UNL     1     -10.916  16.724  68.555  1.00  0.00    -0.312 C  
BRANCH   3   4
HETATM    4  C   UNL     1     -10.965  15.758  69.750  1.00  0.00    -0.316 C  
BRANCH   4   5
HETATM    5  C   UNL     1     -12.401  15.480  70.210  1.00  0.00    -0.431 C  
BRANCH   5   6
HETATM    6  C   UNL     1     -12.645  13.989  70.492  1.00  0.00    -0.399 C  
BRANCH   6   7
HETATM    7  C   UNL     1     -11.540  13.126  69.864  1.00  0.00    -0.255 C  
BRANCH   7   8
HETATM    8  C   UNL     1     -12.020  12.143  68.788  1.00  0.00    -0.292 C  
BRANCH   8   9
HETATM    9  C   UNL     1     -11.684  12.518  67.354  1.00  0.00    -0.432 C  
BRANCH   9  10
HETATM   10  C   UNL     1     -10.349  11.985  66.845  1.00  0.00    -0.238 C  
BRANCH  10  11
HETATM   11  C   UNL     1      -9.002  12.018  67.621  1.00  0.00    -0.172 C  
HETATM   12  O   UNL     1      -8.113  12.758  67.189  1.00  0.00    -0.176 OA 
BRANCH  11  13
HETATM   13  O   UNL     1      -8.753  11.084  68.622  1.00  0.00    -0.152 OA 
BRANCH  13  14
HETATM   14  C   UNL     1      -8.503   9.635  68.161  1.00  0.00    -0.118 C  
HETATM   15  C   UNL     1      -9.890   9.065  68.481  1.00  0.00    -0.184 C  
HETATM   16  C   UNL     1      -9.756   9.101  70.007  1.00  0.00    -0.217 C  
HETATM   17  C   UNL     1      -8.619   8.118  70.111  1.00  0.00    -0.129 C  
HETATM   18  C   UNL     1      -8.550   7.194  71.327  1.00  0.00    -0.124 C  
HETATM   19  C   UNL     1     -10.045   6.943  71.646  1.00  0.00    -0.201 C  
HETATM   20  C   UNL     1     -10.405   5.715  72.395  1.00  0.00    -0.245 C  
HETATM   21  C   UNL     1      -9.665   4.500  71.804  1.00  0.00    -0.235 C  
HETATM   22  C   UNL     1     -10.262   3.314  71.894  1.00  0.00    -0.070 C  
HETATM   23  C   UNL     1     -10.372   3.131  73.368  1.00  0.00    -0.148 C  
HETATM   24  O   UNL     1     -11.384   2.674  73.857  1.00  0.00    -0.191 OA 
HETATM   25  C   UNL     1      -9.122   3.594  74.178  1.00  0.00    -0.097 C  
HETATM   26  C   UNL     1      -8.053   4.590  73.471  1.00  0.00    -0.095 C  
HETATM   27  C   UNL     1      -8.134   4.619  71.892  1.00  0.00    -0.101 C  
HETATM   28  C   UNL     1      -7.329   3.390  71.443  1.00  0.00    -0.036 C  
HETATM   29  C   UNL     1      -7.864   5.864  70.891  1.00  0.00    -0.102 C  
HETATM   30  C   UNL     1      -6.549   6.233  70.099  1.00  0.00    -0.045 C  
HETATM   31  C   UNL     1      -6.843   7.211  68.793  1.00  0.00    -0.076 C  
HETATM   32  C   UNL     1      -7.498   8.640  69.175  1.00  0.00    -0.083 C  
HETATM   33  C   UNL     1      -6.302   9.502  69.583  1.00  0.00    -0.040 C  
ENDBRANCH  13  14
ENDBRANCH  11  13
ENDBRANCH  10  11
ENDBRANCH   9  10
ENDBRANCH   8   9
ENDBRANCH   7   8
ENDBRANCH   6   7
ENDBRANCH   5   6
ENDBRANCH   4   5
ENDBRANCH   3   4
ENDBRANCH   2   3
TORSDOF 11
ENDMDL
MODEL      136
REMARK 921   NORMALIZED FREE ENERGY PREDICTED BY IDOCK:   -3.46 KCAL/MOL
REMARK 922        TOTAL FREE ENERGY PREDICTED BY IDOCK:   -7.86 KCAL/MOL
REMARK 923 INTER-LIGAND FREE ENERGY PREDICTED BY IDOCK:   -6.50 KCAL/MOL
REMARK 924 INTRA-LIGAND FREE ENERGY PREDICTED BY IDOCK:   -1.37 KCAL/MOL
REMARK 927      BINDING AFFINITY PREDICTED BY RF-SCORE:    0.00 PKD
ROOT
HETATM    1  C   UNL     1      -5.160   8.984  63.991  1.00  0.00    -0.055 C  
HETATM    2  C   UNL     1      -5.624   7.549  64.037  1.00  0.00    -0.037 C  
ENDROOT
BRANCH   2   3
HETATM    3  C   UNL     1      -6.193   7.169  65.424  1.00  0.00    -0.037 C  
BRANCH   3   4
HETATM    4  C   UNL     1      -6.478   5.663  65.530  1.00  0.00    -0.039 C  
BRANCH   4   5
HETATM    5  C   UNL     1      -7.804   5.276  64.865  1.00  0.00    -0.095 C  
BRANCH   5   6
HETATM    6  C   UNL     1      -8.201   3.820  65.159  1.00  0.00    -0.097 C  
BRANCH   6   7
HETATM    7  C   UNL     1      -9.378   3.762  66.144  1.00  0.00    -0.183 C  
BRANCH   7   8
HETATM    8  C   UNL     1     -10.498   4.775  65.874  1.00  0.00    -0.313 C  
BRANCH   8   9
HETATM    9  C   UNL     1     -10.870   5.676  67.040  1.00  0.00    -0.265 C  
BRANCH   9  10
HETATM   10  C   UNL     1     -10.785   7.171  66.751  1.00  0.00    -0.259 C  
BRANCH  10  11
HETATM   11  C   UNL     1      -9.568   8.088  67.058  1.00  0.00    -0.196 C  
HETATM   12  O   UNL     1      -8.616   7.589  67.665  1.00  0.00    -0.119 OA 
BRANCH  11  13
HETATM   13  O   UNL     1      -9.661   9.461  66.845  1.00  0.00    -0.148 OA 
BRANCH  13  14
HETATM   14  C   UNL     1      -9.214  10.367  68.009  1.00  0.00    -0.140 C  
HETATM   15  C   UNL     1     -10.510  11.173  68.162  1.00  0.00    -0.215 C  
HETATM   16  C   UNL     1     -10.381  11.978  66.866  1.00  0.00    -0.238 C  
HETATM   17  C   UNL     1      -9.121  12.715  67.236  1.00  0.00    -0.191 C  
HETATM   18  C   UNL     1      -8.925  14.144  66.731  1.00  0.00    -0.229 C  
HETATM   19  C   UNL     1     -10.370  14.699  66.718  1.00  0.00    -0.268 C  
HETATM   20  C   UNL     1     -10.558  16.167  66.801  1.00  0.00    -0.277 C  
HETATM   21  C   UNL     1      -9.660  16.753  67.906  1.00  0.00    -0.236 C  
HETATM   22  C   UNL     1     -10.089  17.847  68.531  1.00  0.00    -0.392 C  
HETATM   23  C   UNL     1     -10.170  18.831  67.417  1.00  0.00    -0.395 C  
HETATM   24  O   UNL     1     -11.111  19.595  67.339  1.00  0.00    -0.398 OA 
HETATM   25  C   UNL     1      -8.995  18.759  66.394  1.00  0.00    -0.296 C  
HETATM   26  C   UNL     1      -8.073  17.424  66.350  1.00  0.00    -0.315 C  
HETATM   27  C   UNL     1      -8.159  16.529  67.652  1.00  0.00    -0.177 C  
HETATM   28  C   UNL     1      -7.194  17.198  68.643  1.00  0.00    -0.229 C  
HETATM   29  C   UNL     1      -8.063  14.917  67.776  1.00  0.00    -0.162 C  
HETATM   30  C   UNL     1      -6.811  14.022  68.130  1.00  0.00    -0.122 C  
HETATM   31  C   UNL     1      -7.238  12.523  68.697  1.00  0.00    -0.103 C  
HETATM   32  C   UNL     1      -8.083  11.636  67.640  1.00  0.00    -0.140 C  
HETATM   33  C   UNL     1      -7.015  11.017  66.735  1.00  0.00    -0.131 C  
ENDBRANCH  13  14
ENDBRANCH  11  13
ENDBRANCH  10  11
ENDBRANCH   9  10
ENDBRANCH   8   9
ENDBRANCH   7   8
ENDBRANCH   6   7
ENDBRANCH   5   6
ENDBRANCH   4   5
ENDBRANCH   3   4
ENDBRANCH   2   3
TORSDOF 11
ENDMDL
MODEL      137
REMARK 921   NORMALIZED FREE ENERGY PREDICTED BY IDOCK:   -3.45 KCAL/MOL
REMARK 922        TOTAL FREE ENERGY PREDICTED BY IDOCK:   -7.86 KCAL/MOL
REMARK 923 INTER-LIGAND FREE ENERGY PREDICTED BY IDOCK:   -6.28 KCAL/MOL
REMARK 924 INTRA-LIGAND FREE ENERGY PREDICTED BY IDOCK:   -1.57 KCAL/MOL
REMARK 927      BINDING AFFINITY PREDICTED BY RF-SCORE:    0.00 PKD
ROOT
HETATM    1  C   UNL     1      -5.362  10.157  63.524  1.00  0.00    -0.119 C  
HETATM    2  C   UNL     1      -5.861   8.763  63.814  1.00  0.00    -0.072 C  
ENDROOT
BRANCH   2   3
HETATM    3  C   UNL     1      -7.139   8.775  64.685  1.00  0.00    -0.088 C  
BRANCH   3   4
HETATM    4  C   UNL     1      -7.283   7.483  65.504  1.00  0.00    -0.069 C  
BRANCH   4   5
HETATM    5  C   UNL     1      -8.505   6.660  65.079  1.00  0.00    -0.007 C  
BRANCH   5   6
HETATM    6  C   UNL     1      -8.339   5.164  65.392  1.00  0.00    -0.132 C  
BRANCH   6   7
HETATM    7  C   UNL     1      -9.019   4.805  66.722  1.00  0.00    -0.111 C  
BRANCH   7   8
HETATM    8  C   UNL     1     -10.303   5.587  67.023  1.00  0.00    -0.306 C  
BRANCH   8   9
HETATM    9  C   UNL     1     -10.358   6.273  68.379  1.00  0.00    -0.237 C  
BRANCH   9  10
HETATM   10  C   UNL     1     -10.102   7.775  68.352  1.00  0.00    -0.215 C  
BRANCH  10  11
HETATM   11  C   UNL     1      -8.776   8.480  68.757  1.00  0.00    -0.139 C  
HETATM   12  O   UNL     1      -7.853   7.768  69.163  1.00  0.00    -0.109 OA 
BRANCH  11  13
HETATM   13  O   UNL     1      -8.730   9.867  68.860  1.00  0.00    -0.127 OA 
BRANCH  13  14
HETATM   14  C   UNL     1      -8.967  10.660  67.560  1.00  0.00    -0.135 C  
HETATM   15  C   UNL     1      -7.670  11.477  67.567  1.00  0.00    -0.132 C  
HETATM   16  C   UNL     1      -8.032  12.388  68.744  1.00  0.00     0.048 C  
HETATM   17  C   UNL     1      -9.211  13.063  68.093  1.00  0.00    -0.212 C  
HETATM   18  C   UNL     1      -9.502  14.526  68.426  1.00  0.00    -0.209 C  
HETATM   19  C   UNL     1      -8.086  15.111  68.645  1.00  0.00    -0.154 C  
HETATM   20  C   UNL     1      -7.895  16.571  68.467  1.00  0.00    -0.210 C  
HETATM   21  C   UNL     1      -8.586  17.039  67.173  1.00  0.00    -0.220 C  
HETATM   22  C   UNL     1      -8.059  18.084  66.539  1.00  0.00    -0.298 C  
HETATM   23  C   UNL     1      -8.183  19.162  67.559  1.00  0.00    -0.281 C  
HETATM   24  O   UNL     1      -7.276  19.950  67.733  1.00  0.00    -0.261 OA 
HETATM   25  C   UNL     1      -9.521  19.153  68.360  1.00  0.00    -0.425 C  
HETATM   26  C   UNL     1     -10.428  17.807  68.358  1.00  0.00    -0.351 C  
HETATM   27  C   UNL     1     -10.106  16.805  67.177  1.00  0.00    -0.282 C  
HETATM   28  C   UNL     1     -10.884  17.365  65.976  1.00  0.00     0.016 C  
HETATM   29  C   UNL     1     -10.169  15.187  67.182  1.00  0.00    -0.247 C  
HETATM   30  C   UNL     1     -11.332  14.238  66.693  1.00  0.00    -0.356 C  
HETATM   31  C   UNL     1     -10.802  12.705  66.345  1.00  0.00    -0.295 C  
HETATM   32  C   UNL     1     -10.154  11.931  67.609  1.00  0.00    -0.202 C  
HETATM   33  C   UNL     1     -11.362  11.370  68.362  1.00  0.00    -0.346 C  
ENDBRANCH  13  14
ENDBRANCH  11  13
ENDBRANCH  10  11
ENDBRANCH   9  10
ENDBRANCH   8   9
ENDBRANCH   7   8
ENDBRANCH   6   7
ENDBRANCH   5   6
ENDBRANCH   4   5
ENDBRANCH   3   4
ENDBRANCH   2   3
TORSDOF 11
ENDMDL
MODEL      138
REMARK 921   NORMALIZED FREE ENERGY PREDICTED BY IDOCK:   -3.44 KCAL/MOL
REMARK 922        TOTAL FREE ENERGY PREDICTED BY IDOCK:   -7.83 KCAL/MOL
REMARK 923 INTER-LIGAND FREE ENERGY PREDICTED BY IDOCK:   -5.59 KCAL/MOL
REMARK 924 INTRA-LIGAND FREE ENERGY PREDICTED BY IDOCK:   -2.23 KCAL/MOL
REMARK 927      BINDING AFFINITY PREDICTED BY RF-SCORE:    0.00 PKD
ROOT
HETATM    1  C   UNL     1     -13.462   9.180  71.761  1.00  0.00    -0.478 C  
HETATM    2  C   UNL     1     -12.595   8.035  71.299  1.00  0.00    -0.254 C  
ENDROOT
BRANCH   2   3
HETATM    3  C   UNL     1     -11.118   8.222  71.716  1.00  0.00    -0.342 C  
BRANCH   3   4
HETATM    4  C   UNL     1     -10.653   7.118  72.679  1.00  0.00    -0.290 C  
BRANCH   4   5
HETATM    5  C   UNL     1      -9.151   6.836  72.554  1.00  0.00    -0.142 C  
BRANCH   5   6
HETATM    6  C   UNL     1      -8.815   5.353  72.781  1.00  0.00    -0.122 C  
BRANCH   6   7
HETATM    7  C   UNL     1     -10.044   4.585  73.291  1.00  0.00    -0.206 C  
BRANCH   7   8
HETATM    8  C   UNL     1     -10.482   3.407  72.413  1.00  0.00    -0.089 C  
BRANCH   8   9
HETATM    9  C   UNL     1      -9.425   2.344  72.157  1.00  0.00    -0.177 C  
BRANCH   9  10
HETATM   10  C   UNL     1      -9.518   1.658  70.799  1.00  0.00    -0.187 C  
BRANCH  10  11
HETATM   11  C   UNL     1      -8.678   2.014  69.540  1.00  0.00    -0.064 C  
HETATM   12  O   UNL     1      -7.569   1.483  69.426  1.00  0.00    -0.042 OA 
BRANCH  11  13
HETATM   13  O   UNL     1      -9.081   3.053  68.707  1.00  0.00    -0.122 OA 
BRANCH  13  14
HETATM   14  C   UNL     1      -7.974   4.002  68.209  1.00  0.00    -0.076 C  
HETATM   15  C   UNL     1      -8.027   5.016  69.358  1.00  0.00    -0.075 C  
HETATM   16  C   UNL     1      -9.377   5.639  68.991  1.00  0.00    -0.150 C  
HETATM   17  C   UNL     1      -8.959   6.203  67.658  1.00  0.00    -0.111 C  
HETATM   18  C   UNL     1      -9.579   7.517  67.183  1.00  0.00    -0.207 C  
HETATM   19  C   UNL     1      -9.788   8.290  68.509  1.00  0.00    -0.188 C  
HETATM   20  C   UNL     1      -9.868   9.769  68.451  1.00  0.00    -0.168 C  
HETATM   21  C   UNL     1      -8.742  10.325  67.559  1.00  0.00    -0.125 C  
HETATM   22  C   UNL     1      -8.272  11.536  67.846  1.00  0.00    -0.134 C  
HETATM   23  C   UNL     1      -9.480  12.389  67.670  1.00  0.00    -0.190 C  
HETATM   24  O   UNL     1      -9.724  13.280  68.459  1.00  0.00    -0.215 OA 
HETATM   25  C   UNL     1     -10.372  12.016  66.446  1.00  0.00    -0.246 C  
HETATM   26  C   UNL     1     -10.194  10.554  65.762  1.00  0.00    -0.310 C  
HETATM   27  C   UNL     1      -8.826   9.837  66.102  1.00  0.00    -0.162 C  
HETATM   28  C   UNL     1      -7.816  10.451  65.121  1.00  0.00    -0.122 C  
HETATM   29  C   UNL     1      -8.537   8.254  66.290  1.00  0.00    -0.152 C  
HETATM   30  C   UNL     1      -7.976   7.217  65.240  1.00  0.00    -0.127 C  
HETATM   31  C   UNL     1      -7.309   5.879  65.959  1.00  0.00    -0.077 C  
HETATM   32  C   UNL     1      -8.352   5.024  66.853  1.00  0.00    -0.107 C  
HETATM   33  C   UNL     1      -9.084   4.146  65.836  1.00  0.00    -0.136 C  
ENDBRANCH  13  14
ENDBRANCH  11  13
ENDBRANCH  10  11
ENDBRANCH   9  10
ENDBRANCH   8   9
ENDBRANCH   7   8
ENDBRANCH   6   7
ENDBRANCH   5   6
ENDBRANCH   4   5
ENDBRANCH   3   4
ENDBRANCH   2   3
TORSDOF 11
ENDMDL
MODEL      139
REMARK 921   NORMALIZED FREE ENERGY PREDICTED BY IDOCK:   -3.43 KCAL/MOL
REMARK 922        TOTAL FREE ENERGY PREDICTED BY IDOCK:   -7.82 KCAL/MOL
REMARK 923 INTER-LIGAND FREE ENERGY PREDICTED BY IDOCK:   -6.08 KCAL/MOL
REMARK 924 INTRA-LIGAND FREE ENERGY PREDICTED BY IDOCK:   -1.74 KCAL/MOL
REMARK 927      BINDING AFFINITY PREDICTED BY RF-SCORE:    0.00 PKD
ROOT
HETATM    1  C   UNL     1     -11.665   6.657  71.592  1.00  0.00    -0.362 C  
HETATM    2  C   UNL     1     -11.737   8.152  71.778  1.00  0.00    -0.343 C  
ENDROOT
BRANCH   2   3
HETATM    3  C   UNL     1     -10.431   8.727  72.372  1.00  0.00    -0.220 C  
BRANCH   3   4
HETATM    4  C   UNL     1      -9.552   7.627  72.989  1.00  0.00    -0.292 C  
BRANCH   4   5
HETATM    5  C   UNL     1      -8.233   8.182  73.540  1.00  0.00    -0.276 C  
BRANCH   5   6
HETATM    6  C   UNL     1      -7.099   7.145  73.493  1.00  0.00    -0.075 C  
BRANCH   6   7
HETATM    7  C   UNL     1      -7.290   6.178  72.315  1.00  0.00    -0.093 C  
BRANCH   7   8
HETATM    8  C   UNL     1      -6.148   6.172  71.291  1.00  0.00    -0.031 C  
BRANCH   8   9
HETATM    9  C   UNL     1      -6.390   6.978  70.025  1.00  0.00    -0.035 C  
BRANCH   9  10
HETATM   10  C   UNL     1      -7.837   7.403  69.799  1.00  0.00    -0.116 C  
BRANCH  10  11
HETATM   11  C   UNL     1      -8.488   7.716  68.423  1.00  0.00    -0.125 C  
HETATM   12  O   UNL     1      -8.643   6.775  67.638  1.00  0.00    -0.121 OA 
BRANCH  11  13
HETATM   13  O   UNL     1      -8.677   9.037  68.027  1.00  0.00    -0.129 OA 
BRANCH  13  14
HETATM   14  C   UNL     1      -8.327  10.121  69.065  1.00  0.00    -0.138 C  
HETATM   15  C   UNL     1      -9.667  10.865  69.060  1.00  0.00    -0.181 C  
HETATM   16  C   UNL     1      -9.527  11.487  67.667  1.00  0.00    -0.170 C  
HETATM   17  C   UNL     1      -8.322  12.339  67.971  1.00  0.00    -0.165 C  
HETATM   18  C   UNL     1      -8.180  13.693  67.276  1.00  0.00    -0.164 C  
HETATM   19  C   UNL     1      -9.650  14.157  67.136  1.00  0.00    -0.244 C  
HETATM   20  C   UNL     1      -9.917  15.610  67.004  1.00  0.00    -0.242 C  
HETATM   21  C   UNL     1      -9.096  16.394  68.044  1.00  0.00    -0.200 C  
HETATM   22  C   UNL     1      -9.606  17.538  68.493  1.00  0.00    -0.305 C  
HETATM   23  C   UNL     1      -9.693  18.351  67.249  1.00  0.00    -0.297 C  
HETATM   24  O   UNL     1     -10.667  19.042  67.032  1.00  0.00    -0.441 OA 
HETATM   25  C   UNL     1      -8.474  18.204  66.286  1.00  0.00    -0.213 C  
HETATM   26  C   UNL     1      -7.484  16.930  66.463  1.00  0.00    -0.328 C  
HETATM   27  C   UNL     1      -7.577  16.222  67.875  1.00  0.00    -0.148 C  
HETATM   28  C   UNL     1      -6.689  17.077  68.792  1.00  0.00    -0.193 C  
HETATM   29  C   UNL     1      -7.403  14.651  68.228  1.00  0.00    -0.117 C  
HETATM   30  C   UNL     1      -6.122  13.887  68.747  1.00  0.00    -0.086 C  
HETATM   31  C   UNL     1      -6.494  12.460  69.507  1.00  0.00    -0.090 C  
HETATM   32  C   UNL     1      -7.248  11.388  68.558  1.00  0.00    -0.093 C  
HETATM   33  C   UNL     1      -6.113  10.711  67.786  1.00  0.00    -0.047 C  
ENDBRANCH  13  14
ENDBRANCH  11  13
ENDBRANCH  10  11
ENDBRANCH   9  10
ENDBRANCH   8   9
ENDBRANCH   7   8
ENDBRANCH   6   7
ENDBRANCH   5   6
ENDBRANCH   4   5
ENDBRANCH   3   4
ENDBRANCH   2   3
TORSDOF 11
ENDMDL
MODEL      140
REMARK 921   NORMALIZED FREE ENERGY PREDICTED BY IDOCK:   -3.43 KCAL/MOL
REMARK 922        TOTAL FREE ENERGY PREDICTED BY IDOCK:   -7.82 KCAL/MOL
REMARK 923 INTER-LIGAND FREE ENERGY PREDICTED BY IDOCK:   -6.65 KCAL/MOL
REMARK 924 INTRA-LIGAND FREE ENERGY PREDICTED BY IDOCK:   -1.17 KCAL/MOL
REMARK 927      BINDING AFFINITY PREDICTED BY RF-SCORE:    0.00 PKD
ROOT
HETATM    1  C   UNL     1     -14.353  14.776  72.171  1.00  0.00    -0.589 C  
HETATM    2  C   UNL     1     -13.211  13.945  71.643  1.00  0.00    -0.446 C  
ENDROOT
BRANCH   2   3
HETATM    3  C   UNL     1     -12.076  14.820  71.063  1.00  0.00    -0.391 C  
BRANCH   3   4
HETATM    4  C   UNL     1     -12.590  15.775  69.975  1.00  0.00    -0.084 C  
BRANCH   4   5
HETATM    5  C   UNL     1     -11.648  15.837  68.767  1.00  0.00    -0.401 C  
BRANCH   5   6
HETATM    6  C   UNL     1     -10.735  17.074  68.802  1.00  0.00    -0.313 C  
BRANCH   6   7
HETATM    7  C   UNL     1     -10.614  17.704  67.406  1.00  0.00    -0.320 C  
BRANCH   7   8
HETATM    8  C   UNL     1      -9.857  19.037  67.362  1.00  0.00    -0.386 C  
BRANCH   8   9
HETATM    9  C   UNL     1      -8.984  19.342  68.569  1.00  0.00    -0.418 C  
BRANCH   9  10
HETATM   10  C   UNL     1      -7.555  19.760  68.241  1.00  0.00    -0.338 C  
BRANCH  10  11
HETATM   11  C   UNL     1      -6.267  19.192  68.902  1.00  0.00    -0.250 C  
HETATM   12  O   UNL     1      -5.186  19.680  68.559  1.00  0.00    -0.189 OA 
BRANCH  11  13
HETATM   13  O   UNL     1      -6.334  18.038  69.677  1.00  0.00    -0.246 OA 
BRANCH  13  14
HETATM   14  C   UNL     1      -5.548  16.818  69.161  1.00  0.00    -0.144 C  
HETATM   15  C   UNL     1      -6.167  16.740  67.760  1.00  0.00    -0.161 C  
HETATM   16  C   UNL     1      -7.551  16.253  68.198  1.00  0.00    -0.151 C  
HETATM   17  C   UNL     1      -7.105  14.935  68.775  1.00  0.00    -0.115 C  
HETATM   18  C   UNL     1      -8.035  13.727  68.669  1.00  0.00    -0.095 C  
HETATM   19  C   UNL     1      -8.748  13.969  67.315  1.00  0.00    -0.227 C  
HETATM   20  C   UNL     1      -9.320  12.799  66.606  1.00  0.00    -0.242 C  
HETATM   21  C   UNL     1      -8.305  11.641  66.595  1.00  0.00    -0.154 C  
HETATM   22  C   UNL     1      -8.345  10.799  65.565  1.00  0.00    -0.129 C  
HETATM   23  C   UNL     1      -9.714  10.227  65.683  1.00  0.00    -0.247 C  
HETATM   24  O   UNL     1     -10.396  10.056  64.693  1.00  0.00    -0.091 OA 
HETATM   25  C   UNL     1     -10.170   9.916  67.142  1.00  0.00    -0.285 C  
HETATM   26  C   UNL     1      -9.372  10.604  68.376  1.00  0.00    -0.163 C  
HETATM   27  C   UNL     1      -7.933  11.145  68.003  1.00  0.00    -0.117 C  
HETATM   28  C   UNL     1      -7.027   9.906  68.071  1.00  0.00    -0.077 C  
HETATM   29  C   UNL     1      -7.159  12.441  68.591  1.00  0.00    -0.103 C  
HETATM   30  C   UNL     1      -6.085  12.515  69.746  1.00  0.00    -0.134 C  
HETATM   31  C   UNL     1      -5.150  13.882  69.661  1.00  0.00    -0.084 C  
HETATM   32  C   UNL     1      -5.986  15.260  69.800  1.00  0.00    -0.134 C  
HETATM   33  C   UNL     1      -6.160  15.441  71.309  1.00  0.00     0.574 C  
ENDBRANCH  13  14
ENDBRANCH  11  13
ENDBRANCH  10  11
ENDBRANCH   9  10
ENDBRANCH   8   9
ENDBRANCH   7   8
ENDBRANCH   6   7
ENDBRANCH   5   6
ENDBRANCH   4   5
ENDBRANCH   3   4
ENDBRANCH   2   3
TORSDOF 11
ENDMDL
MODEL      141
REMARK 921   NORMALIZED FREE ENERGY PREDICTED BY IDOCK:   -3.38 KCAL/MOL
REMARK 922        TOTAL FREE ENERGY PREDICTED BY IDOCK:   -7.73 KCAL/MOL
REMARK 923 INTER-LIGAND FREE ENERGY PREDICTED BY IDOCK:   -7.19 KCAL/MOL
REMARK 924 INTRA-LIGAND FREE ENERGY PREDICTED BY IDOCK:   -0.54 KCAL/MOL
REMARK 927      BINDING AFFINITY PREDICTED BY RF-SCORE:    0.00 PKD
ROOT
HETATM    1  C   UNL     1     -11.624   4.900  72.773  1.00  0.00    -0.147 C  
HETATM    2  C   UNL     1     -10.861   5.983  72.051  1.00  0.00    -0.300 C  
ENDROOT
BRANCH   2   3
HETATM    3  C   UNL     1     -11.729   6.692  70.986  1.00  0.00    -0.415 C  
BRANCH   3   4
HETATM    4  C   UNL     1     -12.964   7.360  71.610  1.00  0.00    -0.409 C  
BRANCH   4   5
HETATM    5  C   UNL     1     -12.600   8.613  72.415  1.00  0.00    -0.426 C  
BRANCH   5   6
HETATM    6  C   UNL     1     -12.153   9.776  71.515  1.00  0.00    -0.493 C  
BRANCH   6   7
HETATM    7  C   UNL     1     -13.158  10.937  71.582  1.00  0.00    -0.538 C  
BRANCH   7   8
HETATM    8  C   UNL     1     -12.575  12.316  71.251  1.00  0.00    -0.336 C  
BRANCH   8   9
HETATM    9  C   UNL     1     -11.706  12.386  70.006  1.00  0.00    -0.307 C  
BRANCH   9  10
HETATM   10  C   UNL     1     -11.908  13.631  69.149  1.00  0.00    -0.394 C  
BRANCH  10  11
HETATM   11  C   UNL     1     -11.393  13.828  67.695  1.00  0.00    -0.304 C  
HETATM   12  O   UNL     1     -11.116  14.977  67.339  1.00  0.00    -0.307 OA 
BRANCH  11  13
HETATM   13  O   UNL     1     -11.460  12.776  66.786  1.00  0.00    -0.306 OA 
BRANCH  13  14
HETATM   14  C   UNL     1     -10.148  12.405  66.067  1.00  0.00    -0.251 C  
HETATM   15  C   UNL     1     -10.684  11.236  65.232  1.00  0.00    -0.302 C  
HETATM   16  C   UNL     1     -10.876  10.254  66.392  1.00  0.00    -0.025 C  
HETATM   17  C   UNL     1      -9.424  10.151  66.782  1.00  0.00    -0.205 C  
HETATM   18  C   UNL     1      -8.896   8.822  67.322  1.00  0.00    -0.141 C  
HETATM   19  C   UNL     1      -9.737   7.783  66.542  1.00  0.00    -0.265 C  
HETATM   20  C   UNL     1      -9.187   6.415  66.381  1.00  0.00    -0.176 C  
HETATM   21  C   UNL     1      -7.708   6.487  65.957  1.00  0.00    -0.093 C  
HETATM   22  C   UNL     1      -7.235   5.494  65.207  1.00  0.00    -0.067 C  
HETATM   23  C   UNL     1      -7.415   4.317  66.101  1.00  0.00    -0.085 C  
HETATM   24  O   UNL     1      -7.818   3.262  65.654  1.00  0.00    -0.084 OA 
HETATM   25  C   UNL     1      -7.076   4.577  67.601  1.00  0.00    -0.065 C  
HETATM   26  C   UNL     1      -6.999   6.108  68.134  1.00  0.00    -0.080 C  
HETATM   27  C   UNL     1      -6.813   7.188  66.993  1.00  0.00    -0.072 C  
HETATM   28  C   UNL     1      -5.304   7.183  66.702  1.00  0.00    -0.022 C  
HETATM   29  C   UNL     1      -7.393   8.699  66.930  1.00  0.00    -0.079 C  
HETATM   30  C   UNL     1      -6.677  10.053  67.317  1.00  0.00    -0.074 C  
HETATM   31  C   UNL     1      -7.377  11.372  66.596  1.00  0.00    -0.107 C  
HETATM   32  C   UNL     1      -8.925  11.602  67.008  1.00  0.00    -0.182 C  
HETATM   33  C   UNL     1      -8.850  12.340  68.346  1.00  0.00    -0.137 C  
ENDBRANCH  13  14
ENDBRANCH  11  13
ENDBRANCH  10  11
ENDBRANCH   9  10
ENDBRANCH   8   9
ENDBRANCH   7   8
ENDBRANCH   6   7
ENDBRANCH   5   6
ENDBRANCH   4   5
ENDBRANCH   3   4
ENDBRANCH   2   3
TORSDOF 11
ENDMDL
MODEL      142
REMARK 921   NORMALIZED FREE ENERGY PREDICTED BY IDOCK:   -3.36 KCAL/MOL
REMARK 922        TOTAL FREE ENERGY PREDICTED BY IDOCK:   -7.70 KCAL/MOL
REMARK 923 INTER-LIGAND FREE ENERGY PREDICTED BY IDOCK:   -6.86 KCAL/MOL
REMARK 924 INTRA-LIGAND FREE ENERGY PREDICTED BY IDOCK:   -0.84 KCAL/MOL
REMARK 927      BINDING AFFINITY PREDICTED BY RF-SCORE:    0.00 PKD
ROOT
HETATM    1  C   UNL     1     -11.481   1.926  73.625  1.00  0.00    -0.317 C  
HETATM    2  C   UNL     1     -10.705   3.103  73.091  1.00  0.00    -0.261 C  
ENDROOT
BRANCH   2   3
HETATM    3  C   UNL     1     -10.029   2.787  71.738  1.00  0.00    -0.183 C  
BRANCH   3   4
HETATM    4  C   UNL     1      -9.800   4.057  70.903  1.00  0.00    -0.229 C  
BRANCH   4   5
HETATM    5  C   UNL     1      -9.422   3.735  69.452  1.00  0.00    -0.257 C  
BRANCH   5   6
HETATM    6  C   UNL     1      -8.512   2.500  69.346  1.00  0.00    -0.100 C  
BRANCH   6   7
HETATM    7  C   UNL     1      -7.221   2.835  68.585  1.00  0.00    -0.048 C  
BRANCH   7   8
HETATM    8  C   UNL     1      -7.419   3.667  67.311  1.00  0.00    -0.071 C  
BRANCH   8   9
HETATM    9  C   UNL     1      -6.706   5.009  67.280  1.00  0.00    -0.055 C  
BRANCH   9  10
HETATM   10  C   UNL     1      -7.600   6.218  67.533  1.00  0.00    -0.097 C  
BRANCH  10  11
HETATM   11  C   UNL     1      -7.952   7.322  66.496  1.00  0.00    -0.115 C  
HETATM   12  O   UNL     1      -8.254   6.958  65.356  1.00  0.00    -0.128 OA 
BRANCH  11  13
HETATM   13  O   UNL     1      -7.716   8.660  66.798  1.00  0.00    -0.092 OA 
BRANCH  13  14
HETATM   14  C   UNL     1      -7.939   9.671  65.657  1.00  0.00    -0.113 C  
HETATM   15  C   UNL     1      -6.807  10.644  66.008  1.00  0.00    -0.129 C  
HETATM   16  C   UNL     1      -7.446  11.220  67.275  1.00  0.00    -0.126 C  
HETATM   17  C   UNL     1      -8.643  11.844  66.605  1.00  0.00    -0.163 C  
HETATM   18  C   UNL     1      -9.213  13.145  67.170  1.00  0.00    -0.227 C  
HETATM   19  C   UNL     1      -7.948  13.865  67.699  1.00  0.00    -0.181 C  
HETATM   20  C   UNL     1      -7.989  15.341  67.837  1.00  0.00    -0.145 C  
HETATM   21  C   UNL     1      -8.600  15.973  66.572  1.00  0.00    -0.344 C  
HETATM   22  C   UNL     1      -8.191  17.193  66.235  1.00  0.00    -0.306 C  
HETATM   23  C   UNL     1      -8.608  17.999  67.416  1.00  0.00    -0.244 C  
HETATM   24  O   UNL     1      -7.872  18.852  67.868  1.00  0.00    -0.254 OA 
HETATM   25  C   UNL     1     -10.006  17.627  68.000  1.00  0.00    -0.326 C  
HETATM   26  C   UNL     1     -10.666  16.198  67.607  1.00  0.00    -0.318 C  
HETATM   27  C   UNL     1     -10.050  15.529  66.312  1.00  0.00    -0.312 C  
HETATM   28  C   UNL     1     -10.773  16.216  65.144  1.00  0.00    -0.391 C  
HETATM   29  C   UNL     1      -9.839  13.955  65.995  1.00  0.00    -0.306 C  
HETATM   30  C   UNL     1     -10.763  12.976  65.169  1.00  0.00    -0.324 C  
HETATM   31  C   UNL     1      -9.946  11.646  64.611  1.00  0.00    -0.291 C  
HETATM   32  C   UNL     1      -9.321  10.719  65.780  1.00  0.00    -0.235 C  
HETATM   33  C   UNL     1     -10.493   9.843  66.229  1.00  0.00    -0.171 C  
ENDBRANCH  13  14
ENDBRANCH  11  13
ENDBRANCH  10  11
ENDBRANCH   9  10
ENDBRANCH   8   9
ENDBRANCH   7   8
ENDBRANCH   6   7
ENDBRANCH   5   6
ENDBRANCH   4   5
ENDBRANCH   3   4
ENDBRANCH   2   3
TORSDOF 11
ENDMDL
MODEL      143
REMARK 921   NORMALIZED FREE ENERGY PREDICTED BY IDOCK:   -3.34 KCAL/MOL
REMARK 922        TOTAL FREE ENERGY PREDICTED BY IDOCK:   -7.67 KCAL/MOL
REMARK 923 INTER-LIGAND FREE ENERGY PREDICTED BY IDOCK:   -6.56 KCAL/MOL
REMARK 924 INTRA-LIGAND FREE ENERGY PREDICTED BY IDOCK:   -1.11 KCAL/MOL
REMARK 927      BINDING AFFINITY PREDICTED BY RF-SCORE:    0.00 PKD
ROOT
HETATM    1  C   UNL     1      -5.210  17.495  71.162  1.00  0.00    -0.134 C  
HETATM    2  C   UNL     1      -5.388  18.955  70.827  1.00  0.00    -0.250 C  
ENDROOT
BRANCH   2   3
HETATM    3  C   UNL     1      -5.783  19.167  69.348  1.00  0.00    -0.253 C  
BRANCH   3   4
HETATM    4  C   UNL     1      -5.607  17.884  68.520  1.00  0.00    -0.161 C  
BRANCH   4   5
HETATM    5  C   UNL     1      -5.996  18.085  67.051  1.00  0.00    -0.162 C  
BRANCH   5   6
HETATM    6  C   UNL     1      -7.160  17.176  66.625  1.00  0.00    -0.283 C  
BRANCH   6   7
HETATM    7  C   UNL     1      -8.251  17.143  67.705  1.00  0.00    -0.200 C  
BRANCH   7   8
HETATM    8  C   UNL     1      -9.640  17.593  67.235  1.00  0.00    -0.271 C  
BRANCH   8   9
HETATM    9  C   UNL     1     -10.153  16.937  65.963  1.00  0.00    -0.336 C  
BRANCH   9  10
HETATM   10  C   UNL     1     -11.255  15.904  66.170  1.00  0.00     0.091 C  
BRANCH  10  11
HETATM   11  C   UNL     1     -11.611  14.747  65.195  1.00  0.00    -0.358 C  
HETATM   12  O   UNL     1     -12.231  15.037  64.168  1.00  0.00    -0.589 OA 
BRANCH  11  13
HETATM   13  O   UNL     1     -11.426  13.424  65.589  1.00  0.00    -0.308 OA 
BRANCH  13  14
HETATM   14  C   UNL     1      -9.977  12.993  65.886  1.00  0.00    -0.267 C  
HETATM   15  C   UNL     1      -9.897  11.818  64.904  1.00  0.00    -0.251 C  
HETATM   16  C   UNL     1     -10.833  10.876  65.668  1.00  0.00    -0.112 C  
HETATM   17  C   UNL     1      -9.980  10.738  66.902  1.00  0.00    -0.240 C  
HETATM   18  C   UNL     1      -9.981   9.409  67.657  1.00  0.00    -0.238 C  
HETATM   19  C   UNL     1     -10.164   8.375  66.520  1.00  0.00    -0.277 C  
HETATM   20  C   UNL     1      -9.698   6.987  66.753  1.00  0.00    -0.241 C  
HETATM   21  C   UNL     1      -8.292   7.000  67.382  1.00  0.00    -0.122 C  
HETATM   22  C   UNL     1      -7.490   5.973  67.116  1.00  0.00    -0.084 C  
HETATM   23  C   UNL     1      -8.252   4.827  67.684  1.00  0.00    -0.104 C  
HETATM   24  O   UNL     1      -8.316   3.773  67.084  1.00  0.00    -0.097 OA 
HETATM   25  C   UNL     1      -8.950   5.118  69.049  1.00  0.00    -0.123 C  
HETATM   26  C   UNL     1      -9.170   6.660  69.504  1.00  0.00    -0.143 C  
HETATM   27  C   UNL     1      -8.247   7.701  68.751  1.00  0.00    -0.128 C  
HETATM   28  C   UNL     1      -6.908   7.641  69.502  1.00  0.00    -0.044 C  
HETATM   29  C   UNL     1      -8.586   9.227  68.327  1.00  0.00    -0.125 C  
HETATM   30  C   UNL     1      -8.231  10.568  69.082  1.00  0.00    -0.152 C  
HETATM   31  C   UNL     1      -8.246  11.888  68.079  1.00  0.00    -0.157 C  
HETATM   32  C   UNL     1      -9.683  12.178  67.395  1.00  0.00    -0.180 C  
HETATM   33  C   UNL     1     -10.457  12.951  68.465  1.00  0.00    -0.260 C  
ENDBRANCH  13  14
ENDBRANCH  11  13
ENDBRANCH  10  11
ENDBRANCH   9  10
ENDBRANCH   8   9
ENDBRANCH   7   8
ENDBRANCH   6   7
ENDBRANCH   5   6
ENDBRANCH   4   5
ENDBRANCH   3   4
ENDBRANCH   2   3
TORSDOF 11
ENDMDL
MODEL      144
REMARK 921   NORMALIZED FREE ENERGY PREDICTED BY IDOCK:   -3.33 KCAL/MOL
REMARK 922        TOTAL FREE ENERGY PREDICTED BY IDOCK:   -7.65 KCAL/MOL
REMARK 923 INTER-LIGAND FREE ENERGY PREDICTED BY IDOCK:   -5.75 KCAL/MOL
REMARK 924 INTRA-LIGAND FREE ENERGY PREDICTED BY IDOCK:   -1.90 KCAL/MOL
REMARK 927      BINDING AFFINITY PREDICTED BY RF-SCORE:    0.00 PKD
ROOT
HETATM    1  C   UNL     1      -8.603  20.533  67.002  1.00  0.00    -0.326 C  
HETATM    2  C   UNL     1      -9.922  19.863  66.708  1.00  0.00    -0.569 C  
ENDROOT
BRANCH   2   3
HETATM    3  C   UNL     1      -9.833  18.325  66.837  1.00  0.00    -0.335 C  
BRANCH   3   4
HETATM    4  C   UNL     1      -8.408  17.863  67.182  1.00  0.00    -0.239 C  
BRANCH   4   5
HETATM    5  C   UNL     1      -8.390  16.860  68.342  1.00  0.00    -0.238 C  
BRANCH   5   6
HETATM    6  C   UNL     1      -7.703  15.539  67.960  1.00  0.00    -0.134 C  
BRANCH   6   7
HETATM    7  C   UNL     1      -8.698  14.579  67.290  1.00  0.00    -0.225 C  
BRANCH   7   8
HETATM    8  C   UNL     1     -10.068  14.487  67.973  1.00  0.00    -0.226 C  
BRANCH   8   9
HETATM    9  C   UNL     1     -11.267  14.807  67.096  1.00  0.00    -0.346 C  
BRANCH   9  10
HETATM   10  C   UNL     1     -11.151  14.338  65.650  1.00  0.00    -0.316 C  
BRANCH  10  11
HETATM   11  C   UNL     1     -11.943  13.165  65.008  1.00  0.00    -0.383 C  
HETATM   12  O   UNL     1     -13.154  13.325  64.827  1.00  0.00    -0.709 OA 
BRANCH  11  13
HETATM   13  O   UNL     1     -11.340  11.919  64.857  1.00  0.00    -0.316 OA 
BRANCH  13  14
HETATM   14  C   UNL     1      -9.922  11.767  65.440  1.00  0.00    -0.253 C  
HETATM   15  C   UNL     1      -9.296  10.983  64.280  1.00  0.00    -0.232 C  
HETATM   16  C   UNL     1     -10.044   9.669  64.521  1.00  0.00     0.664 C  
HETATM   17  C   UNL     1      -9.463   9.378  65.880  1.00  0.00    -0.315 C  
HETATM   18  C   UNL     1      -9.223   7.923  66.286  1.00  0.00    -0.231 C  
HETATM   19  C   UNL     1      -8.852   7.254  64.940  1.00  0.00     0.391 C  
HETATM   20  C   UNL     1      -8.053   6.006  64.974  1.00  0.00    -0.133 C  
HETATM   21  C   UNL     1      -6.876   6.160  65.956  1.00  0.00    -0.057 C  
HETATM   22  C   UNL     1      -5.767   5.471  65.699  1.00  0.00    -0.014 C  
HETATM   23  C   UNL     1      -6.253   4.065  65.760  1.00  0.00    -0.032 C  
HETATM   24  O   UNL     1      -5.876   3.248  64.944  1.00  0.00    -0.017 OA 
HETATM   25  C   UNL     1      -7.271   3.774  66.906  1.00  0.00    -0.064 C  
HETATM   26  C   UNL     1      -8.029   5.020  67.617  1.00  0.00    -0.095 C  
HETATM   27  C   UNL     1      -7.323   6.420  67.405  1.00  0.00    -0.087 C  
HETATM   28  C   UNL     1      -6.212   6.455  68.464  1.00  0.00    -0.032 C  
HETATM   29  C   UNL     1      -8.006   7.882  67.258  1.00  0.00    -0.118 C  
HETATM   30  C   UNL     1      -8.231   8.987  68.364  1.00  0.00    -0.116 C  
HETATM   31  C   UNL     1      -8.431  10.502  67.720  1.00  0.00    -0.114 C  
HETATM   32  C   UNL     1      -9.716  10.639  66.747  1.00  0.00    -0.222 C  
HETATM   33  C   UNL     1     -10.888  10.863  67.705  1.00  0.00    -0.317 C  
ENDBRANCH  13  14
ENDBRANCH  11  13
ENDBRANCH  10  11
ENDBRANCH   9  10
ENDBRANCH   8   9
ENDBRANCH   7   8
ENDBRANCH   6   7
ENDBRANCH   5   6
ENDBRANCH   4   5
ENDBRANCH   3   4
ENDBRANCH   2   3
TORSDOF 11
ENDMDL
MODEL      145
REMARK 921   NORMALIZED FREE ENERGY PREDICTED BY IDOCK:   -3.32 KCAL/MOL
REMARK 922        TOTAL FREE ENERGY PREDICTED BY IDOCK:   -7.64 KCAL/MOL
REMARK 923 INTER-LIGAND FREE ENERGY PREDICTED BY IDOCK:   -6.42 KCAL/MOL
REMARK 924 INTRA-LIGAND FREE ENERGY PREDICTED BY IDOCK:   -1.22 KCAL/MOL
REMARK 927      BINDING AFFINITY PREDICTED BY RF-SCORE:    0.00 PKD
ROOT
HETATM    1  C   UNL     1      -9.206   2.833  69.173  1.00  0.00    -0.215 C  
HETATM    2  C   UNL     1      -9.226   2.772  67.665  1.00  0.00    -0.240 C  
ENDROOT
BRANCH   2   3
HETATM    3  C   UNL     1      -8.829   4.122  67.024  1.00  0.00    -0.125 C  
BRANCH   3   4
HETATM    4  C   UNL     1      -8.924   5.280  68.029  1.00  0.00    -0.113 C  
BRANCH   4   5
HETATM    5  C   UNL     1      -7.628   6.098  68.093  1.00  0.00    -0.098 C  
BRANCH   5   6
HETATM    6  C   UNL     1      -6.995   6.297  66.706  1.00  0.00    -0.068 C  
BRANCH   6   7
HETATM    7  C   UNL     1      -6.980   7.783  66.319  1.00  0.00    -0.063 C  
BRANCH   7   8
HETATM    8  C   UNL     1      -7.202   8.065  64.828  1.00  0.00    -0.078 C  
BRANCH   8   9
HETATM    9  C   UNL     1      -6.631   9.375  64.310  1.00  0.00    -0.094 C  
BRANCH   9  10
HETATM   10  C   UNL     1      -7.583  10.196  63.447  1.00  0.00    -0.141 C  
BRANCH  10  11
HETATM   11  C   UNL     1      -9.135  10.175  63.533  1.00  0.00    -0.275 C  
HETATM   12  O   UNL     1      -9.762  10.005  62.484  1.00  0.00    -0.205 OA 
BRANCH  11  13
HETATM   13  O   UNL     1      -9.771  10.555  64.712  1.00  0.00    -0.251 OA 
BRANCH  13  14
HETATM   14  C   UNL     1      -9.103  11.685  65.519  1.00  0.00    -0.040 C  
HETATM   15  C   UNL     1      -9.157  11.022  66.901  1.00  0.00    -0.165 C  
HETATM   16  C   UNL     1     -10.671  11.135  67.101  1.00  0.00    -0.305 C  
HETATM   17  C   UNL     1     -10.739  12.640  67.109  1.00  0.00    -0.264 C  
HETATM   18  C   UNL     1     -11.779  13.328  67.993  1.00  0.00    -0.394 C  
HETATM   19  C   UNL     1     -11.873  12.375  69.209  1.00  0.00    -0.361 C  
HETATM   20  C   UNL     1     -12.355  12.928  70.498  1.00  0.00    -0.362 C  
HETATM   21  C   UNL     1     -11.657  14.270  70.791  1.00  0.00    -0.182 C  
HETATM   22  C   UNL     1     -11.473  14.601  72.066  1.00  0.00     0.152 C  
HETATM   23  C   UNL     1     -12.871  14.674  72.574  1.00  0.00    -0.388 C  
HETATM   24  O   UNL     1     -13.153  14.223  73.665  1.00  0.00    -0.410 OA 
HETATM   25  C   UNL     1     -13.889  15.331  71.592  1.00  0.00    -0.615 C  
HETATM   26  C   UNL     1     -13.492  15.465  70.024  1.00  0.00     0.616 C  
HETATM   27  C   UNL     1     -11.942  15.347  69.730  1.00  0.00    -0.381 C  
HETATM   28  C   UNL     1     -11.388  16.750  70.020  1.00  0.00     0.278 C  
HETATM   29  C   UNL     1     -11.207  14.708  68.436  1.00  0.00    -0.290 C  
HETATM   30  C   UNL     1     -10.649  15.438  67.151  1.00  0.00    -0.305 C  
HETATM   31  C   UNL     1      -9.503  14.542  66.356  1.00  0.00    -0.316 C  
HETATM   32  C   UNL     1     -10.044  13.119  65.808  1.00  0.00    -0.290 C  
HETATM   33  C   UNL     1     -10.730  13.464  64.485  1.00  0.00    -0.434 C  
ENDBRANCH  13  14
ENDBRANCH  11  13
ENDBRANCH  10  11
ENDBRANCH   9  10
ENDBRANCH   8   9
ENDBRANCH   7   8
ENDBRANCH   6   7
ENDBRANCH   5   6
ENDBRANCH   4   5
ENDBRANCH   3   4
ENDBRANCH   2   3
TORSDOF 11
ENDMDL
MODEL      146
REMARK 921   NORMALIZED FREE ENERGY PREDICTED BY IDOCK:   -3.32 KCAL/MOL
REMARK 922        TOTAL FREE ENERGY PREDICTED BY IDOCK:   -7.64 KCAL/MOL
REMARK 923 INTER-LIGAND FREE ENERGY PREDICTED BY IDOCK:   -5.44 KCAL/MOL
REMARK 924 INTRA-LIGAND FREE ENERGY PREDICTED BY IDOCK:   -2.19 KCAL/MOL
REMARK 927      BINDING AFFINITY PREDICTED BY RF-SCORE:    0.00 PKD
ROOT
HETATM    1  C   UNL     1      -8.643   9.826  69.912  1.00  0.00    -0.236 C  
HETATM    2  C   UNL     1      -7.685  10.785  69.252  1.00  0.00    -0.129 C  
ENDROOT
BRANCH   2   3
HETATM    3  C   UNL     1      -8.369  11.619  68.145  1.00  0.00    -0.154 C  
BRANCH   3   4
HETATM    4  C   UNL     1      -9.701  10.994  67.700  1.00  0.00    -0.184 C  
BRANCH   4   5
HETATM    5  C   UNL     1     -10.776  12.054  67.433  1.00  0.00    -0.266 C  
BRANCH   5   6
HETATM    6  C   UNL     1     -10.380  13.016  66.301  1.00  0.00    -0.291 C  
BRANCH   6   7
HETATM    7  C   UNL     1     -11.286  12.822  65.076  1.00  0.00    -0.344 C  
BRANCH   7   8
HETATM    8  C   UNL     1     -10.620  12.130  63.881  1.00  0.00    -0.457 C  
BRANCH   8   9
HETATM    9  C   UNL     1     -10.268  10.664  64.078  1.00  0.00    -0.334 C  
BRANCH   9  10
HETATM   10  C   UNL     1      -8.840  10.287  63.698  1.00  0.00    -0.233 C  
BRANCH  10  11
HETATM   11  C   UNL     1      -7.944   9.257  64.441  1.00  0.00    -0.133 C  
HETATM   12  O   UNL     1      -6.924   8.868  63.864  1.00  0.00    -0.087 OA 
BRANCH  11  13
HETATM   13  O   UNL     1      -8.403   8.647  65.604  1.00  0.00    -0.127 OA 
BRANCH  13  14
HETATM   14  C   UNL     1      -7.956   7.191  65.839  1.00  0.00    -0.116 C  
HETATM   15  C   UNL     1      -9.330   6.595  66.170  1.00  0.00    -0.097 C  
HETATM   16  C   UNL     1      -9.494   7.261  67.539  1.00  0.00    -0.151 C  
HETATM   17  C   UNL     1      -8.325   6.586  68.209  1.00  0.00    -0.117 C  
HETATM   18  C   UNL     1      -8.418   6.250  69.697  1.00  0.00    -0.129 C  
HETATM   19  C   UNL     1      -9.921   5.926  69.876  1.00  0.00    -0.238 C  
HETATM   20  C   UNL     1     -10.320   5.063  71.014  1.00  0.00    -0.254 C  
HETATM   21  C   UNL     1      -9.389   3.840  71.103  1.00  0.00    -0.219 C  
HETATM   22  C   UNL     1      -9.897   2.715  71.599  1.00  0.00    -0.213 C  
HETATM   23  C   UNL     1     -10.272   3.125  72.981  1.00  0.00    -0.153 C  
HETATM   24  O   UNL     1     -11.321   2.756  73.468  1.00  0.00    -0.218 OA 
HETATM   25  C   UNL     1      -9.241   4.058  73.688  1.00  0.00    -0.101 C  
HETATM   26  C   UNL     1      -8.138   4.835  72.786  1.00  0.00    -0.101 C  
HETATM   27  C   UNL     1      -7.917   4.215  71.348  1.00  0.00    -0.077 C  
HETATM   28  C   UNL     1      -6.947   3.046  71.579  1.00  0.00    -0.031 C  
HETATM   29  C   UNL     1      -7.559   4.978  69.965  1.00  0.00    -0.060 C  
HETATM   30  C   UNL     1      -6.149   5.192  69.286  1.00  0.00    -0.025 C  
HETATM   31  C   UNL     1      -6.263   5.506  67.662  1.00  0.00    -0.034 C  
HETATM   32  C   UNL     1      -7.090   6.851  67.309  1.00  0.00    -0.084 C  
HETATM   33  C   UNL     1      -6.065   7.975  67.480  1.00  0.00    -0.051 C  
ENDBRANCH  13  14
ENDBRANCH  11  13
ENDBRANCH  10  11
ENDBRANCH   9  10
ENDBRANCH   8   9
ENDBRANCH   7   8
ENDBRANCH   6   7
ENDBRANCH   5   6
ENDBRANCH   4   5
ENDBRANCH   3   4
ENDBRANCH   2   3
TORSDOF 11
ENDMDL
MODEL      147
REMARK 921   NORMALIZED FREE ENERGY PREDICTED BY IDOCK:   -3.29 KCAL/MOL
REMARK 922        TOTAL FREE ENERGY PREDICTED BY IDOCK:   -7.59 KCAL/MOL
REMARK 923 INTER-LIGAND FREE ENERGY PREDICTED BY IDOCK:   -6.45 KCAL/MOL
REMARK 924 INTRA-LIGAND FREE ENERGY PREDICTED BY IDOCK:   -1.14 KCAL/MOL
REMARK 927      BINDING AFFINITY PREDICTED BY RF-SCORE:    0.00 PKD
ROOT
HETATM    1  C   UNL     1      -9.586  20.399  66.844  1.00  0.00    -0.546 C  
HETATM    2  C   UNL     1      -9.190  19.800  68.170  1.00  0.00    -0.406 C  
ENDROOT
BRANCH   2   3
HETATM    3  C   UNL     1      -9.355  18.262  68.184  1.00  0.00    -0.307 C  
BRANCH   3   4
HETATM    4  C   UNL     1      -9.851  17.729  66.831  1.00  0.00    -0.312 C  
BRANCH   4   5
HETATM    5  C   UNL     1      -9.017  16.542  66.335  1.00  0.00    -0.340 C  
BRANCH   5   6
HETATM    6  C   UNL     1      -9.788  15.665  65.334  1.00  0.00    -0.253 C  
BRANCH   6   7
HETATM    7  C   UNL     1     -10.943  16.450  64.695  1.00  0.00    -0.160 C  
BRANCH   7   8
HETATM    8  C   UNL     1     -12.275  15.693  64.618  1.00  0.00     0.114 C  
BRANCH   8   9
HETATM    9  C   UNL     1     -12.196  14.191  64.839  1.00  0.00    -0.451 C  
BRANCH   9  10
HETATM   10  C   UNL     1     -12.716  13.711  66.190  1.00  0.00    -0.295 C  
BRANCH  10  11
HETATM   11  C   UNL     1     -11.881  13.593  67.496  1.00  0.00    -0.381 C  
HETATM   12  O   UNL     1     -11.628  14.635  68.107  1.00  0.00    -0.305 OA 
BRANCH  11  13
HETATM   13  O   UNL     1     -11.270  12.386  67.823  1.00  0.00    -0.241 OA 
BRANCH  13  14
HETATM   14  C   UNL     1     -10.172  11.890  66.862  1.00  0.00    -0.208 C  
HETATM   15  C   UNL     1     -11.015  10.875  66.079  1.00  0.00    -0.074 C  
HETATM   16  C   UNL     1     -11.154   9.845  67.203  1.00  0.00    -0.006 C  
HETATM   17  C   UNL     1      -9.690   9.508  67.320  1.00  0.00    -0.215 C  
HETATM   18  C   UNL     1      -9.287   8.080  67.689  1.00  0.00    -0.162 C  
HETATM   19  C   UNL     1     -10.398   7.233  67.021  1.00  0.00    -0.376 C  
HETATM   20  C   UNL     1     -10.099   5.818  66.695  1.00  0.00    -0.235 C  
HETATM   21  C   UNL     1      -8.721   5.712  66.015  1.00  0.00    -0.144 C  
HETATM   22  C   UNL     1      -8.540   4.722  65.144  1.00  0.00    -0.140 C  
HETATM   23  C   UNL     1      -8.742   3.517  65.994  1.00  0.00    -0.122 C  
HETATM   24  O   UNL     1      -9.372   2.568  65.575  1.00  0.00    -0.120 OA 
HETATM   25  C   UNL     1      -8.117   3.611  67.420  1.00  0.00    -0.090 C  
HETATM   26  C   UNL     1      -7.717   5.070  68.007  1.00  0.00    -0.083 C  
HETATM   27  C   UNL     1      -7.565   6.197  66.907  1.00  0.00    -0.099 C  
HETATM   28  C   UNL     1      -6.147   6.001  66.350  1.00  0.00    -0.032 C  
HETATM   29  C   UNL     1      -7.910   7.775  67.027  1.00  0.00    -0.112 C  
HETATM   30  C   UNL     1      -6.940   8.980  67.345  1.00  0.00    -0.078 C  
HETATM   31  C   UNL     1      -7.543  10.437  66.831  1.00  0.00    -0.107 C  
HETATM   32  C   UNL     1      -8.944  10.852  67.525  1.00  0.00    -0.136 C  
HETATM   33  C   UNL     1      -8.530  11.467  68.863  1.00  0.00    -0.028 C  
ENDBRANCH  13  14
ENDBRANCH  11  13
ENDBRANCH  10  11
ENDBRANCH   9  10
ENDBRANCH   8   9
ENDBRANCH   7   8
ENDBRANCH   6   7
ENDBRANCH   5   6
ENDBRANCH   4   5
ENDBRANCH   3   4
ENDBRANCH   2   3
TORSDOF 11
ENDMDL
MODEL      148
REMARK 921   NORMALIZED FREE ENERGY PREDICTED BY IDOCK:   -3.28 KCAL/MOL
REMARK 922        TOTAL FREE ENERGY PREDICTED BY IDOCK:   -7.57 KCAL/MOL
REMARK 923 INTER-LIGAND FREE ENERGY PREDICTED BY IDOCK:   -5.93 KCAL/MOL
REMARK 924 INTRA-LIGAND FREE ENERGY PREDICTED BY IDOCK:   -1.65 KCAL/MOL
REMARK 927      BINDING AFFINITY PREDICTED BY RF-SCORE:    0.00 PKD
ROOT
HETATM    1  C   UNL     1      -7.982  10.268  63.191  1.00  0.00    -0.151 C  
HETATM    2  C   UNL     1      -7.268   8.951  63.373  1.00  0.00    -0.093 C  
ENDROOT
BRANCH   2   3
HETATM    3  C   UNL     1      -6.850   8.716  64.843  1.00  0.00    -0.072 C  
BRANCH   3   4
HETATM    4  C   UNL     1      -7.338   7.355  65.364  1.00  0.00    -0.072 C  
BRANCH   4   5
HETATM    5  C   UNL     1      -6.390   6.765  66.415  1.00  0.00    -0.046 C  
BRANCH   5   6
HETATM    6  C   UNL     1      -7.148   6.102  67.577  1.00  0.00    -0.074 C  
BRANCH   6   7
HETATM    7  C   UNL     1      -7.799   4.786  67.127  1.00  0.00    -0.095 C  
BRANCH   7   8
HETATM    8  C   UNL     1      -8.954   4.300  68.011  1.00  0.00    -0.148 C  
BRANCH   8   9
HETATM    9  C   UNL     1      -9.275   5.168  69.217  1.00  0.00    -0.151 C  
BRANCH   9  10
HETATM   10  C   UNL     1     -10.493   6.070  69.055  1.00  0.00    -0.319 C  
BRANCH  10  11
HETATM   11  C   UNL     1     -10.742   7.061  67.882  1.00  0.00    -0.210 C  
HETATM   12  O   UNL     1     -11.494   6.694  66.975  1.00  0.00    -0.233 OA 
BRANCH  11  13
HETATM   13  O   UNL     1      -9.969   8.213  67.770  1.00  0.00    -0.162 OA 
BRANCH  13  14
HETATM   14  C   UNL     1     -10.710   9.499  67.357  1.00  0.00    -0.227 C  
HETATM   15  C   UNL     1      -9.705   9.999  66.312  1.00  0.00    -0.272 C  
HETATM   16  C   UNL     1      -8.598  10.392  67.294  1.00  0.00    -0.126 C  
HETATM   17  C   UNL     1      -9.367  11.471  68.011  1.00  0.00    -0.175 C  
HETATM   18  C   UNL     1      -8.613  12.693  68.535  1.00  0.00    -0.051 C  
HETATM   19  C   UNL     1      -7.494  12.877  67.482  1.00  0.00    -0.155 C  
HETATM   20  C   UNL     1      -6.888  14.222  67.331  1.00  0.00    -0.042 C  
HETATM   21  C   UNL     1      -7.991  15.296  67.284  1.00  0.00    -0.231 C  
HETATM   22  C   UNL     1      -7.746  16.398  66.580  1.00  0.00    -0.310 C  
HETATM   23  C   UNL     1      -6.565  16.964  67.290  1.00  0.00    -0.173 C  
HETATM   24  O   UNL     1      -5.640  17.437  66.663  1.00  0.00    -0.158 OA 
HETATM   25  C   UNL     1      -6.626  16.860  68.845  1.00  0.00    -0.193 C  
HETATM   26  C   UNL     1      -7.668  15.817  69.522  1.00  0.00    -0.166 C  
HETATM   27  C   UNL     1      -8.840  15.352  68.566  1.00  0.00    -0.183 C  
HETATM   28  C   UNL     1      -9.875  16.484  68.648  1.00  0.00    -0.250 C  
HETATM   29  C   UNL     1      -9.582  13.913  68.507  1.00  0.00    -0.185 C  
HETATM   30  C   UNL     1     -10.941  13.470  69.179  1.00  0.00    -0.220 C  
HETATM   31  C   UNL     1     -11.619  12.151  68.438  1.00  0.00    -0.381 C  
HETATM   32  C   UNL     1     -10.695  10.824  68.484  1.00  0.00    -0.245 C  
HETATM   33  C   UNL     1     -10.971  10.223  69.864  1.00  0.00    -0.358 C  
ENDBRANCH  13  14
ENDBRANCH  11  13
ENDBRANCH  10  11
ENDBRANCH   9  10
ENDBRANCH   8   9
ENDBRANCH   7   8
ENDBRANCH   6   7
ENDBRANCH   5   6
ENDBRANCH   4   5
ENDBRANCH   3   4
ENDBRANCH   2   3
TORSDOF 11
ENDMDL
MODEL      149
REMARK 921   NORMALIZED FREE ENERGY PREDICTED BY IDOCK:   -3.27 KCAL/MOL
REMARK 922        TOTAL FREE ENERGY PREDICTED BY IDOCK:   -7.56 KCAL/MOL
REMARK 923 INTER-LIGAND FREE ENERGY PREDICTED BY IDOCK:   -6.54 KCAL/MOL
REMARK 924 INTRA-LIGAND FREE ENERGY PREDICTED BY IDOCK:   -1.02 KCAL/MOL
REMARK 927      BINDING AFFINITY PREDICTED BY RF-SCORE:    0.00 PKD
ROOT
HETATM    1  C   UNL     1      -8.566   3.245  71.963  1.00  0.00    -0.098 C  
HETATM    2  C   UNL     1      -8.678   2.926  70.493  1.00  0.00    -0.126 C  
ENDROOT
BRANCH   2   3
HETATM    3  C   UNL     1      -8.243   4.116  69.607  1.00  0.00    -0.067 C  
BRANCH   3   4
HETATM    4  C   UNL     1      -8.194   5.431  70.400  1.00  0.00    -0.105 C  
BRANCH   4   5
HETATM    5  C   UNL     1      -6.961   6.273  70.050  1.00  0.00    -0.066 C  
BRANCH   5   6
HETATM    6  C   UNL     1      -6.506   6.066  68.596  1.00  0.00    -0.049 C  
BRANCH   6   7
HETATM    7  C   UNL     1      -7.093   7.149  67.679  1.00  0.00    -0.089 C  
BRANCH   7   8
HETATM    8  C   UNL     1      -8.266   6.690  66.804  1.00  0.00    -0.114 C  
BRANCH   8   9
HETATM    9  C   UNL     1      -8.729   7.679  65.746  1.00  0.00    -0.151 C  
BRANCH   9  10
HETATM   10  C   UNL     1      -9.904   8.559  66.159  1.00  0.00    -0.227 C  
BRANCH  10  11
HETATM   11  C   UNL     1     -10.135   9.163  67.573  1.00  0.00    -0.228 C  
HETATM   12  O   UNL     1     -10.875   8.543  68.343  1.00  0.00    -0.081 OA 
BRANCH  11  13
HETATM   13  O   UNL     1      -9.699  10.453  67.858  1.00  0.00    -0.148 OA 
BRANCH  13  14
HETATM   14  C   UNL     1     -10.425  11.601  67.129  1.00  0.00    -0.220 C  
HETATM   15  C   UNL     1      -9.261  12.066  66.246  1.00  0.00    -0.208 C  
HETATM   16  C   UNL     1      -8.416  12.682  67.365  1.00  0.00    -0.186 C  
HETATM   17  C   UNL     1      -9.395  13.760  67.756  1.00  0.00    -0.213 C  
HETATM   18  C   UNL     1      -8.857  15.105  68.244  1.00  0.00    -0.173 C  
HETATM   19  C   UNL     1      -7.556  15.268  67.420  1.00  0.00    -0.229 C  
HETATM   20  C   UNL     1      -7.030  16.637  67.207  1.00  0.00    -0.211 C  
HETATM   21  C   UNL     1      -8.172  17.583  66.790  1.00  0.00    -0.273 C  
HETATM   22  C   UNL     1      -7.862  18.611  66.004  1.00  0.00    -0.187 C  
HETATM   23  C   UNL     1      -6.901  19.372  66.848  1.00  0.00    -0.196 C  
HETATM   24  O   UNL     1      -5.900  19.854  66.358  1.00  0.00    -0.171 OA 
HETATM   25  C   UNL     1      -7.281  19.454  68.359  1.00  0.00    -0.345 C  
HETATM   26  C   UNL     1      -8.366  18.403  68.953  1.00  0.00    -0.177 C  
HETATM   27  C   UNL     1      -9.273  17.712  67.857  1.00  0.00    -0.267 C  
HETATM   28  C   UNL     1     -10.380  18.738  67.572  1.00  0.00    -0.471 C  
HETATM   29  C   UNL     1      -9.882  16.211  67.853  1.00  0.00    -0.235 C  
HETATM   30  C   UNL     1     -11.317  15.722  68.295  1.00  0.00    -0.354 C  
HETATM   31  C   UNL     1     -11.728  14.262  67.626  1.00  0.00    -0.421 C  
HETATM   32  C   UNL     1     -10.743  13.048  68.041  1.00  0.00    -0.248 C  
HETATM   33  C   UNL     1     -11.261  12.596  69.408  1.00  0.00    -0.205 C  
ENDBRANCH  13  14
ENDBRANCH  11  13
ENDBRANCH  10  11
ENDBRANCH   9  10
ENDBRANCH   8   9
ENDBRANCH   7   8
ENDBRANCH   6   7
ENDBRANCH   5   6
ENDBRANCH   4   5
ENDBRANCH   3   4
ENDBRANCH   2   3
TORSDOF 11
ENDMDL
MODEL      150
REMARK 921   NORMALIZED FREE ENERGY PREDICTED BY IDOCK:   -3.26 KCAL/MOL
REMARK 922        TOTAL FREE ENERGY PREDICTED BY IDOCK:   -7.54 KCAL/MOL
REMARK 923 INTER-LIGAND FREE ENERGY PREDICTED BY IDOCK:   -5.98 KCAL/MOL
REMARK 924 INTRA-LIGAND FREE ENERGY PREDICTED BY IDOCK:   -1.56 KCAL/MOL
REMARK 927      BINDING AFFINITY PREDICTED BY RF-SCORE:    0.00 PKD
ROOT
HETATM    1  C   UNL     1      -6.842   7.389  62.495  1.00  0.00    -0.070 C  
HETATM    2  C   UNL     1      -7.049   6.208  63.411  1.00  0.00    -0.052 C  
ENDROOT
BRANCH   2   3
HETATM    3  C   UNL     1      -8.147   6.478  64.465  1.00  0.00    -0.079 C  
BRANCH   3   4
HETATM    4  C   UNL     1      -7.896   5.696  65.764  1.00  0.00    -0.101 C  
BRANCH   4   5
HETATM    5  C   UNL     1      -9.056   4.753  66.106  1.00  0.00    -0.129 C  
BRANCH   5   6
HETATM    6  C   UNL     1      -8.603   3.289  66.225  1.00  0.00    -0.121 C  
BRANCH   6   7
HETATM    7  C   UNL     1      -8.333   2.917  67.691  1.00  0.00    -0.093 C  
BRANCH   7   8
HETATM    8  C   UNL     1      -9.453   3.291  68.669  1.00  0.00    -0.200 C  
BRANCH   8   9
HETATM    9  C   UNL     1      -9.019   4.049  69.914  1.00  0.00    -0.161 C  
BRANCH   9  10
HETATM   10  C   UNL     1      -8.985   5.566  69.764  1.00  0.00    -0.143 C  
BRANCH  10  11
HETATM   11  C   UNL     1      -7.704   6.438  69.632  1.00  0.00    -0.103 C  
HETATM   12  O   UNL     1      -6.626   5.915  69.929  1.00  0.00    -0.046 OA 
BRANCH  11  13
HETATM   13  O   UNL     1      -7.815   7.806  69.402  1.00  0.00    -0.110 OA 
BRANCH  13  14
HETATM   14  C   UNL     1      -8.711   8.233  68.223  1.00  0.00    -0.136 C  
HETATM   15  C   UNL     1      -7.687   9.097  67.477  1.00  0.00    -0.092 C  
HETATM   16  C   UNL     1      -7.653  10.252  68.483  1.00  0.00    -0.089 C  
HETATM   17  C   UNL     1      -9.090  10.675  68.318  1.00  0.00    -0.153 C  
HETATM   18  C   UNL     1      -9.444  12.157  68.448  1.00  0.00    -0.179 C  
HETATM   19  C   UNL     1      -8.185  12.856  67.879  1.00  0.00    -0.165 C  
HETATM   20  C   UNL     1      -8.328  14.232  67.347  1.00  0.00    -0.212 C  
HETATM   21  C   UNL     1      -9.572  14.322  66.443  1.00  0.00    -0.317 C  
HETATM   22  C   UNL     1      -9.544  15.203  65.445  1.00  0.00    -0.127 C  
HETATM   23  C   UNL     1      -9.393  16.493  66.172  1.00  0.00    -0.304 C  
HETATM   24  O   UNL     1      -8.640  17.349  65.755  1.00  0.00    -0.526 OA 
HETATM   25  C   UNL     1     -10.239  16.611  67.478  1.00  0.00    -0.289 C  
HETATM   26  C   UNL     1     -10.827  15.259  68.156  1.00  0.00    -0.273 C  
HETATM   27  C   UNL     1     -10.885  14.013  67.184  1.00  0.00    -0.288 C  
HETATM   28  C   UNL     1     -12.181  14.210  66.382  1.00  0.00    -0.473 C  
HETATM   29  C   UNL     1     -10.676  12.446  67.539  1.00  0.00    -0.256 C  
HETATM   30  C   UNL     1     -11.765  11.341  67.832  1.00  0.00    -0.289 C  
HETATM   31  C   UNL     1     -11.194   9.803  67.594  1.00  0.00     0.027 C  
HETATM   32  C   UNL     1      -9.952   9.408  68.552  1.00  0.00    -0.190 C  
HETATM   33  C   UNL     1     -10.612   8.987  69.866  1.00  0.00    -0.240 C  
ENDBRANCH  13  14
ENDBRANCH  11  13
ENDBRANCH  10  11
ENDBRANCH   9  10
ENDBRANCH   8   9
ENDBRANCH   7   8
ENDBRANCH   6   7
ENDBRANCH   5   6
ENDBRANCH   4   5
ENDBRANCH   3   4
ENDBRANCH   2   3
TORSDOF 11
ENDMDL
MODEL      151
REMARK 921   NORMALIZED FREE ENERGY PREDICTED BY IDOCK:   -3.26 KCAL/MOL
REMARK 922        TOTAL FREE ENERGY PREDICTED BY IDOCK:   -7.54 KCAL/MOL
REMARK 923 INTER-LIGAND FREE ENERGY PREDICTED BY IDOCK:   -6.26 KCAL/MOL
REMARK 924 INTRA-LIGAND FREE ENERGY PREDICTED BY IDOCK:   -1.28 KCAL/MOL
REMARK 927      BINDING AFFINITY PREDICTED BY RF-SCORE:    0.00 PKD
ROOT
HETATM    1  C   UNL     1     -10.918  16.238  67.273  1.00  0.00    -0.144 C  
HETATM    2  C   UNL     1     -10.346  16.804  65.997  1.00  0.00    -0.346 C  
ENDROOT
BRANCH   2   3
HETATM    3  C   UNL     1     -11.177  16.396  64.759  1.00  0.00    -0.219 C  
BRANCH   3   4
HETATM    4  C   UNL     1     -12.089  15.195  65.054  1.00  0.00    -0.043 C  
BRANCH   4   5
HETATM    5  C   UNL     1     -12.332  14.334  63.809  1.00  0.00    -0.048 C  
BRANCH   5   6
HETATM    6  C   UNL     1     -12.697  12.883  64.165  1.00  0.00    -0.256 C  
BRANCH   6   7
HETATM    7  C   UNL     1     -11.750  11.894  63.469  1.00  0.00    -0.550 C  
BRANCH   7   8
HETATM    8  C   UNL     1     -10.280  12.000  63.894  1.00  0.00    -0.424 C  
BRANCH   8   9
HETATM    9  C   UNL     1      -9.996  11.745  65.365  1.00  0.00    -0.284 C  
BRANCH   9  10
HETATM   10  C   UNL     1      -9.630  12.984  66.174  1.00  0.00    -0.209 C  
BRANCH  10  11
HETATM   11  C   UNL     1      -8.694  13.017  67.415  1.00  0.00    -0.205 C  
HETATM   12  O   UNL     1      -7.682  13.720  67.348  1.00  0.00    -0.169 OA 
BRANCH  11  13
HETATM   13  O   UNL     1      -8.891  12.115  68.458  1.00  0.00    -0.160 OA 
BRANCH  13  14
HETATM   14  C   UNL     1      -8.275  10.714  68.279  1.00  0.00    -0.120 C  
HETATM   15  C   UNL     1      -9.579   9.909  68.244  1.00  0.00    -0.151 C  
HETATM   16  C   UNL     1      -9.939  10.077  69.724  1.00  0.00    -0.276 C  
HETATM   17  C   UNL     1      -8.748   9.344  70.283  1.00  0.00    -0.261 C  
HETATM   18  C   UNL     1      -8.913   8.538  71.571  1.00  0.00    -0.276 C  
HETATM   19  C   UNL     1     -10.370   8.024  71.463  1.00  0.00    -0.258 C  
HETATM   20  C   UNL     1     -10.741   6.805  72.222  1.00  0.00    -0.250 C  
HETATM   21  C   UNL     1      -9.665   5.719  72.034  1.00  0.00    -0.177 C  
HETATM   22  C   UNL     1     -10.058   4.449  72.093  1.00  0.00    -0.262 C  
HETATM   23  C   UNL     1     -10.593   4.352  73.480  1.00  0.00    -0.227 C  
HETATM   24  O   UNL     1     -11.619   3.742  73.702  1.00  0.00    -0.166 OA 
HETATM   25  C   UNL     1      -9.754   5.105  74.558  1.00  0.00    -0.191 C  
HETATM   26  C   UNL     1      -8.695   6.238  74.078  1.00  0.00    -0.130 C  
HETATM   27  C   UNL     1      -8.280   6.140  72.555  1.00  0.00    -0.108 C  
HETATM   28  C   UNL     1      -7.186   5.062  72.523  1.00  0.00    -0.087 C  
HETATM   29  C   UNL     1      -7.918   7.340  71.529  1.00  0.00    -0.100 C  
HETATM   30  C   UNL     1      -6.499   7.902  71.122  1.00  0.00    -0.037 C  
HETATM   31  C   UNL     1      -6.525   8.710  69.674  1.00  0.00    -0.039 C  
HETATM   32  C   UNL     1      -7.491  10.007  69.662  1.00  0.00    -0.134 C  
HETATM   33  C   UNL     1      -6.641  11.112  70.292  1.00  0.00     0.047 C  
ENDBRANCH  13  14
ENDBRANCH  11  13
ENDBRANCH  10  11
ENDBRANCH   9  10
ENDBRANCH   8   9
ENDBRANCH   7   8
ENDBRANCH   6   7
ENDBRANCH   5   6
ENDBRANCH   4   5
ENDBRANCH   3   4
ENDBRANCH   2   3
TORSDOF 11
ENDMDL
MODEL      152
REMARK 921   NORMALIZED FREE ENERGY PREDICTED BY IDOCK:   -3.25 KCAL/MOL
REMARK 922        TOTAL FREE ENERGY PREDICTED BY IDOCK:   -7.52 KCAL/MOL
REMARK 923 INTER-LIGAND FREE ENERGY PREDICTED BY IDOCK:   -5.69 KCAL/MOL
REMARK 924 INTRA-LIGAND FREE ENERGY PREDICTED BY IDOCK:   -1.84 KCAL/MOL
REMARK 927      BINDING AFFINITY PREDICTED BY RF-SCORE:    0.00 PKD
ROOT
HETATM    1  C   UNL     1      -8.014  10.341  63.202  1.00  0.00    -0.151 C  
HETATM    2  C   UNL     1      -7.037   9.234  63.512  1.00  0.00    -0.090 C  
ENDROOT
BRANCH   2   3
HETATM    3  C   UNL     1      -6.767   9.106  65.029  1.00  0.00    -0.073 C  
BRANCH   3   4
HETATM    4  C   UNL     1      -6.617   7.639  65.460  1.00  0.00    -0.045 C  
BRANCH   4   5
HETATM    5  C   UNL     1      -5.610   7.472  66.604  1.00  0.00    -0.024 C  
BRANCH   5   6
HETATM    6  C   UNL     1      -5.961   6.290  67.523  1.00  0.00    -0.017 C  
BRANCH   6   7
HETATM    7  C   UNL     1      -5.994   4.974  66.732  1.00  0.00    -0.026 C  
BRANCH   7   8
HETATM    8  C   UNL     1      -6.436   3.746  67.538  1.00  0.00    -0.038 C  
BRANCH   8   9
HETATM    9  C   UNL     1      -6.399   3.899  69.050  1.00  0.00    -0.029 C  
BRANCH   9  10
HETATM   10  C   UNL     1      -7.765   3.959  69.724  1.00  0.00    -0.052 C  
BRANCH  10  11
HETATM   11  C   UNL     1      -9.038   4.637  69.142  1.00  0.00    -0.117 C  
HETATM   12  O   UNL     1      -9.967   3.903  68.793  1.00  0.00    -0.020 OA 
BRANCH  11  13
HETATM   13  O   UNL     1      -9.022   5.994  68.832  1.00  0.00    -0.123 OA 
BRANCH  13  14
HETATM   14  C   UNL     1     -10.311   6.782  69.134  1.00  0.00    -0.194 C  
HETATM   15  C   UNL     1     -10.635   7.220  67.700  1.00  0.00    -0.316 C  
HETATM   16  C   UNL     1      -9.493   8.229  67.553  1.00  0.00    -0.182 C  
HETATM   17  C   UNL     1      -9.951   9.177  68.632  1.00  0.00    -0.185 C  
HETATM   18  C   UNL     1      -9.694  10.674  68.459  1.00  0.00    -0.177 C  
HETATM   19  C   UNL     1      -9.815  10.862  66.927  1.00  0.00    -0.222 C  
HETATM   20  C   UNL     1     -10.153  12.210  66.411  1.00  0.00    -0.242 C  
HETATM   21  C   UNL     1     -11.319  12.809  67.222  1.00  0.00    -0.364 C  
HETATM   22  C   UNL     1     -12.133  13.653  66.594  1.00  0.00    -0.459 C  
HETATM   23  C   UNL     1     -11.207  14.755  66.214  1.00  0.00    -0.343 C  
HETATM   24  O   UNL     1     -11.287  15.275  65.120  1.00  0.00    -0.357 OA 
HETATM   25  C   UNL     1     -10.155  15.131  67.303  1.00  0.00    -0.235 C  
HETATM   26  C   UNL     1      -9.859  14.079  68.503  1.00  0.00    -0.225 C  
HETATM   27  C   UNL     1     -10.990  12.993  68.713  1.00  0.00    -0.295 C  
HETATM   28  C   UNL     1     -12.054  13.705  69.562  1.00  0.00    -0.368 C  
HETATM   29  C   UNL     1     -10.832  11.451  69.186  1.00  0.00    -0.260 C  
HETATM   30  C   UNL     1     -10.993  10.836  70.632  1.00  0.00     0.235 C  
HETATM   31  C   UNL     1     -11.306   9.208  70.601  1.00  0.00    -0.323 C  
HETATM   32  C   UNL     1     -10.136   8.326  69.915  1.00  0.00    -0.195 C  
HETATM   33  C   UNL     1      -9.110   8.134  71.034  1.00  0.00    -0.176 C  
ENDBRANCH  13  14
ENDBRANCH  11  13
ENDBRANCH  10  11
ENDBRANCH   9  10
ENDBRANCH   8   9
ENDBRANCH   7   8
ENDBRANCH   6   7
ENDBRANCH   5   6
ENDBRANCH   4   5
ENDBRANCH   3   4
ENDBRANCH   2   3
TORSDOF 11
ENDMDL
MODEL      153
REMARK 921   NORMALIZED FREE ENERGY PREDICTED BY IDOCK:   -3.24 KCAL/MOL
REMARK 922        TOTAL FREE ENERGY PREDICTED BY IDOCK:   -7.51 KCAL/MOL
REMARK 923 INTER-LIGAND FREE ENERGY PREDICTED BY IDOCK:   -6.01 KCAL/MOL
REMARK 924 INTRA-LIGAND FREE ENERGY PREDICTED BY IDOCK:   -1.50 KCAL/MOL
REMARK 927      BINDING AFFINITY PREDICTED BY RF-SCORE:    0.00 PKD
ROOT
HETATM    1  C   UNL     1     -11.130   6.440  69.875  1.00  0.00    -0.444 C  
HETATM    2  C   UNL     1     -10.788   5.957  68.488  1.00  0.00    -0.323 C  
ENDROOT
BRANCH   2   3
HETATM    3  C   UNL     1      -9.615   4.950  68.496  1.00  0.00    -0.210 C  
BRANCH   3   4
HETATM    4  C   UNL     1      -9.722   3.939  67.344  1.00  0.00    -0.173 C  
BRANCH   4   5
HETATM    5  C   UNL     1      -8.747   4.256  66.204  1.00  0.00    -0.114 C  
BRANCH   5   6
HETATM    6  C   UNL     1      -7.304   3.841  66.538  1.00  0.00    -0.072 C  
BRANCH   6   7
HETATM    7  C   UNL     1      -6.350   4.207  65.392  1.00  0.00    -0.032 C  
BRANCH   7   8
HETATM    8  C   UNL     1      -6.189   5.711  65.141  1.00  0.00    -0.030 C  
BRANCH   8   9
HETATM    9  C   UNL     1      -6.034   6.576  66.381  1.00  0.00    -0.025 C  
BRANCH   9  10
HETATM   10  C   UNL     1      -6.819   7.883  66.357  1.00  0.00    -0.062 C  
BRANCH  10  11
HETATM   11  C   UNL     1      -8.368   8.013  66.359  1.00  0.00    -0.124 C  
HETATM   12  O   UNL     1      -8.962   7.772  65.304  1.00  0.00     0.021 OA 
BRANCH  11  13
HETATM   13  O   UNL     1      -9.016   8.591  67.447  1.00  0.00    -0.132 OA 
BRANCH  13  14
HETATM   14  C   UNL     1      -8.421   9.909  67.979  1.00  0.00    -0.117 C  
HETATM   15  C   UNL     1      -8.863   9.769  69.441  1.00  0.00    -0.188 C  
HETATM   16  C   UNL     1     -10.360   9.992  69.203  1.00  0.00    -0.233 C  
HETATM   17  C   UNL     1     -10.252  11.408  68.699  1.00  0.00    -0.217 C  
HETATM   18  C   UNL     1     -11.379  12.392  69.014  1.00  0.00    -0.336 C  
HETATM   19  C   UNL     1     -11.855  11.924  70.411  1.00  0.00    -0.329 C  
HETATM   20  C   UNL     1     -12.549  12.905  71.280  1.00  0.00    -0.352 C  
HETATM   21  C   UNL     1     -11.784  14.242  71.282  1.00  0.00    -0.097 C  
HETATM   22  C   UNL     1     -11.857  14.990  72.380  1.00  0.00    -0.432 C  
HETATM   23  C   UNL     1     -13.315  15.278  72.465  1.00  0.00    -0.453 C  
HETATM   24  O   UNL     1     -13.888  15.243  73.535  1.00  0.00    -0.107 OA 
HETATM   25  C   UNL     1     -14.001  15.585  71.098  1.00  0.00    -0.284 C  
HETATM   26  C   UNL     1     -13.247  15.154  69.727  1.00  0.00     0.527 C  
HETATM   27  C   UNL     1     -11.695  14.893  69.891  1.00  0.00    -0.347 C  
HETATM   28  C   UNL     1     -11.062  16.291  69.833  1.00  0.00    -0.347 C  
HETATM   29  C   UNL     1     -10.765  13.822  69.108  1.00  0.00    -0.154 C  
HETATM   30  C   UNL     1      -9.850  14.042  67.840  1.00  0.00    -0.233 C  
HETATM   31  C   UNL     1      -8.665  12.890  67.700  1.00  0.00    -0.185 C  
HETATM   32  C   UNL     1      -9.230  11.384  67.533  1.00  0.00    -0.160 C  
HETATM   33  C   UNL     1      -9.554  11.269  66.042  1.00  0.00    -0.245 C  
ENDBRANCH  13  14
ENDBRANCH  11  13
ENDBRANCH  10  11
ENDBRANCH   9  10
ENDBRANCH   8   9
ENDBRANCH   7   8
ENDBRANCH   6   7
ENDBRANCH   5   6
ENDBRANCH   4   5
ENDBRANCH   3   4
ENDBRANCH   2   3
TORSDOF 11
ENDMDL
MODEL      154
REMARK 921   NORMALIZED FREE ENERGY PREDICTED BY IDOCK:   -3.20 KCAL/MOL
REMARK 922        TOTAL FREE ENERGY PREDICTED BY IDOCK:   -7.44 KCAL/MOL
REMARK 923 INTER-LIGAND FREE ENERGY PREDICTED BY IDOCK:   -5.43 KCAL/MOL
REMARK 924 INTRA-LIGAND FREE ENERGY PREDICTED BY IDOCK:   -2.01 KCAL/MOL
REMARK 927      BINDING AFFINITY PREDICTED BY RF-SCORE:    0.00 PKD
ROOT
HETATM    1  C   UNL     1     -12.018  15.225  68.845  1.00  0.00    -0.292 C  
HETATM    2  C   UNL     1     -11.740  13.802  68.429  1.00  0.00    -0.393 C  
ENDROOT
BRANCH   2   3
HETATM    3  C   UNL     1     -12.011  13.574  66.924  1.00  0.00    -0.447 C  
BRANCH   3   4
HETATM    4  C   UNL     1     -10.715  13.617  66.098  1.00  0.00    -0.286 C  
BRANCH   4   5
HETATM    5  C   UNL     1     -10.678  14.815  65.142  1.00  0.00    -0.433 C  
BRANCH   5   6
HETATM    6  C   UNL     1     -10.132  16.084  65.816  1.00  0.00    -0.393 C  
BRANCH   6   7
HETATM    7  C   UNL     1      -8.648  15.916  66.176  1.00  0.00    -0.276 C  
BRANCH   7   8
HETATM    8  C   UNL     1      -8.278  16.333  67.605  1.00  0.00    -0.166 C  
BRANCH   8   9
HETATM    9  C   UNL     1      -8.360  15.238  68.656  1.00  0.00    -0.162 C  
BRANCH   9  10
HETATM   10  C   UNL     1      -7.030  14.577  69.002  1.00  0.00    -0.121 C  
BRANCH  10  11
HETATM   11  C   UNL     1      -6.212  13.637  68.072  1.00  0.00    -0.139 C  
HETATM   12  O   UNL     1      -5.414  14.161  67.290  1.00  0.00    -0.295 OA 
BRANCH  11  13
HETATM   13  O   UNL     1      -6.541  12.287  67.986  1.00  0.00    -0.064 OA 
BRANCH  13  14
HETATM   14  C   UNL     1      -7.181  11.655  69.237  1.00  0.00    -0.020 C  
HETATM   15  C   UNL     1      -5.981  10.814  69.690  1.00  0.00    -0.058 C  
HETATM   16  C   UNL     1      -6.043   9.782  68.560  1.00  0.00    -0.042 C  
HETATM   17  C   UNL     1      -7.393   9.213  68.911  1.00  0.00    -0.074 C  
HETATM   18  C   UNL     1      -7.657   7.728  68.663  1.00  0.00    -0.105 C  
HETATM   19  C   UNL     1      -6.270   7.090  68.924  1.00  0.00    -0.027 C  
HETATM   20  C   UNL     1      -6.218   5.657  69.301  1.00  0.00    -0.029 C  
HETATM   21  C   UNL     1      -7.272   5.357  70.382  1.00  0.00    -0.063 C  
HETATM   22  C   UNL     1      -7.005   4.381  71.247  1.00  0.00    -0.036 C  
HETATM   23  C   UNL     1      -6.892   3.195  70.353  1.00  0.00    -0.033 C  
HETATM   24  O   UNL     1      -6.017   2.372  70.531  1.00  0.00    -0.017 OA 
HETATM   25  C   UNL     1      -7.945   3.141  69.203  1.00  0.00    -0.058 C  
HETATM   26  C   UNL     1      -8.740   4.498  68.803  1.00  0.00    -0.116 C  
HETATM   27  C   UNL     1      -8.714   5.622  69.916  1.00  0.00    -0.127 C  
HETATM   28  C   UNL     1      -9.830   5.222  70.893  1.00  0.00    -0.257 C  
HETATM   29  C   UNL     1      -8.684   7.230  69.724  1.00  0.00    -0.142 C  
HETATM   30  C   UNL     1      -9.885   8.255  69.755  1.00  0.00    -0.187 C  
HETATM   31  C   UNL     1      -9.394   9.805  70.078  1.00  0.00    -0.274 C  
HETATM   32  C   UNL     1      -8.372  10.414  68.981  1.00  0.00    -0.150 C  
HETATM   33  C   UNL     1      -9.284  10.910  67.857  1.00  0.00    -0.152 C  
ENDBRANCH  13  14
ENDBRANCH  11  13
ENDBRANCH  10  11
ENDBRANCH   9  10
ENDBRANCH   8   9
ENDBRANCH   7   8
ENDBRANCH   6   7
ENDBRANCH   5   6
ENDBRANCH   4   5
ENDBRANCH   3   4
ENDBRANCH   2   3
TORSDOF 11
ENDMDL
MODEL      155
REMARK 921   NORMALIZED FREE ENERGY PREDICTED BY IDOCK:   -3.15 KCAL/MOL
REMARK 922        TOTAL FREE ENERGY PREDICTED BY IDOCK:   -7.35 KCAL/MOL
REMARK 923 INTER-LIGAND FREE ENERGY PREDICTED BY IDOCK:   -5.87 KCAL/MOL
REMARK 924 INTRA-LIGAND FREE ENERGY PREDICTED BY IDOCK:   -1.49 KCAL/MOL
REMARK 927      BINDING AFFINITY PREDICTED BY RF-SCORE:    0.00 PKD
ROOT
HETATM    1  C   UNL     1      -8.068  15.476  66.770  1.00  0.00    -0.247 C  
HETATM    2  C   UNL     1      -7.406  14.298  67.442  1.00  0.00    -0.152 C  
ENDROOT
BRANCH   2   3
HETATM    3  C   UNL     1      -8.395  13.132  67.674  1.00  0.00    -0.174 C  
BRANCH   3   4
HETATM    4  C   UNL     1      -9.462  13.061  66.571  1.00  0.00    -0.246 C  
BRANCH   4   5
HETATM    5  C   UNL     1     -10.828  12.626  67.115  1.00  0.00    -0.282 C  
BRANCH   5   6
HETATM    6  C   UNL     1     -11.861  13.765  67.078  1.00  0.00    -0.445 C  
BRANCH   6   7
HETATM    7  C   UNL     1     -11.994  14.428  68.457  1.00  0.00    -0.333 C  
BRANCH   7   8
HETATM    8  C   UNL     1     -11.689  13.510  69.648  1.00  0.00    -0.378 C  
BRANCH   8   9
HETATM    9  C   UNL     1     -12.858  12.688  70.165  1.00  0.00     0.368 C  
BRANCH   9  10
HETATM   10  C   UNL     1     -12.548  11.823  71.382  1.00  0.00    -0.367 C  
BRANCH  10  11
HETATM   11  C   UNL     1     -12.395  10.275  71.382  1.00  0.00    -0.401 C  
HETATM   12  O   UNL     1     -13.419   9.601  71.525  1.00  0.00    -0.374 OA 
BRANCH  11  13
HETATM   13  O   UNL     1     -11.128   9.702  71.439  1.00  0.00    -0.365 OA 
BRANCH  13  14
HETATM   14  C   UNL     1     -10.207   9.950  70.229  1.00  0.00    -0.264 C  
HETATM   15  C   UNL     1     -11.134   9.402  69.137  1.00  0.00    -0.039 C  
HETATM   16  C   UNL     1     -11.015   7.924  69.521  1.00  0.00    -0.078 C  
HETATM   17  C   UNL     1      -9.542   7.783  69.240  1.00  0.00    -0.159 C  
HETATM   18  C   UNL     1      -9.014   6.450  68.711  1.00  0.00    -0.126 C  
HETATM   19  C   UNL     1     -10.190   5.942  67.842  1.00  0.00    -0.225 C  
HETATM   20  C   UNL     1      -9.894   4.974  66.758  1.00  0.00    -0.212 C  
HETATM   21  C   UNL     1      -8.663   5.438  65.957  1.00  0.00    -0.137 C  
HETATM   22  C   UNL     1      -8.603   5.099  64.672  1.00  0.00    -0.142 C  
HETATM   23  C   UNL     1      -8.589   3.612  64.741  1.00  0.00    -0.105 C  
HETATM   24  O   UNL     1      -9.243   2.954  63.958  1.00  0.00    -0.103 OA 
HETATM   25  C   UNL     1      -7.715   3.019  65.890  1.00  0.00    -0.078 C  
HETATM   26  C   UNL     1      -7.279   3.982  67.121  1.00  0.00    -0.068 C  
HETATM   27  C   UNL     1      -7.384   5.530  66.808  1.00  0.00    -0.083 C  
HETATM   28  C   UNL     1      -6.087   5.858  66.054  1.00  0.00    -0.032 C  
HETATM   29  C   UNL     1      -7.771   6.738  67.816  1.00  0.00    -0.111 C  
HETATM   30  C   UNL     1      -6.814   7.710  68.612  1.00  0.00    -0.066 C  
HETATM   31  C   UNL     1      -7.566   9.117  69.062  1.00  0.00    -0.074 C  
HETATM   32  C   UNL     1      -8.831   8.901  70.047  1.00  0.00    -0.165 C  
HETATM   33  C   UNL     1      -8.204   8.761  71.436  1.00  0.00    -0.203 C  
ENDBRANCH  13  14
ENDBRANCH  11  13
ENDBRANCH  10  11
ENDBRANCH   9  10
ENDBRANCH   8   9
ENDBRANCH   7   8
ENDBRANCH   6   7
ENDBRANCH   5   6
ENDBRANCH   4   5
ENDBRANCH   3   4
ENDBRANCH   2   3
TORSDOF 11
ENDMDL
MODEL      156
REMARK 921   NORMALIZED FREE ENERGY PREDICTED BY IDOCK:   -3.14 KCAL/MOL
REMARK 922        TOTAL FREE ENERGY PREDICTED BY IDOCK:   -7.34 KCAL/MOL
REMARK 923 INTER-LIGAND FREE ENERGY PREDICTED BY IDOCK:   -6.34 KCAL/MOL
REMARK 924 INTRA-LIGAND FREE ENERGY PREDICTED BY IDOCK:   -0.99 KCAL/MOL
REMARK 927      BINDING AFFINITY PREDICTED BY RF-SCORE:    0.00 PKD
ROOT
HETATM    1  C   UNL     1      -9.629   3.824  71.293  1.00  0.00    -0.243 C  
HETATM    2  C   UNL     1      -8.142   3.658  71.100  1.00  0.00    -0.068 C  
ENDROOT
BRANCH   2   3
HETATM    3  C   UNL     1      -7.649   4.322  69.794  1.00  0.00    -0.053 C  
BRANCH   3   4
HETATM    4  C   UNL     1      -6.782   5.559  70.075  1.00  0.00    -0.048 C  
BRANCH   4   5
HETATM    5  C   UNL     1      -7.244   6.783  69.275  1.00  0.00    -0.090 C  
BRANCH   5   6
HETATM    6  C   UNL     1      -8.666   7.228  69.657  1.00  0.00    -0.141 C  
BRANCH   6   7
HETATM    7  C   UNL     1      -8.679   7.881  71.048  1.00  0.00    -0.138 C  
BRANCH   7   8
HETATM    8  C   UNL     1     -10.054   8.368  71.520  1.00  0.00    -0.293 C  
BRANCH   8   9
HETATM    9  C   UNL     1     -10.589   9.611  70.828  1.00  0.00    -0.392 C  
BRANCH   9  10
HETATM   10  C   UNL     1     -11.270   9.359  69.487  1.00  0.00    -0.059 C  
BRANCH  10  11
HETATM   11  C   UNL     1     -10.973  10.114  68.160  1.00  0.00    -0.259 C  
HETATM   12  O   UNL     1     -10.433   9.478  67.250  1.00  0.00    -0.246 OA 
BRANCH  11  13
HETATM   13  O   UNL     1     -11.116  11.497  68.100  1.00  0.00    -0.211 OA 
BRANCH  13  14
HETATM   14  C   UNL     1     -10.278  12.228  67.033  1.00  0.00    -0.215 C  
HETATM   15  C   UNL     1      -8.997  12.412  67.854  1.00  0.00    -0.184 C  
HETATM   16  C   UNL     1      -9.546  13.465  68.821  1.00  0.00     0.035 C  
HETATM   17  C   UNL     1      -9.807  14.534  67.792  1.00  0.00    -0.220 C  
HETATM   18  C   UNL     1      -9.631  16.000  68.187  1.00  0.00    -0.209 C  
HETATM   19  C   UNL     1      -8.466  15.937  69.206  1.00  0.00    -0.242 C  
HETATM   20  C   UNL     1      -7.656  17.160  69.420  1.00  0.00     0.111 C  
HETATM   21  C   UNL     1      -7.286  17.793  68.065  1.00  0.00    -0.218 C  
HETATM   22  C   UNL     1      -6.141  18.469  67.994  1.00  0.00    -0.192 C  
HETATM   23  C   UNL     1      -6.363  19.561  68.982  1.00  0.00    -0.286 C  
HETATM   24  O   UNL     1      -5.474  19.896  69.737  1.00  0.00    -0.211 OA 
HETATM   25  C   UNL     1      -7.796  20.177  68.965  1.00  0.00     0.153 C  
HETATM   26  C   UNL     1      -8.997  19.350  68.252  1.00  0.00    -0.384 C  
HETATM   27  C   UNL     1      -8.511  18.231  67.244  1.00  0.00    -0.250 C  
HETATM   28  C   UNL     1      -8.221  18.989  65.940  1.00  0.00    -0.011 C  
HETATM   29  C   UNL     1      -9.195  16.798  66.922  1.00  0.00    -0.249 C  
HETATM   30  C   UNL     1     -10.168  16.407  65.742  1.00  0.00    -0.370 C  
HETATM   31  C   UNL     1     -10.185  14.776  65.444  1.00  0.00    -0.415 C  
HETATM   32  C   UNL     1     -10.690  13.884  66.695  1.00  0.00    -0.281 C  
HETATM   33  C   UNL     1     -12.217  13.943  66.604  1.00  0.00    -0.465 C  
ENDBRANCH  13  14
ENDBRANCH  11  13
ENDBRANCH  10  11
ENDBRANCH   9  10
ENDBRANCH   8   9
ENDBRANCH   7   8
ENDBRANCH   6   7
ENDBRANCH   5   6
ENDBRANCH   4   5
ENDBRANCH   3   4
ENDBRANCH   2   3
TORSDOF 11
ENDMDL
MODEL      157
REMARK 921   NORMALIZED FREE ENERGY PREDICTED BY IDOCK:   -3.12 KCAL/MOL
REMARK 922        TOTAL FREE ENERGY PREDICTED BY IDOCK:   -7.30 KCAL/MOL
REMARK 923 INTER-LIGAND FREE ENERGY PREDICTED BY IDOCK:   -6.13 KCAL/MOL
REMARK 924 INTRA-LIGAND FREE ENERGY PREDICTED BY IDOCK:   -1.17 KCAL/MOL
REMARK 927      BINDING AFFINITY PREDICTED BY RF-SCORE:    0.00 PKD
ROOT
HETATM    1  C   UNL     1      -9.462   5.007  70.208  1.00  0.00    -0.237 C  
HETATM    2  C   UNL     1     -10.691   5.579  70.871  1.00  0.00    -0.283 C  
ENDROOT
BRANCH   2   3
HETATM    3  C   UNL     1     -10.353   6.785  71.777  1.00  0.00    -0.217 C  
BRANCH   3   4
HETATM    4  C   UNL     1     -10.675   8.122  71.091  1.00  0.00    -0.258 C  
BRANCH   4   5
HETATM    5  C   UNL     1     -11.532   9.035  71.975  1.00  0.00    -0.408 C  
BRANCH   5   6
HETATM    6  C   UNL     1     -12.770   9.569  71.236  1.00  0.00    -0.416 C  
BRANCH   6   7
HETATM    7  C   UNL     1     -13.151  10.967  71.747  1.00  0.00    -0.564 C  
BRANCH   7   8
HETATM    8  C   UNL     1     -12.902  12.109  70.754  1.00  0.00    -0.109 C  
BRANCH   8   9
HETATM    9  C   UNL     1     -11.697  11.941  69.842  1.00  0.00    -0.383 C  
BRANCH   9  10
HETATM   10  C   UNL     1     -11.719  12.800  68.582  1.00  0.00    -0.360 C  
BRANCH  10  11
HETATM   11  C   UNL     1     -10.749  12.667  67.375  1.00  0.00    -0.229 C  
HETATM   12  O   UNL     1     -10.933  13.416  66.410  1.00  0.00    -0.287 OA 
BRANCH  11  13
HETATM   13  O   UNL     1      -9.860  11.597  67.311  1.00  0.00    -0.186 OA 
BRANCH  13  14
HETATM   14  C   UNL     1      -9.366  11.198  65.907  1.00  0.00    -0.212 C  
HETATM   15  C   UNL     1     -10.431  10.139  65.598  1.00  0.00    -0.103 C  
HETATM   16  C   UNL     1      -9.933   9.082  66.588  1.00  0.00    -0.349 C  
HETATM   17  C   UNL     1      -8.591   8.850  65.942  1.00  0.00    -0.177 C  
HETATM   18  C   UNL     1      -7.982   7.449  65.988  1.00  0.00    -0.115 C  
HETATM   19  C   UNL     1      -9.230   6.535  65.921  1.00  0.00    -0.022 C  
HETATM   20  C   UNL     1      -9.058   5.151  65.418  1.00  0.00    -0.145 C  
HETATM   21  C   UNL     1      -8.202   5.156  64.138  1.00  0.00    -0.131 C  
HETATM   22  C   UNL     1      -8.428   4.197  63.243  1.00  0.00    -0.099 C  
HETATM   23  C   UNL     1      -8.112   2.966  64.019  1.00  0.00    -0.082 C  
HETATM   24  O   UNL     1      -8.815   1.981  63.921  1.00  0.00    -0.088 OA 
HETATM   25  C   UNL     1      -6.863   3.081  64.947  1.00  0.00    -0.041 C  
HETATM   26  C   UNL     1      -6.303   4.555  65.329  1.00  0.00    -0.035 C  
HETATM   27  C   UNL     1      -6.783   5.708  64.359  1.00  0.00    -0.046 C  
HETATM   28  C   UNL     1      -5.826   5.624  63.160  1.00  0.00    -0.018 C  
HETATM   29  C   UNL     1      -7.106   7.255  64.713  1.00  0.00    -0.064 C  
HETATM   30  C   UNL     1      -6.175   8.522  64.568  1.00  0.00    -0.066 C  
HETATM   31  C   UNL     1      -7.031   9.940  64.496  1.00  0.00    -0.131 C  
HETATM   32  C   UNL     1      -7.917  10.240  65.816  1.00  0.00    -0.144 C  
HETATM   33  C   UNL     1      -6.923  10.861  66.800  1.00  0.00    -0.126 C  
ENDBRANCH  13  14
ENDBRANCH  11  13
ENDBRANCH  10  11
ENDBRANCH   9  10
ENDBRANCH   8   9
ENDBRANCH   7   8
ENDBRANCH   6   7
ENDBRANCH   5   6
ENDBRANCH   4   5
ENDBRANCH   3   4
ENDBRANCH   2   3
TORSDOF 11
ENDMDL
MODEL      158
REMARK 921   NORMALIZED FREE ENERGY PREDICTED BY IDOCK:   -3.11 KCAL/MOL
REMARK 922        TOTAL FREE ENERGY PREDICTED BY IDOCK:   -7.29 KCAL/MOL
REMARK 923 INTER-LIGAND FREE ENERGY PREDICTED BY IDOCK:   -5.53 KCAL/MOL
REMARK 924 INTRA-LIGAND FREE ENERGY PREDICTED BY IDOCK:   -1.76 KCAL/MOL
REMARK 927      BINDING AFFINITY PREDICTED BY RF-SCORE:    0.00 PKD
ROOT
HETATM    1  C   UNL     1      -9.862  12.216  69.595  1.00  0.00     1.327 C  
HETATM    2  C   UNL     1      -9.503  13.354  68.672  1.00  0.00    -0.039 C  
ENDROOT
BRANCH   2   3
HETATM    3  C   UNL     1     -10.756  14.061  68.107  1.00  0.00    -0.254 C  
BRANCH   3   4
HETATM    4  C   UNL     1     -10.584  15.588  68.075  1.00  0.00    -0.270 C  
BRANCH   4   5
HETATM    5  C   UNL     1     -10.194  16.096  66.682  1.00  0.00    -0.291 C  
BRANCH   5   6
HETATM    6  C   UNL     1     -10.409  15.034  65.591  1.00  0.00    -0.374 C  
BRANCH   6   7
HETATM    7  C   UNL     1     -11.765  15.231  64.897  1.00  0.00    -0.230 C  
BRANCH   7   8
HETATM    8  C   UNL     1     -12.385  13.954  64.317  1.00  0.00    -0.390 C  
BRANCH   8   9
HETATM    9  C   UNL     1     -11.978  12.654  64.992  1.00  0.00    -0.467 C  
BRANCH   9  10
HETATM   10  C   UNL     1     -11.418  11.589  64.056  1.00  0.00    -0.331 C  
BRANCH  10  11
HETATM   11  C   UNL     1     -10.151  10.727  64.314  1.00  0.00    -0.361 C  
HETATM   12  O   UNL     1      -9.761   9.997  63.397  1.00  0.00    -0.200 OA 
BRANCH  11  13
HETATM   13  O   UNL     1      -9.626  10.629  65.599  1.00  0.00    -0.194 OA 
BRANCH  13  14
HETATM   14  C   UNL     1      -8.914   9.309  65.952  1.00  0.00    -0.184 C  
HETATM   15  C   UNL     1     -10.148   8.508  66.383  1.00  0.00    -0.271 C  
HETATM   16  C   UNL     1     -10.410   9.262  67.690  1.00  0.00    -0.311 C  
HETATM   17  C   UNL     1      -9.126   8.880  68.379  1.00  0.00    -0.137 C  
HETATM   18  C   UNL     1      -9.130   8.679  69.894  1.00  0.00    -0.151 C  
HETATM   19  C   UNL     1     -10.544   8.105  70.154  1.00  0.00    -0.237 C  
HETATM   20  C   UNL     1     -10.758   7.299  71.380  1.00  0.00    -0.247 C  
HETATM   21  C   UNL     1      -9.615   6.281  71.549  1.00  0.00    -0.168 C  
HETATM   22  C   UNL     1      -9.899   5.135  72.164  1.00  0.00    -0.222 C  
HETATM   23  C   UNL     1     -10.320   5.602  73.514  1.00  0.00    -0.233 C  
HETATM   24  O   UNL     1     -11.274   5.097  74.069  1.00  0.00    -0.191 OA 
HETATM   25  C   UNL     1      -9.467   6.772  74.096  1.00  0.00    -0.268 C  
HETATM   26  C   UNL     1      -8.542   7.646  73.089  1.00  0.00    -0.214 C  
HETATM   27  C   UNL     1      -8.234   6.939  71.708  1.00  0.00    -0.105 C  
HETATM   28  C   UNL     1      -7.061   5.995  72.012  1.00  0.00    -0.087 C  
HETATM   29  C   UNL     1      -8.046   7.617  70.248  1.00  0.00    -0.114 C  
HETATM   30  C   UNL     1      -6.712   8.018  69.505  1.00  0.00    -0.038 C  
HETATM   31  C   UNL     1      -6.910   8.146  67.864  1.00  0.00    -0.073 C  
HETATM   32  C   UNL     1      -7.976   9.277  67.416  1.00  0.00    -0.106 C  
HETATM   33  C   UNL     1      -7.174  10.580  67.448  1.00  0.00    -0.092 C  
ENDBRANCH  13  14
ENDBRANCH  11  13
ENDBRANCH  10  11
ENDBRANCH   9  10
ENDBRANCH   8   9
ENDBRANCH   7   8
ENDBRANCH   6   7
ENDBRANCH   5   6
ENDBRANCH   4   5
ENDBRANCH   3   4
ENDBRANCH   2   3
TORSDOF 11
ENDMDL
MODEL      159
REMARK 921   NORMALIZED FREE ENERGY PREDICTED BY IDOCK:   -3.04 KCAL/MOL
REMARK 922        TOTAL FREE ENERGY PREDICTED BY IDOCK:   -7.18 KCAL/MOL
REMARK 923 INTER-LIGAND FREE ENERGY PREDICTED BY IDOCK:   -6.31 KCAL/MOL
REMARK 924 INTRA-LIGAND FREE ENERGY PREDICTED BY IDOCK:   -0.86 KCAL/MOL
REMARK 927      BINDING AFFINITY PREDICTED BY RF-SCORE:    0.00 PKD
ROOT
HETATM    1  C   UNL     1      -9.619  20.104  66.921  1.00  0.00    -0.564 C  
HETATM    2  C   UNL     1      -8.681  18.965  67.237  1.00  0.00    -0.294 C  
ENDROOT
BRANCH   2   3
HETATM    3  C   UNL     1      -9.349  17.587  67.024  1.00  0.00    -0.262 C  
BRANCH   3   4
HETATM    4  C   UNL     1      -8.356  16.551  66.475  1.00  0.00    -0.327 C  
BRANCH   4   5
HETATM    5  C   UNL     1      -6.898  16.975  66.692  1.00  0.00    -0.279 C  
BRANCH   5   6
HETATM    6  C   UNL     1      -6.083  15.903  67.434  1.00  0.00    -0.149 C  
BRANCH   6   7
HETATM    7  C   UNL     1      -6.905  15.282  68.573  1.00  0.00    -0.112 C  
BRANCH   7   8
HETATM    8  C   UNL     1      -7.298  13.814  68.362  1.00  0.00    -0.117 C  
BRANCH   8   9
HETATM    9  C   UNL     1      -8.789  13.536  68.263  1.00  0.00    -0.179 C  
BRANCH   9  10
HETATM   10  C   UNL     1      -9.236  12.875  66.964  1.00  0.00    -0.226 C  
BRANCH  10  11
HETATM   11  C   UNL     1      -9.853  11.455  66.832  1.00  0.00    -0.193 C  
HETATM   12  O   UNL     1     -10.563  11.231  65.847  1.00  0.00    -0.258 OA 
BRANCH  11  13
HETATM   13  O   UNL     1      -9.777  10.562  67.897  1.00  0.00    -0.151 OA 
BRANCH  13  14
HETATM   14  C   UNL     1     -10.646   9.293  67.793  1.00  0.00    -0.246 C  
HETATM   15  C   UNL     1     -10.782   9.003  69.292  1.00  0.00    -0.189 C  
HETATM   16  C   UNL     1      -9.335   8.561  69.526  1.00  0.00    -0.161 C  
HETATM   17  C   UNL     1      -9.370   7.348  68.633  1.00  0.00    -0.139 C  
HETATM   18  C   UNL     1      -8.543   6.122  69.017  1.00  0.00    -0.121 C  
HETATM   19  C   UNL     1      -8.592   6.153  70.565  1.00  0.00    -0.138 C  
HETATM   20  C   UNL     1      -8.373   4.883  71.298  1.00  0.00    -0.115 C  
HETATM   21  C   UNL     1      -9.199   3.753  70.656  1.00  0.00    -0.201 C  
HETATM   22  C   UNL     1      -9.617   2.770  71.450  1.00  0.00    -0.223 C  
HETATM   23  C   UNL     1      -8.333   2.198  71.941  1.00  0.00    -0.056 C  
HETATM   24  O   UNL     1      -8.210   1.874  73.104  1.00  0.00    -0.055 OA 
HETATM   25  C   UNL     1      -7.210   2.093  70.863  1.00  0.00    -0.033 C  
HETATM   26  C   UNL     1      -7.344   2.967  69.502  1.00  0.00    -0.044 C  
HETATM   27  C   UNL     1      -8.811   3.473  69.193  1.00  0.00    -0.159 C  
HETATM   28  C   UNL     1      -9.499   2.273  68.525  1.00  0.00    -0.213 C  
HETATM   29  C   UNL     1      -9.273   4.853  68.483  1.00  0.00    -0.157 C  
HETATM   30  C   UNL     1      -9.653   5.112  66.972  1.00  0.00    -0.155 C  
HETATM   31  C   UNL     1     -10.586   6.468  66.772  1.00  0.00    -0.323 C  
HETATM   32  C   UNL     1      -9.866   7.837  67.247  1.00  0.00    -0.249 C  
HETATM   33  C   UNL     1      -8.991   8.232  66.056  1.00  0.00    -0.224 C  
ENDBRANCH  13  14
ENDBRANCH  11  13
ENDBRANCH  10  11
ENDBRANCH   9  10
ENDBRANCH   8   9
ENDBRANCH   7   8
ENDBRANCH   6   7
ENDBRANCH   5   6
ENDBRANCH   4   5
ENDBRANCH   3   4
ENDBRANCH   2   3
TORSDOF 11
ENDMDL
MODEL      160
REMARK 921   NORMALIZED FREE ENERGY PREDICTED BY IDOCK:   -3.03 KCAL/MOL
REMARK 922        TOTAL FREE ENERGY PREDICTED BY IDOCK:   -7.17 KCAL/MOL
REMARK 923 INTER-LIGAND FREE ENERGY PREDICTED BY IDOCK:   -6.04 KCAL/MOL
REMARK 924 INTRA-LIGAND FREE ENERGY PREDICTED BY IDOCK:   -1.13 KCAL/MOL
REMARK 927      BINDING AFFINITY PREDICTED BY RF-SCORE:    0.00 PKD
ROOT
HETATM    1  C   UNL     1      -5.341   6.254  70.818  1.00  0.00    -0.018 C  
HETATM    2  C   UNL     1      -6.847   6.243  70.901  1.00  0.00    -0.063 C  
ENDROOT
BRANCH   2   3
HETATM    3  C   UNL     1      -7.396   4.852  71.296  1.00  0.00    -0.069 C  
BRANCH   3   4
HETATM    4  C   UNL     1      -6.800   3.735  70.426  1.00  0.00    -0.034 C  
BRANCH   4   5
HETATM    5  C   UNL     1      -7.461   3.663  69.044  1.00  0.00    -0.053 C  
BRANCH   5   6
HETATM    6  C   UNL     1      -8.996   3.696  69.130  1.00  0.00    -0.176 C  
BRANCH   6   7
HETATM    7  C   UNL     1      -9.614   4.004  67.757  1.00  0.00    -0.204 C  
BRANCH   7   8
HETATM    8  C   UNL     1     -10.645   5.139  67.752  1.00  0.00    -0.041 C  
BRANCH   8   9
HETATM    9  C   UNL     1     -10.235   6.409  68.479  1.00  0.00    -0.198 C  
BRANCH   9  10
HETATM   10  C   UNL     1      -9.632   7.493  67.592  1.00  0.00    -0.171 C  
BRANCH  10  11
HETATM   11  C   UNL     1      -8.480   8.458  67.991  1.00  0.00    -0.132 C  
HETATM   12  O   UNL     1      -7.376   7.960  68.229  1.00  0.00    -0.093 OA 
BRANCH  11  13
HETATM   13  O   UNL     1      -8.757   9.792  68.276  1.00  0.00    -0.118 OA 
BRANCH  13  14
HETATM   14  C   UNL     1      -8.676  10.778  67.094  1.00  0.00    -0.131 C  
HETATM   15  C   UNL     1      -7.387  11.500  67.505  1.00  0.00    -0.112 C  
HETATM   16  C   UNL     1      -7.973  12.253  68.704  1.00  0.00    -0.050 C  
HETATM   17  C   UNL     1      -8.956  13.089  67.928  1.00  0.00    -0.200 C  
HETATM   18  C   UNL     1      -9.268  14.505  68.413  1.00  0.00    -0.196 C  
HETATM   19  C   UNL     1      -7.917  14.959  69.019  1.00  0.00    -0.170 C  
HETATM   20  C   UNL     1      -7.646  16.414  69.113  1.00  0.00    -0.225 C  
HETATM   21  C   UNL     1      -8.018  17.108  67.790  1.00  0.00    -0.190 C  
HETATM   22  C   UNL     1      -7.331  18.197  67.453  1.00  0.00    -0.219 C  
HETATM   23  C   UNL     1      -7.644  19.122  68.577  1.00  0.00    -0.334 C  
HETATM   24  O   UNL     1      -6.774  19.817  69.061  1.00  0.00    -0.310 OA 
HETATM   25  C   UNL     1      -9.126  19.084  69.062  1.00  0.00    -0.240 C  
HETATM   26  C   UNL     1     -10.051  17.814  68.657  1.00  0.00    -0.384 C  
HETATM   27  C   UNL     1      -9.508  16.974  67.431  1.00  0.00    -0.242 C  
HETATM   28  C   UNL     1      -9.982  17.751  66.194  1.00  0.00    -0.283 C  
HETATM   29  C   UNL     1      -9.621  15.379  67.172  1.00  0.00    -0.218 C  
HETATM   30  C   UNL     1     -10.676  14.588  66.305  1.00  0.00    -0.309 C  
HETATM   31  C   UNL     1     -10.131  13.091  65.846  1.00  0.00    -0.291 C  
HETATM   32  C   UNL     1      -9.804  12.102  67.083  1.00  0.00    -0.205 C  
HETATM   33  C   UNL     1     -11.165  11.517  67.465  1.00  0.00    -0.360 C  
ENDBRANCH  13  14
ENDBRANCH  11  13
ENDBRANCH  10  11
ENDBRANCH   9  10
ENDBRANCH   8   9
ENDBRANCH   7   8
ENDBRANCH   6   7
ENDBRANCH   5   6
ENDBRANCH   4   5
ENDBRANCH   3   4
ENDBRANCH   2   3
TORSDOF 11
ENDMDL
MODEL      161
REMARK 921   NORMALIZED FREE ENERGY PREDICTED BY IDOCK:   -2.96 KCAL/MOL
REMARK 922        TOTAL FREE ENERGY PREDICTED BY IDOCK:   -7.05 KCAL/MOL
REMARK 923 INTER-LIGAND FREE ENERGY PREDICTED BY IDOCK:   -5.53 KCAL/MOL
REMARK 924 INTRA-LIGAND FREE ENERGY PREDICTED BY IDOCK:   -1.52 KCAL/MOL
REMARK 927      BINDING AFFINITY PREDICTED BY RF-SCORE:    0.00 PKD
ROOT
HETATM    1  C   UNL     1     -10.469  15.678  66.493  1.00  0.00    -0.303 C  
HETATM    2  C   UNL     1     -10.034  16.012  67.898  1.00  0.00    -0.233 C  
ENDROOT
BRANCH   2   3
HETATM    3  C   UNL     1     -11.228  16.409  68.797  1.00  0.00    -0.313 C  
BRANCH   3   4
HETATM    4  C   UNL     1     -11.318  15.525  70.050  1.00  0.00    -0.332 C  
BRANCH   4   5
HETATM    5  C   UNL     1     -12.759  15.382  70.555  1.00  0.00    -0.455 C  
BRANCH   5   6
HETATM    6  C   UNL     1     -13.098  13.935  70.951  1.00  0.00    -0.261 C  
BRANCH   6   7
HETATM    7  C   UNL     1     -11.956  12.982  70.567  1.00  0.00    -0.294 C  
BRANCH   7   8
HETATM    8  C   UNL     1     -12.263  12.044  69.393  1.00  0.00    -0.155 C  
BRANCH   8   9
HETATM    9  C   UNL     1     -11.981  12.604  68.008  1.00  0.00    -0.300 C  
BRANCH   9  10
HETATM   10  C   UNL     1     -10.604  12.269  67.447  1.00  0.00    -0.247 C  
BRANCH  10  11
HETATM   11  C   UNL     1      -9.343  11.913  68.284  1.00  0.00    -0.193 C  
HETATM   12  O   UNL     1      -8.455  12.766  68.370  1.00  0.00    -0.164 OA 
BRANCH  11  13
HETATM   13  O   UNL     1      -9.147  10.606  68.723  1.00  0.00    -0.155 OA 
BRANCH  13  14
HETATM   14  C   UNL     1      -7.945   9.853  68.121  1.00  0.00    -0.100 C  
HETATM   15  C   UNL     1      -8.587   9.456  66.787  1.00  0.00    -0.134 C  
HETATM   16  C   UNL     1      -9.558   8.414  67.352  1.00  0.00    -0.202 C  
HETATM   17  C   UNL     1      -8.514   7.459  67.870  1.00  0.00    -0.122 C  
HETATM   18  C   UNL     1      -8.806   5.959  67.842  1.00  0.00    -0.105 C  
HETATM   19  C   UNL     1      -9.671   5.807  66.567  1.00  0.00    -0.185 C  
HETATM   20  C   UNL     1      -9.716   4.481  65.905  1.00  0.00    -0.210 C  
HETATM   21  C   UNL     1      -8.293   3.903  65.784  1.00  0.00    -0.109 C  
HETATM   22  C   UNL     1      -8.043   3.097  64.754  1.00  0.00    -0.086 C  
HETATM   23  C   UNL     1      -8.991   1.975  64.999  1.00  0.00    -0.123 C  
HETATM   24  O   UNL     1      -9.610   1.481  64.078  1.00  0.00    -0.124 OA 
HETATM   25  C   UNL     1      -9.122   1.544  66.492  1.00  0.00    -0.056 C  
HETATM   26  C   UNL     1      -8.611   2.560  67.650  1.00  0.00    -0.121 C  
HETATM   27  C   UNL     1      -7.611   3.677  67.144  1.00  0.00    -0.079 C  
HETATM   28  C   UNL     1      -6.242   2.981  67.112  1.00  0.00    -0.028 C  
HETATM   29  C   UNL     1      -7.455   5.202  67.667  1.00  0.00    -0.083 C  
HETATM   30  C   UNL     1      -6.429   5.791  68.713  1.00  0.00    -0.042 C  
HETATM   31  C   UNL     1      -6.223   7.429  68.551  1.00  0.00    -0.035 C  
HETATM   32  C   UNL     1      -7.574   8.288  68.784  1.00  0.00    -0.101 C  
HETATM   33  C   UNL     1      -7.673   8.424  70.305  1.00  0.00    -0.080 C  
ENDBRANCH  13  14
ENDBRANCH  11  13
ENDBRANCH  10  11
ENDBRANCH   9  10
ENDBRANCH   8   9
ENDBRANCH   7   8
ENDBRANCH   6   7
ENDBRANCH   5   6
ENDBRANCH   4   5
ENDBRANCH   3   4
ENDBRANCH   2   3
TORSDOF 11
ENDMDL
MODEL      162
REMARK 921   NORMALIZED FREE ENERGY PREDICTED BY IDOCK:   -2.95 KCAL/MOL
REMARK 922        TOTAL FREE ENERGY PREDICTED BY IDOCK:   -7.03 KCAL/MOL
REMARK 923 INTER-LIGAND FREE ENERGY PREDICTED BY IDOCK:   -5.90 KCAL/MOL
REMARK 924 INTRA-LIGAND FREE ENERGY PREDICTED BY IDOCK:   -1.13 KCAL/MOL
REMARK 927      BINDING AFFINITY PREDICTED BY RF-SCORE:    0.00 PKD
ROOT
HETATM    1  C   UNL     1     -11.067   6.662  69.646  1.00  0.00    -0.390 C  
HETATM    2  C   UNL     1     -10.696   6.296  68.230  1.00  0.00    -0.356 C  
ENDROOT
BRANCH   2   3
HETATM    3  C   UNL     1      -9.768   5.061  68.175  1.00  0.00    -0.199 C  
BRANCH   3   4
HETATM    4  C   UNL     1      -9.960   4.260  66.877  1.00  0.00    -0.178 C  
BRANCH   4   5
HETATM    5  C   UNL     1      -8.739   4.354  65.953  1.00  0.00    -0.118 C  
BRANCH   5   6
HETATM    6  C   UNL     1      -7.728   3.224  66.205  1.00  0.00    -0.078 C  
BRANCH   6   7
HETATM    7  C   UNL     1      -6.472   3.411  65.341  1.00  0.00    -0.032 C  
BRANCH   7   8
HETATM    8  C   UNL     1      -5.744   4.745  65.539  1.00  0.00    -0.018 C  
BRANCH   8   9
HETATM    9  C   UNL     1      -5.652   5.243  66.973  1.00  0.00    -0.013 C  
BRANCH   9  10
HETATM   10  C   UNL     1      -6.296   6.602  67.225  1.00  0.00    -0.037 C  
BRANCH  10  11
HETATM   11  C   UNL     1      -5.598   7.834  67.867  1.00  0.00    -0.032 C  
HETATM   12  O   UNL     1      -5.163   7.709  69.016  1.00  0.00    -0.018 OA 
BRANCH  11  13
HETATM   13  O   UNL     1      -5.668   9.076  67.243  1.00  0.00    -0.041 OA 
BRANCH  13  14
HETATM   14  C   UNL     1      -6.969   9.389  66.480  1.00  0.00    -0.084 C  
HETATM   15  C   UNL     1      -6.482  10.631  65.724  1.00  0.00    -0.107 C  
HETATM   16  C   UNL     1      -6.412  11.567  66.934  1.00  0.00    -0.144 C  
HETATM   17  C   UNL     1      -7.883  11.551  67.259  1.00  0.00    -0.153 C  
HETATM   18  C   UNL     1      -8.528  12.813  67.832  1.00  0.00    -0.173 C  
HETATM   19  C   UNL     1      -7.729  13.944  67.140  1.00  0.00     0.005 C  
HETATM   20  C   UNL     1      -8.367  15.276  67.014  1.00  0.00    -0.267 C  
HETATM   21  C   UNL     1      -9.817  15.123  66.517  1.00  0.00    -0.278 C  
HETATM   22  C   UNL     1     -10.326  16.115  65.791  1.00  0.00    -0.398 C  
HETATM   23  C   UNL     1     -10.271  17.258  66.743  1.00  0.00    -0.318 C  
HETATM   24  O   UNL     1      -9.924  18.358  66.363  1.00  0.00    -0.351 OA 
HETATM   25  C   UNL     1     -10.656  16.904  68.213  1.00  0.00    -0.363 C  
HETATM   26  C   UNL     1     -10.647  15.348  68.673  1.00  0.00    -0.239 C  
HETATM   27  C   UNL     1     -10.705  14.313  67.477  1.00  0.00    -0.270 C  
HETATM   28  C   UNL     1     -12.196  14.228  67.116  1.00  0.00    -0.312 C  
HETATM   29  C   UNL     1     -10.017  12.851  67.375  1.00  0.00    -0.217 C  
HETATM   30  C   UNL     1     -10.651  11.434  67.667  1.00  0.00    -0.240 C  
HETATM   31  C   UNL     1      -9.828  10.201  66.923  1.00  0.00    -0.244 C  
HETATM   32  C   UNL     1      -8.287  10.060  67.396  1.00  0.00    -0.118 C  
HETATM   33  C   UNL     1      -8.368   9.255  68.695  1.00  0.00    -0.118 C  
ENDBRANCH  13  14
ENDBRANCH  11  13
ENDBRANCH  10  11
ENDBRANCH   9  10
ENDBRANCH   8   9
ENDBRANCH   7   8
ENDBRANCH   6   7
ENDBRANCH   5   6
ENDBRANCH   4   5
ENDBRANCH   3   4
ENDBRANCH   2   3
TORSDOF 11
ENDMDL
MODEL      163
REMARK 921   NORMALIZED FREE ENERGY PREDICTED BY IDOCK:   -2.93 KCAL/MOL
REMARK 922        TOTAL FREE ENERGY PREDICTED BY IDOCK:   -6.99 KCAL/MOL
REMARK 923 INTER-LIGAND FREE ENERGY PREDICTED BY IDOCK:   -5.39 KCAL/MOL
REMARK 924 INTRA-LIGAND FREE ENERGY PREDICTED BY IDOCK:   -1.60 KCAL/MOL
REMARK 927      BINDING AFFINITY PREDICTED BY RF-SCORE:    0.00 PKD
ROOT
HETATM    1  C   UNL     1      -6.270   9.184  70.824  1.00  0.00    -0.053 C  
HETATM    2  C   UNL     1      -5.445  10.200  71.574  1.00  0.00    -0.016 C  
ENDROOT
BRANCH   2   3
HETATM    3  C   UNL     1      -5.151  11.455  70.720  1.00  0.00    -0.113 C  
BRANCH   3   4
HETATM    4  C   UNL     1      -6.206  11.656  69.621  1.00  0.00    -0.127 C  
BRANCH   4   5
HETATM    5  C   UNL     1      -6.116  13.047  68.981  1.00  0.00    -0.089 C  
BRANCH   5   6
HETATM    6  C   UNL     1      -6.911  13.138  67.668  1.00  0.00    -0.156 C  
BRANCH   6   7
HETATM    7  C   UNL     1      -8.042  14.171  67.785  1.00  0.00    -0.170 C  
BRANCH   7   8
HETATM    8  C   UNL     1      -9.364  13.759  67.125  1.00  0.00    -0.240 C  
BRANCH   8   9
HETATM    9  C   UNL     1      -9.677  12.272  67.142  1.00  0.00    -0.203 C  
BRANCH   9  10
HETATM   10  C   UNL     1      -9.779  11.619  65.767  1.00  0.00    -0.262 C  
BRANCH  10  11
HETATM   11  C   UNL     1      -9.773  10.091  65.484  1.00  0.00    -0.289 C  
HETATM   12  O   UNL     1      -9.511   9.725  64.334  1.00  0.00    -0.274 OA 
BRANCH  11  13
HETATM   13  O   UNL     1     -10.259   9.204  66.440  1.00  0.00    -0.281 OA 
BRANCH  13  14
HETATM   14  C   UNL     1      -9.628   7.798  66.457  1.00  0.00    -0.201 C  
HETATM   15  C   UNL     1     -10.832   7.030  67.016  1.00  0.00    -0.413 C  
HETATM   16  C   UNL     1     -10.763   7.590  68.439  1.00  0.00    -0.115 C  
HETATM   17  C   UNL     1      -9.416   7.017  68.794  1.00  0.00    -0.136 C  
HETATM   18  C   UNL     1      -9.152   6.586  70.236  1.00  0.00    -0.155 C  
HETATM   19  C   UNL     1     -10.541   6.080  70.697  1.00  0.00    -0.322 C  
HETATM   20  C   UNL     1     -10.597   5.112  71.819  1.00  0.00    -0.238 C  
HETATM   21  C   UNL     1      -9.551   4.001  71.611  1.00  0.00    -0.230 C  
HETATM   22  C   UNL     1      -9.825   2.798  72.109  1.00  0.00    -0.239 C  
HETATM   23  C   UNL     1      -9.932   3.080  73.567  1.00  0.00    -0.109 C  
HETATM   24  O   UNL     1     -10.809   2.565  74.230  1.00  0.00    -0.165 OA 
HETATM   25  C   UNL     1      -8.872   4.083  74.118  1.00  0.00    -0.095 C  
HETATM   26  C   UNL     1      -8.073   5.033  73.073  1.00  0.00    -0.105 C  
HETATM   27  C   UNL     1      -8.105   4.528  71.575  1.00  0.00    -0.100 C  
HETATM   28  C   UNL     1      -6.997   3.467  71.502  1.00  0.00    -0.031 C  
HETATM   29  C   UNL     1      -8.132   5.407  70.214  1.00  0.00    -0.097 C  
HETATM   30  C   UNL     1      -6.930   5.822  69.278  1.00  0.00    -0.064 C  
HETATM   31  C   UNL     1      -7.423   6.215  67.744  1.00  0.00    -0.089 C  
HETATM   32  C   UNL     1      -8.436   7.475  67.682  1.00  0.00    -0.117 C  
HETATM   33  C   UNL     1      -7.517   8.697  67.727  1.00  0.00    -0.097 C  
ENDBRANCH  13  14
ENDBRANCH  11  13
ENDBRANCH  10  11
ENDBRANCH   9  10
ENDBRANCH   8   9
ENDBRANCH   7   8
ENDBRANCH   6   7
ENDBRANCH   5   6
ENDBRANCH   4   5
ENDBRANCH   3   4
ENDBRANCH   2   3
TORSDOF 11
ENDMDL
MODEL      164
REMARK 921   NORMALIZED FREE ENERGY PREDICTED BY IDOCK:   -2.92 KCAL/MOL
REMARK 922        TOTAL FREE ENERGY PREDICTED BY IDOCK:   -6.98 KCAL/MOL
REMARK 923 INTER-LIGAND FREE ENERGY PREDICTED BY IDOCK:   -4.92 KCAL/MOL
REMARK 924 INTRA-LIGAND FREE ENERGY PREDICTED BY IDOCK:   -2.05 KCAL/MOL
REMARK 927      BINDING AFFINITY PREDICTED BY RF-SCORE:    0.00 PKD
ROOT
HETATM    1  C   UNL     1     -11.410  10.961  69.258  1.00  0.00    -0.345 C  
HETATM    2  C   UNL     1     -11.565  10.957  67.757  1.00  0.00    -0.231 C  
ENDROOT
BRANCH   2   3
HETATM    3  C   UNL     1     -10.560  11.908  67.068  1.00  0.00    -0.260 C  
BRANCH   3   4
HETATM    4  C   UNL     1     -10.164  11.406  65.671  1.00  0.00    -0.298 C  
BRANCH   4   5
HETATM    5  C   UNL     1      -8.868  10.585  65.697  1.00  0.00    -0.197 C  
BRANCH   5   6
HETATM    6  C   UNL     1      -8.825   9.527  64.582  1.00  0.00    -0.250 C  
BRANCH   6   7
HETATM    7  C   UNL     1      -7.375   9.184  64.211  1.00  0.00    -0.104 C  
BRANCH   7   8
HETATM    8  C   UNL     1      -7.163   8.763  62.751  1.00  0.00    -0.097 C  
BRANCH   8   9
HETATM    9  C   UNL     1      -5.865   8.031  62.454  1.00  0.00    -0.070 C  
BRANCH   9  10
HETATM   10  C   UNL     1      -5.464   6.987  63.490  1.00  0.00    -0.032 C  
BRANCH  10  11
HETATM   11  C   UNL     1      -6.228   5.667  63.795  1.00  0.00    -0.025 C  
HETATM   12  O   UNL     1      -5.861   4.646  63.206  1.00  0.00    -0.016 OA 
BRANCH  11  13
HETATM   13  O   UNL     1      -7.409   5.703  64.531  1.00  0.00    -0.062 OA 
BRANCH  13  14
HETATM   14  C   UNL     1      -7.391   4.984  65.894  1.00  0.00    -0.077 C  
HETATM   15  C   UNL     1      -8.890   4.683  65.998  1.00  0.00    -0.121 C  
HETATM   16  C   UNL     1      -9.352   6.124  66.235  1.00  0.00    -0.157 C  
HETATM   17  C   UNL     1      -8.645   6.325  67.550  1.00  0.00    -0.107 C  
HETATM   18  C   UNL     1      -9.296   7.212  68.611  1.00  0.00    -0.134 C  
HETATM   19  C   UNL     1     -10.806   6.959  68.383  1.00  0.00    -0.238 C  
HETATM   20  C   UNL     1     -11.736   7.204  69.511  1.00  0.00     0.204 C  
HETATM   21  C   UNL     1     -11.174   6.585  70.804  1.00  0.00    -0.377 C  
HETATM   22  C   UNL     1     -12.048   6.165  71.716  1.00  0.00    -0.169 C  
HETATM   23  C   UNL     1     -12.761   7.424  72.066  1.00  0.00    -0.208 C  
HETATM   24  O   UNL     1     -13.966   7.426  72.218  1.00  0.00    -0.065 OA 
HETATM   25  C   UNL     1     -11.848   8.683  72.181  1.00  0.00    -0.447 C  
HETATM   26  C   UNL     1     -10.368   8.642  71.515  1.00  0.00    -0.341 C  
HETATM   27  C   UNL     1      -9.822   7.185  71.227  1.00  0.00    -0.178 C  
HETATM   28  C   UNL     1      -9.260   6.712  72.577  1.00  0.00    -0.144 C  
HETATM   29  C   UNL     1      -8.870   6.686  70.015  1.00  0.00    -0.141 C  
HETATM   30  C   UNL     1      -7.304   6.483  70.003  1.00  0.00    -0.089 C  
HETATM   31  C   UNL     1      -6.804   5.455  68.802  1.00  0.00    -0.055 C  
HETATM   32  C   UNL     1      -7.155   5.968  67.309  1.00  0.00    -0.070 C  
HETATM   33  C   UNL     1      -6.028   6.948  66.975  1.00  0.00    -0.022 C  
ENDBRANCH  13  14
ENDBRANCH  11  13
ENDBRANCH  10  11
ENDBRANCH   9  10
ENDBRANCH   8   9
ENDBRANCH   7   8
ENDBRANCH   6   7
ENDBRANCH   5   6
ENDBRANCH   4   5
ENDBRANCH   3   4
ENDBRANCH   2   3
TORSDOF 11
ENDMDL
MODEL      165
REMARK 921   NORMALIZED FREE ENERGY PREDICTED BY IDOCK:   -2.90 KCAL/MOL
REMARK 922        TOTAL FREE ENERGY PREDICTED BY IDOCK:   -6.95 KCAL/MOL
REMARK 923 INTER-LIGAND FREE ENERGY PREDICTED BY IDOCK:   -6.01 KCAL/MOL
REMARK 924 INTRA-LIGAND FREE ENERGY PREDICTED BY IDOCK:   -0.94 KCAL/MOL
REMARK 927      BINDING AFFINITY PREDICTED BY RF-SCORE:    0.00 PKD
ROOT
HETATM    1  C   UNL     1      -6.232  16.139  69.190  1.00  0.00    -0.153 C  
HETATM    2  C   UNL     1      -7.026  17.417  69.088  1.00  0.00    -0.209 C  
ENDROOT
BRANCH   2   3
HETATM    3  C   UNL     1      -7.048  17.973  67.645  1.00  0.00    -0.202 C  
BRANCH   3   4
HETATM    4  C   UNL     1      -8.026  19.150  67.502  1.00  0.00    -0.284 C  
BRANCH   4   5
HETATM    5  C   UNL     1      -9.000  19.240  68.683  1.00  0.00    -0.419 C  
BRANCH   5   6
HETATM    6  C   UNL     1     -10.395  18.697  68.331  1.00  0.00    -0.356 C  
BRANCH   6   7
HETATM    7  C   UNL     1     -10.408  17.161  68.364  1.00  0.00    -0.362 C  
BRANCH   7   8
HETATM    8  C   UNL     1     -11.381  16.544  69.377  1.00  0.00    -0.105 C  
BRANCH   8   9
HETATM    9  C   UNL     1     -10.817  15.426  70.239  1.00  0.00    -0.332 C  
BRANCH   9  10
HETATM   10  C   UNL     1     -11.489  14.070  70.054  1.00  0.00    -0.235 C  
BRANCH  10  11
HETATM   11  C   UNL     1     -11.523  13.243  68.737  1.00  0.00    -0.306 C  
HETATM   12  O   UNL     1     -12.494  13.397  67.991  1.00  0.00    -0.042 OA 
BRANCH  11  13
HETATM   13  O   UNL     1     -10.600  12.220  68.535  1.00  0.00    -0.224 OA 
BRANCH  13  14
HETATM   14  C   UNL     1     -10.933  11.206  67.424  1.00  0.00    -0.290 C  
HETATM   15  C   UNL     1     -11.393  10.049  68.320  1.00  0.00    -0.117 C  
HETATM   16  C   UNL     1     -10.013   9.692  68.882  1.00  0.00    -0.186 C  
HETATM   17  C   UNL     1      -9.387   9.281  67.575  1.00  0.00    -0.148 C  
HETATM   18  C   UNL     1      -8.350   8.158  67.573  1.00  0.00    -0.123 C  
HETATM   19  C   UNL     1      -8.852   7.233  68.709  1.00  0.00    -0.127 C  
HETATM   20  C   UNL     1      -8.448   5.807  68.681  1.00  0.00    -0.107 C  
HETATM   21  C   UNL     1      -8.631   5.234  67.263  1.00  0.00    -0.105 C  
HETATM   22  C   UNL     1      -8.913   3.937  67.156  1.00  0.00    -0.152 C  
HETATM   23  C   UNL     1      -7.712   3.306  67.770  1.00  0.00    -0.068 C  
HETATM   24  O   UNL     1      -7.830   2.352  68.511  1.00  0.00    -0.053 OA 
HETATM   25  C   UNL     1      -6.356   3.986  67.402  1.00  0.00    -0.037 C  
HETATM   26  C   UNL     1      -6.372   5.491  66.797  1.00  0.00    -0.036 C  
HETATM   27  C   UNL     1      -7.768   5.942  66.205  1.00  0.00    -0.102 C  
HETATM   28  C   UNL     1      -7.798   5.343  64.791  1.00  0.00    -0.103 C  
HETATM   29  C   UNL     1      -8.433   7.419  66.203  1.00  0.00    -0.147 C  
HETATM   30  C   UNL     1      -8.424   8.510  65.062  1.00  0.00    -0.183 C  
HETATM   31  C   UNL     1      -9.652   9.613  65.222  1.00  0.00    -0.347 C  
HETATM   32  C   UNL     1      -9.594  10.466  66.596  1.00  0.00    -0.219 C  
HETATM   33  C   UNL     1      -8.594  11.585  66.299  1.00  0.00    -0.133 C  
ENDBRANCH  13  14
ENDBRANCH  11  13
ENDBRANCH  10  11
ENDBRANCH   9  10
ENDBRANCH   8   9
ENDBRANCH   7   8
ENDBRANCH   6   7
ENDBRANCH   5   6
ENDBRANCH   4   5
ENDBRANCH   3   4
ENDBRANCH   2   3
TORSDOF 11
ENDMDL
MODEL      166
REMARK 921   NORMALIZED FREE ENERGY PREDICTED BY IDOCK:   -2.90 KCAL/MOL
REMARK 922        TOTAL FREE ENERGY PREDICTED BY IDOCK:   -6.95 KCAL/MOL
REMARK 923 INTER-LIGAND FREE ENERGY PREDICTED BY IDOCK:   -5.39 KCAL/MOL
REMARK 924 INTRA-LIGAND FREE ENERGY PREDICTED BY IDOCK:   -1.56 KCAL/MOL
REMARK 927      BINDING AFFINITY PREDICTED BY RF-SCORE:    0.00 PKD
ROOT
HETATM    1  C   UNL     1     -11.134   6.422  67.172  1.00  0.00    -0.422 C  
HETATM    2  C   UNL     1     -10.332   5.265  66.631  1.00  0.00    -0.330 C  
ENDROOT
BRANCH   2   3
HETATM    3  C   UNL     1      -8.889   5.250  67.185  1.00  0.00    -0.109 C  
BRANCH   3   4
HETATM    4  C   UNL     1      -8.496   3.864  67.720  1.00  0.00    -0.104 C  
BRANCH   4   5
HETATM    5  C   UNL     1      -9.498   3.338  68.755  1.00  0.00    -0.198 C  
BRANCH   5   6
HETATM    6  C   UNL     1      -9.566   4.231  70.006  1.00  0.00    -0.274 C  
BRANCH   6   7
HETATM    7  C   UNL     1      -9.319   3.408  71.279  1.00  0.00    -0.208 C  
BRANCH   7   8
HETATM    8  C   UNL     1      -7.863   2.976  71.497  1.00  0.00    -0.056 C  
BRANCH   8   9
HETATM    9  C   UNL     1      -6.805   3.987  71.090  1.00  0.00    -0.032 C  
BRANCH   9  10
HETATM   10  C   UNL     1      -7.031   5.402  71.613  1.00  0.00    -0.067 C  
BRANCH  10  11
HETATM   11  C   UNL     1      -5.993   6.559  71.583  1.00  0.00    -0.037 C  
HETATM   12  O   UNL     1      -5.248   6.683  72.559  1.00  0.00    -0.034 OA 
BRANCH  11  13
HETATM   13  O   UNL     1      -6.067   7.533  70.591  1.00  0.00    -0.034 OA 
BRANCH  13  14
HETATM   14  C   UNL     1      -7.344   7.539  69.728  1.00  0.00    -0.082 C  
HETATM   15  C   UNL     1      -6.755   8.201  68.477  1.00  0.00    -0.063 C  
HETATM   16  C   UNL     1      -6.586   9.602  69.072  1.00  0.00    -0.049 C  
HETATM   17  C   UNL     1      -8.049   9.873  69.313  1.00  0.00    -0.128 C  
HETATM   18  C   UNL     1      -8.569  11.303  69.169  1.00  0.00     0.106 C  
HETATM   19  C   UNL     1      -7.679  11.874  68.038  1.00  0.00    -0.132 C  
HETATM   20  C   UNL     1      -8.196  13.020  67.251  1.00  0.00    -0.174 C  
HETATM   21  C   UNL     1      -9.659  12.765  66.845  1.00  0.00    -0.235 C  
HETATM   22  C   UNL     1     -10.085  13.310  65.707  1.00  0.00    -0.293 C  
HETATM   23  C   UNL     1      -9.915  14.764  65.976  1.00  0.00    -0.313 C  
HETATM   24  O   UNL     1      -9.475  15.501  65.117  1.00  0.00    -0.160 OA 
HETATM   25  C   UNL     1     -10.313  15.214  67.416  1.00  0.00    -0.244 C  
HETATM   26  C   UNL     1     -10.439  14.092  68.581  1.00  0.00    -0.250 C  
HETATM   27  C   UNL     1     -10.606  12.612  68.048  1.00  0.00    -0.233 C  
HETATM   28  C   UNL     1     -12.103  12.487  67.724  1.00  0.00    -0.116 C  
HETATM   29  C   UNL     1     -10.055  11.237  68.701  1.00  0.00    -0.216 C  
HETATM   30  C   UNL     1     -10.810  10.207  69.630  1.00  0.00    -0.299 C  
HETATM   31  C   UNL     1     -10.112   8.703  69.616  1.00  0.00    -0.201 C  
HETATM   32  C   UNL     1      -8.585   8.683  70.151  1.00  0.00    -0.138 C  
HETATM   33  C   UNL     1      -8.723   8.633  71.674  1.00  0.00    -0.270 C  
ENDBRANCH  13  14
ENDBRANCH  11  13
ENDBRANCH  10  11
ENDBRANCH   9  10
ENDBRANCH   8   9
ENDBRANCH   7   8
ENDBRANCH   6   7
ENDBRANCH   5   6
ENDBRANCH   4   5
ENDBRANCH   3   4
ENDBRANCH   2   3
TORSDOF 11
ENDMDL
MODEL      167
REMARK 921   NORMALIZED FREE ENERGY PREDICTED BY IDOCK:   -2.90 KCAL/MOL
REMARK 922        TOTAL FREE ENERGY PREDICTED BY IDOCK:   -6.95 KCAL/MOL
REMARK 923 INTER-LIGAND FREE ENERGY PREDICTED BY IDOCK:   -5.63 KCAL/MOL
REMARK 924 INTRA-LIGAND FREE ENERGY PREDICTED BY IDOCK:   -1.32 KCAL/MOL
REMARK 927      BINDING AFFINITY PREDICTED BY RF-SCORE:    0.00 PKD
ROOT
HETATM    1  C   UNL     1     -14.410   7.630  71.598  1.00  0.00    -0.613 C  
HETATM    2  C   UNL     1     -13.910   8.896  72.247  1.00  0.00    -0.536 C  
ENDROOT
BRANCH   2   3
HETATM    3  C   UNL     1     -13.177   9.814  71.242  1.00  0.00    -0.452 C  
BRANCH   3   4
HETATM    4  C   UNL     1     -12.755  11.143  71.887  1.00  0.00    -0.293 C  
BRANCH   4   5
HETATM    5  C   UNL     1     -12.451  12.223  70.840  1.00  0.00    -0.371 C  
BRANCH   5   6
HETATM    6  C   UNL     1     -12.664  13.643  71.388  1.00  0.00    -0.437 C  
BRANCH   6   7
HETATM    7  C   UNL     1     -12.096  14.693  70.422  1.00  0.00    -0.383 C  
BRANCH   7   8
HETATM    8  C   UNL     1     -12.080  14.272  68.947  1.00  0.00    -0.314 C  
BRANCH   8   9
HETATM    9  C   UNL     1     -10.909  14.787  68.125  1.00  0.00    -0.256 C  
BRANCH   9  10
HETATM   10  C   UNL     1     -11.029  14.561  66.622  1.00  0.00    -0.321 C  
BRANCH  10  11
HETATM   11  C   UNL     1     -10.299  13.456  65.807  1.00  0.00    -0.293 C  
HETATM   12  O   UNL     1     -10.481  13.433  64.586  1.00  0.00    -0.385 OA 
BRANCH  11  13
HETATM   13  O   UNL     1      -9.652  12.417  66.469  1.00  0.00    -0.229 OA 
BRANCH  13  14
HETATM   14  C   UNL     1     -10.348  11.043  66.436  1.00  0.00    -0.250 C  
HETATM   15  C   UNL     1     -10.264  10.723  67.933  1.00  0.00    -0.203 C  
HETATM   16  C   UNL     1      -8.752  10.481  67.985  1.00  0.00    -0.128 C  
HETATM   17  C   UNL     1      -8.730   9.283  67.071  1.00  0.00    -0.131 C  
HETATM   18  C   UNL     1      -7.705   8.178  67.325  1.00  0.00    -0.098 C  
HETATM   19  C   UNL     1      -7.573   8.188  68.868  1.00  0.00    -0.098 C  
HETATM   20  C   UNL     1      -7.098   6.954  69.538  1.00  0.00    -0.075 C  
HETATM   21  C   UNL     1      -7.835   5.727  68.969  1.00  0.00    -0.094 C  
HETATM   22  C   UNL     1      -8.019   4.689  69.781  1.00  0.00    -0.065 C  
HETATM   23  C   UNL     1      -6.621   4.294  70.104  1.00  0.00    -0.033 C  
HETATM   24  O   UNL     1      -6.317   3.979  71.237  1.00  0.00    -0.014 OA 
HETATM   25  C   UNL     1      -5.630   4.354  68.900  1.00  0.00    -0.013 C  
HETATM   26  C   UNL     1      -6.042   5.213  67.587  1.00  0.00    -0.030 C  
HETATM   27  C   UNL     1      -7.590   5.516  67.465  1.00  0.00    -0.089 C  
HETATM   28  C   UNL     1      -8.184   4.239  66.851  1.00  0.00    -0.101 C  
HETATM   29  C   UNL     1      -8.316   6.827  66.848  1.00  0.00    -0.114 C  
HETATM   30  C   UNL     1      -8.905   7.045  65.399  1.00  0.00     0.088 C  
HETATM   31  C   UNL     1     -10.029   8.262  65.344  1.00  0.00     1.213 C  
HETATM   32  C   UNL     1      -9.449   9.712  65.766  1.00  0.00    -0.308 C  
HETATM   33  C   UNL     1      -8.784  10.234  64.491  1.00  0.00    -0.205 C  
ENDBRANCH  13  14
ENDBRANCH  11  13
ENDBRANCH  10  11
ENDBRANCH   9  10
ENDBRANCH   8   9
ENDBRANCH   7   8
ENDBRANCH   6   7
ENDBRANCH   5   6
ENDBRANCH   4   5
ENDBRANCH   3   4
ENDBRANCH   2   3
TORSDOF 11
ENDMDL
MODEL      168
REMARK 921   NORMALIZED FREE ENERGY PREDICTED BY IDOCK:   -2.85 KCAL/MOL
REMARK 922        TOTAL FREE ENERGY PREDICTED BY IDOCK:   -6.86 KCAL/MOL
REMARK 923 INTER-LIGAND FREE ENERGY PREDICTED BY IDOCK:   -6.13 KCAL/MOL
REMARK 924 INTRA-LIGAND FREE ENERGY PREDICTED BY IDOCK:   -0.73 KCAL/MOL
REMARK 927      BINDING AFFINITY PREDICTED BY RF-SCORE:    0.00 PKD
ROOT
HETATM    1  C   UNL     1     -12.998  15.238  70.391  1.00  0.00    -0.307 C  
HETATM    2  C   UNL     1     -11.975  15.462  69.305  1.00  0.00    -0.335 C  
ENDROOT
BRANCH   2   3
HETATM    3  C   UNL     1     -10.792  16.330  69.792  1.00  0.00    -0.356 C  
BRANCH   3   4
HETATM    4  C   UNL     1     -10.636  17.605  68.949  1.00  0.00    -0.139 C  
BRANCH   4   5
HETATM    5  C   UNL     1      -9.325  17.616  68.153  1.00  0.00    -0.279 C  
BRANCH   5   6
HETATM    6  C   UNL     1      -8.301  18.608  68.729  1.00  0.00    -0.295 C  
BRANCH   6   7
HETATM    7  C   UNL     1      -6.930  18.430  68.058  1.00  0.00    -0.231 C  
BRANCH   7   8
HETATM    8  C   UNL     1      -5.741  18.965  68.865  1.00  0.00    -0.215 C  
BRANCH   8   9
HETATM    9  C   UNL     1      -5.383  18.178  70.116  1.00  0.00    -0.241 C  
BRANCH   9  10
HETATM   10  C   UNL     1      -5.323  16.666  69.930  1.00  0.00    -0.180 C  
BRANCH  10  11
HETATM   11  C   UNL     1      -5.586  15.604  71.034  1.00  0.00     0.076 C  
HETATM   12  O   UNL     1      -5.130  15.825  72.160  1.00  0.00    -0.194 OA 
BRANCH  11  13
HETATM   13  O   UNL     1      -6.121  14.365  70.693  1.00  0.00    -0.180 OA 
BRANCH  13  14
HETATM   14  C   UNL     1      -5.789  13.838  69.284  1.00  0.00    -0.087 C  
HETATM   15  C   UNL     1      -6.493  14.933  68.474  1.00  0.00    -0.091 C  
HETATM   16  C   UNL     1      -7.928  14.512  68.804  1.00  0.00    -0.142 C  
HETATM   17  C   UNL     1      -7.875  13.159  68.143  1.00  0.00    -0.145 C  
HETATM   18  C   UNL     1      -9.140  12.607  67.486  1.00  0.00    -0.192 C  
HETATM   19  C   UNL     1      -9.831  13.887  66.956  1.00  0.00    -0.257 C  
HETATM   20  C   UNL     1     -10.784  13.753  65.828  1.00  0.00    -0.281 C  
HETATM   21  C   UNL     1     -10.182  12.853  64.733  1.00  0.00    -0.307 C  
HETATM   22  C   UNL     1     -10.551  13.086  63.475  1.00  0.00     0.155 C  
HETATM   23  C   UNL     1     -12.019  12.846  63.531  1.00  0.00    -0.556 C  
HETATM   24  O   UNL     1     -12.785  13.584  62.945  1.00  0.00    -0.569 OA 
HETATM   25  C   UNL     1     -12.450  11.627  64.404  1.00  0.00     0.120 C  
HETATM   26  C   UNL     1     -11.397  11.023  65.481  1.00  0.00     0.238 C  
HETATM   27  C   UNL     1      -9.890  11.422  65.216  1.00  0.00    -0.290 C  
HETATM   28  C   UNL     1      -9.411  10.428  64.147  1.00  0.00    -0.353 C  
HETATM   29  C   UNL     1      -8.714  11.696  66.296  1.00  0.00    -0.136 C  
HETATM   30  C   UNL     1      -7.595  10.710  66.815  1.00  0.00    -0.120 C  
HETATM   31  C   UNL     1      -6.290  11.507  67.456  1.00  0.00    -0.076 C  
HETATM   32  C   UNL     1      -6.646  12.425  68.739  1.00  0.00    -0.088 C  
HETATM   33  C   UNL     1      -6.654  11.442  69.912  1.00  0.00    -0.081 C  
ENDBRANCH  13  14
ENDBRANCH  11  13
ENDBRANCH  10  11
ENDBRANCH   9  10
ENDBRANCH   8   9
ENDBRANCH   7   8
ENDBRANCH   6   7
ENDBRANCH   5   6
ENDBRANCH   4   5
ENDBRANCH   3   4
ENDBRANCH   2   3
TORSDOF 11
ENDMDL
MODEL      169
REMARK 921   NORMALIZED FREE ENERGY PREDICTED BY IDOCK:   -2.84 KCAL/MOL
REMARK 922        TOTAL FREE ENERGY PREDICTED BY IDOCK:   -6.85 KCAL/MOL
REMARK 923 INTER-LIGAND FREE ENERGY PREDICTED BY IDOCK:   -4.63 KCAL/MOL
REMARK 924 INTRA-LIGAND FREE ENERGY PREDICTED BY IDOCK:   -2.22 KCAL/MOL
REMARK 927      BINDING AFFINITY PREDICTED BY RF-SCORE:    0.00 PKD
ROOT
HETATM    1  C   UNL     1      -8.892  11.909  66.721  1.00  0.00    -0.193 C  
HETATM    2  C   UNL     1      -8.969  10.842  67.784  1.00  0.00    -0.139 C  
ENDROOT
BRANCH   2   3
HETATM    3  C   UNL     1     -10.198   9.924  67.596  1.00  0.00    -0.255 C  
BRANCH   3   4
HETATM    4  C   UNL     1     -10.545   9.163  68.886  1.00  0.00    -0.214 C  
BRANCH   4   5
HETATM    5  C   UNL     1     -11.094  10.092  69.976  1.00  0.00    -0.350 C  
BRANCH   5   6
HETATM    6  C   UNL     1     -11.632   9.314  71.189  1.00  0.00    -0.397 C  
BRANCH   6   7
HETATM    7  C   UNL     1     -11.841   7.833  70.840  1.00  0.00    -0.257 C  
BRANCH   7   8
HETATM    8  C   UNL     1     -11.717   6.867  72.024  1.00  0.00    -0.336 C  
BRANCH   8   9
HETATM    9  C   UNL     1     -11.208   7.472  73.322  1.00  0.00    -0.201 C  
BRANCH   9  10
HETATM   10  C   UNL     1     -10.170   6.633  74.060  1.00  0.00    -0.395 C  
BRANCH  10  11
HETATM   11  C   UNL     1      -8.819   6.136  73.473  1.00  0.00    -0.124 C  
HETATM   12  O   UNL     1      -8.154   5.352  74.157  1.00  0.00    -0.109 OA 
BRANCH  11  13
HETATM   13  O   UNL     1      -8.297   6.731  72.328  1.00  0.00    -0.107 OA 
BRANCH  13  14
HETATM   14  C   UNL     1      -7.289   5.893  71.518  1.00  0.00    -0.088 C  
HETATM   15  C   UNL     1      -6.576   7.048  70.803  1.00  0.00    -0.052 C  
HETATM   16  C   UNL     1      -7.730   7.425  69.868  1.00  0.00    -0.099 C  
HETATM   17  C   UNL     1      -7.774   6.128  69.104  1.00  0.00    -0.100 C  
HETATM   18  C   UNL     1      -8.151   6.154  67.623  1.00  0.00    -0.113 C  
HETATM   19  C   UNL     1      -7.565   7.507  67.149  1.00  0.00    -0.107 C  
HETATM   20  C   UNL     1      -7.255   7.670  65.708  1.00  0.00    -0.065 C  
HETATM   21  C   UNL     1      -6.503   6.431  65.187  1.00  0.00    -0.038 C  
HETATM   22  C   UNL     1      -5.645   6.609  64.185  1.00  0.00    -0.031 C  
HETATM   23  C   UNL     1      -6.532   7.116  63.102  1.00  0.00    -0.052 C  
HETATM   24  O   UNL     1      -6.170   8.027  62.386  1.00  0.00    -0.083 OA 
HETATM   25  C   UNL     1      -7.920   6.409  63.008  1.00  0.00    -0.088 C  
HETATM   26  C   UNL     1      -8.451   5.552  64.280  1.00  0.00    -0.069 C  
HETATM   27  C   UNL     1      -7.320   5.132  65.303  1.00  0.00    -0.068 C  
HETATM   28  C   UNL     1      -6.690   3.875  64.683  1.00  0.00    -0.044 C  
HETATM   29  C   UNL     1      -7.422   4.975  66.912  1.00  0.00    -0.087 C  
HETATM   30  C   UNL     1      -7.660   3.670  67.768  1.00  0.00    -0.066 C  
HETATM   31  C   UNL     1      -7.146   3.833  69.336  1.00  0.00    -0.046 C  
HETATM   32  C   UNL     1      -7.907   4.999  70.159  1.00  0.00    -0.067 C  
HETATM   33  C   UNL     1      -9.207   4.341  70.626  1.00  0.00    -0.193 C  
ENDBRANCH  13  14
ENDBRANCH  11  13
ENDBRANCH  10  11
ENDBRANCH   9  10
ENDBRANCH   8   9
ENDBRANCH   7   8
ENDBRANCH   6   7
ENDBRANCH   5   6
ENDBRANCH   4   5
ENDBRANCH   3   4
ENDBRANCH   2   3
TORSDOF 11
ENDMDL
MODEL      170
REMARK 921   NORMALIZED FREE ENERGY PREDICTED BY IDOCK:   -2.82 KCAL/MOL
REMARK 922        TOTAL FREE ENERGY PREDICTED BY IDOCK:   -6.82 KCAL/MOL
REMARK 923 INTER-LIGAND FREE ENERGY PREDICTED BY IDOCK:   -5.91 KCAL/MOL
REMARK 924 INTRA-LIGAND FREE ENERGY PREDICTED BY IDOCK:   -0.92 KCAL/MOL
REMARK 927      BINDING AFFINITY PREDICTED BY RF-SCORE:    0.00 PKD
ROOT
HETATM    1  C   UNL     1      -6.230  16.054  69.126  1.00  0.00    -0.145 C  
HETATM    2  C   UNL     1      -6.991  17.290  68.716  1.00  0.00    -0.230 C  
ENDROOT
BRANCH   2   3
HETATM    3  C   UNL     1      -6.661  17.721  67.268  1.00  0.00    -0.186 C  
BRANCH   3   4
HETATM    4  C   UNL     1      -7.541  18.894  66.808  1.00  0.00    -0.242 C  
BRANCH   4   5
HETATM    5  C   UNL     1      -8.848  18.985  67.605  1.00  0.00    -0.319 C  
BRANCH   5   6
HETATM    6  C   UNL     1     -10.049  18.431  66.823  1.00  0.00    -0.391 C  
BRANCH   6   7
HETATM    7  C   UNL     1     -10.103  16.898  66.916  1.00  0.00    -0.289 C  
BRANCH   7   8
HETATM    8  C   UNL     1     -11.457  16.324  67.349  1.00  0.00     0.240 C  
BRANCH   8   9
HETATM    9  C   UNL     1     -11.444  15.477  68.611  1.00  0.00    -0.367 C  
BRANCH   9  10
HETATM   10  C   UNL     1     -11.954  14.051  68.436  1.00  0.00    -0.378 C  
BRANCH  10  11
HETATM   11  C   UNL     1     -11.110  12.834  67.964  1.00  0.00    -0.250 C  
HETATM   12  O   UNL     1     -11.016  12.641  66.749  1.00  0.00    -0.249 OA 
BRANCH  11  13
HETATM   13  O   UNL     1     -10.672  11.892  68.891  1.00  0.00    -0.221 OA 
BRANCH  13  14
HETATM   14  C   UNL     1     -10.171  10.551  68.321  1.00  0.00    -0.163 C  
HETATM   15  C   UNL     1     -11.329   9.667  68.800  1.00  0.00     0.089 C  
HETATM   16  C   UNL     1     -10.981   9.702  70.292  1.00  0.00    -0.337 C  
HETATM   17  C   UNL     1      -9.649   9.007  70.182  1.00  0.00    -0.217 C  
HETATM   18  C   UNL     1      -9.191   8.099  71.323  1.00  0.00    -0.193 C  
HETATM   19  C   UNL     1     -10.525   7.502  71.834  1.00  0.00    -0.235 C  
HETATM   20  C   UNL     1     -10.482   6.208  72.558  1.00  0.00    -0.228 C  
HETATM   21  C   UNL     1      -9.583   5.211  71.803  1.00  0.00    -0.199 C  
HETATM   22  C   UNL     1      -9.875   3.917  71.911  1.00  0.00    -0.248 C  
HETATM   23  C   UNL     1      -9.719   3.683  73.373  1.00  0.00    -0.109 C  
HETATM   24  O   UNL     1     -10.518   2.993  73.974  1.00  0.00    -0.144 OA 
HETATM   25  C   UNL     1      -8.501   4.407  74.025  1.00  0.00    -0.099 C  
HETATM   26  C   UNL     1      -7.803   5.638  73.231  1.00  0.00    -0.106 C  
HETATM   27  C   UNL     1      -8.123   5.681  71.682  1.00  0.00    -0.118 C  
HETATM   28  C   UNL     1      -7.136   4.682  71.058  1.00  0.00    -0.037 C  
HETATM   29  C   UNL     1      -8.295   6.975  70.723  1.00  0.00    -0.129 C  
HETATM   30  C   UNL     1      -7.230   7.656  69.776  1.00  0.00    -0.079 C  
HETATM   31  C   UNL     1      -7.930   8.566  68.580  1.00  0.00    -0.117 C  
HETATM   32  C   UNL     1      -8.827   9.795  69.128  1.00  0.00    -0.160 C  
HETATM   33  C   UNL     1      -7.811  10.903  69.411  1.00  0.00    -0.048 C  
ENDBRANCH  13  14
ENDBRANCH  11  13
ENDBRANCH  10  11
ENDBRANCH   9  10
ENDBRANCH   8   9
ENDBRANCH   7   8
ENDBRANCH   6   7
ENDBRANCH   5   6
ENDBRANCH   4   5
ENDBRANCH   3   4
ENDBRANCH   2   3
TORSDOF 11
ENDMDL
MODEL      171
REMARK 921   NORMALIZED FREE ENERGY PREDICTED BY IDOCK:   -2.81 KCAL/MOL
REMARK 922        TOTAL FREE ENERGY PREDICTED BY IDOCK:   -6.81 KCAL/MOL
REMARK 923 INTER-LIGAND FREE ENERGY PREDICTED BY IDOCK:   -6.08 KCAL/MOL
REMARK 924 INTRA-LIGAND FREE ENERGY PREDICTED BY IDOCK:   -0.72 KCAL/MOL
REMARK 927      BINDING AFFINITY PREDICTED BY RF-SCORE:    0.00 PKD
ROOT
HETATM    1  C   UNL     1     -10.901  17.016  67.784  1.00  0.00    -0.269 C  
HETATM    2  C   UNL     1     -10.410  17.274  69.187  1.00  0.00    -0.290 C  
ENDROOT
BRANCH   2   3
HETATM    3  C   UNL     1      -9.097  16.516  69.491  1.00  0.00     0.177 C  
BRANCH   3   4
HETATM    4  C   UNL     1      -7.886  17.180  68.816  1.00  0.00    -0.258 C  
BRANCH   4   5
HETATM    5  C   UNL     1      -7.088  16.190  67.959  1.00  0.00    -0.141 C  
BRANCH   5   6
HETATM    6  C   UNL     1      -6.895  14.835  68.659  1.00  0.00    -0.103 C  
BRANCH   6   7
HETATM    7  C   UNL     1      -7.656  13.725  67.920  1.00  0.00    -0.157 C  
BRANCH   7   8
HETATM    8  C   UNL     1      -8.752  14.216  66.966  1.00  0.00    -0.222 C  
BRANCH   8   9
HETATM    9  C   UNL     1      -9.288  13.185  65.986  1.00  0.00    -0.023 C  
BRANCH   9  10
HETATM   10  C   UNL     1     -10.751  13.366  65.598  1.00  0.00    -0.283 C  
BRANCH  10  11
HETATM   11  C   UNL     1     -11.833  12.249  65.582  1.00  0.00    -0.360 C  
HETATM   12  O   UNL     1     -12.892  12.489  64.995  1.00  0.00    -0.742 OA 
BRANCH  11  13
HETATM   13  O   UNL     1     -11.681  11.123  66.386  1.00  0.00    -0.174 OA 
BRANCH  13  14
HETATM   14  C   UNL     1     -10.273  10.875  66.961  1.00  0.00    -0.214 C  
HETATM   15  C   UNL     1      -9.989   9.538  66.265  1.00  0.00    -0.344 C  
HETATM   16  C   UNL     1     -10.981   8.696  67.073  1.00  0.00     0.203 C  
HETATM   17  C   UNL     1     -10.316   8.874  68.413  1.00  0.00    -0.237 C  
HETATM   18  C   UNL     1     -10.365   7.725  69.421  1.00  0.00    -0.219 C  
HETATM   19  C   UNL     1     -10.325   6.475  68.509  1.00  0.00    -0.219 C  
HETATM   20  C   UNL     1      -9.831   5.202  69.087  1.00  0.00    -0.257 C  
HETATM   21  C   UNL     1      -8.538   5.451  69.886  1.00  0.00    -0.108 C  
HETATM   22  C   UNL     1      -7.655   4.457  69.951  1.00  0.00    -0.050 C  
HETATM   23  C   UNL     1      -8.436   3.391  70.636  1.00  0.00    -0.068 C  
HETATM   24  O   UNL     1      -8.358   2.237  70.265  1.00  0.00    -0.041 OA 
HETATM   25  C   UNL     1      -9.343   3.891  71.802  1.00  0.00    -0.197 C  
HETATM   26  C   UNL     1      -9.705   5.471  71.892  1.00  0.00    -0.197 C  
HETATM   27  C   UNL     1      -8.732   6.411  71.072  1.00  0.00    -0.135 C  
HETATM   28  C   UNL     1      -7.519   6.606  71.994  1.00  0.00    -0.094 C  
HETATM   29  C   UNL     1      -9.078   7.791  70.298  1.00  0.00    -0.152 C  
HETATM   30  C   UNL     1      -8.907   9.279  70.799  1.00  0.00    -0.282 C  
HETATM   31  C   UNL     1      -8.837  10.368  69.550  1.00  0.00    -0.111 C  
HETATM   32  C   UNL     1     -10.168  10.402  68.631  1.00  0.00    -0.196 C  
HETATM   33  C   UNL     1     -11.130  11.308  69.402  1.00  0.00    -0.316 C  
ENDBRANCH  13  14
ENDBRANCH  11  13
ENDBRANCH  10  11
ENDBRANCH   9  10
ENDBRANCH   8   9
ENDBRANCH   7   8
ENDBRANCH   6   7
ENDBRANCH   5   6
ENDBRANCH   4   5
ENDBRANCH   3   4
ENDBRANCH   2   3
TORSDOF 11
ENDMDL
MODEL      172
REMARK 921   NORMALIZED FREE ENERGY PREDICTED BY IDOCK:   -2.81 KCAL/MOL
REMARK 922        TOTAL FREE ENERGY PREDICTED BY IDOCK:   -6.80 KCAL/MOL
REMARK 923 INTER-LIGAND FREE ENERGY PREDICTED BY IDOCK:   -6.28 KCAL/MOL
REMARK 924 INTRA-LIGAND FREE ENERGY PREDICTED BY IDOCK:   -0.52 KCAL/MOL
REMARK 927      BINDING AFFINITY PREDICTED BY RF-SCORE:    0.00 PKD
ROOT
HETATM    1  C   UNL     1     -10.100   4.057  71.717  1.00  0.00    -0.199 C  
HETATM    2  C   UNL     1      -8.615   4.267  71.552  1.00  0.00    -0.129 C  
ENDROOT
BRANCH   2   3
HETATM    3  C   UNL     1      -8.100   3.722  70.200  1.00  0.00    -0.054 C  
BRANCH   3   4
HETATM    4  C   UNL     1      -7.243   4.758  69.456  1.00  0.00    -0.055 C  
BRANCH   4   5
HETATM    5  C   UNL     1      -7.897   5.219  68.148  1.00  0.00    -0.088 C  
BRANCH   5   6
HETATM    6  C   UNL     1      -9.279   5.851  68.378  1.00  0.00    -0.118 C  
BRANCH   6   7
HETATM    7  C   UNL     1      -9.172   7.085  69.287  1.00  0.00    -0.139 C  
BRANCH   7   8
HETATM    8  C   UNL     1     -10.506   7.768  69.612  1.00  0.00    -0.229 C  
BRANCH   8   9
HETATM    9  C   UNL     1     -10.884   8.940  68.721  1.00  0.00    -0.040 C  
BRANCH   9  10
HETATM   10  C   UNL     1     -10.880   8.641  67.226  1.00  0.00    -0.077 C  
BRANCH  10  11
HETATM   11  C   UNL     1      -9.997   9.348  66.160  1.00  0.00    -0.281 C  
HETATM   12  O   UNL     1      -8.881   8.870  65.934  1.00  0.00    -0.156 OA 
BRANCH  11  13
HETATM   13  O   UNL     1     -10.376  10.589  65.655  1.00  0.00    -0.256 OA 
BRANCH  13  14
HETATM   14  C   UNL     1     -11.212  11.484  66.591  1.00  0.00    -0.271 C  
HETATM   15  C   UNL     1     -11.636  12.536  65.559  1.00  0.00    -0.429 C  
HETATM   16  C   UNL     1     -10.263  13.191  65.388  1.00  0.00    -0.301 C  
HETATM   17  C   UNL     1     -10.128  13.697  66.801  1.00  0.00    -0.269 C  
HETATM   18  C   UNL     1      -9.394  15.015  67.048  1.00  0.00    -0.237 C  
HETATM   19  C   UNL     1      -9.742  15.837  65.782  1.00  0.00    -0.372 C  
HETATM   20  C   UNL     1      -9.672  17.316  65.866  1.00  0.00    -0.111 C  
HETATM   21  C   UNL     1     -10.361  17.804  67.154  1.00  0.00    -0.354 C  
HETATM   22  C   UNL     1     -10.928  19.008  67.129  1.00  0.00    -0.338 C  
HETATM   23  C   UNL     1      -9.765  19.894  66.849  1.00  0.00    -0.407 C  
HETATM   24  O   UNL     1      -9.870  20.818  66.067  1.00  0.00     0.048 OA 
HETATM   25  C   UNL     1      -8.455  19.512  67.604  1.00  0.00    -0.347 C  
HETATM   26  C   UNL     1      -8.321  18.024  68.239  1.00  0.00    -0.295 C  
HETATM   27  C   UNL     1      -9.699  17.273  68.437  1.00  0.00    -0.293 C  
HETATM   28  C   UNL     1     -10.248  17.820  69.763  1.00  0.00     0.458 C  
HETATM   29  C   UNL     1     -10.011  15.688  68.311  1.00  0.00    -0.213 C  
HETATM   30  C   UNL     1     -10.091  14.599  69.451  1.00  0.00    -0.068 C  
HETATM   31  C   UNL     1     -10.963  13.264  68.998  1.00  0.00    -0.249 C  
HETATM   32  C   UNL     1     -10.345  12.474  67.729  1.00  0.00    -0.224 C  
HETATM   33  C   UNL     1      -9.255  11.587  68.335  1.00  0.00    -0.190 C  
ENDBRANCH  13  14
ENDBRANCH  11  13
ENDBRANCH  10  11
ENDBRANCH   9  10
ENDBRANCH   8   9
ENDBRANCH   7   8
ENDBRANCH   6   7
ENDBRANCH   5   6
ENDBRANCH   4   5
ENDBRANCH   3   4
ENDBRANCH   2   3
TORSDOF 11
ENDMDL
MODEL      173
REMARK 921   NORMALIZED FREE ENERGY PREDICTED BY IDOCK:   -2.77 KCAL/MOL
REMARK 922        TOTAL FREE ENERGY PREDICTED BY IDOCK:   -6.74 KCAL/MOL
REMARK 923 INTER-LIGAND FREE ENERGY PREDICTED BY IDOCK:   -6.13 KCAL/MOL
REMARK 924 INTRA-LIGAND FREE ENERGY PREDICTED BY IDOCK:   -0.60 KCAL/MOL
REMARK 927      BINDING AFFINITY PREDICTED BY RF-SCORE:    0.00 PKD
ROOT
HETATM    1  C   UNL     1     -11.935  15.300  69.515  1.00  0.00    -0.356 C  
HETATM    2  C   UNL     1     -11.406  15.430  68.109  1.00  0.00    -0.353 C  
ENDROOT
BRANCH   2   3
HETATM    3  C   UNL     1     -12.063  14.414  67.146  1.00  0.00    -0.367 C  
BRANCH   3   4
HETATM    4  C   UNL     1     -11.598  12.977  67.427  1.00  0.00    -0.407 C  
BRANCH   4   5
HETATM    5  C   UNL     1     -11.627  12.102  66.168  1.00  0.00    -0.418 C  
BRANCH   5   6
HETATM    6  C   UNL     1     -10.458  12.409  65.217  1.00  0.00    -0.316 C  
BRANCH   6   7
HETATM    7  C   UNL     1     -10.835  12.082  63.765  1.00  0.00    -0.481 C  
BRANCH   7   8
HETATM    8  C   UNL     1     -10.104  10.876  63.162  1.00  0.00    -0.317 C  
BRANCH   8   9
HETATM    9  C   UNL     1      -8.748  11.168  62.539  1.00  0.00    -0.304 C  
BRANCH   9  10
HETATM   10  C   UNL     1      -7.619  10.250  62.994  1.00  0.00    -0.136 C  
BRANCH  10  11
HETATM   11  C   UNL     1      -7.794   8.869  63.687  1.00  0.00    -0.141 C  
HETATM   12  O   UNL     1      -7.860   7.871  62.963  1.00  0.00    -0.129 OA 
BRANCH  11  13
HETATM   13  O   UNL     1      -8.083   8.805  65.047  1.00  0.00    -0.126 OA 
BRANCH  13  14
HETATM   14  C   UNL     1      -9.105   7.737  65.483  1.00  0.00     0.149 C  
HETATM   15  C   UNL     1      -9.559   8.396  66.791  1.00  0.00    -0.283 C  
HETATM   16  C   UNL     1      -8.266   8.156  67.577  1.00  0.00    -0.123 C  
HETATM   17  C   UNL     1      -8.325   6.650  67.563  1.00  0.00    -0.121 C  
HETATM   18  C   UNL     1      -7.784   5.878  68.766  1.00  0.00    -0.091 C  
HETATM   19  C   UNL     1      -8.113   6.822  69.948  1.00  0.00    -0.126 C  
HETATM   20  C   UNL     1      -8.234   6.232  71.303  1.00  0.00    -0.122 C  
HETATM   21  C   UNL     1      -9.093   4.955  71.249  1.00  0.00    -0.179 C  
HETATM   22  C   UNL     1      -9.799   4.643  72.333  1.00  0.00    -0.215 C  
HETATM   23  C   UNL     1      -8.733   4.452  73.355  1.00  0.00    -0.099 C  
HETATM   24  O   UNL     1      -8.878   4.880  74.482  1.00  0.00    -0.111 OA 
HETATM   25  C   UNL     1      -7.460   3.710  72.842  1.00  0.00    -0.060 C  
HETATM   26  C   UNL     1      -7.203   3.607  71.242  1.00  0.00    -0.033 C  
HETATM   27  C   UNL     1      -8.491   3.855  70.357  1.00  0.00    -0.092 C  
HETATM   28  C   UNL     1      -9.222   2.505  70.356  1.00  0.00    -0.198 C  
HETATM   29  C   UNL     1      -8.592   4.552  68.898  1.00  0.00    -0.101 C  
HETATM   30  C   UNL     1      -8.642   3.870  67.475  1.00  0.00    -0.111 C  
HETATM   31  C   UNL     1      -9.299   4.858  66.316  1.00  0.00    -0.149 C  
HETATM   32  C   UNL     1      -8.474   6.229  66.078  1.00  0.00    -0.143 C  
HETATM   33  C   UNL     1      -7.344   5.825  65.129  1.00  0.00    -0.075 C  
ENDBRANCH  13  14
ENDBRANCH  11  13
ENDBRANCH  10  11
ENDBRANCH   9  10
ENDBRANCH   8   9
ENDBRANCH   7   8
ENDBRANCH   6   7
ENDBRANCH   5   6
ENDBRANCH   4   5
ENDBRANCH   3   4
ENDBRANCH   2   3
TORSDOF 11
ENDMDL
MODEL      174
REMARK 921   NORMALIZED FREE ENERGY PREDICTED BY IDOCK:   -2.73 KCAL/MOL
REMARK 922        TOTAL FREE ENERGY PREDICTED BY IDOCK:   -6.68 KCAL/MOL
REMARK 923 INTER-LIGAND FREE ENERGY PREDICTED BY IDOCK:   -5.55 KCAL/MOL
REMARK 924 INTRA-LIGAND FREE ENERGY PREDICTED BY IDOCK:   -1.13 KCAL/MOL
REMARK 927      BINDING AFFINITY PREDICTED BY RF-SCORE:    0.00 PKD
ROOT
HETATM    1  C   UNL     1      -8.481  20.629  66.859  1.00  0.00    -0.202 C  
HETATM    2  C   UNL     1      -9.804  19.947  66.616  1.00  0.00    -0.555 C  
ENDROOT
BRANCH   2   3
HETATM    3  C   UNL     1      -9.725  18.423  66.861  1.00  0.00    -0.324 C  
BRANCH   3   4
HETATM    4  C   UNL     1      -9.409  18.097  68.330  1.00  0.00    -0.312 C  
BRANCH   4   5
HETATM    5  C   UNL     1     -10.472  17.191  68.963  1.00  0.00    -0.321 C  
BRANCH   5   6
HETATM    6  C   UNL     1      -9.914  15.807  69.333  1.00  0.00    -0.274 C  
BRANCH   6   7
HETATM    7  C   UNL     1     -10.046  14.831  68.154  1.00  0.00    -0.221 C  
BRANCH   7   8
HETATM    8  C   UNL     1     -11.296  15.030  67.288  1.00  0.00    -0.337 C  
BRANCH   8   9
HETATM    9  C   UNL     1     -11.058  15.087  65.787  1.00  0.00    -0.346 C  
BRANCH   9  10
HETATM   10  C   UNL     1      -9.930  14.197  65.280  1.00  0.00    -0.295 C  
BRANCH  10  11
HETATM   11  C   UNL     1     -10.094  12.767  64.692  1.00  0.00    -0.232 C  
HETATM   12  O   UNL     1     -10.762  12.647  63.661  1.00  0.00    -0.425 OA 
BRANCH  11  13
HETATM   13  O   UNL     1      -9.685  11.660  65.432  1.00  0.00    -0.228 OA 
BRANCH  13  14
HETATM   14  C   UNL     1     -10.010  10.278  64.835  1.00  0.00    -0.323 C  
HETATM   15  C   UNL     1     -10.612   9.638  66.091  1.00  0.00     0.015 C  
HETATM   16  C   UNL     1      -9.305   9.512  66.879  1.00  0.00    -0.185 C  
HETATM   17  C   UNL     1      -8.620   8.555  65.937  1.00  0.00    -0.183 C  
HETATM   18  C   UNL     1      -7.667   7.507  66.512  1.00  0.00    -0.097 C  
HETATM   19  C   UNL     1      -8.311   7.181  67.882  1.00  0.00    -0.118 C  
HETATM   20  C   UNL     1      -8.008   5.870  68.504  1.00  0.00    -0.102 C  
HETATM   21  C   UNL     1      -8.134   4.747  67.457  1.00  0.00    -0.101 C  
HETATM   22  C   UNL     1      -8.498   3.542  67.889  1.00  0.00    -0.108 C  
HETATM   23  C   UNL     1      -7.391   3.197  68.823  1.00  0.00    -0.049 C  
HETATM   24  O   UNL     1      -7.628   2.662  69.886  1.00  0.00    -0.043 OA 
HETATM   25  C   UNL     1      -5.968   3.605  68.328  1.00  0.00    -0.027 C  
HETATM   26  C   UNL     1      -5.835   4.701  67.139  1.00  0.00    -0.022 C  
HETATM   27  C   UNL     1      -7.151   4.899  66.284  1.00  0.00    -0.072 C  
HETATM   28  C   UNL     1      -7.124   3.749  65.266  1.00  0.00    -0.066 C  
HETATM   29  C   UNL     1      -7.708   6.252  65.589  1.00  0.00    -0.093 C  
HETATM   30  C   UNL     1      -7.541   6.742  64.097  1.00  0.00    -0.105 C  
HETATM   31  C   UNL     1      -8.696   7.847  63.655  1.00  0.00     0.534 C  
HETATM   32  C   UNL     1      -8.673   9.207  64.531  1.00  0.00    -0.192 C  
HETATM   33  C   UNL     1      -7.578  10.053  63.879  1.00  0.00    -0.138 C  
ENDBRANCH  13  14
ENDBRANCH  11  13
ENDBRANCH  10  11
ENDBRANCH   9  10
ENDBRANCH   8   9
ENDBRANCH   7   8
ENDBRANCH   6   7
ENDBRANCH   5   6
ENDBRANCH   4   5
ENDBRANCH   3   4
ENDBRANCH   2   3
TORSDOF 11
ENDMDL
MODEL      175
REMARK 921   NORMALIZED FREE ENERGY PREDICTED BY IDOCK:   -2.73 KCAL/MOL
REMARK 922        TOTAL FREE ENERGY PREDICTED BY IDOCK:   -6.66 KCAL/MOL
REMARK 923 INTER-LIGAND FREE ENERGY PREDICTED BY IDOCK:   -5.65 KCAL/MOL
REMARK 924 INTRA-LIGAND FREE ENERGY PREDICTED BY IDOCK:   -1.02 KCAL/MOL
REMARK 927      BINDING AFFINITY PREDICTED BY RF-SCORE:    0.00 PKD
ROOT
HETATM    1  C   UNL     1      -8.322   3.537  72.902  1.00  0.00    -0.082 C  
HETATM    2  C   UNL     1      -7.475   2.764  71.922  1.00  0.00    -0.044 C  
ENDROOT
BRANCH   2   3
HETATM    3  C   UNL     1      -8.299   2.257  70.716  1.00  0.00    -0.077 C  
BRANCH   3   4
HETATM    4  C   UNL     1      -7.573   2.503  69.385  1.00  0.00    -0.043 C  
BRANCH   4   5
HETATM    5  C   UNL     1      -8.551   2.736  68.227  1.00  0.00    -0.115 C  
BRANCH   5   6
HETATM    6  C   UNL     1      -9.363   4.031  68.401  1.00  0.00    -0.218 C  
BRANCH   6   7
HETATM    7  C   UNL     1      -8.485   5.153  68.975  1.00  0.00    -0.090 C  
BRANCH   7   8
HETATM    8  C   UNL     1      -9.116   5.940  70.131  1.00  0.00    -0.155 C  
BRANCH   8   9
HETATM    9  C   UNL     1      -9.367   7.416  69.867  1.00  0.00    -0.154 C  
BRANCH   9  10
HETATM   10  C   UNL     1     -10.578   7.717  68.992  1.00  0.00    -0.186 C  
BRANCH  10  11
HETATM   11  C   UNL     1     -10.541   8.067  67.477  1.00  0.00    -0.232 C  
HETATM   12  O   UNL     1     -10.781   7.160  66.676  1.00  0.00    -0.245 OA 
BRANCH  11  13
HETATM   13  O   UNL     1     -10.041   9.298  67.061  1.00  0.00    -0.209 OA 
BRANCH  13  14
HETATM   14  C   UNL     1     -10.995  10.502  67.177  1.00  0.00    -0.228 C  
HETATM   15  C   UNL     1     -10.562  11.243  65.907  1.00  0.00    -0.309 C  
HETATM   16  C   UNL     1      -9.185  11.686  66.413  1.00  0.00    -0.219 C  
HETATM   17  C   UNL     1      -9.679  12.566  67.532  1.00  0.00    -0.196 C  
HETATM   18  C   UNL     1      -8.885  13.822  67.891  1.00  0.00    -0.186 C  
HETATM   19  C   UNL     1      -8.323  14.269  66.519  1.00  0.00     0.355 C  
HETATM   20  C   UNL     1      -7.954  15.694  66.344  1.00  0.00     0.057 C  
HETATM   21  C   UNL     1      -9.066  16.601  66.904  1.00  0.00    -0.248 C  
HETATM   22  C   UNL     1      -9.231  17.793  66.338  1.00  0.00    -0.257 C  
HETATM   23  C   UNL     1      -7.916  18.444  66.594  1.00  0.00    -0.258 C  
HETATM   24  O   UNL     1      -7.379  19.105  65.729  1.00  0.00    -0.356 OA 
HETATM   25  C   UNL     1      -7.318  18.174  68.009  1.00  0.00    -0.235 C  
HETATM   26  C   UNL     1      -7.891  16.930  68.879  1.00  0.00    -0.233 C  
HETATM   27  C   UNL     1      -9.308  16.404  68.411  1.00  0.00    -0.217 C  
HETATM   28  C   UNL     1     -10.311  17.364  69.070  1.00  0.00    -0.319 C  
HETATM   29  C   UNL     1      -9.881  14.889  68.436  1.00  0.00    -0.216 C  
HETATM   30  C   UNL     1     -10.795  14.192  69.519  1.00  0.00    -0.111 C  
HETATM   31  C   UNL     1     -11.601  12.873  68.920  1.00  0.00    -0.360 C  
HETATM   32  C   UNL     1     -10.629  11.692  68.392  1.00  0.00    -0.235 C  
HETATM   33  C   UNL     1     -10.256  10.921  69.659  1.00  0.00    -0.021 C  
ENDBRANCH  13  14
ENDBRANCH  11  13
ENDBRANCH  10  11
ENDBRANCH   9  10
ENDBRANCH   8   9
ENDBRANCH   7   8
ENDBRANCH   6   7
ENDBRANCH   5   6
ENDBRANCH   4   5
ENDBRANCH   3   4
ENDBRANCH   2   3
TORSDOF 11
ENDMDL
MODEL      176
REMARK 921   NORMALIZED FREE ENERGY PREDICTED BY IDOCK:   -2.72 KCAL/MOL
REMARK 922        TOTAL FREE ENERGY PREDICTED BY IDOCK:   -6.65 KCAL/MOL
REMARK 923 INTER-LIGAND FREE ENERGY PREDICTED BY IDOCK:   -7.21 KCAL/MOL
REMARK 924 INTRA-LIGAND FREE ENERGY PREDICTED BY IDOCK:    0.56 KCAL/MOL
REMARK 927      BINDING AFFINITY PREDICTED BY RF-SCORE:    0.00 PKD
ROOT
HETATM    1  C   UNL     1     -10.059  19.619  68.351  1.00  0.00    -0.557 C  
HETATM    2  C   UNL     1     -10.412  18.986  67.028  1.00  0.00    -0.514 C  
ENDROOT
BRANCH   2   3
HETATM    3  C   UNL     1     -10.363  17.442  67.091  1.00  0.00    -0.325 C  
BRANCH   3   4
HETATM    4  C   UNL     1     -10.535  16.924  68.528  1.00  0.00    -0.361 C  
BRANCH   4   5
HETATM    5  C   UNL     1     -11.779  16.040  68.678  1.00  0.00    -0.273 C  
BRANCH   5   6
HETATM    6  C   UNL     1     -11.434  14.631  69.190  1.00  0.00    -0.320 C  
BRANCH   6   7
HETATM    7  C   UNL     1     -11.492  13.606  68.048  1.00  0.00    -0.345 C  
BRANCH   7   8
HETATM    8  C   UNL     1     -12.281  14.057  66.812  1.00  0.00    -0.439 C  
BRANCH   8   9
HETATM    9  C   UNL     1     -11.457  14.656  65.684  1.00  0.00    -0.340 C  
BRANCH   9  10
HETATM   10  C   UNL     1     -10.683  13.645  64.845  1.00  0.00    -0.400 C  
BRANCH  10  11
HETATM   11  C   UNL     1     -10.612  12.114  65.103  1.00  0.00    -0.286 C  
HETATM   12  O   UNL     1     -11.152  11.370  64.279  1.00  0.00    -0.346 OA 
BRANCH  11  13
HETATM   13  O   UNL     1     -10.150  11.636  66.327  1.00  0.00    -0.210 OA 
BRANCH  13  14
HETATM   14  C   UNL     1      -8.769  10.952  66.319  1.00  0.00    -0.171 C  
HETATM   15  C   UNL     1      -9.074   9.864  65.282  1.00  0.00    -0.256 C  
HETATM   16  C   UNL     1     -10.006   9.027  66.163  1.00  0.00    -0.311 C  
HETATM   17  C   UNL     1      -8.983   8.652  67.203  1.00  0.00    -0.148 C  
HETATM   18  C   UNL     1      -9.080   7.284  67.877  1.00  0.00    -0.132 C  
HETATM   19  C   UNL     1      -9.643   6.389  66.745  1.00  0.00    -0.189 C  
HETATM   20  C   UNL     1      -9.392   4.930  66.815  1.00  0.00    -0.141 C  
HETATM   21  C   UNL     1      -7.916   4.664  67.164  1.00  0.00    -0.102 C  
HETATM   22  C   UNL     1      -7.366   3.545  66.698  1.00  0.00    -0.075 C  
HETATM   23  C   UNL     1      -8.202   2.495  67.344  1.00  0.00    -0.075 C  
HETATM   24  O   UNL     1      -8.556   1.518  66.716  1.00  0.00    -0.090 OA 
HETATM   25  C   UNL     1      -8.581   2.783  68.830  1.00  0.00    -0.112 C  
HETATM   26  C   UNL     1      -8.443   4.298  69.395  1.00  0.00    -0.094 C  
HETATM   27  C   UNL     1      -7.503   5.233  68.532  1.00  0.00    -0.072 C  
HETATM   28  C   UNL     1      -6.082   4.895  69.009  1.00  0.00    -0.029 C  
HETATM   29  C   UNL     1      -7.640   6.824  68.258  1.00  0.00    -0.107 C  
HETATM   30  C   UNL     1      -6.927   8.023  68.997  1.00  0.00    -0.058 C  
HETATM   31  C   UNL     1      -6.891   9.406  68.082  1.00  0.00    -0.064 C  
HETATM   32  C   UNL     1      -8.355   9.980  67.701  1.00  0.00    -0.114 C  
HETATM   33  C   UNL     1      -8.777  10.778  68.936  1.00  0.00    -0.154 C  
ENDBRANCH  13  14
ENDBRANCH  11  13
ENDBRANCH  10  11
ENDBRANCH   9  10
ENDBRANCH   8   9
ENDBRANCH   7   8
ENDBRANCH   6   7
ENDBRANCH   5   6
ENDBRANCH   4   5
ENDBRANCH   3   4
ENDBRANCH   2   3
TORSDOF 11
ENDMDL
MODEL      177
REMARK 921   NORMALIZED FREE ENERGY PREDICTED BY IDOCK:   -2.64 KCAL/MOL
REMARK 922        TOTAL FREE ENERGY PREDICTED BY IDOCK:   -6.52 KCAL/MOL
REMARK 923 INTER-LIGAND FREE ENERGY PREDICTED BY IDOCK:   -6.15 KCAL/MOL
REMARK 924 INTRA-LIGAND FREE ENERGY PREDICTED BY IDOCK:   -0.38 KCAL/MOL
REMARK 927      BINDING AFFINITY PREDICTED BY RF-SCORE:    0.00 PKD
ROOT
HETATM    1  C   UNL     1      -7.128  15.255  70.031  1.00  0.00    -0.030 C  
HETATM    2  C   UNL     1      -7.421  16.638  69.504  1.00  0.00     0.090 C  
ENDROOT
BRANCH   2   3
HETATM    3  C   UNL     1      -6.381  17.090  68.453  1.00  0.00    -0.150 C  
BRANCH   3   4
HETATM    4  C   UNL     1      -6.629  18.535  67.991  1.00  0.00    -0.219 C  
BRANCH   4   5
HETATM    5  C   UNL     1      -7.966  19.085  68.501  1.00  0.00    -0.381 C  
BRANCH   5   6
HETATM    6  C   UNL     1      -8.813  19.697  67.373  1.00  0.00    -0.376 C  
BRANCH   6   7
HETATM    7  C   UNL     1      -9.818  18.672  66.825  1.00  0.00    -0.365 C  
BRANCH   7   8
HETATM    8  C   UNL     1     -10.847  18.167  67.844  1.00  0.00    -0.225 C  
BRANCH   8   9
HETATM    9  C   UNL     1     -10.278  17.573  69.122  1.00  0.00    -0.256 C  
BRANCH   9  10
HETATM   10  C   UNL     1     -10.923  16.265  69.567  1.00  0.00    -0.339 C  
BRANCH  10  11
HETATM   11  C   UNL     1     -11.443  15.142  68.626  1.00  0.00    -0.325 C  
HETATM   12  O   UNL     1     -12.642  15.153  68.333  1.00  0.00     0.277 OA 
BRANCH  11  13
HETATM   13  O   UNL     1     -10.626  14.057  68.320  1.00  0.00    -0.236 OA 
BRANCH  13  14
HETATM   14  C   UNL     1     -11.228  12.984  67.393  1.00  0.00    -0.288 C  
HETATM   15  C   UNL     1     -10.717  11.745  68.139  1.00  0.00    -0.247 C  
HETATM   16  C   UNL     1      -9.239  11.906  67.771  1.00  0.00    -0.184 C  
HETATM   17  C   UNL     1      -9.404  11.735  66.283  1.00  0.00    -0.235 C  
HETATM   18  C   UNL     1      -8.290  11.054  65.488  1.00  0.00    -0.024 C  
HETATM   19  C   UNL     1      -7.739  10.019  66.499  1.00  0.00    -0.105 C  
HETATM   20  C   UNL     1      -7.031   8.829  65.968  1.00  0.00    -0.080 C  
HETATM   21  C   UNL     1      -7.828   8.219  64.800  1.00  0.00    -0.129 C  
HETATM   22  C   UNL     1      -7.724   6.906  64.605  1.00  0.00    -0.116 C  
HETATM   23  C   UNL     1      -6.271   6.748  64.321  1.00  0.00    -0.035 C  
HETATM   24  O   UNL     1      -5.650   5.819  64.796  1.00  0.00    -0.019 OA 
HETATM   25  C   UNL     1      -5.656   7.862  63.419  1.00  0.00    -0.054 C  
HETATM   26  C   UNL     1      -6.461   9.260  63.239  1.00  0.00    -0.091 C  
HETATM   27  C   UNL     1      -7.997   9.181  63.611  1.00  0.00    -0.146 C  
HETATM   28  C   UNL     1      -8.667   8.600  62.356  1.00  0.00    -0.112 C  
HETATM   29  C   UNL     1      -8.935  10.325  64.271  1.00  0.00    -0.261 C  
HETATM   30  C   UNL     1      -9.911  11.340  63.558  1.00  0.00    -0.417 C  
HETATM   31  C   UNL     1     -11.072  11.935  64.582  1.00  0.00    -0.373 C  
HETATM   32  C   UNL     1     -10.478  12.762  65.839  1.00  0.00    -0.295 C  
HETATM   33  C   UNL     1     -10.220  14.162  65.277  1.00  0.00    -0.400 C  
ENDBRANCH  13  14
ENDBRANCH  11  13
ENDBRANCH  10  11
ENDBRANCH   9  10
ENDBRANCH   8   9
ENDBRANCH   7   8
ENDBRANCH   6   7
ENDBRANCH   5   6
ENDBRANCH   4   5
ENDBRANCH   3   4
ENDBRANCH   2   3
TORSDOF 11
ENDMDL
MODEL      178
REMARK 921   NORMALIZED FREE ENERGY PREDICTED BY IDOCK:   -2.57 KCAL/MOL
REMARK 922        TOTAL FREE ENERGY PREDICTED BY IDOCK:   -6.41 KCAL/MOL
REMARK 923 INTER-LIGAND FREE ENERGY PREDICTED BY IDOCK:   -5.28 KCAL/MOL
REMARK 924 INTRA-LIGAND FREE ENERGY PREDICTED BY IDOCK:   -1.13 KCAL/MOL
REMARK 927      BINDING AFFINITY PREDICTED BY RF-SCORE:    0.00 PKD
ROOT
HETATM    1  C   UNL     1     -11.479  15.221  64.640  1.00  0.00    -0.356 C  
HETATM    2  C   UNL     1     -10.788  16.560  64.731  1.00  0.00    -0.145 C  
ENDROOT
BRANCH   2   3
HETATM    3  C   UNL     1     -10.902  17.177  66.144  1.00  0.00     0.026 C  
BRANCH   3   4
HETATM    4  C   UNL     1      -9.647  16.904  66.988  1.00  0.00    -0.252 C  
BRANCH   4   5
HETATM    5  C   UNL     1      -9.988  16.284  68.348  1.00  0.00    -0.234 C  
BRANCH   5   6
HETATM    6  C   UNL     1      -9.850  14.753  68.343  1.00  0.00    -0.220 C  
BRANCH   6   7
HETATM    7  C   UNL     1      -8.832  14.300  67.285  1.00  0.00    -0.224 C  
BRANCH   7   8
HETATM    8  C   UNL     1      -7.770  13.314  67.789  1.00  0.00    -0.159 C  
BRANCH   8   9
HETATM    9  C   UNL     1      -7.840  11.911  67.208  1.00  0.00    -0.168 C  
BRANCH   9  10
HETATM   10  C   UNL     1      -9.132  11.586  66.466  1.00  0.00    -0.199 C  
BRANCH  10  11
HETATM   11  C   UNL     1      -9.623  10.163  66.077  1.00  0.00    -0.210 C  
HETATM   12  O   UNL     1      -9.852   9.944  64.884  1.00  0.00    -0.315 OA 
BRANCH  11  13
HETATM   13  O   UNL     1      -9.994   9.260  67.070  1.00  0.00    -0.190 OA 
BRANCH  13  14
HETATM   14  C   UNL     1      -9.891   7.765  66.712  1.00  0.00    -0.241 C  
HETATM   15  C   UNL     1     -11.035   7.253  67.595  1.00  0.00    -0.181 C  
HETATM   16  C   UNL     1     -10.336   7.461  68.941  1.00  0.00    -0.214 C  
HETATM   17  C   UNL     1      -9.214   6.481  68.714  1.00  0.00    -0.131 C  
HETATM   18  C   UNL     1      -8.661   5.700  69.906  1.00  0.00    -0.127 C  
HETATM   19  C   UNL     1      -9.915   5.506  70.794  1.00  0.00    -0.263 C  
HETATM   20  C   UNL     1      -9.927   4.376  71.754  1.00  0.00    -0.257 C  
HETATM   21  C   UNL     1      -9.429   3.092  71.064  1.00  0.00    -0.228 C  
HETATM   22  C   UNL     1      -9.910   1.932  71.504  1.00  0.00    -0.207 C  
HETATM   23  C   UNL     1      -9.448   1.920  72.919  1.00  0.00    -0.081 C  
HETATM   24  O   UNL     1     -10.185   1.534  73.803  1.00  0.00    -0.079 OA 
HETATM   25  C   UNL     1      -7.999   2.455  73.139  1.00  0.00    -0.047 C  
HETATM   26  C   UNL     1      -7.309   3.350  71.974  1.00  0.00    -0.051 C  
HETATM   27  C   UNL     1      -7.982   3.201  70.550  1.00  0.00    -0.049 C  
HETATM   28  C   UNL     1      -7.370   1.918  69.968  1.00  0.00    -0.036 C  
HETATM   29  C   UNL     1      -8.150   4.321  69.392  1.00  0.00    -0.062 C  
HETATM   30  C   UNL     1      -7.244   4.580  68.125  1.00  0.00    -0.065 C  
HETATM   31  C   UNL     1      -8.042   5.407  66.929  1.00  0.00    -0.105 C  
HETATM   32  C   UNL     1      -8.547   6.879  67.371  1.00  0.00    -0.121 C  
HETATM   33  C   UNL     1      -7.313   7.766  67.197  1.00  0.00    -0.091 C  
ENDBRANCH  13  14
ENDBRANCH  11  13
ENDBRANCH  10  11
ENDBRANCH   9  10
ENDBRANCH   8   9
ENDBRANCH   7   8
ENDBRANCH   6   7
ENDBRANCH   5   6
ENDBRANCH   4   5
ENDBRANCH   3   4
ENDBRANCH   2   3
TORSDOF 11
ENDMDL
MODEL      179
REMARK 921   NORMALIZED FREE ENERGY PREDICTED BY IDOCK:   -2.53 KCAL/MOL
REMARK 922        TOTAL FREE ENERGY PREDICTED BY IDOCK:   -6.34 KCAL/MOL
REMARK 923 INTER-LIGAND FREE ENERGY PREDICTED BY IDOCK:   -4.41 KCAL/MOL
REMARK 924 INTRA-LIGAND FREE ENERGY PREDICTED BY IDOCK:   -1.93 KCAL/MOL
REMARK 927      BINDING AFFINITY PREDICTED BY RF-SCORE:    0.00 PKD
ROOT
HETATM    1  C   UNL     1      -9.800   4.485  71.017  1.00  0.00    -0.266 C  
HETATM    2  C   UNL     1     -10.936   5.432  71.315  1.00  0.00    -0.135 C  
ENDROOT
BRANCH   2   3
HETATM    3  C   UNL     1     -10.431   6.806  71.810  1.00  0.00    -0.228 C  
BRANCH   3   4
HETATM    4  C   UNL     1     -11.035   7.963  70.998  1.00  0.00    -0.262 C  
BRANCH   4   5
HETATM    5  C   UNL     1     -11.655   9.039  71.897  1.00  0.00    -0.441 C  
BRANCH   5   6
HETATM    6  C   UNL     1     -12.576   9.991  71.116  1.00  0.00    -0.480 C  
BRANCH   6   7
HETATM    7  C   UNL     1     -13.612  10.636  72.049  1.00  0.00    -0.187 C  
BRANCH   7   8
HETATM    8  C   UNL     1     -13.612  12.170  72.054  1.00  0.00    -0.263 C  
BRANCH   8   9
HETATM    9  C   UNL     1     -12.335  12.833  71.564  1.00  0.00     0.039 C  
BRANCH   9  10
HETATM   10  C   UNL     1     -12.544  14.030  70.644  1.00  0.00    -0.414 C  
BRANCH  10  11
HETATM   11  C   UNL     1     -11.562  14.511  69.538  1.00  0.00    -0.307 C  
HETATM   12  O   UNL     1     -12.003  15.276  68.676  1.00  0.00    -0.320 OA 
BRANCH  11  13
HETATM   13  O   UNL     1     -10.308  13.918  69.418  1.00  0.00    -0.009 OA 
BRANCH  13  14
HETATM   14  C   UNL     1      -9.949  13.346  68.032  1.00  0.00    -0.239 C  
HETATM   15  C   UNL     1     -10.687  12.007  68.156  1.00  0.00    -0.246 C  
HETATM   16  C   UNL     1      -9.745  11.372  69.183  1.00  0.00     0.065 C  
HETATM   17  C   UNL     1      -8.517  11.349  68.310  1.00  0.00    -0.154 C  
HETATM   18  C   UNL     1      -7.520  10.201  68.468  1.00  0.00    -0.086 C  
HETATM   19  C   UNL     1      -8.435   9.008  68.838  1.00  0.00    -0.130 C  
HETATM   20  C   UNL     1      -7.943   7.636  68.561  1.00  0.00    -0.123 C  
HETATM   21  C   UNL     1      -7.344   7.566  67.144  1.00  0.00    -0.094 C  
HETATM   22  C   UNL     1      -7.416   6.401  66.504  1.00  0.00    -0.086 C  
HETATM   23  C   UNL     1      -6.629   5.506  67.396  1.00  0.00    -0.053 C  
HETATM   24  O   UNL     1      -7.013   4.378  67.630  1.00  0.00    -0.057 OA 
HETATM   25  C   UNL     1      -5.338   6.148  67.993  1.00  0.00    -0.004 C  
HETATM   26  C   UNL     1      -5.187   7.764  67.978  1.00  0.00    -0.031 C  
HETATM   27  C   UNL     1      -6.137   8.499  66.948  1.00  0.00    -0.054 C  
HETATM   28  C   UNL     1      -5.403   8.389  65.603  1.00  0.00    -0.031 C  
HETATM   29  C   UNL     1      -6.843   9.950  67.087  1.00  0.00    -0.083 C  
HETATM   30  C   UNL     1      -6.365  11.344  66.519  1.00  0.00    -0.095 C  
HETATM   31  C   UNL     1      -7.604  12.438  66.389  1.00  0.00     0.657 C  
HETATM   32  C   UNL     1      -8.315  12.798  67.796  1.00  0.00    -0.177 C  
HETATM   33  C   UNL     1      -7.406  13.863  68.413  1.00  0.00    -0.115 C  
ENDBRANCH  13  14
ENDBRANCH  11  13
ENDBRANCH  10  11
ENDBRANCH   9  10
ENDBRANCH   8   9
ENDBRANCH   7   8
ENDBRANCH   6   7
ENDBRANCH   5   6
ENDBRANCH   4   5
ENDBRANCH   3   4
ENDBRANCH   2   3
TORSDOF 11
ENDMDL
MODEL      180
REMARK 921   NORMALIZED FREE ENERGY PREDICTED BY IDOCK:   -2.51 KCAL/MOL
REMARK 922        TOTAL FREE ENERGY PREDICTED BY IDOCK:   -6.30 KCAL/MOL
REMARK 923 INTER-LIGAND FREE ENERGY PREDICTED BY IDOCK:   -4.91 KCAL/MOL
REMARK 924 INTRA-LIGAND FREE ENERGY PREDICTED BY IDOCK:   -1.39 KCAL/MOL
REMARK 927      BINDING AFFINITY PREDICTED BY RF-SCORE:    0.00 PKD
ROOT
HETATM    1  C   UNL     1     -11.830  15.655  69.209  1.00  0.00    -0.378 C  
HETATM    2  C   UNL     1     -11.592  14.177  69.023  1.00  0.00    -0.342 C  
ENDROOT
BRANCH   2   3
HETATM    3  C   UNL     1     -11.905  13.716  67.581  1.00  0.00    -0.404 C  
BRANCH   3   4
HETATM    4  C   UNL     1     -10.625  13.374  66.801  1.00  0.00    -0.277 C  
BRANCH   4   5
HETATM    5  C   UNL     1     -10.218  14.494  65.837  1.00  0.00    -0.339 C  
BRANCH   5   6
HETATM    6  C   UNL     1      -9.751  15.759  66.575  1.00  0.00    -0.285 C  
BRANCH   6   7
HETATM    7  C   UNL     1      -8.328  15.577  67.127  1.00  0.00    -0.243 C  
BRANCH   7   8
HETATM    8  C   UNL     1      -8.229  15.530  68.656  1.00  0.00    -0.162 C  
BRANCH   8   9
HETATM    9  C   UNL     1      -7.929  14.167  69.259  1.00  0.00     0.187 C  
BRANCH   9  10
HETATM   10  C   UNL     1      -6.465  13.745  69.201  1.00  0.00    -0.109 C  
BRANCH  10  11
HETATM   11  C   UNL     1      -5.731  13.178  67.953  1.00  0.00    -0.129 C  
HETATM   12  O   UNL     1      -5.145  13.982  67.222  1.00  0.00    -0.297 OA 
BRANCH  11  13
HETATM   13  O   UNL     1      -5.925  11.853  67.575  1.00  0.00    -0.072 OA 
BRANCH  13  14
HETATM   14  C   UNL     1      -7.358  11.302  67.713  1.00  0.00    -0.094 C  
HETATM   15  C   UNL     1      -7.142  10.455  68.973  1.00  0.00    -0.076 C  
HETATM   16  C   UNL     1      -6.283   9.368  68.318  1.00  0.00    -0.053 C  
HETATM   17  C   UNL     1      -7.336   8.853  67.372  1.00  0.00    -0.081 C  
HETATM   18  C   UNL     1      -7.354   7.364  67.025  1.00  0.00    -0.097 C  
HETATM   19  C   UNL     1      -6.864   6.706  68.338  1.00  0.00    -0.074 C  
HETATM   20  C   UNL     1      -7.235   5.293  68.594  1.00  0.00    -0.062 C  
HETATM   21  C   UNL     1      -8.729   5.075  68.289  1.00  0.00    -0.106 C  
HETATM   22  C   UNL     1      -9.368   4.138  68.985  1.00  0.00    -0.232 C  
HETATM   23  C   UNL     1      -8.623   2.906  68.606  1.00  0.00    -0.075 C  
HETATM   24  O   UNL     1      -8.349   2.071  69.444  1.00  0.00    -0.044 OA 
HETATM   25  C   UNL     1      -8.225   2.820  67.100  1.00  0.00    -0.081 C  
HETATM   26  C   UNL     1      -8.238   4.175  66.207  1.00  0.00    -0.105 C  
HETATM   27  C   UNL     1      -9.096   5.353  66.821  1.00  0.00    -0.116 C  
HETATM   28  C   UNL     1     -10.541   5.032  66.409  1.00  0.00    -0.317 C  
HETATM   29  C   UNL     1      -8.827   6.948  66.733  1.00  0.00    -0.129 C  
HETATM   30  C   UNL     1      -9.440   8.004  65.731  1.00  0.00     0.067 C  
HETATM   31  C   UNL     1      -9.360   9.555  66.311  1.00  0.00    -0.242 C  
HETATM   32  C   UNL     1      -7.853  10.080  66.578  1.00  0.00    -0.112 C  
HETATM   33  C   UNL     1      -7.369  10.542  65.202  1.00  0.00    -0.029 C  
ENDBRANCH  13  14
ENDBRANCH  11  13
ENDBRANCH  10  11
ENDBRANCH   9  10
ENDBRANCH   8   9
ENDBRANCH   7   8
ENDBRANCH   6   7
ENDBRANCH   5   6
ENDBRANCH   4   5
ENDBRANCH   3   4
ENDBRANCH   2   3
TORSDOF 11
ENDMDL
MODEL      181
REMARK 921   NORMALIZED FREE ENERGY PREDICTED BY IDOCK:   -2.46 KCAL/MOL
REMARK 922        TOTAL FREE ENERGY PREDICTED BY IDOCK:   -6.23 KCAL/MOL
REMARK 923 INTER-LIGAND FREE ENERGY PREDICTED BY IDOCK:   -5.07 KCAL/MOL
REMARK 924 INTRA-LIGAND FREE ENERGY PREDICTED BY IDOCK:   -1.16 KCAL/MOL
REMARK 927      BINDING AFFINITY PREDICTED BY RF-SCORE:    0.00 PKD
ROOT
HETATM    1  C   UNL     1     -10.698  12.691  63.954  1.00  0.00    -0.465 C  
HETATM    2  C   UNL     1     -12.101  13.040  64.384  1.00  0.00    -0.473 C  
ENDROOT
BRANCH   2   3
HETATM    3  C   UNL     1     -12.167  13.446  65.874  1.00  0.00    -0.502 C  
BRANCH   3   4
HETATM    4  C   UNL     1     -11.085  12.742  66.706  1.00  0.00    -0.314 C  
BRANCH   4   5
HETATM    5  C   UNL     1     -10.947  13.347  68.108  1.00  0.00    -0.277 C  
BRANCH   5   6
HETATM    6  C   UNL     1     -10.101  14.631  68.109  1.00  0.00    -0.224 C  
BRANCH   6   7
HETATM    7  C   UNL     1      -9.052  14.595  66.987  1.00  0.00    -0.254 C  
BRANCH   7   8
HETATM    8  C   UNL     1      -7.601  14.766  67.453  1.00  0.00    -0.228 C  
BRANCH   8   9
HETATM    9  C   UNL     1      -7.269  14.176  68.814  1.00  0.00    -0.120 C  
BRANCH   9  10
HETATM   10  C   UNL     1      -6.760  12.739  68.786  1.00  0.00    -0.093 C  
BRANCH  10  11
HETATM   11  C   UNL     1      -6.446  11.861  70.030  1.00  0.00     0.002 C  
HETATM   12  O   UNL     1      -5.473  12.178  70.721  1.00  0.00    -0.146 OA 
BRANCH  11  13
HETATM   13  O   UNL     1      -7.108  10.650  70.212  1.00  0.00    -0.230 OA 
BRANCH  13  14
HETATM   14  C   UNL     1      -6.225   9.422  70.506  1.00  0.00    -0.064 C  
HETATM   15  C   UNL     1      -5.937   9.012  69.057  1.00  0.00    -0.043 C  
HETATM   16  C   UNL     1      -7.345   8.507  68.726  1.00  0.00    -0.090 C  
HETATM   17  C   UNL     1      -7.369   7.375  69.719  1.00  0.00    -0.083 C  
HETATM   18  C   UNL     1      -8.128   6.096  69.365  1.00  0.00    -0.112 C  
HETATM   19  C   UNL     1      -7.930   6.000  67.833  1.00  0.00    -0.106 C  
HETATM   20  C   UNL     1      -8.048   4.667  67.194  1.00  0.00    -0.102 C  
HETATM   21  C   UNL     1      -7.263   3.620  68.006  1.00  0.00    -0.051 C  
HETATM   22  C   UNL     1      -6.747   2.588  67.342  1.00  0.00    -0.040 C  
HETATM   23  C   UNL     1      -7.965   1.938  66.783  1.00  0.00    -0.072 C  
HETATM   24  O   UNL     1      -7.968   1.514  65.646  1.00  0.00    -0.070 OA 
HETATM   25  C   UNL     1      -9.184   1.889  67.755  1.00  0.00    -0.206 C  
HETATM   26  C   UNL     1      -9.202   2.877  69.042  1.00  0.00    -0.222 C  
HETATM   27  C   UNL     1      -7.784   3.451  69.444  1.00  0.00    -0.051 C  
HETATM   28  C   UNL     1      -7.137   2.333  70.274  1.00  0.00    -0.033 C  
HETATM   29  C   UNL     1      -7.424   4.900  70.074  1.00  0.00    -0.055 C  
HETATM   30  C   UNL     1      -7.198   5.295  71.586  1.00  0.00    -0.076 C  
HETATM   31  C   UNL     1      -6.319   6.691  71.755  1.00  0.00    -0.042 C  
HETATM   32  C   UNL     1      -7.020   7.993  71.099  1.00  0.00    -0.051 C  
HETATM   33  C   UNL     1      -8.015   8.459  72.163  1.00  0.00    -0.181 C  
ENDBRANCH  13  14
ENDBRANCH  11  13
ENDBRANCH  10  11
ENDBRANCH   9  10
ENDBRANCH   8   9
ENDBRANCH   7   8
ENDBRANCH   6   7
ENDBRANCH   5   6
ENDBRANCH   4   5
ENDBRANCH   3   4
ENDBRANCH   2   3
TORSDOF 11
ENDMDL
MODEL      182
REMARK 921   NORMALIZED FREE ENERGY PREDICTED BY IDOCK:   -2.30 KCAL/MOL
REMARK 922        TOTAL FREE ENERGY PREDICTED BY IDOCK:   -5.97 KCAL/MOL
REMARK 923 INTER-LIGAND FREE ENERGY PREDICTED BY IDOCK:   -4.90 KCAL/MOL
REMARK 924 INTRA-LIGAND FREE ENERGY PREDICTED BY IDOCK:   -1.07 KCAL/MOL
REMARK 927      BINDING AFFINITY PREDICTED BY RF-SCORE:    0.00 PKD
ROOT
HETATM    1  C   UNL     1     -11.921  11.056  70.006  1.00  0.00    -0.430 C  
HETATM    2  C   UNL     1     -12.148  11.137  68.517  1.00  0.00    -0.129 C  
ENDROOT
BRANCH   2   3
HETATM    3  C   UNL     1     -11.256  12.211  67.852  1.00  0.00    -0.329 C  
BRANCH   3   4
HETATM    4  C   UNL     1     -10.944  11.866  66.387  1.00  0.00    -0.337 C  
BRANCH   4   5
HETATM    5  C   UNL     1      -9.557  11.233  66.225  1.00  0.00    -0.235 C  
BRANCH   5   6
HETATM    6  C   UNL     1      -9.483  10.292  65.012  1.00  0.00    -0.314 C  
BRANCH   6   7
HETATM    7  C   UNL     1      -8.065  10.270  64.421  1.00  0.00    -0.149 C  
BRANCH   7   8
HETATM    8  C   UNL     1      -7.996  10.004  62.913  1.00  0.00    -0.139 C  
BRANCH   8   9
HETATM    9  C   UNL     1      -6.627   9.632  62.368  1.00  0.00    -0.097 C  
BRANCH   9  10
HETATM   10  C   UNL     1      -5.876   8.581  63.178  1.00  0.00    -0.077 C  
BRANCH  10  11
HETATM   11  C   UNL     1      -6.305   7.098  63.364  1.00  0.00    -0.045 C  
HETATM   12  O   UNL     1      -5.886   6.276  62.544  1.00  0.00    -0.025 OA 
BRANCH  11  13
HETATM   13  O   UNL     1      -7.294   6.772  64.287  1.00  0.00    -0.074 OA 
BRANCH  13  14
HETATM   14  C   UNL     1      -7.049   5.512  65.140  1.00  0.00    -0.065 C  
HETATM   15  C   UNL     1      -8.511   5.185  65.466  1.00  0.00    -0.138 C  
HETATM   16  C   UNL     1      -8.753   6.357  66.421  1.00  0.00    -0.140 C  
HETATM   17  C   UNL     1      -7.754   5.944  67.471  1.00  0.00    -0.097 C  
HETATM   18  C   UNL     1      -8.056   6.246  68.939  1.00  0.00    -0.110 C  
HETATM   19  C   UNL     1      -9.597   6.113  69.001  1.00  0.00    -0.144 C  
HETATM   20  C   UNL     1     -10.221   5.812  70.312  1.00  0.00    -0.295 C  
HETATM   21  C   UNL     1      -9.453   4.677  71.014  1.00  0.00    -0.227 C  
HETATM   22  C   UNL     1     -10.142   3.882  71.830  1.00  0.00    -0.204 C  
HETATM   23  C   UNL     1     -10.623   4.839  72.865  1.00  0.00    -0.218 C  
HETATM   24  O   UNL     1     -11.756   4.763  73.293  1.00  0.00    -0.312 OA 
HETATM   25  C   UNL     1      -9.579   5.915  73.295  1.00  0.00    -0.143 C  
HETATM   26  C   UNL     1      -8.297   6.192  72.339  1.00  0.00    -0.115 C  
HETATM   27  C   UNL     1      -7.986   5.029  71.312  1.00  0.00    -0.109 C  
HETATM   28  C   UNL     1      -7.191   3.999  72.128  1.00  0.00    -0.052 C  
HETATM   29  C   UNL     1      -7.386   5.143  69.812  1.00  0.00    -0.060 C  
HETATM   30  C   UNL     1      -5.892   4.979  69.326  1.00  0.00    -0.017 C  
HETATM   31  C   UNL     1      -5.783   4.613  67.712  1.00  0.00    -0.021 C  
HETATM   32  C   UNL     1      -6.402   5.747  66.738  1.00  0.00    -0.038 C  
HETATM   33  C   UNL     1      -5.281   6.779  66.606  1.00  0.00    -0.017 C  
ENDBRANCH  13  14
ENDBRANCH  11  13
ENDBRANCH  10  11
ENDBRANCH   9  10
ENDBRANCH   8   9
ENDBRANCH   7   8
ENDBRANCH   6   7
ENDBRANCH   5   6
ENDBRANCH   4   5
ENDBRANCH   3   4
ENDBRANCH   2   3
TORSDOF 11
ENDMDL
MODEL      183
REMARK 921   NORMALIZED FREE ENERGY PREDICTED BY IDOCK:   -2.30 KCAL/MOL
REMARK 922        TOTAL FREE ENERGY PREDICTED BY IDOCK:   -5.97 KCAL/MOL
REMARK 923 INTER-LIGAND FREE ENERGY PREDICTED BY IDOCK:   -4.94 KCAL/MOL
REMARK 924 INTRA-LIGAND FREE ENERGY PREDICTED BY IDOCK:   -1.02 KCAL/MOL
REMARK 927      BINDING AFFINITY PREDICTED BY RF-SCORE:    0.00 PKD
ROOT
HETATM    1  C   UNL     1     -12.932  10.972  70.480  1.00  0.00    -0.162 C  
HETATM    2  C   UNL     1     -11.736  10.094  70.205  1.00  0.00    -0.361 C  
ENDROOT
BRANCH   2   3
HETATM    3  C   UNL     1     -10.570  10.883  69.567  1.00  0.00    -0.217 C  
BRANCH   3   4
HETATM    4  C   UNL     1     -10.585  10.783  68.034  1.00  0.00    -0.245 C  
BRANCH   4   5
HETATM    5  C   UNL     1     -11.591  11.752  67.400  1.00  0.00    -0.352 C  
BRANCH   5   6
HETATM    6  C   UNL     1     -11.379  13.201  67.868  1.00  0.00    -0.321 C  
BRANCH   6   7
HETATM    7  C   UNL     1      -9.925  13.426  68.311  1.00  0.00    -0.240 C  
BRANCH   7   8
HETATM    8  C   UNL     1      -8.932  13.675  67.169  1.00  0.00    -0.235 C  
BRANCH   8   9
HETATM    9  C   UNL     1      -7.545  13.083  67.358  1.00  0.00    -0.141 C  
BRANCH   9  10
HETATM   10  C   UNL     1      -7.345  11.702  66.744  1.00  0.00    -0.083 C  
BRANCH  10  11
HETATM   11  C   UNL     1      -6.672  10.486  67.441  1.00  0.00    -0.071 C  
HETATM   12  O   UNL     1      -5.494  10.247  67.160  1.00  0.00    -0.041 OA 
BRANCH  11  13
HETATM   13  O   UNL     1      -7.445   9.589  68.173  1.00  0.00    -0.078 OA 
BRANCH  13  14
HETATM   14  C   UNL     1      -6.963   8.125  68.195  1.00  0.00    -0.077 C  
HETATM   15  C   UNL     1      -8.323   7.448  67.984  1.00  0.00    -0.124 C  
HETATM   16  C   UNL     1      -8.904   7.770  69.364  1.00  0.00    -0.139 C  
HETATM   17  C   UNL     1      -7.910   6.974  70.168  1.00  0.00    -0.109 C  
HETATM   18  C   UNL     1      -8.375   6.296  71.457  1.00  0.00    -0.126 C  
HETATM   19  C   UNL     1      -9.840   5.916  71.129  1.00  0.00    -0.222 C  
HETATM   20  C   UNL     1     -10.462   4.805  71.887  1.00  0.00    -0.201 C  
HETATM   21  C   UNL     1      -9.494   3.609  71.960  1.00  0.00    -0.199 C  
HETATM   22  C   UNL     1     -10.027   2.391  72.031  1.00  0.00    -0.231 C  
HETATM   23  C   UNL     1     -10.793   2.459  73.305  1.00  0.00    -0.176 C  
HETATM   24  O   UNL     1     -11.902   1.970  73.383  1.00  0.00    -0.175 OA 
HETATM   25  C   UNL     1     -10.070   3.214  74.464  1.00  0.00    -0.195 C  
HETATM   26  C   UNL     1      -8.830   4.197  74.105  1.00  0.00    -0.095 C  
HETATM   27  C   UNL     1      -8.179   3.936  72.687  1.00  0.00    -0.094 C  
HETATM   28  C   UNL     1      -7.217   2.760  72.917  1.00  0.00    -0.040 C  
HETATM   29  C   UNL     1      -7.522   5.009  71.666  1.00  0.00    -0.091 C  
HETATM   30  C   UNL     1      -6.003   5.398  71.478  1.00  0.00    -0.025 C  
HETATM   31  C   UNL     1      -5.698   6.084  70.000  1.00  0.00    -0.013 C  
HETATM   32  C   UNL     1      -6.503   7.462  69.736  1.00  0.00    -0.035 C  
HETATM   33  C   UNL     1      -5.656   8.528  70.433  1.00  0.00    -0.027 C  
ENDBRANCH  13  14
ENDBRANCH  11  13
ENDBRANCH  10  11
ENDBRANCH   9  10
ENDBRANCH   8   9
ENDBRANCH   7   8
ENDBRANCH   6   7
ENDBRANCH   5   6
ENDBRANCH   4   5
ENDBRANCH   3   4
ENDBRANCH   2   3
TORSDOF 11
ENDMDL
MODEL      184
REMARK 921   NORMALIZED FREE ENERGY PREDICTED BY IDOCK:   -2.29 KCAL/MOL
REMARK 922        TOTAL FREE ENERGY PREDICTED BY IDOCK:   -5.94 KCAL/MOL
REMARK 923 INTER-LIGAND FREE ENERGY PREDICTED BY IDOCK:   -5.07 KCAL/MOL
REMARK 924 INTRA-LIGAND FREE ENERGY PREDICTED BY IDOCK:   -0.87 KCAL/MOL
REMARK 927      BINDING AFFINITY PREDICTED BY RF-SCORE:    0.00 PKD
ROOT
HETATM    1  C   UNL     1     -10.253  18.156  66.577  1.00  0.00    -0.398 C  
HETATM    2  C   UNL     1     -10.530  18.607  67.989  1.00  0.00    -0.395 C  
ENDROOT
BRANCH   2   3
HETATM    3  C   UNL     1     -10.368  17.456  69.008  1.00  0.00    -0.319 C  
BRANCH   3   4
HETATM    4  C   UNL     1     -11.291  16.271  68.682  1.00  0.00    -0.333 C  
BRANCH   4   5
HETATM    5  C   UNL     1     -10.939  15.022  69.499  1.00  0.00    -0.281 C  
BRANCH   5   6
HETATM    6  C   UNL     1     -10.173  13.979  68.669  1.00  0.00    -0.233 C  
BRANCH   6   7
HETATM    7  C   UNL     1     -10.618  14.016  67.199  1.00  0.00    -0.274 C  
BRANCH   7   8
HETATM    8  C   UNL     1      -9.478  14.149  66.182  1.00  0.00    -0.229 C  
BRANCH   8   9
HETATM    9  C   UNL     1      -8.733  15.474  66.193  1.00  0.00    -0.186 C  
BRANCH   9  10
HETATM   10  C   UNL     1      -7.454  15.486  67.024  1.00  0.00    -0.205 C  
BRANCH  10  11
HETATM   11  C   UNL     1      -6.709  14.233  67.564  1.00  0.00    -0.105 C  
HETATM   12  O   UNL     1      -5.649  14.417  68.169  1.00  0.00    -0.107 OA 
BRANCH  11  13
HETATM   13  O   UNL     1      -7.119  12.960  67.178  1.00  0.00    -0.106 OA 
BRANCH  13  14
HETATM   14  C   UNL     1      -6.115  11.815  67.411  1.00  0.00    -0.108 C  
HETATM   15  C   UNL     1      -6.639  10.849  66.342  1.00  0.00    -0.134 C  
HETATM   16  C   UNL     1      -7.945  10.479  67.053  1.00  0.00    -0.118 C  
HETATM   17  C   UNL     1      -7.315   9.824  68.255  1.00  0.00    -0.079 C  
HETATM   18  C   UNL     1      -8.025   8.638  68.908  1.00  0.00    -0.113 C  
HETATM   19  C   UNL     1      -8.697   7.941  67.700  1.00  0.00    -0.126 C  
HETATM   20  C   UNL     1      -9.029   6.500  67.819  1.00  0.00    -0.114 C  
HETATM   21  C   UNL     1      -7.836   5.731  68.417  1.00  0.00    -0.101 C  
HETATM   22  C   UNL     1      -7.682   4.459  68.057  1.00  0.00    -0.080 C  
HETATM   23  C   UNL     1      -8.942   3.840  68.554  1.00  0.00    -0.124 C  
HETATM   24  O   UNL     1      -9.534   3.024  67.879  1.00  0.00    -0.207 OA 
HETATM   25  C   UNL     1      -9.413   4.349  69.952  1.00  0.00    -0.253 C  
HETATM   26  C   UNL     1      -8.806   5.740  70.526  1.00  0.00    -0.144 C  
HETATM   27  C   UNL     1      -7.460   6.200  69.833  1.00  0.00    -0.080 C  
HETATM   28  C   UNL     1      -6.365   5.393  70.548  1.00  0.00    -0.027 C  
HETATM   29  C   UNL     1      -6.944   7.705  69.532  1.00  0.00    -0.056 C  
HETATM   30  C   UNL     1      -5.957   8.603  70.378  1.00  0.00    -0.027 C  
HETATM   31  C   UNL     1      -5.260   9.808  69.477  1.00  0.00    -0.035 C  
HETATM   32  C   UNL     1      -6.320  10.856  68.848  1.00  0.00    -0.046 C  
HETATM   33  C   UNL     1      -6.599  11.836  69.989  1.00  0.00     0.071 C  
ENDBRANCH  13  14
ENDBRANCH  11  13
ENDBRANCH  10  11
ENDBRANCH   9  10
ENDBRANCH   8   9
ENDBRANCH   7   8
ENDBRANCH   6   7
ENDBRANCH   5   6
ENDBRANCH   4   5
ENDBRANCH   3   4
ENDBRANCH   2   3
TORSDOF 11
ENDMDL
MODEL      185
REMARK 921   NORMALIZED FREE ENERGY PREDICTED BY IDOCK:   -2.15 KCAL/MOL
REMARK 922        TOTAL FREE ENERGY PREDICTED BY IDOCK:   -5.71 KCAL/MOL
REMARK 923 INTER-LIGAND FREE ENERGY PREDICTED BY IDOCK:   -4.46 KCAL/MOL
REMARK 924 INTRA-LIGAND FREE ENERGY PREDICTED BY IDOCK:   -1.25 KCAL/MOL
REMARK 927      BINDING AFFINITY PREDICTED BY RF-SCORE:    0.00 PKD
ROOT
HETATM    1  C   UNL     1     -12.612  13.767  71.164  1.00  0.00    -0.452 C  
HETATM    2  C   UNL     1     -11.788  14.513  70.144  1.00  0.00    -0.371 C  
ENDROOT
BRANCH   2   3
HETATM    3  C   UNL     1     -11.914  13.896  68.733  1.00  0.00    -0.393 C  
BRANCH   3   4
HETATM    4  C   UNL     1     -11.298  12.490  68.667  1.00  0.00    -0.329 C  
BRANCH   4   5
HETATM    5  C   UNL     1     -11.295  11.925  67.242  1.00  0.00    -0.393 C  
BRANCH   5   6
HETATM    6  C   UNL     1     -10.301  12.657  66.326  1.00  0.00    -0.269 C  
BRANCH   6   7
HETATM    7  C   UNL     1     -10.834  12.730  64.887  1.00  0.00    -0.326 C  
BRANCH   7   8
HETATM    8  C   UNL     1     -10.445  11.547  63.993  1.00  0.00    -0.424 C  
BRANCH   8   9
HETATM    9  C   UNL     1      -9.541  11.876  62.816  1.00  0.00     0.286 C  
BRANCH   9  10
HETATM   10  C   UNL     1      -8.162  11.227  62.862  1.00  0.00     0.181 C  
BRANCH  10  11
HETATM   11  C   UNL     1      -7.844   9.803  63.400  1.00  0.00    -0.145 C  
HETATM   12  O   UNL     1      -7.864   8.870  62.591  1.00  0.00    -0.120 OA 
BRANCH  11  13
HETATM   13  O   UNL     1      -7.763   9.580  64.772  1.00  0.00    -0.110 OA 
BRANCH  13  14
HETATM   14  C   UNL     1      -7.996   8.133  65.247  1.00  0.00    -0.126 C  
HETATM   15  C   UNL     1      -9.069   8.424  66.303  1.00  0.00    -0.241 C  
HETATM   16  C   UNL     1      -8.148   9.108  67.318  1.00  0.00    -0.106 C  
HETATM   17  C   UNL     1      -7.275   7.913  67.603  1.00  0.00    -0.088 C  
HETATM   18  C   UNL     1      -6.704   7.733  69.009  1.00  0.00    -0.049 C  
HETATM   19  C   UNL     1      -7.824   8.316  69.905  1.00  0.00    -0.102 C  
HETATM   20  C   UNL     1      -7.900   7.863  71.315  1.00  0.00    -0.088 C  
HETATM   21  C   UNL     1      -7.759   6.331  71.386  1.00  0.00    -0.100 C  
HETATM   22  C   UNL     1      -8.376   5.702  72.383  1.00  0.00    -0.115 C  
HETATM   23  C   UNL     1      -7.716   6.294  73.580  1.00  0.00    -0.094 C  
HETATM   24  O   UNL     1      -8.371   6.594  74.557  1.00  0.00    -0.129 OA 
HETATM   25  C   UNL     1      -6.177   6.506  73.440  1.00  0.00    -0.063 C  
HETATM   26  C   UNL     1      -5.516   6.500  71.957  1.00  0.00    -0.032 C  
HETATM   27  C   UNL     1      -6.412   5.819  70.846  1.00  0.00    -0.040 C  
HETATM   28  C   UNL     1      -6.143   4.315  71.003  1.00  0.00    -0.014 C  
HETATM   29  C   UNL     1      -6.542   6.207  69.278  1.00  0.00    -0.047 C  
HETATM   30  C   UNL     1      -5.805   5.570  68.035  1.00  0.00    -0.017 C  
HETATM   31  C   UNL     1      -6.606   5.844  66.609  1.00  0.00    -0.056 C  
HETATM   32  C   UNL     1      -6.756   7.410  66.230  1.00  0.00    -0.060 C  
HETATM   33  C   UNL     1      -5.419   7.767  65.578  1.00  0.00    -0.029 C  
ENDBRANCH  13  14
ENDBRANCH  11  13
ENDBRANCH  10  11
ENDBRANCH   9  10
ENDBRANCH   8   9
ENDBRANCH   7   8
ENDBRANCH   6   7
ENDBRANCH   5   6
ENDBRANCH   4   5
ENDBRANCH   3   4
ENDBRANCH   2   3
TORSDOF 11
ENDMDL
MODEL      186
REMARK 921   NORMALIZED FREE ENERGY PREDICTED BY IDOCK:   -2.00 KCAL/MOL
REMARK 922        TOTAL FREE ENERGY PREDICTED BY IDOCK:   -5.46 KCAL/MOL
REMARK 923 INTER-LIGAND FREE ENERGY PREDICTED BY IDOCK:   -5.30 KCAL/MOL
REMARK 924 INTRA-LIGAND FREE ENERGY PREDICTED BY IDOCK:   -0.16 KCAL/MOL
REMARK 927      BINDING AFFINITY PREDICTED BY RF-SCORE:    0.00 PKD
ROOT
HETATM    1  C   UNL     1     -11.041   4.851  73.103  1.00  0.00    -0.396 C  
HETATM    2  C   UNL     1      -9.802   5.210  72.320  1.00  0.00    -0.216 C  
ENDROOT
BRANCH   2   3
HETATM    3  C   UNL     1      -8.572   5.403  73.237  1.00  0.00    -0.116 C  
BRANCH   3   4
HETATM    4  C   UNL     1      -8.876   6.349  74.409  1.00  0.00    -0.164 C  
BRANCH   4   5
HETATM    5  C   UNL     1      -8.205   7.717  74.237  1.00  0.00    -0.264 C  
BRANCH   5   6
HETATM    6  C   UNL     1      -7.427   7.824  72.915  1.00  0.00    -0.124 C  
BRANCH   6   7
HETATM    7  C   UNL     1      -6.042   8.448  73.145  1.00  0.00    -0.094 C  
BRANCH   7   8
HETATM    8  C   UNL     1      -5.381   9.032  71.890  1.00  0.00    -0.055 C  
BRANCH   8   9
HETATM    9  C   UNL     1      -5.745   8.360  70.576  1.00  0.00    -0.028 C  
BRANCH   9  10
HETATM   10  C   UNL     1      -7.074   8.804  69.974  1.00  0.00    -0.047 C  
BRANCH  10  11
HETATM   11  C   UNL     1      -7.356   9.031  68.462  1.00  0.00    -0.077 C  
HETATM   12  O   UNL     1      -7.942   8.134  67.849  1.00  0.00    -0.122 OA 
BRANCH  11  13
HETATM   13  O   UNL     1      -6.770  10.107  67.799  1.00  0.00    -0.069 OA 
BRANCH  13  14
HETATM   14  C   UNL     1      -7.682  10.907  66.850  1.00  0.00    -0.135 C  
HETATM   15  C   UNL     1      -6.609  11.814  66.235  1.00  0.00     0.386 C  
HETATM   16  C   UNL     1      -6.358  12.672  67.478  1.00  0.00    -0.159 C  
HETATM   17  C   UNL     1      -7.737  13.276  67.561  1.00  0.00    -0.175 C  
HETATM   18  C   UNL     1      -7.887  14.708  68.074  1.00  0.00    -0.136 C  
HETATM   19  C   UNL     1      -6.591  15.386  67.568  1.00  0.00    -0.191 C  
HETATM   20  C   UNL     1      -6.593  16.859  67.396  1.00  0.00    -0.190 C  
HETATM   21  C   UNL     1      -7.874  17.304  66.665  1.00  0.00    -0.295 C  
HETATM   22  C   UNL     1      -7.801  18.396  65.908  1.00  0.00    -0.080 C  
HETATM   23  C   UNL     1      -7.436  19.442  66.904  1.00  0.00    -0.222 C  
HETATM   24  O   UNL     1      -6.610  20.288  66.631  1.00  0.00    -0.208 OA 
HETATM   25  C   UNL     1      -8.168  19.322  68.276  1.00  0.00    -0.372 C  
HETATM   26  C   UNL     1      -8.878  17.916  68.666  1.00  0.00    -0.267 C  
HETATM   27  C   UNL     1      -9.161  16.963  67.435  1.00  0.00    -0.224 C  
HETATM   28  C   UNL     1     -10.473  17.492  66.834  1.00  0.00    -0.285 C  
HETATM   29  C   UNL     1      -9.131  15.345  67.385  1.00  0.00    -0.206 C  
HETATM   30  C   UNL     1     -10.331  14.326  67.511  1.00  0.00    -0.248 C  
HETATM   31  C   UNL     1      -9.980  12.842  66.858  1.00  0.00    -0.238 C  
HETATM   32  C   UNL     1      -8.736  12.090  67.568  1.00  0.00    -0.166 C  
HETATM   33  C   UNL     1      -9.354  11.430  68.803  1.00  0.00    -0.115 C  
ENDBRANCH  13  14
ENDBRANCH  11  13
ENDBRANCH  10  11
ENDBRANCH   9  10
ENDBRANCH   8   9
ENDBRANCH   7   8
ENDBRANCH   6   7
ENDBRANCH   5   6
ENDBRANCH   4   5
ENDBRANCH   3   4
ENDBRANCH   2   3
TORSDOF 11
ENDMDL
MODEL      187
REMARK 921   NORMALIZED FREE ENERGY PREDICTED BY IDOCK:   -1.97 KCAL/MOL
REMARK 922        TOTAL FREE ENERGY PREDICTED BY IDOCK:   -5.42 KCAL/MOL
REMARK 923 INTER-LIGAND FREE ENERGY PREDICTED BY IDOCK:   -5.04 KCAL/MOL
REMARK 924 INTRA-LIGAND FREE ENERGY PREDICTED BY IDOCK:   -0.37 KCAL/MOL
REMARK 927      BINDING AFFINITY PREDICTED BY RF-SCORE:    0.00 PKD
ROOT
HETATM    1  C   UNL     1      -5.282  17.237  71.652  1.00  0.00     0.284 C  
HETATM    2  C   UNL     1      -5.147  18.655  71.155  1.00  0.00    -0.274 C  
ENDROOT
BRANCH   2   3
HETATM    3  C   UNL     1      -5.328  18.752  69.623  1.00  0.00    -0.200 C  
BRANCH   3   4
HETATM    4  C   UNL     1      -5.219  17.376  68.947  1.00  0.00    -0.149 C  
BRANCH   4   5
HETATM    5  C   UNL     1      -5.368  17.467  67.424  1.00  0.00    -0.146 C  
BRANCH   5   6
HETATM    6  C   UNL     1      -6.681  16.838  66.927  1.00  0.00    -0.256 C  
BRANCH   6   7
HETATM    7  C   UNL     1      -7.881  17.381  67.718  1.00  0.00    -0.205 C  
BRANCH   7   8
HETATM    8  C   UNL     1      -9.015  17.953  66.860  1.00  0.00    -0.265 C  
BRANCH   8   9
HETATM    9  C   UNL     1      -9.415  17.123  65.652  1.00  0.00     0.208 C  
BRANCH   9  10
HETATM   10  C   UNL     1     -10.908  16.836  65.533  1.00  0.00    -0.135 C  
BRANCH  10  11
HETATM   11  C   UNL     1     -11.568  15.859  64.519  1.00  0.00    -0.232 C  
HETATM   12  O   UNL     1     -11.618  16.212  63.337  1.00  0.00    -0.272 OA 
BRANCH  11  13
HETATM   13  O   UNL     1     -12.263  14.744  64.979  1.00  0.00    -0.342 OA 
BRANCH  13  14
HETATM   14  C   UNL     1     -12.040  13.430  64.207  1.00  0.00    -0.424 C  
HETATM   15  C   UNL     1     -12.980  12.537  65.026  1.00  0.00     0.098 C  
HETATM   16  C   UNL     1     -12.123  12.485  66.295  1.00  0.00    -0.315 C  
HETATM   17  C   UNL     1     -10.940  11.780  65.685  1.00  0.00    -0.348 C  
HETATM   18  C   UNL     1     -10.136  10.805  66.544  1.00  0.00    -0.277 C  
HETATM   19  C   UNL     1     -11.219  10.198  67.469  1.00  0.00    -0.123 C  
HETATM   20  C   UNL     1     -10.962   8.866  68.068  1.00  0.00     0.040 C  
HETATM   21  C   UNL     1     -10.423   7.900  66.997  1.00  0.00    -0.419 C  
HETATM   22  C   UNL     1     -10.699   6.606  67.142  1.00  0.00    -0.440 C  
HETATM   23  C   UNL     1     -10.041   6.290  68.440  1.00  0.00    -0.157 C  
HETATM   24  O   UNL     1     -10.595   5.579  69.253  1.00  0.00    -0.271 OA 
HETATM   25  C   UNL     1      -8.647   6.961  68.646  1.00  0.00    -0.123 C  
HETATM   26  C   UNL     1      -8.239   8.224  67.714  1.00  0.00    -0.127 C  
HETATM   27  C   UNL     1      -9.087   8.356  66.385  1.00  0.00    -0.231 C  
HETATM   28  C   UNL     1      -8.420   7.380  65.404  1.00  0.00    -0.101 C  
HETATM   29  C   UNL     1      -9.548   9.703  65.612  1.00  0.00    -0.338 C  
HETATM   30  C   UNL     1      -8.868  10.421  64.380  1.00  0.00    -0.223 C  
HETATM   31  C   UNL     1      -9.919  11.405  63.556  1.00  0.00    -0.424 C  
HETATM   32  C   UNL     1     -10.523  12.614  64.445  1.00  0.00    -0.398 C  
HETATM   33  C   UNL     1      -9.437  13.691  64.398  1.00  0.00     1.541 C  
ENDBRANCH  13  14
ENDBRANCH  11  13
ENDBRANCH  10  11
ENDBRANCH   9  10
ENDBRANCH   8   9
ENDBRANCH   7   8
ENDBRANCH   6   7
ENDBRANCH   5   6
ENDBRANCH   4   5
ENDBRANCH   3   4
ENDBRANCH   2   3
TORSDOF 11
ENDMDL
MODEL      188
REMARK 921   NORMALIZED FREE ENERGY PREDICTED BY IDOCK:   -1.90 KCAL/MOL
REMARK 922        TOTAL FREE ENERGY PREDICTED BY IDOCK:   -5.31 KCAL/MOL
REMARK 923 INTER-LIGAND FREE ENERGY PREDICTED BY IDOCK:   -5.48 KCAL/MOL
REMARK 924 INTRA-LIGAND FREE ENERGY PREDICTED BY IDOCK:    0.18 KCAL/MOL
REMARK 927      BINDING AFFINITY PREDICTED BY RF-SCORE:    0.00 PKD
ROOT
HETATM    1  C   UNL     1     -11.477  14.765  67.855  1.00  0.00    -0.361 C  
HETATM    2  C   UNL     1     -10.957  13.609  67.038  1.00  0.00    -0.298 C  
ENDROOT
BRANCH   2   3
HETATM    3  C   UNL     1     -11.353  12.244  67.646  1.00  0.00    -0.374 C  
BRANCH   3   4
HETATM    4  C   UNL     1     -10.122  11.375  67.949  1.00  0.00    -0.198 C  
BRANCH   4   5
HETATM    5  C   UNL     1     -10.125  10.068  67.147  1.00  0.00    -0.265 C  
BRANCH   5   6
HETATM    6  C   UNL     1      -8.871   9.918  66.270  1.00  0.00    -0.160 C  
BRANCH   6   7
HETATM    7  C   UNL     1      -9.237   9.368  64.883  1.00  0.00    -0.246 C  
BRANCH   7   8
HETATM    8  C   UNL     1      -8.058   8.801  64.081  1.00  0.00    -0.162 C  
BRANCH   8   9
HETATM    9  C   UNL     1      -6.674   9.140  64.610  1.00  0.00    -0.082 C  
BRANCH   9  10
HETATM   10  C   UNL     1      -5.886   7.954  65.156  1.00  0.00    -0.037 C  
BRANCH  10  11
HETATM   11  C   UNL     1      -6.118   6.461  64.788  1.00  0.00    -0.030 C  
HETATM   12  O   UNL     1      -6.636   6.217  63.694  1.00  0.00    -0.032 OA 
BRANCH  11  13
HETATM   13  O   UNL     1      -5.947   5.473  65.753  1.00  0.00    -0.024 OA 
BRANCH  13  14
HETATM   14  C   UNL     1      -7.224   4.764  66.244  1.00  0.00    -0.077 C  
HETATM   15  C   UNL     1      -8.188   5.950  66.122  1.00  0.00    -0.116 C  
HETATM   16  C   UNL     1      -7.627   6.765  67.291  1.00  0.00    -0.104 C  
HETATM   17  C   UNL     1      -7.962   5.775  68.376  1.00  0.00    -0.104 C  
HETATM   18  C   UNL     1      -8.344   6.298  69.761  1.00  0.00    -0.125 C  
HETATM   19  C   UNL     1      -9.081   7.620  69.431  1.00  0.00    -0.142 C  
HETATM   20  C   UNL     1     -10.046   8.150  70.424  1.00  0.00    -0.196 C  
HETATM   21  C   UNL     1     -10.961   7.018  70.928  1.00  0.00    -0.282 C  
HETATM   22  C   UNL     1     -12.195   7.346  71.304  1.00  0.00    -0.374 C  
HETATM   23  C   UNL     1     -11.938   8.284  72.431  1.00  0.00    -0.384 C  
HETATM   24  O   UNL     1     -12.597   9.297  72.551  1.00  0.00    -0.314 OA 
HETATM   25  C   UNL     1     -10.770   7.866  73.377  1.00  0.00    -0.065 C  
HETATM   26  C   UNL     1      -9.694   6.767  72.856  1.00  0.00    -0.173 C  
HETATM   27  C   UNL     1     -10.195   5.889  71.639  1.00  0.00    -0.249 C  
HETATM   28  C   UNL     1     -11.050   4.789  72.285  1.00  0.00     0.011 C  
HETATM   29  C   UNL     1      -9.331   5.282  70.411  1.00  0.00    -0.208 C  
HETATM   30  C   UNL     1      -8.714   3.837  70.251  1.00  0.00    -0.126 C  
HETATM   31  C   UNL     1      -8.408   3.445  68.669  1.00  0.00    -0.090 C  
HETATM   32  C   UNL     1      -7.341   4.421  67.945  1.00  0.00    -0.069 C  
HETATM   33  C   UNL     1      -5.979   3.868  68.372  1.00  0.00    -0.027 C  
ENDBRANCH  13  14
ENDBRANCH  11  13
ENDBRANCH  10  11
ENDBRANCH   9  10
ENDBRANCH   8   9
ENDBRANCH   7   8
ENDBRANCH   6   7
ENDBRANCH   5   6
ENDBRANCH   4   5
ENDBRANCH   3   4
ENDBRANCH   2   3
TORSDOF 11
ENDMDL
MODEL      189
REMARK 921   NORMALIZED FREE ENERGY PREDICTED BY IDOCK:   -1.88 KCAL/MOL
REMARK 922        TOTAL FREE ENERGY PREDICTED BY IDOCK:   -5.28 KCAL/MOL
REMARK 923 INTER-LIGAND FREE ENERGY PREDICTED BY IDOCK:   -6.05 KCAL/MOL
REMARK 924 INTRA-LIGAND FREE ENERGY PREDICTED BY IDOCK:    0.77 KCAL/MOL
REMARK 927      BINDING AFFINITY PREDICTED BY RF-SCORE:    0.00 PKD
ROOT
HETATM    1  C   UNL     1      -7.884   4.510  74.324  1.00  0.00    -0.092 C  
HETATM    2  C   UNL     1      -6.626   5.324  74.158  1.00  0.00    -0.075 C  
ENDROOT
BRANCH   2   3
HETATM    3  C   UNL     1      -6.067   5.243  72.719  1.00  0.00    -0.027 C  
BRANCH   3   4
HETATM    4  C   UNL     1      -7.169   5.444  71.667  1.00  0.00    -0.084 C  
BRANCH   4   5
HETATM    5  C   UNL     1      -8.452   6.023  72.276  1.00  0.00    -0.117 C  
BRANCH   5   6
HETATM    6  C   UNL     1      -9.368   6.654  71.215  1.00  0.00    -0.159 C  
BRANCH   6   7
HETATM    7  C   UNL     1     -10.255   5.588  70.554  1.00  0.00    -0.311 C  
BRANCH   7   8
HETATM    8  C   UNL     1      -9.712   4.156  70.632  1.00  0.00    -0.273 C  
BRANCH   8   9
HETATM    9  C   UNL     1      -9.165   3.585  69.334  1.00  0.00    -0.227 C  
BRANCH   9  10
HETATM   10  C   UNL     1      -8.739   4.624  68.302  1.00  0.00    -0.114 C  
BRANCH  10  11
HETATM   11  C   UNL     1      -9.562   5.060  67.057  1.00  0.00    -0.152 C  
HETATM   12  O   UNL     1     -10.356   4.242  66.584  1.00  0.00    -0.120 OA 
BRANCH  11  13
HETATM   13  O   UNL     1      -9.241   6.238  66.390  1.00  0.00    -0.153 OA 
BRANCH  13  14
HETATM   14  C   UNL     1      -8.419   7.274  67.181  1.00  0.00    -0.118 C  
HETATM   15  C   UNL     1      -9.527   7.748  68.129  1.00  0.00    -0.152 C  
HETATM   16  C   UNL     1     -10.352   8.505  67.084  1.00  0.00    -0.377 C  
HETATM   17  C   UNL     1      -9.309   9.540  66.748  1.00  0.00    -0.196 C  
HETATM   18  C   UNL     1      -9.761  10.952  66.377  1.00  0.00    -0.240 C  
HETATM   19  C   UNL     1     -11.028  11.140  67.247  1.00  0.00    -0.354 C  
HETATM   20  C   UNL     1     -11.452  12.522  67.578  1.00  0.00    -0.397 C  
HETATM   21  C   UNL     1     -10.237  13.353  68.031  1.00  0.00    -0.243 C  
HETATM   22  C   UNL     1     -10.455  14.336  68.901  1.00  0.00    -0.241 C  
HETATM   23  C   UNL     1     -11.379  15.224  68.144  1.00  0.00    -0.338 C  
HETATM   24  O   UNL     1     -12.332  15.735  68.696  1.00  0.00    -0.031 OA 
HETATM   25  C   UNL     1     -11.030  15.395  66.633  1.00  0.00    -0.275 C  
HETATM   26  C   UNL     1     -10.035  14.321  65.931  1.00  0.00    -0.340 C  
HETATM   27  C   UNL     1      -9.154  13.487  66.946  1.00  0.00    -0.246 C  
HETATM   28  C   UNL     1      -7.971  14.410  67.277  1.00  0.00    -0.204 C  
HETATM   29  C   UNL     1      -8.652  11.952  66.821  1.00  0.00    -0.181 C  
HETATM   30  C   UNL     1      -7.266  11.402  66.302  1.00  0.00     0.075 C  
HETATM   31  C   UNL     1      -6.943   9.869  66.848  1.00  0.00    -0.088 C  
HETATM   32  C   UNL     1      -8.021   8.761  66.372  1.00  0.00    -0.103 C  
HETATM   33  C   UNL     1      -7.568   8.381  64.961  1.00  0.00    -0.094 C  
ENDBRANCH  13  14
ENDBRANCH  11  13
ENDBRANCH  10  11
ENDBRANCH   9  10
ENDBRANCH   8   9
ENDBRANCH   7   8
ENDBRANCH   6   7
ENDBRANCH   5   6
ENDBRANCH   4   5
ENDBRANCH   3   4
ENDBRANCH   2   3
TORSDOF 11
ENDMDL
MODEL      190
REMARK 921   NORMALIZED FREE ENERGY PREDICTED BY IDOCK:   -1.87 KCAL/MOL
REMARK 922        TOTAL FREE ENERGY PREDICTED BY IDOCK:   -5.25 KCAL/MOL
REMARK 923 INTER-LIGAND FREE ENERGY PREDICTED BY IDOCK:   -4.89 KCAL/MOL
REMARK 924 INTRA-LIGAND FREE ENERGY PREDICTED BY IDOCK:   -0.36 KCAL/MOL
REMARK 927      BINDING AFFINITY PREDICTED BY RF-SCORE:    0.00 PKD
ROOT
HETATM    1  C   UNL     1     -11.145  16.479  65.960  1.00  0.00     0.209 C  
HETATM    2  C   UNL     1     -10.438  17.805  65.829  1.00  0.00    -0.199 C  
ENDROOT
BRANCH   2   3
HETATM    3  C   UNL     1      -9.765  18.236  67.153  1.00  0.00    -0.307 C  
BRANCH   3   4
HETATM    4  C   UNL     1      -8.338  17.679  67.275  1.00  0.00    -0.225 C  
BRANCH   4   5
HETATM    5  C   UNL     1      -7.921  17.474  68.737  1.00  0.00    -0.238 C  
BRANCH   5   6
HETATM    6  C   UNL     1      -7.541  16.014  69.036  1.00  0.00    -0.209 C  
BRANCH   6   7
HETATM    7  C   UNL     1      -6.409  15.543  68.111  1.00  0.00    -0.133 C  
BRANCH   7   8
HETATM    8  C   UNL     1      -5.680  14.276  68.575  1.00  0.00    -0.096 C  
BRANCH   8   9
HETATM    9  C   UNL     1      -6.386  12.962  68.284  1.00  0.00    -0.085 C  
BRANCH   9  10
HETATM   10  C   UNL     1      -7.583  13.068  67.345  1.00  0.00    -0.141 C  
BRANCH  10  11
HETATM   11  C   UNL     1      -8.361  11.873  66.725  1.00  0.00    -0.153 C  
HETATM   12  O   UNL     1      -9.053  12.099  65.728  1.00  0.00    -0.096 OA 
BRANCH  11  13
HETATM   13  O   UNL     1      -8.437  10.663  67.409  1.00  0.00    -0.122 OA 
BRANCH  13  14
HETATM   14  C   UNL     1      -8.711  10.746  68.923  1.00  0.00    -0.152 C  
HETATM   15  C   UNL     1      -7.394  10.134  69.414  1.00  0.00    -0.106 C  
HETATM   16  C   UNL     1      -7.680   8.698  68.964  1.00  0.00    -0.095 C  
HETATM   17  C   UNL     1      -8.869   8.462  69.859  1.00  0.00    -0.137 C  
HETATM   18  C   UNL     1      -9.107   7.060  70.419  1.00  0.00    -0.156 C  
HETATM   19  C   UNL     1      -7.667   6.522  70.605  1.00  0.00    -0.105 C  
HETATM   20  C   UNL     1      -7.447   5.438  71.592  1.00  0.00    -0.091 C  
HETATM   21  C   UNL     1      -8.181   5.762  72.906  1.00  0.00    -0.119 C  
HETATM   22  C   UNL     1      -7.656   5.293  74.036  1.00  0.00    -0.097 C  
HETATM   23  C   UNL     1      -7.707   3.822  73.816  1.00  0.00    -0.075 C  
HETATM   24  O   UNL     1      -6.773   3.119  74.144  1.00  0.00    -0.032 OA 
HETATM   25  C   UNL     1      -9.008   3.308  73.126  1.00  0.00    -0.096 C  
HETATM   26  C   UNL     1      -9.948   4.369  72.336  1.00  0.00    -0.232 C  
HETATM   27  C   UNL     1      -9.706   5.880  72.736  1.00  0.00    -0.167 C  
HETATM   28  C   UNL     1     -10.521   6.072  74.024  1.00  0.00    -0.272 C  
HETATM   29  C   UNL     1      -9.810   7.200  71.803  1.00  0.00    -0.171 C  
HETATM   30  C   UNL     1     -11.018   8.203  71.634  1.00  0.00    -0.306 C  
HETATM   31  C   UNL     1     -10.544   9.681  71.052  1.00  0.00    -0.362 C  
HETATM   32  C   UNL     1      -9.861   9.622  69.586  1.00  0.00    -0.233 C  
HETATM   33  C   UNL     1     -11.049   9.595  68.622  1.00  0.00    -0.085 C  
ENDBRANCH  13  14
ENDBRANCH  11  13
ENDBRANCH  10  11
ENDBRANCH   9  10
ENDBRANCH   8   9
ENDBRANCH   7   8
ENDBRANCH   6   7
ENDBRANCH   5   6
ENDBRANCH   4   5
ENDBRANCH   3   4
ENDBRANCH   2   3
TORSDOF 11
ENDMDL
MODEL      191
REMARK 921   NORMALIZED FREE ENERGY PREDICTED BY IDOCK:   -1.86 KCAL/MOL
REMARK 922        TOTAL FREE ENERGY PREDICTED BY IDOCK:   -5.24 KCAL/MOL
REMARK 923 INTER-LIGAND FREE ENERGY PREDICTED BY IDOCK:   -5.80 KCAL/MOL
REMARK 924 INTRA-LIGAND FREE ENERGY PREDICTED BY IDOCK:    0.55 KCAL/MOL
REMARK 927      BINDING AFFINITY PREDICTED BY RF-SCORE:    0.00 PKD
ROOT
HETATM    1  C   UNL     1      -8.150   8.234  74.148  1.00  0.00    -0.284 C  
HETATM    2  C   UNL     1      -6.884   7.866  73.414  1.00  0.00    -0.111 C  
ENDROOT
BRANCH   2   3
HETATM    3  C   UNL     1      -7.173   7.325  71.995  1.00  0.00    -0.071 C  
BRANCH   3   4
HETATM    4  C   UNL     1      -6.316   6.091  71.670  1.00  0.00    -0.049 C  
BRANCH   4   5
HETATM    5  C   UNL     1      -6.292   5.784  70.167  1.00  0.00    -0.027 C  
BRANCH   5   6
HETATM    6  C   UNL     1      -6.399   7.055  69.309  1.00  0.00    -0.035 C  
BRANCH   6   7
HETATM    7  C   UNL     1      -5.132   7.251  68.462  1.00  0.00    -0.020 C  
BRANCH   7   8
HETATM    8  C   UNL     1      -5.374   7.350  66.951  1.00  0.00    -0.023 C  
BRANCH   8   9
HETATM    9  C   UNL     1      -5.539   8.757  66.399  1.00  0.00    -0.042 C  
BRANCH   9  10
HETATM   10  C   UNL     1      -6.844   9.006  65.651  1.00  0.00    -0.076 C  
BRANCH  10  11
HETATM   11  C   UNL     1      -8.197   8.287  65.918  1.00  0.00    -0.119 C  
HETATM   12  O   UNL     1      -8.758   7.753  64.957  1.00  0.00    -0.027 OA 
BRANCH  11  13
HETATM   13  O   UNL     1      -8.836   8.441  67.145  1.00  0.00    -0.127 OA 
BRANCH  13  14
HETATM   14  C   UNL     1     -10.174   9.204  67.131  1.00  0.00    -0.261 C  
HETATM   15  C   UNL     1      -9.871  10.149  65.961  1.00  0.00    -0.308 C  
HETATM   16  C   UNL     1      -8.843  11.019  66.690  1.00  0.00    -0.168 C  
HETATM   17  C   UNL     1      -9.781  11.571  67.732  1.00  0.00    -0.180 C  
HETATM   18  C   UNL     1      -9.568  12.997  68.238  1.00  0.00    -0.213 C  
HETATM   19  C   UNL     1      -9.023  13.723  66.983  1.00  0.00    -0.247 C  
HETATM   20  C   UNL     1      -9.187  15.194  66.898  1.00  0.00    -0.259 C  
HETATM   21  C   UNL     1     -10.623  15.589  67.290  1.00  0.00    -0.299 C  
HETATM   22  C   UNL     1     -11.136  16.681  66.728  1.00  0.00     0.218 C  
HETATM   23  C   UNL     1     -10.206  17.742  67.204  1.00  0.00    -0.353 C  
HETATM   24  O   UNL     1      -9.835  18.618  66.450  1.00  0.00    -0.340 OA 
HETATM   25  C   UNL     1      -9.757  17.599  68.692  1.00  0.00    -0.332 C  
HETATM   26  C   UNL     1      -9.946  16.168  69.434  1.00  0.00    -0.243 C  
HETATM   27  C   UNL     1     -10.986  15.202  68.735  1.00  0.00    -0.257 C  
HETATM   28  C   UNL     1     -12.355  15.679  69.243  1.00  0.00    -0.063 C  
HETATM   29  C   UNL     1     -10.954  13.585  68.638  1.00  0.00    -0.289 C  
HETATM   30  C   UNL     1     -11.689  12.523  69.546  1.00  0.00    -0.375 C  
HETATM   31  C   UNL     1     -11.856  11.052  68.800  1.00  0.00    -0.352 C  
HETATM   32  C   UNL     1     -10.452  10.348  68.411  1.00  0.00    -0.216 C  
HETATM   33  C   UNL     1     -10.003   9.669  69.707  1.00  0.00    -0.252 C  
ENDBRANCH  13  14
ENDBRANCH  11  13
ENDBRANCH  10  11
ENDBRANCH   9  10
ENDBRANCH   8   9
ENDBRANCH   7   8
ENDBRANCH   6   7
ENDBRANCH   5   6
ENDBRANCH   4   5
ENDBRANCH   3   4
ENDBRANCH   2   3
TORSDOF 11
ENDMDL
MODEL      192
REMARK 921   NORMALIZED FREE ENERGY PREDICTED BY IDOCK:   -1.78 KCAL/MOL
REMARK 922        TOTAL FREE ENERGY PREDICTED BY IDOCK:   -5.10 KCAL/MOL
REMARK 923 INTER-LIGAND FREE ENERGY PREDICTED BY IDOCK:   -4.41 KCAL/MOL
REMARK 924 INTRA-LIGAND FREE ENERGY PREDICTED BY IDOCK:   -0.69 KCAL/MOL
REMARK 927      BINDING AFFINITY PREDICTED BY RF-SCORE:    0.00 PKD
ROOT
HETATM    1  C   UNL     1     -11.134  16.484  65.955  1.00  0.00     0.209 C  
HETATM    2  C   UNL     1     -10.500  17.830  65.711  1.00  0.00    -0.199 C  
ENDROOT
BRANCH   2   3
HETATM    3  C   UNL     1      -9.836  18.399  66.987  1.00  0.00    -0.335 C  
BRANCH   3   4
HETATM    4  C   UNL     1      -8.376  17.940  67.123  1.00  0.00    -0.239 C  
BRANCH   4   5
HETATM    5  C   UNL     1      -7.905  17.936  68.582  1.00  0.00    -0.294 C  
BRANCH   5   6
HETATM    6  C   UNL     1      -7.437  16.545  69.040  1.00  0.00    -0.229 C  
BRANCH   6   7
HETATM    7  C   UNL     1      -6.342  16.002  68.109  1.00  0.00    -0.129 C  
BRANCH   7   8
HETATM    8  C   UNL     1      -5.488  14.876  68.703  1.00  0.00    -0.093 C  
BRANCH   8   9
HETATM    9  C   UNL     1      -6.126  13.496  68.714  1.00  0.00    -0.086 C  
BRANCH   9  10
HETATM   10  C   UNL     1      -7.401  13.370  67.888  1.00  0.00    -0.140 C  
BRANCH  10  11
HETATM   11  C   UNL     1      -8.169  12.050  67.596  1.00  0.00    -0.155 C  
HETATM   12  O   UNL     1      -8.947  12.043  66.637  1.00  0.00    -0.199 OA 
BRANCH  11  13
HETATM   13  O   UNL     1      -8.134  11.008  68.518  1.00  0.00    -0.125 OA 
BRANCH  13  14
HETATM   14  C   UNL     1      -8.599   9.628  68.012  1.00  0.00    -0.119 C  
HETATM   15  C   UNL     1      -9.805   9.454  68.942  1.00  0.00    -0.176 C  
HETATM   16  C   UNL     1      -9.011   9.236  70.234  1.00  0.00    -0.261 C  
HETATM   17  C   UNL     1      -8.334   7.956  69.815  1.00  0.00    -0.127 C  
HETATM   18  C   UNL     1      -8.043   6.893  70.874  1.00  0.00    -0.114 C  
HETATM   19  C   UNL     1      -9.236   7.052  71.848  1.00  0.00    -0.147 C  
HETATM   20  C   UNL     1      -9.608   5.892  72.694  1.00  0.00    -0.162 C  
HETATM   21  C   UNL     1      -9.645   4.608  71.845  1.00  0.00    -0.210 C  
HETATM   22  C   UNL     1     -10.492   3.650  72.215  1.00  0.00    -0.071 C  
HETATM   23  C   UNL     1      -9.995   3.304  73.575  1.00  0.00    -0.114 C  
HETATM   24  O   UNL     1     -10.777   3.102  74.482  1.00  0.00    -0.163 OA 
HETATM   25  C   UNL     1      -8.442   3.260  73.713  1.00  0.00    -0.074 C  
HETATM   26  C   UNL     1      -7.533   3.986  72.580  1.00  0.00    -0.072 C  
HETATM   27  C   UNL     1      -8.286   4.257  71.215  1.00  0.00    -0.083 C  
HETATM   28  C   UNL     1      -8.209   2.921  70.462  1.00  0.00    -0.067 C  
HETATM   29  C   UNL     1      -8.094   5.495  70.187  1.00  0.00    -0.098 C  
HETATM   30  C   UNL     1      -7.220   5.567  68.874  1.00  0.00    -0.066 C  
HETATM   31  C   UNL     1      -7.722   6.760  67.838  1.00  0.00    -0.112 C  
HETATM   32  C   UNL     1      -7.637   8.250  68.461  1.00  0.00    -0.100 C  
HETATM   33  C   UNL     1      -6.175   8.656  68.261  1.00  0.00    -0.054 C  
ENDBRANCH  13  14
ENDBRANCH  11  13
ENDBRANCH  10  11
ENDBRANCH   9  10
ENDBRANCH   8   9
ENDBRANCH   7   8
ENDBRANCH   6   7
ENDBRANCH   5   6
ENDBRANCH   4   5
ENDBRANCH   3   4
ENDBRANCH   2   3
TORSDOF 11
ENDMDL
MODEL      193
REMARK 921   NORMALIZED FREE ENERGY PREDICTED BY IDOCK:   -1.74 KCAL/MOL
REMARK 922        TOTAL FREE ENERGY PREDICTED BY IDOCK:   -5.05 KCAL/MOL
REMARK 923 INTER-LIGAND FREE ENERGY PREDICTED BY IDOCK:   -3.58 KCAL/MOL
REMARK 924 INTRA-LIGAND FREE ENERGY PREDICTED BY IDOCK:   -1.47 KCAL/MOL
REMARK 927      BINDING AFFINITY PREDICTED BY RF-SCORE:    0.00 PKD
ROOT
HETATM    1  C   UNL     1      -8.587   4.460  73.723  1.00  0.00    -0.099 C  
HETATM    2  C   UNL     1      -8.350   2.974  73.616  1.00  0.00    -0.073 C  
ENDROOT
BRANCH   2   3
HETATM    3  C   UNL     1      -8.589   2.450  72.182  1.00  0.00    -0.083 C  
BRANCH   3   4
HETATM    4  C   UNL     1      -7.375   1.671  71.650  1.00  0.00    -0.035 C  
BRANCH   4   5
HETATM    5  C   UNL     1      -6.047   2.326  72.049  1.00  0.00    -0.013 C  
BRANCH   5   6
HETATM    6  C   UNL     1      -5.126   2.562  70.841  1.00  0.00    -0.004 C  
BRANCH   6   7
HETATM    7  C   UNL     1      -5.526   3.842  70.090  1.00  0.00    -0.012 C  
BRANCH   7   8
HETATM    8  C   UNL     1      -5.994   4.996  70.985  1.00  0.00    -0.017 C  
BRANCH   8   9
HETATM    9  C   UNL     1      -6.792   6.089  70.291  1.00  0.00    -0.054 C  
BRANCH   9  10
HETATM   10  C   UNL     1      -7.004   5.881  68.796  1.00  0.00    -0.072 C  
BRANCH  10  11
HETATM   11  C   UNL     1      -6.604   6.879  67.673  1.00  0.00    -0.055 C  
HETATM   12  O   UNL     1      -5.914   6.447  66.745  1.00  0.00    -0.023 OA 
BRANCH  11  13
HETATM   13  O   UNL     1      -6.836   8.242  67.839  1.00  0.00    -0.064 OA 
BRANCH  13  14
HETATM   14  C   UNL     1      -7.987   8.848  67.014  1.00  0.00    -0.102 C  
HETATM   15  C   UNL     1      -7.287  10.144  66.589  1.00  0.00    -0.106 C  
HETATM   16  C   UNL     1      -7.293  10.816  67.965  1.00  0.00    -0.088 C  
HETATM   17  C   UNL     1      -8.789  10.914  68.110  1.00  0.00    -0.137 C  
HETATM   18  C   UNL     1      -9.383  12.111  68.853  1.00  0.00     0.195 C  
HETATM   19  C   UNL     1      -8.395  13.250  68.502  1.00  0.00    -0.075 C  
HETATM   20  C   UNL     1      -8.881  14.649  68.580  1.00  0.00    -0.182 C  
HETATM   21  C   UNL     1     -10.259  14.767  67.901  1.00  0.00    -0.229 C  
HETATM   22  C   UNL     1     -10.569  15.934  67.340  1.00  0.00    -0.315 C  
HETATM   23  C   UNL     1     -10.535  16.859  68.506  1.00  0.00    -0.361 C  
HETATM   24  O   UNL     1     -10.038  17.962  68.401  1.00  0.00    -0.341 OA 
HETATM   25  C   UNL     1     -11.147  16.279  69.819  1.00  0.00    -0.337 C  
HETATM   26  C   UNL     1     -11.347  14.674  69.948  1.00  0.00    -0.302 C  
HETATM   27  C   UNL     1     -11.341  13.901  68.568  1.00  0.00    -0.311 C  
HETATM   28  C   UNL     1     -12.771  14.065  68.030  1.00  0.00     0.908 C  
HETATM   29  C   UNL     1     -10.787  12.413  68.247  1.00  0.00    -0.264 C  
HETATM   30  C   UNL     1     -11.585  11.053  68.168  1.00  0.00    -0.345 C  
HETATM   31  C   UNL     1     -10.789   9.897  67.286  1.00  0.00    -0.268 C  
HETATM   32  C   UNL     1      -9.347   9.484  67.892  1.00  0.00    -0.145 C  
HETATM   33  C   UNL     1      -9.678   8.461  68.981  1.00  0.00    -0.171 C  
ENDBRANCH  13  14
ENDBRANCH  11  13
ENDBRANCH  10  11
ENDBRANCH   9  10
ENDBRANCH   8   9
ENDBRANCH   7   8
ENDBRANCH   6   7
ENDBRANCH   5   6
ENDBRANCH   4   5
ENDBRANCH   3   4
ENDBRANCH   2   3
TORSDOF 11
ENDMDL
MODEL      194
REMARK 921   NORMALIZED FREE ENERGY PREDICTED BY IDOCK:   -1.64 KCAL/MOL
REMARK 922        TOTAL FREE ENERGY PREDICTED BY IDOCK:   -4.88 KCAL/MOL
REMARK 923 INTER-LIGAND FREE ENERGY PREDICTED BY IDOCK:   -4.67 KCAL/MOL
REMARK 924 INTRA-LIGAND FREE ENERGY PREDICTED BY IDOCK:   -0.22 KCAL/MOL
REMARK 927      BINDING AFFINITY PREDICTED BY RF-SCORE:    0.00 PKD
ROOT
HETATM    1  C   UNL     1     -11.029   4.850  73.101  1.00  0.00    -0.376 C  
HETATM    2  C   UNL     1      -9.822   5.275  72.303  1.00  0.00    -0.209 C  
ENDROOT
BRANCH   2   3
HETATM    3  C   UNL     1      -8.553   5.377  73.181  1.00  0.00    -0.117 C  
BRANCH   3   4
HETATM    4  C   UNL     1      -8.828   6.119  74.498  1.00  0.00    -0.143 C  
BRANCH   4   5
HETATM    5  C   UNL     1      -8.223   7.527  74.507  1.00  0.00    -0.246 C  
BRANCH   5   6
HETATM    6  C   UNL     1      -7.608   7.907  73.150  1.00  0.00    -0.165 C  
BRANCH   6   7
HETATM    7  C   UNL     1      -6.203   8.499  73.332  1.00  0.00    -0.117 C  
BRANCH   7   8
HETATM    8  C   UNL     1      -5.746   9.439  72.210  1.00  0.00     0.018 C  
BRANCH   8   9
HETATM    9  C   UNL     1      -6.260   9.107  70.819  1.00  0.00    -0.053 C  
BRANCH   9  10
HETATM   10  C   UNL     1      -7.702   9.523  70.548  1.00  0.00    -0.177 C  
BRANCH  10  11
HETATM   11  C   UNL     1      -8.228  10.183  69.243  1.00  0.00    -0.156 C  
HETATM   12  O   UNL     1      -7.831  11.322  68.979  1.00  0.00    -0.135 OA 
BRANCH  11  13
HETATM   13  O   UNL     1      -9.269   9.589  68.534  1.00  0.00    -0.130 OA 
BRANCH  13  14
HETATM   14  C   UNL     1      -9.092   9.494  67.006  1.00  0.00    -0.134 C  
HETATM   15  C   UNL     1     -10.472   8.919  66.666  1.00  0.00    -0.231 C  
HETATM   16  C   UNL     1     -10.238   7.523  67.252  1.00  0.00    -0.337 C  
HETATM   17  C   UNL     1      -9.128   7.119  66.317  1.00  0.00    -0.182 C  
HETATM   18  C   UNL     1      -9.007   5.653  65.901  1.00  0.00    -0.160 C  
HETATM   19  C   UNL     1     -10.485   5.191  65.862  1.00  0.00    -0.172 C  
HETATM   20  C   UNL     1     -10.832   4.025  65.015  1.00  0.00     0.013 C  
HETATM   21  C   UNL     1     -10.169   4.162  63.631  1.00  0.00    -0.069 C  
HETATM   22  C   UNL     1     -10.795   3.611  62.593  1.00  0.00    -0.129 C  
HETATM   23  C   UNL     1     -10.813   2.170  62.969  1.00  0.00    -0.222 C  
HETATM   24  O   UNL     1     -11.806   1.498  62.777  1.00  0.00    -0.239 OA 
HETATM   25  C   UNL     1      -9.500   1.651  63.632  1.00  0.00    -0.110 C  
HETATM   26  C   UNL     1      -8.450   2.727  64.242  1.00  0.00    -0.086 C  
HETATM   27  C   UNL     1      -8.633   4.200  63.695  1.00  0.00    -0.105 C  
HETATM   28  C   UNL     1      -7.896   4.203  62.346  1.00  0.00    -0.061 C  
HETATM   29  C   UNL     1      -8.391   5.601  64.470  1.00  0.00    -0.108 C  
HETATM   30  C   UNL     1      -7.120   6.537  64.455  1.00  0.00    -0.060 C  
HETATM   31  C   UNL     1      -7.469   8.096  64.900  1.00  0.00    -0.092 C  
HETATM   32  C   UNL     1      -8.055   8.236  66.401  1.00  0.00    -0.105 C  
HETATM   33  C   UNL     1      -6.809   8.234  67.290  1.00  0.00    -0.070 C  
ENDBRANCH  13  14
ENDBRANCH  11  13
ENDBRANCH  10  11
ENDBRANCH   9  10
ENDBRANCH   8   9
ENDBRANCH   7   8
ENDBRANCH   6   7
ENDBRANCH   5   6
ENDBRANCH   4   5
ENDBRANCH   3   4
ENDBRANCH   2   3
TORSDOF 11
ENDMDL
MODEL      195
REMARK 921   NORMALIZED FREE ENERGY PREDICTED BY IDOCK:   -1.57 KCAL/MOL
REMARK 922        TOTAL FREE ENERGY PREDICTED BY IDOCK:   -4.77 KCAL/MOL
REMARK 923 INTER-LIGAND FREE ENERGY PREDICTED BY IDOCK:   -5.82 KCAL/MOL
REMARK 924 INTRA-LIGAND FREE ENERGY PREDICTED BY IDOCK:    1.05 KCAL/MOL
REMARK 927      BINDING AFFINITY PREDICTED BY RF-SCORE:    0.00 PKD
ROOT
HETATM    1  C   UNL     1      -8.662   4.276  73.874  1.00  0.00    -0.097 C  
HETATM    2  C   UNL     1      -8.294   2.819  73.742  1.00  0.00    -0.072 C  
ENDROOT
BRANCH   2   3
HETATM    3  C   UNL     1      -8.542   2.286  72.312  1.00  0.00    -0.079 C  
BRANCH   3   4
HETATM    4  C   UNL     1      -7.235   1.856  71.628  1.00  0.00    -0.031 C  
BRANCH   4   5
HETATM    5  C   UNL     1      -6.036   2.688  72.098  1.00  0.00    -0.009 C  
BRANCH   5   6
HETATM    6  C   UNL     1      -5.146   3.141  70.929  1.00  0.00    -0.004 C  
BRANCH   6   7
HETATM    7  C   UNL     1      -5.792   4.312  70.172  1.00  0.00    -0.017 C  
BRANCH   7   8
HETATM    8  C   UNL     1      -6.103   5.544  71.031  1.00  0.00    -0.029 C  
BRANCH   8   9
HETATM    9  C   UNL     1      -7.383   6.286  70.684  1.00  0.00    -0.082 C  
BRANCH   9  10
HETATM   10  C   UNL     1      -8.149   6.842  71.879  1.00  0.00    -0.100 C  
BRANCH  10  11
HETATM   11  C   UNL     1      -9.683   6.727  72.109  1.00  0.00    -0.149 C  
HETATM   12  O   UNL     1     -10.088   6.752  73.275  1.00  0.00    -0.181 OA 
BRANCH  11  13
HETATM   13  O   UNL     1     -10.521   6.390  71.051  1.00  0.00    -0.212 OA 
BRANCH  13  14
HETATM   14  C   UNL     1     -11.690   7.353  70.767  1.00  0.00    -0.276 C  
HETATM   15  C   UNL     1     -11.849   7.062  69.270  1.00  0.00     0.421 C  
HETATM   16  C   UNL     1     -10.557   7.746  68.811  1.00  0.00    -0.161 C  
HETATM   17  C   UNL     1     -10.932   9.142  69.236  1.00  0.00    -0.081 C  
HETATM   18  C   UNL     1     -10.436  10.325  68.406  1.00  0.00    -0.228 C  
HETATM   19  C   UNL     1     -10.427   9.749  66.969  1.00  0.00    -0.295 C  
HETATM   20  C   UNL     1     -10.518  10.698  65.833  1.00  0.00    -0.243 C  
HETATM   21  C   UNL     1     -11.627  11.734  66.098  1.00  0.00    -0.215 C  
HETATM   22  C   UNL     1     -12.259  12.242  65.043  1.00  0.00    -0.374 C  
HETATM   23  C   UNL     1     -11.151  12.912  64.309  1.00  0.00    -0.378 C  
HETATM   24  O   UNL     1     -11.078  12.834  63.100  1.00  0.00    -0.258 OA 
HETATM   25  C   UNL     1     -10.126  13.663  65.215  1.00  0.00    -0.297 C  
HETATM   26  C   UNL     1     -10.074  13.311  66.799  1.00  0.00    -0.258 C  
HETATM   27  C   UNL     1     -11.371  12.591  67.350  1.00  0.00    -0.371 C  
HETATM   28  C   UNL     1     -12.365  13.733  67.607  1.00  0.00    -0.060 C  
HETATM   29  C   UNL     1     -11.484  11.473  68.517  1.00  0.00    -0.354 C  
HETATM   30  C   UNL     1     -11.832  11.666  70.045  1.00  0.00    -0.435 C  
HETATM   31  C   UNL     1     -12.391  10.275  70.753  1.00  0.00    -0.445 C  
HETATM   32  C   UNL     1     -11.329   9.055  70.733  1.00  0.00    -0.329 C  
HETATM   33  C   UNL     1     -10.419   9.330  71.932  1.00  0.00    -0.125 C  
ENDBRANCH  13  14
ENDBRANCH  11  13
ENDBRANCH  10  11
ENDBRANCH   9  10
ENDBRANCH   8   9
ENDBRANCH   7   8
ENDBRANCH   6   7
ENDBRANCH   5   6
ENDBRANCH   4   5
ENDBRANCH   3   4
ENDBRANCH   2   3
TORSDOF 11
ENDMDL
MODEL      196
REMARK 921   NORMALIZED FREE ENERGY PREDICTED BY IDOCK:   -1.57 KCAL/MOL
REMARK 922        TOTAL FREE ENERGY PREDICTED BY IDOCK:   -4.77 KCAL/MOL
REMARK 923 INTER-LIGAND FREE ENERGY PREDICTED BY IDOCK:   -4.45 KCAL/MOL
REMARK 924 INTRA-LIGAND FREE ENERGY PREDICTED BY IDOCK:   -0.31 KCAL/MOL
REMARK 927      BINDING AFFINITY PREDICTED BY RF-SCORE:    0.00 PKD
ROOT
HETATM    1  C   UNL     1     -11.015  15.361  67.853  1.00  0.00    -0.310 C  
HETATM    2  C   UNL     1     -12.082  14.297  67.788  1.00  0.00    -0.316 C  
ENDROOT
BRANCH   2   3
HETATM    3  C   UNL     1     -12.322  13.803  66.343  1.00  0.00    -0.460 C  
BRANCH   3   4
HETATM    4  C   UNL     1     -11.031  13.270  65.701  1.00  0.00    -0.292 C  
BRANCH   4   5
HETATM    5  C   UNL     1     -10.909  11.747  65.827  1.00  0.00    -0.341 C  
BRANCH   5   6
HETATM    6  C   UNL     1     -10.000  11.329  66.995  1.00  0.00    -0.226 C  
BRANCH   6   7
HETATM    7  C   UNL     1      -8.557  11.802  66.761  1.00  0.00    -0.185 C  
BRANCH   7   8
HETATM    8  C   UNL     1      -7.986  12.705  67.861  1.00  0.00    -0.156 C  
BRANCH   8   9
HETATM    9  C   UNL     1      -6.508  13.038  67.743  1.00  0.00    -0.148 C  
BRANCH   9  10
HETATM   10  C   UNL     1      -5.642  12.543  68.897  1.00  0.00    -0.063 C  
BRANCH  10  11
HETATM   11  C   UNL     1      -6.109  11.607  70.047  1.00  0.00    -0.158 C  
HETATM   12  O   UNL     1      -5.682  11.840  71.181  1.00  0.00    -0.374 OA 
BRANCH  11  13
HETATM   13  O   UNL     1      -6.798  10.434  69.752  1.00  0.00    -0.095 OA 
BRANCH  13  14
HETATM   14  C   UNL     1      -6.074   9.112  70.073  1.00  0.00    -0.037 C  
HETATM   15  C   UNL     1      -6.931   8.181  69.207  1.00  0.00    -0.055 C  
HETATM   16  C   UNL     1      -8.197   8.243  70.068  1.00  0.00    -0.119 C  
HETATM   17  C   UNL     1      -7.607   7.609  71.301  1.00  0.00    -0.080 C  
HETATM   18  C   UNL     1      -8.499   6.732  72.179  1.00  0.00    -0.110 C  
HETATM   19  C   UNL     1      -9.451   6.078  71.148  1.00  0.00    -0.182 C  
HETATM   20  C   UNL     1     -10.099   4.794  71.508  1.00  0.00    -0.260 C  
HETATM   21  C   UNL     1      -9.062   3.832  72.118  1.00  0.00    -0.157 C  
HETATM   22  C   UNL     1      -9.256   2.527  71.943  1.00  0.00    -0.159 C  
HETATM   23  C   UNL     1     -10.561   2.312  72.627  1.00  0.00    -0.095 C  
HETATM   24  O   UNL     1     -11.403   1.591  72.131  1.00  0.00     0.310 OA 
HETATM   25  C   UNL     1     -10.736   3.095  73.964  1.00  0.00    -0.279 C  
HETATM   26  C   UNL     1      -9.754   4.351  74.272  1.00  0.00    -0.153 C  
HETATM   27  C   UNL     1      -8.426   4.367  73.413  1.00  0.00    -0.097 C  
HETATM   28  C   UNL     1      -7.479   3.409  74.152  1.00  0.00    -0.053 C  
HETATM   29  C   UNL     1      -7.605   5.644  72.849  1.00  0.00    -0.097 C  
HETATM   30  C   UNL     1      -6.345   6.366  73.468  1.00  0.00    -0.065 C  
HETATM   31  C   UNL     1      -5.489   7.233  72.343  1.00  0.00    -0.037 C  
HETATM   32  C   UNL     1      -6.335   8.425  71.650  1.00  0.00    -0.055 C  
HETATM   33  C   UNL     1      -6.242   9.580  72.649  1.00  0.00     0.454 C  
ENDBRANCH  13  14
ENDBRANCH  11  13
ENDBRANCH  10  11
ENDBRANCH   9  10
ENDBRANCH   8   9
ENDBRANCH   7   8
ENDBRANCH   6   7
ENDBRANCH   5   6
ENDBRANCH   4   5
ENDBRANCH   3   4
ENDBRANCH   2   3
TORSDOF 11
ENDMDL
MODEL      197
REMARK 921   NORMALIZED FREE ENERGY PREDICTED BY IDOCK:   -1.52 KCAL/MOL
REMARK 922        TOTAL FREE ENERGY PREDICTED BY IDOCK:   -4.69 KCAL/MOL
REMARK 923 INTER-LIGAND FREE ENERGY PREDICTED BY IDOCK:   -3.43 KCAL/MOL
REMARK 924 INTRA-LIGAND FREE ENERGY PREDICTED BY IDOCK:   -1.26 KCAL/MOL
REMARK 927      BINDING AFFINITY PREDICTED BY RF-SCORE:    0.00 PKD
ROOT
HETATM    1  C   UNL     1      -6.407  17.106  70.465  1.00  0.00     0.815 C  
HETATM    2  C   UNL     1      -6.240  18.455  69.812  1.00  0.00    -0.190 C  
ENDROOT
BRANCH   2   3
HETATM    3  C   UNL     1      -6.654  18.434  68.323  1.00  0.00    -0.224 C  
BRANCH   3   4
HETATM    4  C   UNL     1      -6.582  17.018  67.730  1.00  0.00    -0.160 C  
BRANCH   4   5
HETATM    5  C   UNL     1      -7.145  16.958  66.306  1.00  0.00    -0.170 C  
BRANCH   5   6
HETATM    6  C   UNL     1      -8.270  15.919  66.166  1.00  0.00     0.037 C  
BRANCH   6   7
HETATM    7  C   UNL     1      -9.426  16.232  67.130  1.00  0.00    -0.231 C  
BRANCH   7   8
HETATM    8  C   UNL     1     -10.789  16.439  66.458  1.00  0.00    -0.073 C  
BRANCH   8   9
HETATM    9  C   UNL     1     -11.006  15.685  65.156  1.00  0.00    -0.411 C  
BRANCH   9  10
HETATM   10  C   UNL     1     -11.746  14.360  65.295  1.00  0.00    -0.364 C  
BRANCH  10  11
HETATM   11  C   UNL     1     -11.379  13.033  64.573  1.00  0.00    -0.339 C  
HETATM   12  O   UNL     1     -11.624  12.954  63.365  1.00  0.00    -0.498 OA 
BRANCH  11  13
HETATM   13  O   UNL     1     -10.998  11.919  65.316  1.00  0.00    -0.291 OA 
BRANCH  13  14
HETATM   14  C   UNL     1      -9.990  12.166  66.455  1.00  0.00    -0.213 C  
HETATM   15  C   UNL     1      -8.846  11.295  65.923  1.00  0.00    -0.174 C  
HETATM   16  C   UNL     1      -9.514   9.940  66.174  1.00  0.00    -0.254 C  
HETATM   17  C   UNL     1      -9.590  10.053  67.675  1.00  0.00    -0.171 C  
HETATM   18  C   UNL     1      -9.444   8.787  68.520  1.00  0.00    -0.149 C  
HETATM   19  C   UNL     1      -8.451   7.938  67.688  1.00  0.00    -0.127 C  
HETATM   20  C   UNL     1      -7.656   6.902  68.390  1.00  0.00    -0.111 C  
HETATM   21  C   UNL     1      -7.068   7.478  69.691  1.00  0.00    -0.064 C  
HETATM   22  C   UNL     1      -5.912   6.976  70.118  1.00  0.00    -0.024 C  
HETATM   23  C   UNL     1      -6.258   5.547  70.348  1.00  0.00    -0.026 C  
HETATM   24  O   UNL     1      -5.489   4.667  70.018  1.00  0.00    -0.007 OA 
HETATM   25  C   UNL     1      -7.658   5.309  70.995  1.00  0.00    -0.088 C  
HETATM   26  C   UNL     1      -8.753   6.506  70.958  1.00  0.00    -0.138 C  
HETATM   27  C   UNL     1      -8.143   7.941  70.690  1.00  0.00    -0.102 C  
HETATM   28  C   UNL     1      -7.639   8.406  72.065  1.00  0.00    -0.152 C  
HETATM   29  C   UNL     1      -8.801   9.182  69.883  1.00  0.00    -0.176 C  
HETATM   30  C   UNL     1      -9.589  10.427  70.450  1.00  0.00     0.601 C  
HETATM   31  C   UNL     1      -9.597  11.709  69.398  1.00  0.00     0.581 C  
HETATM   32  C   UNL     1     -10.308  11.393  67.980  1.00  0.00    -0.204 C  
HETATM   33  C   UNL     1     -11.801  11.580  68.261  1.00  0.00    -0.327 C  
ENDBRANCH  13  14
ENDBRANCH  11  13
ENDBRANCH  10  11
ENDBRANCH   9  10
ENDBRANCH   8   9
ENDBRANCH   7   8
ENDBRANCH   6   7
ENDBRANCH   5   6
ENDBRANCH   4   5
ENDBRANCH   3   4
ENDBRANCH   2   3
TORSDOF 11
ENDMDL
MODEL      198
REMARK 921   NORMALIZED FREE ENERGY PREDICTED BY IDOCK:   -1.52 KCAL/MOL
REMARK 922        TOTAL FREE ENERGY PREDICTED BY IDOCK:   -4.68 KCAL/MOL
REMARK 923 INTER-LIGAND FREE ENERGY PREDICTED BY IDOCK:   -3.66 KCAL/MOL
REMARK 924 INTRA-LIGAND FREE ENERGY PREDICTED BY IDOCK:   -1.02 KCAL/MOL
REMARK 927      BINDING AFFINITY PREDICTED BY RF-SCORE:    0.00 PKD
ROOT
HETATM    1  C   UNL     1      -6.223   9.941  70.973  1.00  0.00    -0.032 C  
HETATM    2  C   UNL     1      -5.407  10.991  71.684  1.00  0.00     0.133 C  
ENDROOT
BRANCH   2   3
HETATM    3  C   UNL     1      -5.171  12.238  70.801  1.00  0.00    -0.149 C  
BRANCH   3   4
HETATM    4  C   UNL     1      -6.259  12.390  69.726  1.00  0.00    -0.119 C  
BRANCH   4   5
HETATM    5  C   UNL     1      -6.230  13.774  69.065  1.00  0.00    -0.095 C  
BRANCH   5   6
HETATM    6  C   UNL     1      -7.063  13.821  67.774  1.00  0.00    -0.175 C  
BRANCH   6   7
HETATM    7  C   UNL     1      -8.233  14.807  67.915  1.00  0.00    -0.154 C  
BRANCH   7   8
HETATM    8  C   UNL     1      -9.561  14.324  67.318  1.00  0.00    -0.232 C  
BRANCH   8   9
HETATM    9  C   UNL     1      -9.813  12.827  67.391  1.00  0.00    -0.210 C  
BRANCH   9  10
HETATM   10  C   UNL     1     -10.292  12.191  66.090  1.00  0.00    -0.264 C  
BRANCH  10  11
HETATM   11  C   UNL     1     -10.268  10.672  65.758  1.00  0.00    -0.252 C  
HETATM   12  O   UNL     1     -10.360  10.346  64.571  1.00  0.00    -0.311 OA 
BRANCH  11  13
HETATM   13  O   UNL     1     -10.362   9.735  66.783  1.00  0.00    -0.234 OA 
BRANCH  13  14
HETATM   14  C   UNL     1     -10.252   8.254  66.372  1.00  0.00    -0.072 C  
HETATM   15  C   UNL     1     -10.860   7.634  67.636  1.00  0.00    -0.171 C  
HETATM   16  C   UNL     1      -9.692   7.947  68.575  1.00  0.00    -0.167 C  
HETATM   17  C   UNL     1      -8.665   7.096  67.873  1.00  0.00    -0.126 C  
HETATM   18  C   UNL     1      -7.583   6.407  68.705  1.00  0.00    -0.093 C  
HETATM   19  C   UNL     1      -8.323   6.091  70.028  1.00  0.00    -0.123 C  
HETATM   20  C   UNL     1      -7.808   4.987  70.872  1.00  0.00    -0.087 C  
HETATM   21  C   UNL     1      -7.503   3.754  70.002  1.00  0.00    -0.045 C  
HETATM   22  C   UNL     1      -7.625   2.556  70.569  1.00  0.00    -0.042 C  
HETATM   23  C   UNL     1      -6.617   2.625  71.662  1.00  0.00    -0.019 C  
HETATM   24  O   UNL     1      -6.872   2.177  72.762  1.00  0.00    -0.021 OA 
HETATM   25  C   UNL     1      -5.278   3.325  71.275  1.00  0.00    -0.004 C  
HETATM   26  C   UNL     1      -5.240   4.269  69.955  1.00  0.00    -0.004 C  
HETATM   27  C   UNL     1      -6.424   4.015  68.936  1.00  0.00    -0.040 C  
HETATM   28  C   UNL     1      -5.970   2.798  68.115  1.00  0.00    -0.024 C  
HETATM   29  C   UNL     1      -7.182   5.084  67.985  1.00  0.00    -0.067 C  
HETATM   30  C   UNL     1      -6.921   5.419  66.464  1.00  0.00    -0.064 C  
HETATM   31  C   UNL     1      -8.231   6.126  65.732  1.00  0.00    -0.138 C  
HETATM   32  C   UNL     1      -8.667   7.539  66.387  1.00  0.00    -0.158 C  
HETATM   33  C   UNL     1      -7.724   8.557  65.741  1.00  0.00    -0.098 C  
ENDBRANCH  13  14
ENDBRANCH  11  13
ENDBRANCH  10  11
ENDBRANCH   9  10
ENDBRANCH   8   9
ENDBRANCH   7   8
ENDBRANCH   6   7
ENDBRANCH   5   6
ENDBRANCH   4   5
ENDBRANCH   3   4
ENDBRANCH   2   3
TORSDOF 11
ENDMDL
MODEL      199
REMARK 921   NORMALIZED FREE ENERGY PREDICTED BY IDOCK:   -1.52 KCAL/MOL
REMARK 922        TOTAL FREE ENERGY PREDICTED BY IDOCK:   -4.67 KCAL/MOL
REMARK 923 INTER-LIGAND FREE ENERGY PREDICTED BY IDOCK:   -3.38 KCAL/MOL
REMARK 924 INTRA-LIGAND FREE ENERGY PREDICTED BY IDOCK:   -1.29 KCAL/MOL
REMARK 927      BINDING AFFINITY PREDICTED BY RF-SCORE:    0.00 PKD
ROOT
HETATM    1  C   UNL     1      -9.068  10.178  69.549  1.00  0.00    -0.213 C  
HETATM    2  C   UNL     1      -9.203  10.281  68.050  1.00  0.00    -0.138 C  
ENDROOT
BRANCH   2   3
HETATM    3  C   UNL     1      -7.887  10.735  67.379  1.00  0.00    -0.111 C  
BRANCH   3   4
HETATM    4  C   UNL     1      -7.761  10.193  65.946  1.00  0.00    -0.127 C  
BRANCH   4   5
HETATM    5  C   UNL     1      -7.372   8.710  65.921  1.00  0.00    -0.084 C  
BRANCH   5   6
HETATM    6  C   UNL     1      -8.236   7.897  64.943  1.00  0.00    -0.128 C  
BRANCH   6   7
HETATM    7  C   UNL     1      -7.410   6.788  64.274  1.00  0.00    -0.088 C  
BRANCH   7   8
HETATM    8  C   UNL     1      -8.030   6.198  63.002  1.00  0.00    -0.098 C  
BRANCH   8   9
HETATM    9  C   UNL     1      -7.645   4.763  62.682  1.00  0.00    -0.060 C  
BRANCH   9  10
HETATM   10  C   UNL     1      -7.767   3.788  63.849  1.00  0.00    -0.083 C  
BRANCH  10  11
HETATM   11  C   UNL     1      -9.070   3.469  64.634  1.00  0.00    -0.132 C  
HETATM   12  O   UNL     1      -9.815   2.599  64.174  1.00  0.00    -0.150 OA 
BRANCH  11  13
HETATM   13  O   UNL     1      -9.468   4.293  65.684  1.00  0.00    -0.150 OA 
BRANCH  13  14
HETATM   14  C   UNL     1      -9.551   3.638  67.076  1.00  0.00    -0.152 C  
HETATM   15  C   UNL     1     -10.295   4.767  67.800  1.00  0.00    -0.012 C  
HETATM   16  C   UNL     1      -9.135   5.767  67.821  1.00  0.00    -0.106 C  
HETATM   17  C   UNL     1      -8.209   4.951  68.686  1.00  0.00    -0.084 C  
HETATM   18  C   UNL     1      -7.272   5.674  69.654  1.00  0.00    -0.065 C  
HETATM   19  C   UNL     1      -8.106   6.910  70.072  1.00  0.00    -0.125 C  
HETATM   20  C   UNL     1      -7.789   7.565  71.364  1.00  0.00    -0.093 C  
HETATM   21  C   UNL     1      -7.624   6.504  72.467  1.00  0.00    -0.095 C  
HETATM   22  C   UNL     1      -7.938   6.857  73.711  1.00  0.00    -0.122 C  
HETATM   23  C   UNL     1      -6.979   7.965  73.973  1.00  0.00    -0.121 C  
HETATM   24  O   UNL     1      -7.341   8.967  74.554  1.00  0.00    -0.423 OA 
HETATM   25  C   UNL     1      -5.539   7.726  73.422  1.00  0.00    -0.045 C  
HETATM   26  C   UNL     1      -5.311   6.586  72.289  1.00  0.00    -0.032 C  
HETATM   27  C   UNL     1      -6.474   5.518  72.195  1.00  0.00    -0.056 C  
HETATM   28  C   UNL     1      -6.162   4.511  73.313  1.00  0.00    -0.033 C  
HETATM   29  C   UNL     1      -7.032   4.748  70.884  1.00  0.00    -0.037 C  
HETATM   30  C   UNL     1      -6.661   3.311  70.345  1.00  0.00    -0.033 C  
HETATM   31  C   UNL     1      -7.825   2.685  69.343  1.00  0.00    -0.049 C  
HETATM   32  C   UNL     1      -8.085   3.562  68.009  1.00  0.00    -0.082 C  
HETATM   33  C   UNL     1      -6.981   3.115  67.048  1.00  0.00    -0.053 C  
ENDBRANCH  13  14
ENDBRANCH  11  13
ENDBRANCH  10  11
ENDBRANCH   9  10
ENDBRANCH   8   9
ENDBRANCH   7   8
ENDBRANCH   6   7
ENDBRANCH   5   6
ENDBRANCH   4   5
ENDBRANCH   3   4
ENDBRANCH   2   3
TORSDOF 11
ENDMDL
MODEL      200
REMARK 921   NORMALIZED FREE ENERGY PREDICTED BY IDOCK:   -1.51 KCAL/MOL
REMARK 922        TOTAL FREE ENERGY PREDICTED BY IDOCK:   -4.66 KCAL/MOL
REMARK 923 INTER-LIGAND FREE ENERGY PREDICTED BY IDOCK:   -3.44 KCAL/MOL
REMARK 924 INTRA-LIGAND FREE ENERGY PREDICTED BY IDOCK:   -1.22 KCAL/MOL
REMARK 927      BINDING AFFINITY PREDICTED BY RF-SCORE:    0.00 PKD
ROOT
HETATM    1  C   UNL     1      -5.572  10.813  66.896  1.00  0.00    -0.057 C  
HETATM    2  C   UNL     1      -5.143   9.374  66.763  1.00  0.00    -0.034 C  
ENDROOT
BRANCH   2   3
HETATM    3  C   UNL     1      -6.350   8.421  66.603  1.00  0.00    -0.055 C  
BRANCH   3   4
HETATM    4  C   UNL     1      -6.104   7.068  67.291  1.00  0.00    -0.040 C  
BRANCH   4   5
HETATM    5  C   UNL     1      -5.884   7.219  68.801  1.00  0.00    -0.023 C  
BRANCH   5   6
HETATM    6  C   UNL     1      -6.602   6.124  69.608  1.00  0.00    -0.047 C  
BRANCH   6   7
HETATM    7  C   UNL     1      -7.878   6.675  70.261  1.00  0.00    -0.107 C  
BRANCH   7   8
HETATM    8  C   UNL     1      -8.949   5.623  70.575  1.00  0.00    -0.150 C  
BRANCH   8   9
HETATM    9  C   UNL     1     -10.178   5.642  69.681  1.00  0.00    -0.321 C  
BRANCH   9  10
HETATM   10  C   UNL     1     -10.433   6.964  68.964  1.00  0.00    -0.223 C  
BRANCH  10  11
HETATM   11  C   UNL     1     -11.364   8.104  69.464  1.00  0.00     0.291 C  
HETATM   12  O   UNL     1     -12.328   7.787  70.166  1.00  0.00     0.396 OA 
BRANCH  11  13
HETATM   13  O   UNL     1     -11.225   9.391  68.950  1.00  0.00    -0.035 OA 
BRANCH  13  14
HETATM   14  C   UNL     1     -10.265  10.331  69.703  1.00  0.00    -0.235 C  
HETATM   15  C   UNL     1     -11.302  11.345  70.199  1.00  0.00    -0.207 C  
HETATM   16  C   UNL     1     -11.606  11.978  68.838  1.00  0.00    -0.377 C  
HETATM   17  C   UNL     1     -10.230  12.539  68.589  1.00  0.00    -0.166 C  
HETATM   18  C   UNL     1     -10.096  13.858  67.828  1.00  0.00    -0.241 C  
HETATM   19  C   UNL     1     -11.363  14.632  68.267  1.00  0.00    -0.317 C  
HETATM   20  C   UNL     1     -11.344  16.112  68.180  1.00  0.00    -0.270 C  
HETATM   21  C   UNL     1     -10.028  16.660  68.763  1.00  0.00    -0.265 C  
HETATM   22  C   UNL     1     -10.058  17.867  69.321  1.00  0.00    -0.115 C  
HETATM   23  C   UNL     1     -10.464  18.729  68.176  1.00  0.00    -0.315 C  
HETATM   24  O   UNL     1     -11.272  19.621  68.335  1.00  0.00     0.531 OA 
HETATM   25  C   UNL     1      -9.798  18.363  66.814  1.00  0.00    -0.351 C  
HETATM   26  C   UNL     1      -9.116  16.901  66.642  1.00  0.00    -0.280 C  
HETATM   27  C   UNL     1      -8.780  16.173  68.006  1.00  0.00    -0.176 C  
HETATM   28  C   UNL     1      -7.439  16.779  68.445  1.00  0.00    -0.202 C  
HETATM   29  C   UNL     1      -8.817  14.588  68.339  1.00  0.00    -0.180 C  
HETATM   30  C   UNL     1      -7.630  13.546  68.337  1.00  0.00    -0.133 C  
HETATM   31  C   UNL     1      -7.958  12.203  69.253  1.00  0.00     0.489 C  
HETATM   32  C   UNL     1      -9.239  11.356  68.743  1.00  0.00    -0.108 C  
HETATM   33  C   UNL     1      -8.684  10.483  67.615  1.00  0.00    -0.121 C  
ENDBRANCH  13  14
ENDBRANCH  11  13
ENDBRANCH  10  11
ENDBRANCH   9  10
ENDBRANCH   8   9
ENDBRANCH   7   8
ENDBRANCH   6   7
ENDBRANCH   5   6
ENDBRANCH   4   5
ENDBRANCH   3   4
ENDBRANCH   2   3
TORSDOF 11
ENDMDL
MODEL      201
REMARK 921   NORMALIZED FREE ENERGY PREDICTED BY IDOCK:   -1.31 KCAL/MOL
REMARK 922        TOTAL FREE ENERGY PREDICTED BY IDOCK:   -4.34 KCAL/MOL
REMARK 923 INTER-LIGAND FREE ENERGY PREDICTED BY IDOCK:   -4.00 KCAL/MOL
REMARK 924 INTRA-LIGAND FREE ENERGY PREDICTED BY IDOCK:   -0.34 KCAL/MOL
REMARK 927      BINDING AFFINITY PREDICTED BY RF-SCORE:    0.00 PKD
ROOT
HETATM    1  C   UNL     1      -5.989  13.235  67.776  1.00  0.00    -0.145 C  
HETATM    2  C   UNL     1      -6.783  12.359  68.713  1.00  0.00    -0.092 C  
ENDROOT
BRANCH   2   3
HETATM    3  C   UNL     1      -5.907  11.777  69.846  1.00  0.00    -0.135 C  
BRANCH   3   4
HETATM    4  C   UNL     1      -6.524  10.505  70.449  1.00  0.00    -0.117 C  
BRANCH   4   5
HETATM    5  C   UNL     1      -6.577   9.353  69.439  1.00  0.00    -0.044 C  
BRANCH   5   6
HETATM    6  C   UNL     1      -5.861   9.697  68.123  1.00  0.00    -0.040 C  
BRANCH   6   7
HETATM    7  C   UNL     1      -5.899   8.507  67.152  1.00  0.00    -0.043 C  
BRANCH   7   8
HETATM    8  C   UNL     1      -6.322   8.854  65.720  1.00  0.00    -0.056 C  
BRANCH   8   9
HETATM    9  C   UNL     1      -7.723   8.420  65.320  1.00  0.00    -0.098 C  
BRANCH   9  10
HETATM   10  C   UNL     1      -8.825   9.422  65.646  1.00  0.00    -0.208 C  
BRANCH  10  11
HETATM   11  C   UNL     1      -9.628  10.259  64.610  1.00  0.00    -0.312 C  
HETATM   12  O   UNL     1      -9.272  10.200  63.430  1.00  0.00    -0.254 OA 
BRANCH  11  13
HETATM   13  O   UNL     1     -10.561  11.195  65.047  1.00  0.00    -0.299 OA 
BRANCH  13  14
HETATM   14  C   UNL     1     -10.665  12.495  64.226  1.00  0.00    -0.369 C  
HETATM   15  C   UNL     1      -9.193  12.918  64.307  1.00  0.00     1.352 C  
HETATM   16  C   UNL     1      -9.192  13.300  65.790  1.00  0.00     0.284 C  
HETATM   17  C   UNL     1     -10.180  14.433  65.685  1.00  0.00    -0.371 C  
HETATM   18  C   UNL     1     -10.021  15.641  66.607  1.00  0.00    -0.269 C  
HETATM   19  C   UNL     1      -8.484  15.743  66.767  1.00  0.00    -0.304 C  
HETATM   20  C   UNL     1      -7.904  17.057  67.137  1.00  0.00    -0.203 C  
HETATM   21  C   UNL     1      -8.532  18.172  66.280  1.00  0.00    -0.213 C  
HETATM   22  C   UNL     1      -7.782  19.239  66.015  1.00  0.00    -0.293 C  
HETATM   23  C   UNL     1      -7.518  19.780  67.376  1.00  0.00    -0.263 C  
HETATM   24  O   UNL     1      -6.415  20.195  67.670  1.00  0.00    -0.214 OA 
HETATM   25  C   UNL     1      -8.739  19.733  68.346  1.00  0.00    -0.296 C  
HETATM   26  C   UNL     1      -9.986  18.756  67.992  1.00  0.00    -0.401 C  
HETATM   27  C   UNL     1     -10.052  18.306  66.477  1.00  0.00    -0.396 C  
HETATM   28  C   UNL     1     -10.730  19.481  65.756  1.00  0.00    -0.490 C  
HETATM   29  C   UNL     1     -10.567  16.897  65.865  1.00  0.00    -0.239 C  
HETATM   30  C   UNL     1     -11.985  16.533  65.273  1.00  0.00     1.521 C  
HETATM   31  C   UNL     1     -11.937  15.217  64.266  1.00  0.00    -0.276 C  
HETATM   32  C   UNL     1     -11.438  13.856  64.985  1.00  0.00    -0.343 C  
HETATM   33  C   UNL     1     -12.693  13.316  65.673  1.00  0.00    -0.373 C  
ENDBRANCH  13  14
ENDBRANCH  11  13
ENDBRANCH  10  11
ENDBRANCH   9  10
ENDBRANCH   8   9
ENDBRANCH   7   8
ENDBRANCH   6   7
ENDBRANCH   5   6
ENDBRANCH   4   5
ENDBRANCH   3   4
ENDBRANCH   2   3
TORSDOF 11
ENDMDL
MODEL      202
REMARK 921   NORMALIZED FREE ENERGY PREDICTED BY IDOCK:   -1.14 KCAL/MOL
REMARK 922        TOTAL FREE ENERGY PREDICTED BY IDOCK:   -4.06 KCAL/MOL
REMARK 923 INTER-LIGAND FREE ENERGY PREDICTED BY IDOCK:   -8.24 KCAL/MOL
REMARK 924 INTRA-LIGAND FREE ENERGY PREDICTED BY IDOCK:    4.18 KCAL/MOL
REMARK 927      BINDING AFFINITY PREDICTED BY RF-SCORE:    0.00 PKD
ROOT
HETATM    1  C   UNL     1     -13.295  15.349  69.726  1.00  0.00     0.809 C  
HETATM    2  C   UNL     1     -11.958  15.956  70.074  1.00  0.00    -0.297 C  
ENDROOT
BRANCH   2   3
HETATM    3  C   UNL     1     -11.278  15.223  71.253  1.00  0.00    -0.375 C  
BRANCH   3   4
HETATM    4  C   UNL     1     -11.892  15.623  72.604  1.00  0.00    -0.590 C  
BRANCH   4   5
HETATM    5  C   UNL     1     -12.575  14.440  73.301  1.00  0.00    -0.337 C  
BRANCH   5   6
HETATM    6  C   UNL     1     -13.411  13.592  72.328  1.00  0.00    -0.622 C  
BRANCH   6   7
HETATM    7  C   UNL     1     -12.680  12.289  71.972  1.00  0.00    -0.112 C  
BRANCH   7   8
HETATM    8  C   UNL     1     -13.518  11.014  72.128  1.00  0.00    -0.200 C  
BRANCH   8   9
HETATM    9  C   UNL     1     -13.132   9.854  71.224  1.00  0.00    -0.487 C  
BRANCH   9  10
HETATM   10  C   UNL     1     -12.314   8.758  71.898  1.00  0.00    -0.429 C  
BRANCH  10  11
HETATM   11  C   UNL     1     -11.521   7.637  71.170  1.00  0.00    -0.275 C  
HETATM   12  O   UNL     1     -12.156   6.870  70.440  1.00  0.00    -0.318 OA 
BRANCH  11  13
HETATM   13  O   UNL     1     -10.194   7.390  71.511  1.00  0.00    -0.193 OA 
BRANCH  13  14
HETATM   14  C   UNL     1      -9.123   7.933  70.545  1.00  0.00    -0.154 C  
HETATM   15  C   UNL     1      -9.179   9.406  70.969  1.00  0.00    -0.181 C  
HETATM   16  C   UNL     1     -10.553   9.718  70.369  1.00  0.00    -0.365 C  
HETATM   17  C   UNL     1     -10.179   9.480  68.929  1.00  0.00    -0.213 C  
HETATM   18  C   UNL     1     -10.845  10.324  67.843  1.00  0.00    -0.337 C  
HETATM   19  C   UNL     1     -11.045  11.687  68.550  1.00  0.00    -0.286 C  
HETATM   20  C   UNL     1     -11.166  12.902  67.709  1.00  0.00    -0.319 C  
HETATM   21  C   UNL     1     -10.075  12.902  66.621  1.00  0.00    -0.247 C  
HETATM   22  C   UNL     1      -9.632  14.082  66.196  1.00  0.00    -0.263 C  
HETATM   23  C   UNL     1     -10.866  14.693  65.629  1.00  0.00    -0.331 C  
HETATM   24  O   UNL     1     -11.116  15.865  65.821  1.00  0.00    -0.216 OA 
HETATM   25  C   UNL     1     -11.773  13.709  64.827  1.00  0.00    -0.399 C  
HETATM   26  C   UNL     1     -11.571  12.112  65.032  1.00  0.00    -0.365 C  
HETATM   27  C   UNL     1     -10.177  11.705  65.659  1.00  0.00    -0.284 C  
HETATM   28  C   UNL     1      -9.206  11.705  64.469  1.00  0.00     0.138 C  
HETATM   29  C   UNL     1      -9.842  10.476  66.660  1.00  0.00    -0.246 C  
HETATM   30  C   UNL     1      -9.276   9.043  66.316  1.00  0.00    -0.258 C  
HETATM   31  C   UNL     1      -8.559   8.310  67.618  1.00  0.00    -0.130 C  
HETATM   32  C   UNL     1      -9.558   8.060  68.865  1.00  0.00    -0.152 C  
HETATM   33  C   UNL     1     -10.288   6.764  68.506  1.00  0.00    -0.210 C  
ENDBRANCH  13  14
ENDBRANCH  11  13
ENDBRANCH  10  11
ENDBRANCH   9  10
ENDBRANCH   8   9
ENDBRANCH   7   8
ENDBRANCH   6   7
ENDBRANCH   5   6
ENDBRANCH   4   5
ENDBRANCH   3   4
ENDBRANCH   2   3
TORSDOF 11
ENDMDL
MODEL      203
REMARK 921   NORMALIZED FREE ENERGY PREDICTED BY IDOCK:   -1.09 KCAL/MOL
REMARK 922        TOTAL FREE ENERGY PREDICTED BY IDOCK:   -3.97 KCAL/MOL
REMARK 923 INTER-LIGAND FREE ENERGY PREDICTED BY IDOCK:   -2.78 KCAL/MOL
REMARK 924 INTRA-LIGAND FREE ENERGY PREDICTED BY IDOCK:   -1.19 KCAL/MOL
REMARK 927      BINDING AFFINITY PREDICTED BY RF-SCORE:    0.00 PKD
ROOT
HETATM    1  C   UNL     1      -9.976  12.201  64.923  1.00  0.00    -0.235 C  
HETATM    2  C   UNL     1     -10.481  13.289  64.008  1.00  0.00    -0.160 C  
ENDROOT
BRANCH   2   3
HETATM    3  C   UNL     1     -11.410  14.282  64.745  1.00  0.00    -0.382 C  
BRANCH   3   4
HETATM    4  C   UNL     1     -11.817  13.761  66.132  1.00  0.00    -0.424 C  
BRANCH   4   5
HETATM    5  C   UNL     1     -11.630  14.819  67.226  1.00  0.00    -0.385 C  
BRANCH   5   6
HETATM    6  C   UNL     1     -10.450  14.494  68.157  1.00  0.00    -0.239 C  
BRANCH   6   7
HETATM    7  C   UNL     1      -9.162  15.170  67.665  1.00  0.00    -0.181 C  
BRANCH   7   8
HETATM    8  C   UNL     1      -8.744  16.417  68.454  1.00  0.00    -0.213 C  
BRANCH   8   9
HETATM    9  C   UNL     1      -8.017  16.158  69.764  1.00  0.00     0.386 C  
BRANCH   9  10
HETATM   10  C   UNL     1      -6.590  15.643  69.617  1.00  0.00    -0.181 C  
BRANCH  10  11
HETATM   11  C   UNL     1      -5.956  14.476  70.427  1.00  0.00    -0.165 C  
HETATM   12  O   UNL     1      -5.299  14.769  71.429  1.00  0.00    -0.137 OA 
BRANCH  11  13
HETATM   13  O   UNL     1      -5.957  13.186  69.904  1.00  0.00    -0.121 OA 
BRANCH  13  14
HETATM   14  C   UNL     1      -7.049  12.867  68.865  1.00  0.00    -0.063 C  
HETATM   15  C   UNL     1      -7.835  11.839  69.688  1.00  0.00     0.838 C  
HETATM   16  C   UNL     1      -6.791  10.720  69.630  1.00  0.00    -0.133 C  
HETATM   17  C   UNL     1      -6.833  10.513  68.138  1.00  0.00    -0.072 C  
HETATM   18  C   UNL     1      -6.621   9.105  67.580  1.00  0.00    -0.064 C  
HETATM   19  C   UNL     1      -7.254   8.210  68.673  1.00  0.00    -0.084 C  
HETATM   20  C   UNL     1      -7.721   6.857  68.287  1.00  0.00    -0.113 C  
HETATM   21  C   UNL     1      -8.527   6.931  66.976  1.00  0.00    -0.121 C  
HETATM   22  C   UNL     1      -9.489   6.030  66.796  1.00  0.00    -0.158 C  
HETATM   23  C   UNL     1      -8.726   4.751  66.811  1.00  0.00    -0.107 C  
HETATM   24  O   UNL     1      -9.165   3.781  67.394  1.00  0.00    -0.153 OA 
HETATM   25  C   UNL     1      -7.359   4.797  66.062  1.00  0.00    -0.077 C  
HETATM   26  C   UNL     1      -6.691   6.240  65.735  1.00  0.00    -0.048 C  
HETATM   27  C   UNL     1      -7.704   7.454  65.786  1.00  0.00    -0.102 C  
HETATM   28  C   UNL     1      -8.400   7.433  64.417  1.00  0.00     0.087 C  
HETATM   29  C   UNL     1      -7.425   8.980  66.252  1.00  0.00    -0.092 C  
HETATM   30  C   UNL     1      -7.096  10.244  65.364  1.00  0.00    -0.139 C  
HETATM   31  C   UNL     1      -7.434  11.672  66.135  1.00  0.00     0.308 C  
HETATM   32  C   UNL     1      -6.586  11.902  67.494  1.00  0.00    -0.110 C  
HETATM   33  C   UNL     1      -5.243  12.452  67.008  1.00  0.00     0.064 C  
ENDBRANCH  13  14
ENDBRANCH  11  13
ENDBRANCH  10  11
ENDBRANCH   9  10
ENDBRANCH   8   9
ENDBRANCH   7   8
ENDBRANCH   6   7
ENDBRANCH   5   6
ENDBRANCH   4   5
ENDBRANCH   3   4
ENDBRANCH   2   3
TORSDOF 11
ENDMDL
MODEL      204
REMARK 921   NORMALIZED FREE ENERGY PREDICTED BY IDOCK:   -1.00 KCAL/MOL
REMARK 922        TOTAL FREE ENERGY PREDICTED BY IDOCK:   -3.82 KCAL/MOL
REMARK 923 INTER-LIGAND FREE ENERGY PREDICTED BY IDOCK:   -2.56 KCAL/MOL
REMARK 924 INTRA-LIGAND FREE ENERGY PREDICTED BY IDOCK:   -1.26 KCAL/MOL
REMARK 927      BINDING AFFINITY PREDICTED BY RF-SCORE:    0.00 PKD
ROOT
HETATM    1  C   UNL     1      -8.355   6.068  65.315  1.00  0.00    -0.148 C  
HETATM    2  C   UNL     1      -7.998   4.702  64.785  1.00  0.00    -0.096 C  
ENDROOT
BRANCH   2   3
HETATM    3  C   UNL     1      -7.305   3.827  65.856  1.00  0.00    -0.072 C  
BRANCH   3   4
HETATM    4  C   UNL     1      -7.816   2.379  65.828  1.00  0.00    -0.081 C  
BRANCH   4   5
HETATM    5  C   UNL     1      -8.728   2.063  67.019  1.00  0.00    -0.133 C  
BRANCH   5   6
HETATM    6  C   UNL     1      -8.728   3.188  68.068  1.00  0.00    -0.135 C  
BRANCH   6   7
HETATM    7  C   UNL     1      -8.380   2.639  69.459  1.00  0.00    -0.082 C  
BRANCH   7   8
HETATM    8  C   UNL     1      -7.835   3.678  70.447  1.00  0.00    -0.047 C  
BRANCH   8   9
HETATM    9  C   UNL     1      -8.670   3.904  71.697  1.00  0.00    -0.129 C  
BRANCH   9  10
HETATM   10  C   UNL     1     -10.173   4.003  71.458  1.00  0.00    -0.085 C  
BRANCH  10  11
HETATM   11  C   UNL     1     -11.195   4.727  72.380  1.00  0.00     0.084 C  
HETATM   12  O   UNL     1     -11.990   4.025  73.012  1.00  0.00     0.160 OA 
BRANCH  11  13
HETATM   13  O   UNL     1     -11.335   6.110  72.311  1.00  0.00    -0.271 OA 
BRANCH  13  14
HETATM   14  C   UNL     1     -10.206   6.880  71.601  1.00  0.00    -0.191 C  
HETATM   15  C   UNL     1     -10.138   8.084  72.548  1.00  0.00    -0.346 C  
HETATM   16  C   UNL     1     -11.469   8.719  72.135  1.00  0.00    -0.421 C  
HETATM   17  C   UNL     1     -11.095   9.007  70.704  1.00  0.00    -0.314 C  
HETATM   18  C   UNL     1     -11.665  10.253  70.027  1.00  0.00    -0.330 C  
HETATM   19  C   UNL     1     -11.756  11.262  71.199  1.00  0.00     0.329 C  
HETATM   20  C   UNL     1     -11.755  12.709  70.878  1.00  0.00     0.590 C  
HETATM   21  C   UNL     1     -10.652  13.022  69.850  1.00  0.00     0.986 C  
HETATM   22  C   UNL     1     -10.099  14.232  69.891  1.00  0.00     0.593 C  
HETATM   23  C   UNL     1     -11.265  15.117  69.618  1.00  0.00    -0.272 C  
HETATM   24  O   UNL     1     -11.413  16.148  70.242  1.00  0.00    -0.346 OA 
HETATM   25  C   UNL     1     -12.242  14.590  68.522  1.00  0.00    -0.164 C  
HETATM   26  C   UNL     1     -12.186  13.022  68.108  1.00  0.00    -0.037 C  
HETATM   27  C   UNL     1     -10.843  12.289  68.511  1.00  0.00    -0.267 C  
HETATM   28  C   UNL     1      -9.856  12.650  67.391  1.00  0.00    -0.205 C  
HETATM   29  C   UNL     1     -10.634  10.750  68.970  1.00  0.00    -0.250 C  
HETATM   30  C   UNL     1     -10.192   9.507  68.102  1.00  0.00    -0.231 C  
HETATM   31  C   UNL     1      -9.563   8.278  69.020  1.00  0.00    -0.156 C  
HETATM   32  C   UNL     1     -10.601   7.667  70.100  1.00  0.00    -0.239 C  
HETATM   33  C   UNL     1     -11.436   6.671  69.293  1.00  0.00    -0.253 C  
ENDBRANCH  13  14
ENDBRANCH  11  13
ENDBRANCH  10  11
ENDBRANCH   9  10
ENDBRANCH   8   9
ENDBRANCH   7   8
ENDBRANCH   6   7
ENDBRANCH   5   6
ENDBRANCH   4   5
ENDBRANCH   3   4
ENDBRANCH   2   3
TORSDOF 11
ENDMDL
MODEL      205
REMARK 921   NORMALIZED FREE ENERGY PREDICTED BY IDOCK:   -0.97 KCAL/MOL
REMARK 922        TOTAL FREE ENERGY PREDICTED BY IDOCK:   -3.77 KCAL/MOL
REMARK 923 INTER-LIGAND FREE ENERGY PREDICTED BY IDOCK:   -5.30 KCAL/MOL
REMARK 924 INTRA-LIGAND FREE ENERGY PREDICTED BY IDOCK:    1.52 KCAL/MOL
REMARK 927      BINDING AFFINITY PREDICTED BY RF-SCORE:    0.00 PKD
ROOT
HETATM    1  C   UNL     1      -5.559  11.328  69.046  1.00  0.00    -0.040 C  
HETATM    2  C   UNL     1      -5.144   9.959  68.565  1.00  0.00    -0.032 C  
ENDROOT
BRANCH   2   3
HETATM    3  C   UNL     1      -6.359   9.095  68.156  1.00  0.00    -0.055 C  
BRANCH   3   4
HETATM    4  C   UNL     1      -7.676   9.664  68.708  1.00  0.00    -0.080 C  
BRANCH   4   5
HETATM    5  C   UNL     1      -7.457  10.511  69.968  1.00  0.00    -0.013 C  
BRANCH   5   6
HETATM    6  C   UNL     1      -7.674   9.705  71.259  1.00  0.00     0.512 C  
BRANCH   6   7
HETATM    7  C   UNL     1      -8.164   8.284  70.940  1.00  0.00    -0.123 C  
BRANCH   7   8
HETATM    8  C   UNL     1      -9.676   8.074  71.083  1.00  0.00    -0.190 C  
BRANCH   8   9
HETATM    9  C   UNL     1     -10.533   8.658  69.971  1.00  0.00    -0.229 C  
BRANCH   9  10
HETATM   10  C   UNL     1     -11.433   9.814  70.391  1.00  0.00    -0.347 C  
BRANCH  10  11
HETATM   11  C   UNL     1     -12.399  10.600  69.460  1.00  0.00    -0.083 C  
HETATM   12  O   UNL     1     -13.602  10.581  69.739  1.00  0.00     0.350 OA 
BRANCH  11  13
HETATM   13  O   UNL     1     -11.938  11.108  68.249  1.00  0.00    -0.592 OA 
BRANCH  13  14
HETATM   14  C   UNL     1     -12.277  12.581  67.949  1.00  0.00     0.168 C  
HETATM   15  C   UNL     1     -11.439  12.739  66.675  1.00  0.00    -0.404 C  
HETATM   16  C   UNL     1     -10.066  12.704  67.352  1.00  0.00    -0.218 C  
HETATM   17  C   UNL     1     -10.236  13.959  68.168  1.00  0.00    -0.249 C  
HETATM   18  C   UNL     1      -9.013  14.837  68.437  1.00  0.00    -0.187 C  
HETATM   19  C   UNL     1      -8.179  14.659  67.145  1.00  0.00    -0.227 C  
HETATM   20  C   UNL     1      -7.209  15.722  66.786  1.00  0.00    -0.002 C  
HETATM   21  C   UNL     1      -7.865  17.107  66.937  1.00  0.00    -0.250 C  
HETATM   22  C   UNL     1      -7.435  18.081  66.137  1.00  0.00    -0.305 C  
HETATM   23  C   UNL     1      -6.001  18.191  66.523  1.00  0.00    -0.162 C  
HETATM   24  O   UNL     1      -5.145  18.339  65.675  1.00  0.00    -0.143 OA 
HETATM   25  C   UNL     1      -5.725  18.070  68.054  1.00  0.00    -0.159 C  
HETATM   26  C   UNL     1      -6.868  17.424  69.008  1.00  0.00    -0.244 C  
HETATM   27  C   UNL     1      -8.317  17.412  68.375  1.00  0.00    -0.263 C  
HETATM   28  C   UNL     1      -8.861  18.826  68.632  1.00  0.00    -0.360 C  
HETATM   29  C   UNL     1      -9.493  16.314  68.567  1.00  0.00    -0.219 C  
HETATM   30  C   UNL     1     -10.722  16.341  69.558  1.00  0.00    -0.323 C  
HETATM   31  C   UNL     1     -11.959  15.351  69.066  1.00  0.00    -0.313 C  
HETATM   32  C   UNL     1     -11.552  13.789  68.969  1.00  0.00    -0.356 C  
HETATM   33  C   UNL     1     -11.682  13.279  70.406  1.00  0.00    -0.161 C  
ENDBRANCH  13  14
ENDBRANCH  11  13
ENDBRANCH  10  11
ENDBRANCH   9  10
ENDBRANCH   8   9
ENDBRANCH   7   8
ENDBRANCH   6   7
ENDBRANCH   5   6
ENDBRANCH   4   5
ENDBRANCH   3   4
ENDBRANCH   2   3
TORSDOF 11
ENDMDL
MODEL      206
REMARK 921   NORMALIZED FREE ENERGY PREDICTED BY IDOCK:   -0.83 KCAL/MOL
REMARK 922        TOTAL FREE ENERGY PREDICTED BY IDOCK:   -3.54 KCAL/MOL
REMARK 923 INTER-LIGAND FREE ENERGY PREDICTED BY IDOCK:   -4.35 KCAL/MOL
REMARK 924 INTRA-LIGAND FREE ENERGY PREDICTED BY IDOCK:    0.80 KCAL/MOL
REMARK 927      BINDING AFFINITY PREDICTED BY RF-SCORE:    0.00 PKD
ROOT
HETATM    1  C   UNL     1     -10.838  16.981  68.482  1.00  0.00    -0.310 C  
HETATM    2  C   UNL     1     -10.211  15.871  67.676  1.00  0.00    -0.263 C  
ENDROOT
BRANCH   2   3
HETATM    3  C   UNL     1      -9.860  16.324  66.240  1.00  0.00    -0.334 C  
BRANCH   3   4
HETATM    4  C   UNL     1      -8.377  16.704  66.108  1.00  0.00    -0.305 C  
BRANCH   4   5
HETATM    5  C   UNL     1      -8.131  18.188  66.404  1.00  0.00    -0.291 C  
BRANCH   5   6
HETATM    6  C   UNL     1      -6.850  18.416  67.222  1.00  0.00    -0.208 C  
BRANCH   6   7
HETATM    7  C   UNL     1      -5.861  17.258  67.024  1.00  0.00    -0.199 C  
BRANCH   7   8
HETATM    8  C   UNL     1      -5.521  16.473  68.297  1.00  0.00    -0.108 C  
BRANCH   8   9
HETATM    9  C   UNL     1      -6.709  15.944  69.085  1.00  0.00    -0.164 C  
BRANCH   9  10
HETATM   10  C   UNL     1      -6.953  14.445  68.953  1.00  0.00    -0.105 C  
BRANCH  10  11
HETATM   11  C   UNL     1      -7.392  13.706  67.658  1.00  0.00    -0.176 C  
HETATM   12  O   UNL     1      -6.588  13.669  66.722  1.00  0.00     0.426 OA 
BRANCH  11  13
HETATM   13  O   UNL     1      -8.716  13.305  67.501  1.00  0.00    -0.178 OA 
BRANCH  13  14
HETATM   14  C   UNL     1      -9.249  12.284  68.525  1.00  0.00    -0.087 C  
HETATM   15  C   UNL     1      -7.899  11.776  69.046  1.00  0.00     0.064 C  
HETATM   16  C   UNL     1      -7.493  11.007  67.785  1.00  0.00    -0.094 C  
HETATM   17  C   UNL     1      -8.613  10.000  67.820  1.00  0.00    -0.118 C  
HETATM   18  C   UNL     1      -8.346   8.580  67.321  1.00  0.00    -0.115 C  
HETATM   19  C   UNL     1      -6.866   8.356  67.715  1.00  0.00    -0.067 C  
HETATM   20  C   UNL     1      -6.389   6.962  67.886  1.00  0.00    -0.042 C  
HETATM   21  C   UNL     1      -7.401   6.157  68.722  1.00  0.00    -0.086 C  
HETATM   22  C   UNL     1      -6.928   5.163  69.470  1.00  0.00    -0.054 C  
HETATM   23  C   UNL     1      -6.334   4.259  68.446  1.00  0.00    -0.037 C  
HETATM   24  O   UNL     1      -5.263   3.722  68.647  1.00  0.00    -0.010 OA 
HETATM   25  C   UNL     1      -7.175   4.107  67.141  1.00  0.00    -0.068 C  
HETATM   26  C   UNL     1      -8.321   5.209  66.814  1.00  0.00    -0.107 C  
HETATM   27  C   UNL     1      -8.789   6.056  68.065  1.00  0.00    -0.110 C  
HETATM   28  C   UNL     1      -9.814   5.159  68.775  1.00  0.00    -0.235 C  
HETATM   29  C   UNL     1      -9.266   7.603  68.113  1.00  0.00    -0.138 C  
HETATM   30  C   UNL     1     -10.732   8.190  68.090  1.00  0.00    -0.090 C  
HETATM   31  C   UNL     1     -10.814   9.726  68.711  1.00  0.00    -0.219 C  
HETATM   32  C   UNL     1      -9.932  10.811  67.898  1.00  0.00    -0.196 C  
HETATM   33  C   UNL     1     -10.824  11.212  66.721  1.00  0.00    -0.322 C  
ENDBRANCH  13  14
ENDBRANCH  11  13
ENDBRANCH  10  11
ENDBRANCH   9  10
ENDBRANCH   8   9
ENDBRANCH   7   8
ENDBRANCH   6   7
ENDBRANCH   5   6
ENDBRANCH   4   5
ENDBRANCH   3   4
ENDBRANCH   2   3
TORSDOF 11
ENDMDL
MODEL      207
REMARK 921   NORMALIZED FREE ENERGY PREDICTED BY IDOCK:   -0.83 KCAL/MOL
REMARK 922        TOTAL FREE ENERGY PREDICTED BY IDOCK:   -3.54 KCAL/MOL
REMARK 923 INTER-LIGAND FREE ENERGY PREDICTED BY IDOCK:   -4.60 KCAL/MOL
REMARK 924 INTRA-LIGAND FREE ENERGY PREDICTED BY IDOCK:    1.06 KCAL/MOL
REMARK 927      BINDING AFFINITY PREDICTED BY RF-SCORE:    0.00 PKD
ROOT
HETATM    1  C   UNL     1      -5.974   8.308  70.626  1.00  0.00    -0.032 C  
HETATM    2  C   UNL     1      -5.508   8.458  69.199  1.00  0.00    -0.031 C  
ENDROOT
BRANCH   2   3
HETATM    3  C   UNL     1      -5.467   9.939  68.756  1.00  0.00    -0.035 C  
BRANCH   3   4
HETATM    4  C   UNL     1      -6.653  10.295  67.846  1.00  0.00    -0.062 C  
BRANCH   4   5
HETATM    5  C   UNL     1      -7.963  10.431  68.631  1.00  0.00    -0.115 C  
BRANCH   5   6
HETATM    6  C   UNL     1      -8.937  11.422  67.973  1.00  0.00    -0.163 C  
BRANCH   6   7
HETATM    7  C   UNL     1     -10.085  10.678  67.274  1.00  0.00    -0.238 C  
BRANCH   7   8
HETATM    8  C   UNL     1     -11.488  11.212  67.588  1.00  0.00    -0.328 C  
BRANCH   8   9
HETATM    9  C   UNL     1     -11.874  11.235  69.058  1.00  0.00    -0.421 C  
BRANCH   9  10
HETATM   10  C   UNL     1     -12.097   9.864  69.686  1.00  0.00     0.218 C  
BRANCH  10  11
HETATM   11  C   UNL     1     -12.147   9.558  71.210  1.00  0.00    -0.360 C  
HETATM   12  O   UNL     1     -13.258   9.487  71.741  1.00  0.00    -0.367 OA 
BRANCH  11  13
HETATM   13  O   UNL     1     -10.976   9.588  71.963  1.00  0.00    -0.142 OA 
BRANCH  13  14
HETATM   14  C   UNL     1     -10.645   8.316  72.767  1.00  0.00    -0.251 C  
HETATM   15  C   UNL     1      -9.148   8.243  72.446  1.00  0.00    -0.307 C  
HETATM   16  C   UNL     1      -9.294   7.842  70.975  1.00  0.00    -0.160 C  
HETATM   17  C   UNL     1      -9.964   6.514  71.217  1.00  0.00    -0.200 C  
HETATM   18  C   UNL     1      -9.678   5.357  70.259  1.00  0.00    -0.254 C  
HETATM   19  C   UNL     1      -8.205   5.609  69.855  1.00  0.00    -0.109 C  
HETATM   20  C   UNL     1      -7.404   4.457  69.375  1.00  0.00    -0.051 C  
HETATM   21  C   UNL     1      -7.613   3.245  70.302  1.00  0.00    -0.044 C  
HETATM   22  C   UNL     1      -6.604   2.385  70.426  1.00  0.00    -0.032 C  
HETATM   23  C   UNL     1      -6.442   1.892  69.031  1.00  0.00    -0.029 C  
HETATM   24  O   UNL     1      -5.335   1.738  68.558  1.00  0.00    -0.012 OA 
HETATM   25  C   UNL     1      -7.779   1.637  68.268  1.00  0.00    -0.050 C  
HETATM   26  C   UNL     1      -9.145   2.306  68.833  1.00  0.00    -0.192 C  
HETATM   27  C   UNL     1      -9.072   2.760  70.347  1.00  0.00    -0.185 C  
HETATM   28  C   UNL     1      -9.337   1.475  71.146  1.00  0.00    -0.172 C  
HETATM   29  C   UNL     1      -9.795   4.023  71.057  1.00  0.00    -0.230 C  
HETATM   30  C   UNL     1     -11.146   4.062  71.874  1.00  0.00     0.837 C  
HETATM   31  C   UNL     1     -11.244   5.374  72.883  1.00  0.00    -0.372 C  
HETATM   32  C   UNL     1     -11.194   6.798  72.118  1.00  0.00    -0.294 C  
HETATM   33  C   UNL     1     -12.633   7.021  71.647  1.00  0.00    -0.419 C  
ENDBRANCH  13  14
ENDBRANCH  11  13
ENDBRANCH  10  11
ENDBRANCH   9  10
ENDBRANCH   8   9
ENDBRANCH   7   8
ENDBRANCH   6   7
ENDBRANCH   5   6
ENDBRANCH   4   5
ENDBRANCH   3   4
ENDBRANCH   2   3
TORSDOF 11
ENDMDL
MODEL      208
REMARK 921   NORMALIZED FREE ENERGY PREDICTED BY IDOCK:   -0.63 KCAL/MOL
REMARK 922        TOTAL FREE ENERGY PREDICTED BY IDOCK:   -3.22 KCAL/MOL
REMARK 923 INTER-LIGAND FREE ENERGY PREDICTED BY IDOCK:   -4.74 KCAL/MOL
REMARK 924 INTRA-LIGAND FREE ENERGY PREDICTED BY IDOCK:    1.52 KCAL/MOL
REMARK 927      BINDING AFFINITY PREDICTED BY RF-SCORE:    0.00 PKD
ROOT
HETATM    1  C   UNL     1     -10.684  14.867  68.546  1.00  0.00    -0.245 C  
HETATM    2  C   UNL     1      -9.943  16.163  68.762  1.00  0.00    -0.231 C  
ENDROOT
BRANCH   2   3
HETATM    3  C   UNL     1      -8.697  15.976  69.658  1.00  0.00     0.112 C  
BRANCH   3   4
HETATM    4  C   UNL     1      -7.492  15.456  68.858  1.00  0.00    -0.152 C  
BRANCH   4   5
HETATM    5  C   UNL     1      -6.541  14.620  69.724  1.00  0.00    -0.164 C  
BRANCH   5   6
HETATM    6  C   UNL     1      -6.456  13.159  69.253  1.00  0.00    -0.107 C  
BRANCH   6   7
HETATM    7  C   UNL     1      -6.096  13.084  67.762  1.00  0.00    -0.151 C  
BRANCH   7   8
HETATM    8  C   UNL     1      -6.027  11.666  67.183  1.00  0.00    -0.127 C  
BRANCH   8   9
HETATM    9  C   UNL     1      -7.351  10.925  67.086  1.00  0.00    -0.105 C  
BRANCH   9  10
HETATM   10  C   UNL     1      -8.484  11.716  66.442  1.00  0.00    -0.114 C  
BRANCH  10  11
HETATM   11  C   UNL     1      -9.970  11.265  66.351  1.00  0.00    -0.215 C  
HETATM   12  O   UNL     1     -10.698  11.860  65.552  1.00  0.00    -0.267 OA 
BRANCH  11  13
HETATM   13  O   UNL     1     -10.487  10.382  67.295  1.00  0.00    -0.221 OA 
BRANCH  13  14
HETATM   14  C   UNL     1      -9.779  10.347  68.663  1.00  0.00    -0.175 C  
HETATM   15  C   UNL     1      -8.639   9.391  68.290  1.00  0.00    -0.120 C  
HETATM   16  C   UNL     1      -9.492   8.125  68.172  1.00  0.00    -0.150 C  
HETATM   17  C   UNL     1      -9.932   8.068  69.612  1.00  0.00    -0.188 C  
HETATM   18  C   UNL     1     -10.142   6.703  70.267  1.00  0.00    -0.201 C  
HETATM   19  C   UNL     1      -9.069   5.827  69.575  1.00  0.00    -0.143 C  
HETATM   20  C   UNL     1      -8.595   4.612  70.280  1.00  0.00    -0.105 C  
HETATM   21  C   UNL     1      -8.296   4.941  71.755  1.00  0.00    -0.118 C  
HETATM   22  C   UNL     1      -7.346   4.233  72.362  1.00  0.00    -0.068 C  
HETATM   23  C   UNL     1      -7.892   2.850  72.286  1.00  0.00    -0.055 C  
HETATM   24  O   UNL     1      -7.164   1.915  72.019  1.00  0.00    -0.036 OA 
HETATM   25  C   UNL     1      -9.427   2.738  72.543  1.00  0.00    -0.168 C  
HETATM   26  C   UNL     1     -10.341   4.074  72.429  1.00  0.00    -0.207 C  
HETATM   27  C   UNL     1      -9.531   5.429  72.531  1.00  0.00    -0.162 C  
HETATM   28  C   UNL     1      -9.343   5.652  74.039  1.00  0.00    -0.135 C  
HETATM   29  C   UNL     1      -9.825   6.838  71.787  1.00  0.00    -0.170 C  
HETATM   30  C   UNL     1     -10.591   8.107  72.333  1.00  0.00    -0.393 C  
HETATM   31  C   UNL     1     -10.194   9.493  71.513  1.00  0.00    -0.052 C  
HETATM   32  C   UNL     1     -10.554   9.451  69.937  1.00  0.00    -0.258 C  
HETATM   33  C   UNL     1     -12.040   9.814  69.883  1.00  0.00     0.151 C  
ENDBRANCH  13  14
ENDBRANCH  11  13
ENDBRANCH  10  11
ENDBRANCH   9  10
ENDBRANCH   8   9
ENDBRANCH   7   8
ENDBRANCH   6   7
ENDBRANCH   5   6
ENDBRANCH   4   5
ENDBRANCH   3   4
ENDBRANCH   2   3
TORSDOF 11
ENDMDL
MODEL      209
REMARK 921   NORMALIZED FREE ENERGY PREDICTED BY IDOCK:   -0.61 KCAL/MOL
REMARK 922        TOTAL FREE ENERGY PREDICTED BY IDOCK:   -3.19 KCAL/MOL
REMARK 923 INTER-LIGAND FREE ENERGY PREDICTED BY IDOCK:   -4.29 KCAL/MOL
REMARK 924 INTRA-LIGAND FREE ENERGY PREDICTED BY IDOCK:    1.10 KCAL/MOL
REMARK 927      BINDING AFFINITY PREDICTED BY RF-SCORE:    0.00 PKD
ROOT
HETATM    1  C   UNL     1     -13.591  14.190  71.120  1.00  0.00    -0.254 C  
HETATM    2  C   UNL     1     -12.363  14.139  70.245  1.00  0.00    -0.421 C  
ENDROOT
BRANCH   2   3
HETATM    3  C   UNL     1     -11.502  15.415  70.379  1.00  0.00    -0.355 C  
BRANCH   3   4
HETATM    4  C   UNL     1     -11.117  15.991  69.007  1.00  0.00    -0.320 C  
BRANCH   4   5
HETATM    5  C   UNL     1      -9.654  15.705  68.649  1.00  0.00    -0.202 C  
BRANCH   5   6
HETATM    6  C   UNL     1      -8.701  15.979  69.825  1.00  0.00     0.296 C  
BRANCH   6   7
HETATM    7  C   UNL     1      -7.587  14.922  69.883  1.00  0.00     0.062 C  
BRANCH   7   8
HETATM    8  C   UNL     1      -6.191  15.472  70.199  1.00  0.00    -0.099 C  
BRANCH   8   9
HETATM    9  C   UNL     1      -5.298  14.570  71.036  1.00  0.00    -0.146 C  
BRANCH   9  10
HETATM   10  C   UNL     1      -5.128  13.154  70.497  1.00  0.00    -0.109 C  
BRANCH  10  11
HETATM   11  C   UNL     1      -5.637  11.854  71.181  1.00  0.00     0.050 C  
HETATM   12  O   UNL     1      -5.402  11.713  72.385  1.00  0.00    -0.231 OA 
BRANCH  11  13
HETATM   13  O   UNL     1      -6.136  10.811  70.406  1.00  0.00    -0.121 OA 
BRANCH  13  14
HETATM   14  C   UNL     1      -5.893  10.906  68.888  1.00  0.00    -0.040 C  
HETATM   15  C   UNL     1      -6.385  12.344  68.682  1.00  0.00    -0.073 C  
HETATM   16  C   UNL     1      -7.875  12.062  68.901  1.00  0.00     0.042 C  
HETATM   17  C   UNL     1      -8.060  11.145  67.720  1.00  0.00    -0.117 C  
HETATM   18  C   UNL     1      -9.399  11.152  66.982  1.00  0.00    -0.182 C  
HETATM   19  C   UNL     1      -9.846  12.629  67.107  1.00  0.00    -0.212 C  
HETATM   20  C   UNL     1     -10.800  13.159  66.103  1.00  0.00    -0.293 C  
HETATM   21  C   UNL     1     -10.361  12.743  64.687  1.00  0.00    -0.362 C  
HETATM   22  C   UNL     1     -10.674  13.559  63.682  1.00  0.00     0.601 C  
HETATM   23  C   UNL     1     -12.162  13.563  63.735  1.00  0.00    -0.388 C  
HETATM   24  O   UNL     1     -12.780  14.597  63.581  1.00  0.00    -0.735 OA 
HETATM   25  C   UNL     1     -12.809  12.174  64.026  1.00  0.00    -0.383 C  
HETATM   26  C   UNL     1     -11.889  10.996  64.658  1.00  0.00     0.978 C  
HETATM   27  C   UNL     1     -10.332  11.219  64.483  1.00  0.00    -0.381 C  
HETATM   28  C   UNL     1     -10.032  10.729  63.058  1.00  0.00    -0.291 C  
HETATM   29  C   UNL     1      -9.134  10.796  65.488  1.00  0.00    -0.220 C  
HETATM   30  C   UNL     1      -8.213   9.514  65.449  1.00  0.00    -0.128 C  
HETATM   31  C   UNL     1      -6.790   9.726  66.275  1.00  0.00    -0.092 C  
HETATM   32  C   UNL     1      -6.985  10.035  67.851  1.00  0.00    -0.084 C  
HETATM   33  C   UNL     1      -7.176   8.655  68.482  1.00  0.00    -0.081 C  
ENDBRANCH  13  14
ENDBRANCH  11  13
ENDBRANCH  10  11
ENDBRANCH   9  10
ENDBRANCH   8   9
ENDBRANCH   7   8
ENDBRANCH   6   7
ENDBRANCH   5   6
ENDBRANCH   4   5
ENDBRANCH   3   4
ENDBRANCH   2   3
TORSDOF 11
ENDMDL
MODEL      210
REMARK 921   NORMALIZED FREE ENERGY PREDICTED BY IDOCK:   -0.48 KCAL/MOL
REMARK 922        TOTAL FREE ENERGY PREDICTED BY IDOCK:   -2.96 KCAL/MOL
REMARK 923 INTER-LIGAND FREE ENERGY PREDICTED BY IDOCK:   -5.25 KCAL/MOL
REMARK 924 INTRA-LIGAND FREE ENERGY PREDICTED BY IDOCK:    2.29 KCAL/MOL
REMARK 927      BINDING AFFINITY PREDICTED BY RF-SCORE:    0.00 PKD
ROOT
HETATM    1  C   UNL     1     -11.357  13.455  68.875  1.00  0.00    -0.331 C  
HETATM    2  C   UNL     1      -9.927  13.711  69.280  1.00  0.00     0.346 C  
ENDROOT
BRANCH   2   3
HETATM    3  C   UNL     1      -9.151  14.503  68.202  1.00  0.00    -0.191 C  
BRANCH   3   4
HETATM    4  C   UNL     1     -10.090  15.071  67.126  1.00  0.00    -0.239 C  
BRANCH   4   5
HETATM    5  C   UNL     1     -10.461  14.023  66.070  1.00  0.00    -0.307 C  
BRANCH   5   6
HETATM    6  C   UNL     1     -11.973  13.744  66.032  1.00  0.00    -0.443 C  
BRANCH   6   7
HETATM    7  C   UNL     1     -12.294  12.602  65.055  1.00  0.00    -0.561 C  
BRANCH   7   8
HETATM    8  C   UNL     1     -11.075  11.810  64.564  1.00  0.00    -0.376 C  
BRANCH   8   9
HETATM    9  C   UNL     1     -10.680  10.611  65.411  1.00  0.00    -0.106 C  
BRANCH   9  10
HETATM   10  C   UNL     1      -9.437   9.869  64.935  1.00  0.00    -0.355 C  
BRANCH  10  11
HETATM   11  C   UNL     1      -8.126   9.674  65.749  1.00  0.00    -0.113 C  
HETATM   12  O   UNL     1      -7.247   8.964  65.253  1.00  0.00    -0.085 OA 
BRANCH  11  13
HETATM   13  O   UNL     1      -8.058  10.108  67.070  1.00  0.00    -0.116 OA 
BRANCH  13  14
HETATM   14  C   UNL     1      -9.119   9.544  68.033  1.00  0.00    -0.123 C  
HETATM   15  C   UNL     1      -8.325   9.690  69.337  1.00  0.00    -0.145 C  
HETATM   16  C   UNL     1      -7.308   8.579  69.058  1.00  0.00    -0.081 C  
HETATM   17  C   UNL     1      -8.291   7.438  69.031  1.00  0.00    -0.126 C  
HETATM   18  C   UNL     1      -7.847   6.067  69.544  1.00  0.00    -0.099 C  
HETATM   19  C   UNL     1      -6.862   6.435  70.680  1.00  0.00    -0.063 C  
HETATM   20  C   UNL     1      -6.625   5.438  71.752  1.00  0.00    -0.048 C  
HETATM   21  C   UNL     1      -7.966   4.851  72.233  1.00  0.00    -0.110 C  
HETATM   22  C   UNL     1      -8.041   4.451  73.500  1.00  0.00    -0.094 C  
HETATM   23  C   UNL     1      -7.010   3.378  73.550  1.00  0.00    -0.044 C  
HETATM   24  O   UNL     1      -6.266   3.285  74.505  1.00  0.00    -0.019 OA 
HETATM   25  C   UNL     1      -6.968   2.452  72.295  1.00  0.00    -0.027 C  
HETATM   26  C   UNL     1      -7.679   2.955  70.926  1.00  0.00    -0.039 C  
HETATM   27  C   UNL     1      -8.738   4.113  71.127  1.00  0.00    -0.128 C  
HETATM   28  C   UNL     1     -10.021   3.388  71.561  1.00  0.00    -0.161 C  
HETATM   29  C   UNL     1      -9.094   5.338  70.129  1.00  0.00    -0.168 C  
HETATM   30  C   UNL     1     -10.263   5.450  69.073  1.00  0.00    -0.291 C  
HETATM   31  C   UNL     1     -10.618   7.021  68.679  1.00  0.00    -0.238 C  
HETATM   32  C   UNL     1      -9.387   7.825  68.005  1.00  0.00    -0.146 C  
HETATM   33  C   UNL     1      -9.436   7.417  66.531  1.00  0.00    -0.229 C  
ENDBRANCH  13  14
ENDBRANCH  11  13
ENDBRANCH  10  11
ENDBRANCH   9  10
ENDBRANCH   8   9
ENDBRANCH   7   8
ENDBRANCH   6   7
ENDBRANCH   5   6
ENDBRANCH   4   5
ENDBRANCH   3   4
ENDBRANCH   2   3
TORSDOF 11
ENDMDL
MODEL      211
REMARK 921   NORMALIZED FREE ENERGY PREDICTED BY IDOCK:   -0.17 KCAL/MOL
REMARK 922        TOTAL FREE ENERGY PREDICTED BY IDOCK:   -2.46 KCAL/MOL
REMARK 923 INTER-LIGAND FREE ENERGY PREDICTED BY IDOCK:   -2.43 KCAL/MOL
REMARK 924 INTRA-LIGAND FREE ENERGY PREDICTED BY IDOCK:   -0.03 KCAL/MOL
REMARK 927      BINDING AFFINITY PREDICTED BY RF-SCORE:    0.00 PKD
ROOT
HETATM    1  C   UNL     1     -11.223  16.527  65.948  1.00  0.00     0.339 C  
HETATM    2  C   UNL     1     -10.320  17.735  65.923  1.00  0.00    -0.257 C  
ENDROOT
BRANCH   2   3
HETATM    3  C   UNL     1      -9.534  17.899  67.244  1.00  0.00    -0.263 C  
BRANCH   3   4
HETATM    4  C   UNL     1      -8.255  17.048  67.256  1.00  0.00    -0.205 C  
BRANCH   4   5
HETATM    5  C   UNL     1      -7.974  16.445  68.638  1.00  0.00    -0.220 C  
BRANCH   5   6
HETATM    6  C   UNL     1      -8.041  14.909  68.629  1.00  0.00    -0.151 C  
BRANCH   6   7
HETATM    7  C   UNL     1      -8.464  14.388  67.247  1.00  0.00    -0.229 C  
BRANCH   7   8
HETATM    8  C   UNL     1      -7.971  12.975  66.909  1.00  0.00     0.092 C  
BRANCH   8   9
HETATM    9  C   UNL     1      -8.812  11.833  67.456  1.00  0.00    -0.162 C  
BRANCH   9  10
HETATM   10  C   UNL     1     -10.216  12.224  67.903  1.00  0.00    -0.202 C  
BRANCH  10  11
HETATM   11  C   UNL     1     -11.320  11.244  68.393  1.00  0.00    -0.281 C  
HETATM   12  O   UNL     1     -12.492  11.629  68.333  1.00  0.00    -0.261 OA 
BRANCH  11  13
HETATM   13  O   UNL     1     -10.966  10.081  69.070  1.00  0.00    -0.223 OA 
BRANCH  13  14
HETATM   14  C   UNL     1      -9.599  10.088  69.780  1.00  0.00    -0.216 C  
HETATM   15  C   UNL     1      -8.849   9.165  68.812  1.00  0.00    -0.132 C  
HETATM   16  C   UNL     1      -9.570   7.870  69.197  1.00  0.00    -0.153 C  
HETATM   17  C   UNL     1      -9.097   7.820  70.627  1.00  0.00    -0.153 C  
HETATM   18  C   UNL     1      -8.843   6.458  71.274  1.00  0.00    -0.138 C  
HETATM   19  C   UNL     1      -8.335   5.608  70.084  1.00  0.00    -0.118 C  
HETATM   20  C   UNL     1      -7.499   4.419  70.378  1.00  0.00    -0.049 C  
HETATM   21  C   UNL     1      -6.416   4.779  71.413  1.00  0.00    -0.023 C  
HETATM   22  C   UNL     1      -5.266   4.111  71.357  1.00  0.00     0.000 C  
HETATM   23  C   UNL     1      -5.707   2.710  71.600  1.00  0.00    -0.009 C  
HETATM   24  O   UNL     1      -5.234   1.796  70.956  1.00  0.00    -0.003 OA 
HETATM   25  C   UNL     1      -6.809   2.552  72.693  1.00  0.00    -0.023 C  
HETATM   26  C   UNL     1      -7.667   3.856  73.137  1.00  0.00    -0.075 C  
HETATM   27  C   UNL     1      -6.995   5.238  72.763  1.00  0.00    -0.086 C  
HETATM   28  C   UNL     1      -5.980   5.488  73.888  1.00  0.00    -0.056 C  
HETATM   29  C   UNL     1      -7.713   6.625  72.334  1.00  0.00    -0.095 C  
HETATM   30  C   UNL     1      -8.069   7.876  73.230  1.00  0.00    -0.218 C  
HETATM   31  C   UNL     1      -8.265   9.262  72.342  1.00  0.00     1.054 C  
HETATM   32  C   UNL     1      -9.466   9.186  71.261  1.00  0.00    -0.313 C  
HETATM   33  C   UNL     1     -10.723   9.499  72.076  1.00  0.00     0.401 C  
ENDBRANCH  13  14
ENDBRANCH  11  13
ENDBRANCH  10  11
ENDBRANCH   9  10
ENDBRANCH   8   9
ENDBRANCH   7   8
ENDBRANCH   6   7
ENDBRANCH   5   6
ENDBRANCH   4   5
ENDBRANCH   3   4
ENDBRANCH   2   3
TORSDOF 11
ENDMDL
MODEL      212
REMARK 921   NORMALIZED FREE ENERGY PREDICTED BY IDOCK:   -0.15 KCAL/MOL
REMARK 922        TOTAL FREE ENERGY PREDICTED BY IDOCK:   -2.43 KCAL/MOL
REMARK 923 INTER-LIGAND FREE ENERGY PREDICTED BY IDOCK:   -3.19 KCAL/MOL
REMARK 924 INTRA-LIGAND FREE ENERGY PREDICTED BY IDOCK:    0.76 KCAL/MOL
REMARK 927      BINDING AFFINITY PREDICTED BY RF-SCORE:    0.00 PKD
ROOT
HETATM    1  C   UNL     1      -8.796  18.223  65.653  1.00  0.00     0.711 C  
HETATM    2  C   UNL     1      -7.884  17.573  66.663  1.00  0.00    -0.285 C  
ENDROOT
BRANCH   2   3
HETATM    3  C   UNL     1      -8.615  16.492  67.493  1.00  0.00    -0.188 C  
BRANCH   3   4
HETATM    4  C   UNL     1      -8.061  15.086  67.213  1.00  0.00    -0.237 C  
BRANCH   4   5
HETATM    5  C   UNL     1      -6.528  15.065  67.179  1.00  0.00     0.360 C  
BRANCH   5   6
HETATM    6  C   UNL     1      -5.950  13.757  67.743  1.00  0.00    -0.124 C  
BRANCH   6   7
HETATM    7  C   UNL     1      -6.575  13.425  69.106  1.00  0.00    -0.106 C  
BRANCH   7   8
HETATM    8  C   UNL     1      -6.908  11.944  69.322  1.00  0.00    -0.080 C  
BRANCH   8   9
HETATM    9  C   UNL     1      -7.917  11.345  68.355  1.00  0.00    -0.142 C  
BRANCH   9  10
HETATM   10  C   UNL     1      -7.355  10.969  66.989  1.00  0.00    -0.123 C  
BRANCH  10  11
HETATM   11  C   UNL     1      -8.170  10.387  65.799  1.00  0.00    -0.156 C  
HETATM   12  O   UNL     1      -7.737  10.586  64.660  1.00  0.00    -0.099 OA 
BRANCH  11  13
HETATM   13  O   UNL     1      -9.440   9.862  66.017  1.00  0.00    -0.173 OA 
BRANCH  13  14
HETATM   14  C   UNL     1      -9.545   8.327  66.088  1.00  0.00    -0.147 C  
HETATM   15  C   UNL     1     -10.806   8.237  66.957  1.00  0.00    -0.061 C  
HETATM   16  C   UNL     1     -10.166   8.723  68.260  1.00  0.00    -0.240 C  
HETATM   17  C   UNL     1      -9.195   7.582  68.420  1.00  0.00    -0.139 C  
HETATM   18  C   UNL     1      -8.841   7.103  69.828  1.00  0.00    -0.142 C  
HETATM   19  C   UNL     1     -10.162   7.332  70.604  1.00  0.00    -0.202 C  
HETATM   20  C   UNL     1     -10.403   6.530  71.827  1.00  0.00    -0.229 C  
HETATM   21  C   UNL     1     -10.066   5.050  71.563  1.00  0.00    -0.263 C  
HETATM   22  C   UNL     1     -10.745   4.133  72.249  1.00  0.00     0.011 C  
HETATM   23  C   UNL     1     -10.377   4.460  73.654  1.00  0.00    -0.186 C  
HETATM   24  O   UNL     1     -11.216   4.438  74.531  1.00  0.00    -0.061 OA 
HETATM   25  C   UNL     1      -8.879   4.843  73.866  1.00  0.00    -0.114 C  
HETATM   26  C   UNL     1      -7.991   5.276  72.578  1.00  0.00    -0.103 C  
HETATM   27  C   UNL     1      -8.592   4.821  71.187  1.00  0.00    -0.126 C  
HETATM   28  C   UNL     1      -8.148   3.358  71.038  1.00  0.00    -0.068 C  
HETATM   29  C   UNL     1      -8.517   5.581  69.759  1.00  0.00    -0.105 C  
HETATM   30  C   UNL     1      -7.507   5.353  68.567  1.00  0.00    -0.076 C  
HETATM   31  C   UNL     1      -8.095   5.906  67.118  1.00  0.00    -0.102 C  
HETATM   32  C   UNL     1      -8.395   7.495  67.094  1.00  0.00    -0.121 C  
HETATM   33  C   UNL     1      -7.032   8.130  66.812  1.00  0.00    -0.073 C  
ENDBRANCH  13  14
ENDBRANCH  11  13
ENDBRANCH  10  11
ENDBRANCH   9  10
ENDBRANCH   8   9
ENDBRANCH   7   8
ENDBRANCH   6   7
ENDBRANCH   5   6
ENDBRANCH   4   5
ENDBRANCH   3   4
ENDBRANCH   2   3
TORSDOF 11
ENDMDL
MODEL      213
REMARK 921   NORMALIZED FREE ENERGY PREDICTED BY IDOCK:    0.16 KCAL/MOL
REMARK 922        TOTAL FREE ENERGY PREDICTED BY IDOCK:   -1.93 KCAL/MOL
REMARK 923 INTER-LIGAND FREE ENERGY PREDICTED BY IDOCK:   -4.32 KCAL/MOL
REMARK 924 INTRA-LIGAND FREE ENERGY PREDICTED BY IDOCK:    2.39 KCAL/MOL
REMARK 927      BINDING AFFINITY PREDICTED BY RF-SCORE:    0.00 PKD
ROOT
HETATM    1  C   UNL     1      -6.649   6.489  68.701  1.00  0.00    -0.051 C  
HETATM    2  C   UNL     1      -8.032   7.070  68.859  1.00  0.00    -0.120 C  
ENDROOT
BRANCH   2   3
HETATM    3  C   UNL     1      -7.996   8.597  69.098  1.00  0.00    -0.110 C  
BRANCH   3   4
HETATM    4  C   UNL     1      -7.422   9.350  67.887  1.00  0.00    -0.084 C  
BRANCH   4   5
HETATM    5  C   UNL     1      -7.778   8.669  66.560  1.00  0.00    -0.095 C  
BRANCH   5   6
HETATM    6  C   UNL     1      -8.995   7.737  66.690  1.00  0.00    -0.175 C  
BRANCH   6   7
HETATM    7  C   UNL     1     -10.179   8.472  67.335  1.00  0.00    -0.329 C  
BRANCH   7   8
HETATM    8  C   UNL     1     -10.337   9.939  66.914  1.00  0.00    -0.300 C  
BRANCH   8   9
HETATM    9  C   UNL     1     -11.765  10.455  66.837  1.00  0.00     1.354 C  
BRANCH   9  10
HETATM   10  C   UNL     1     -12.282  11.112  68.111  1.00  0.00     0.323 C  
BRANCH  10  11
HETATM   11  C   UNL     1     -11.411  11.579  69.311  1.00  0.00    -0.305 C  
HETATM   12  O   UNL     1     -11.646  11.080  70.416  1.00  0.00    -0.308 OA 
BRANCH  11  13
HETATM   13  O   UNL     1     -10.561  12.673  69.169  1.00  0.00    -0.106 OA 
BRANCH  13  14
HETATM   14  C   UNL     1     -11.160  13.925  68.500  1.00  0.00    -0.265 C  
HETATM   15  C   UNL     1     -10.353  13.878  67.196  1.00  0.00    -0.265 C  
HETATM   16  C   UNL     1      -9.002  14.271  67.802  1.00  0.00    -0.188 C  
HETATM   17  C   UNL     1      -9.404  15.650  68.258  1.00  0.00    -0.192 C  
HETATM   18  C   UNL     1      -8.364  16.770  68.233  1.00  0.00    -0.213 C  
HETATM   19  C   UNL     1      -7.499  16.400  67.002  1.00  0.00    -0.250 C  
HETATM   20  C   UNL     1      -6.736  17.480  66.332  1.00  0.00    -0.297 C  
HETATM   21  C   UNL     1      -7.633  18.716  66.133  1.00  0.00    -0.276 C  
HETATM   22  C   UNL     1      -7.380  19.496  65.086  1.00  0.00     0.291 C  
HETATM   23  C   UNL     1      -5.993  19.959  65.369  1.00  0.00    -0.195 C  
HETATM   24  O   UNL     1      -5.171  20.021  64.478  1.00  0.00    -0.155 OA 
HETATM   25  C   UNL     1      -5.713  20.307  66.864  1.00  0.00    -0.194 C  
HETATM   26  C   UNL     1      -6.728  19.752  68.002  1.00  0.00    -0.289 C  
HETATM   27  C   UNL     1      -8.146  19.313  67.455  1.00  0.00    -0.307 C  
HETATM   28  C   UNL     1      -8.939  20.624  67.346  1.00  0.00    -0.361 C  
HETATM   29  C   UNL     1      -9.104  18.118  67.982  1.00  0.00    -0.289 C  
HETATM   30  C   UNL     1     -10.327  18.193  68.979  1.00  0.00    -0.135 C  
HETATM   31  C   UNL     1     -11.359  16.905  68.820  1.00  0.00     0.073 C  
HETATM   32  C   UNL     1     -10.675  15.472  69.129  1.00  0.00    -0.250 C  
HETATM   33  C   UNL     1     -10.722  15.356  70.654  1.00  0.00    -0.255 C  
ENDBRANCH  13  14
ENDBRANCH  11  13
ENDBRANCH  10  11
ENDBRANCH   9  10
ENDBRANCH   8   9
ENDBRANCH   7   8
ENDBRANCH   6   7
ENDBRANCH   5   6
ENDBRANCH   4   5
ENDBRANCH   3   4
ENDBRANCH   2   3
TORSDOF 11
ENDMDL
MODEL      214
REMARK 921   NORMALIZED FREE ENERGY PREDICTED BY IDOCK:    0.45 KCAL/MOL
REMARK 922        TOTAL FREE ENERGY PREDICTED BY IDOCK:   -1.45 KCAL/MOL
REMARK 923 INTER-LIGAND FREE ENERGY PREDICTED BY IDOCK:   -1.48 KCAL/MOL
REMARK 924 INTRA-LIGAND FREE ENERGY PREDICTED BY IDOCK:    0.03 KCAL/MOL
REMARK 927      BINDING AFFINITY PREDICTED BY RF-SCORE:    0.00 PKD
ROOT
HETATM    1  C   UNL     1      -5.894   5.549  69.049  1.00  0.00    -0.023 C  
HETATM    2  C   UNL     1      -7.335   5.994  69.089  1.00  0.00    -0.084 C  
ENDROOT
BRANCH   2   3
HETATM    3  C   UNL     1      -7.464   7.533  69.168  1.00  0.00    -0.098 C  
BRANCH   3   4
HETATM    4  C   UNL     1      -8.359   8.089  68.050  1.00  0.00    -0.126 C  
BRANCH   4   5
HETATM    5  C   UNL     1      -9.840   7.762  68.277  1.00  0.00    -0.185 C  
BRANCH   5   6
HETATM    6  C   UNL     1     -10.087   7.093  69.640  1.00  0.00    -0.196 C  
BRANCH   6   7
HETATM    7  C   UNL     1     -10.829   8.046  70.590  1.00  0.00    -0.240 C  
BRANCH   7   8
HETATM    8  C   UNL     1     -11.704   9.098  69.898  1.00  0.00     0.219 C  
BRANCH   8   9
HETATM    9  C   UNL     1     -13.136   9.198  70.396  1.00  0.00     0.715 C  
BRANCH   9  10
HETATM   10  C   UNL     1     -13.574  10.596  70.819  1.00  0.00     0.418 C  
BRANCH  10  11
HETATM   11  C   UNL     1     -12.649  11.702  71.401  1.00  0.00    -0.286 C  
HETATM   12  O   UNL     1     -13.082  12.372  72.343  1.00  0.00    -0.328 OA 
BRANCH  11  13
HETATM   13  O   UNL     1     -11.478  12.051  70.733  1.00  0.00     0.354 OA 
BRANCH  13  14
HETATM   14  C   UNL     1     -11.647  12.687  69.339  1.00  0.00    -0.306 C  
HETATM   15  C   UNL     1     -10.193  12.564  68.869  1.00  0.00    -0.012 C  
HETATM   16  C   UNL     1      -9.607  13.628  69.802  1.00  0.00     1.529 C  
HETATM   17  C   UNL     1     -10.366  14.800  69.237  1.00  0.00    -0.213 C  
HETATM   18  C   UNL     1      -9.695  16.173  69.210  1.00  0.00    -0.242 C  
HETATM   19  C   UNL     1      -8.206  15.816  68.980  1.00  0.00    -0.234 C  
HETATM   20  C   UNL     1      -7.324  16.845  68.378  1.00  0.00    -0.202 C  
HETATM   21  C   UNL     1      -8.019  17.494  67.167  1.00  0.00    -0.229 C  
HETATM   22  C   UNL     1      -7.245  17.944  66.182  1.00  0.00    -0.339 C  
HETATM   23  C   UNL     1      -6.433  18.983  66.875  1.00  0.00    -0.188 C  
HETATM   24  O   UNL     1      -5.245  19.087  66.647  1.00  0.00    -0.141 OA 
HETATM   25  C   UNL     1      -7.224  19.858  67.895  1.00  0.00    -0.317 C  
HETATM   26  C   UNL     1      -8.659  19.328  68.436  1.00  0.00    -0.389 C  
HETATM   27  C   UNL     1      -9.328  18.215  67.532  1.00  0.00    -0.258 C  
HETATM   28  C   UNL     1     -10.011  18.999  66.401  1.00  0.00    -0.447 C  
HETATM   29  C   UNL     1     -10.251  16.966  67.989  1.00  0.00    -0.310 C  
HETATM   30  C   UNL     1     -11.826  16.853  68.014  1.00  0.00     0.886 C  
HETATM   31  C   UNL     1     -12.354  15.281  67.999  1.00  0.00     0.481 C  
HETATM   32  C   UNL     1     -11.867  14.412  69.273  1.00  0.00    -0.365 C  
HETATM   33  C   UNL     1     -12.871  14.765  70.372  1.00  0.00    -0.323 C  
ENDBRANCH  13  14
ENDBRANCH  11  13
ENDBRANCH  10  11
ENDBRANCH   9  10
ENDBRANCH   8   9
ENDBRANCH   7   8
ENDBRANCH   6   7
ENDBRANCH   5   6
ENDBRANCH   4   5
ENDBRANCH   3   4
ENDBRANCH   2   3
TORSDOF 11
ENDMDL
MODEL      215
REMARK 921   NORMALIZED FREE ENERGY PREDICTED BY IDOCK:    0.72 KCAL/MOL
REMARK 922        TOTAL FREE ENERGY PREDICTED BY IDOCK:   -0.99 KCAL/MOL
REMARK 923 INTER-LIGAND FREE ENERGY PREDICTED BY IDOCK:   -0.33 KCAL/MOL
REMARK 924 INTRA-LIGAND FREE ENERGY PREDICTED BY IDOCK:   -0.67 KCAL/MOL
REMARK 927      BINDING AFFINITY PREDICTED BY RF-SCORE:    0.00 PKD
ROOT
HETATM    1  C   UNL     1      -7.292   8.558  71.462  1.00  0.00    -0.112 C  
HETATM    2  C   UNL     1      -7.230   9.395  72.715  1.00  0.00     1.112 C  
ENDROOT
BRANCH   2   3
HETATM    3  C   UNL     1      -6.393  10.679  72.514  1.00  0.00     2.416 C  
BRANCH   3   4
HETATM    4  C   UNL     1      -6.410  11.149  71.051  1.00  0.00     0.729 C  
BRANCH   4   5
HETATM    5  C   UNL     1      -5.135  11.911  70.673  1.00  0.00    -0.121 C  
BRANCH   5   6
HETATM    6  C   UNL     1      -5.209  12.505  69.256  1.00  0.00    -0.069 C  
BRANCH   6   7
HETATM    7  C   UNL     1      -5.909  13.873  69.273  1.00  0.00    -0.085 C  
BRANCH   7   8
HETATM    8  C   UNL     1      -6.840  14.137  68.084  1.00  0.00    -0.129 C  
BRANCH   8   9
HETATM    9  C   UNL     1      -8.004  13.171  67.927  1.00  0.00    -0.158 C  
BRANCH   9  10
HETATM   10  C   UNL     1      -8.621  13.127  66.534  1.00  0.00     0.153 C  
BRANCH  10  11
HETATM   11  C   UNL     1     -10.064  12.660  66.192  1.00  0.00    -0.257 C  
HETATM   12  O   UNL     1     -10.473  12.862  65.045  1.00  0.00    -0.298 OA 
BRANCH  11  13
HETATM   13  O   UNL     1     -10.916  12.237  67.209  1.00  0.00    -0.236 OA 
BRANCH  13  14
HETATM   14  C   UNL     1     -11.511  10.823  67.062  1.00  0.00     0.222 C  
HETATM   15  C   UNL     1     -12.274  10.772  68.391  1.00  0.00     0.421 C  
HETATM   16  C   UNL     1     -11.048  10.672  69.303  1.00  0.00    -0.306 C  
HETATM   17  C   UNL     1     -10.555   9.342  68.796  1.00  0.00    -0.220 C  
HETATM   18  C   UNL     1      -9.866   8.388  69.772  1.00  0.00    -0.187 C  
HETATM   19  C   UNL     1     -10.606   8.672  71.102  1.00  0.00    -0.291 C  
HETATM   20  C   UNL     1     -10.610   7.615  72.141  1.00  0.00    -0.281 C  
HETATM   21  C   UNL     1     -10.940   6.251  71.507  1.00  0.00    -0.322 C  
HETATM   22  C   UNL     1     -11.566   5.356  72.266  1.00  0.00    -0.102 C  
HETATM   23  C   UNL     1     -10.587   5.142  73.368  1.00  0.00    -0.255 C  
HETATM   24  O   UNL     1     -10.965   5.052  74.518  1.00  0.00    -0.244 OA 
HETATM   25  C   UNL     1      -9.096   5.079  72.913  1.00  0.00    -0.127 C  
HETATM   26  C   UNL     1      -8.695   5.663  71.453  1.00  0.00    -0.133 C  
HETATM   27  C   UNL     1      -9.911   5.808  70.452  1.00  0.00    -0.257 C  
HETATM   28  C   UNL     1     -10.100   4.399  69.869  1.00  0.00    -0.123 C  
HETATM   29  C   UNL     1     -10.145   6.927  69.305  1.00  0.00    -0.178 C  
HETATM   30  C   UNL     1      -9.832   6.844  67.759  1.00  0.00    -0.161 C  
HETATM   31  C   UNL     1     -10.710   7.934  66.870  1.00  0.00    -0.219 C  
HETATM   32  C   UNL     1     -10.425   9.479  67.257  1.00  0.00    -0.328 C  
HETATM   33  C   UNL     1      -9.154   9.830  66.479  1.00  0.00    -0.182 C  
ENDBRANCH  13  14
ENDBRANCH  11  13
ENDBRANCH  10  11
ENDBRANCH   9  10
ENDBRANCH   8   9
ENDBRANCH   7   8
ENDBRANCH   6   7
ENDBRANCH   5   6
ENDBRANCH   4   5
ENDBRANCH   3   4
ENDBRANCH   2   3
TORSDOF 11
ENDMDL
MODEL      216
REMARK 921   NORMALIZED FREE ENERGY PREDICTED BY IDOCK:    0.89 KCAL/MOL
REMARK 922        TOTAL FREE ENERGY PREDICTED BY IDOCK:   -0.72 KCAL/MOL
REMARK 923 INTER-LIGAND FREE ENERGY PREDICTED BY IDOCK:   -5.58 KCAL/MOL
REMARK 924 INTRA-LIGAND FREE ENERGY PREDICTED BY IDOCK:    4.86 KCAL/MOL
REMARK 927      BINDING AFFINITY PREDICTED BY RF-SCORE:    0.00 PKD
ROOT
HETATM    1  C   UNL     1     -11.347  16.240  65.372  1.00  0.00     0.188 C  
HETATM    2  C   UNL     1     -10.181  15.603  66.086  1.00  0.00    -0.327 C  
ENDROOT
BRANCH   2   3
HETATM    3  C   UNL     1     -10.418  14.099  66.355  1.00  0.00    -0.283 C  
BRANCH   3   4
HETATM    4  C   UNL     1     -11.750  13.615  65.760  1.00  0.00    -0.369 C  
BRANCH   4   5
HETATM    5  C   UNL     1     -11.966  14.129  64.332  1.00  0.00    -0.478 C  
BRANCH   5   6
HETATM    6  C   UNL     1     -12.284  12.994  63.345  1.00  0.00    -0.552 C  
BRANCH   6   7
HETATM    7  C   UNL     1     -11.757  11.650  63.869  1.00  0.00    -0.370 C  
BRANCH   7   8
HETATM    8  C   UNL     1     -10.433  11.188  63.248  1.00  0.00    -0.323 C  
BRANCH   8   9
HETATM    9  C   UNL     1      -9.171  11.642  63.964  1.00  0.00     0.136 C  
BRANCH   9  10
HETATM   10  C   UNL     1      -8.765  10.785  65.158  1.00  0.00    -0.174 C  
BRANCH  10  11
HETATM   11  C   UNL     1      -7.333  10.254  65.450  1.00  0.00    -0.144 C  
HETATM   12  O   UNL     1      -6.569  10.991  66.080  1.00  0.00    -0.111 OA 
BRANCH  11  13
HETATM   13  O   UNL     1      -6.883   9.092  64.830  1.00  0.00    -0.075 OA 
BRANCH  13  14
HETATM   14  C   UNL     1      -6.752   7.843  65.724  1.00  0.00    -0.045 C  
HETATM   15  C   UNL     1      -8.221   7.406  65.698  1.00  0.00    -0.137 C  
HETATM   16  C   UNL     1      -8.768   8.546  66.563  1.00  0.00    -0.149 C  
HETATM   17  C   UNL     1      -8.017   8.194  67.820  1.00  0.00    -0.127 C  
HETATM   18  C   UNL     1      -8.676   8.456  69.174  1.00  0.00    -0.142 C  
HETATM   19  C   UNL     1     -10.175   8.209  68.873  1.00  0.00    -0.221 C  
HETATM   20  C   UNL     1     -11.066   7.847  70.001  1.00  0.00    -0.165 C  
HETATM   21  C   UNL     1     -10.403   6.763  70.871  1.00  0.00    -0.222 C  
HETATM   22  C   UNL     1     -11.203   5.910  71.506  1.00  0.00    -0.290 C  
HETATM   23  C   UNL     1     -11.984   6.817  72.393  1.00  0.00    -0.135 C  
HETATM   24  O   UNL     1     -13.178   6.652  72.543  1.00  0.00     0.256 OA 
HETATM   25  C   UNL     1     -11.154   7.961  73.051  1.00  0.00    -0.379 C  
HETATM   26  C   UNL     1      -9.707   8.343  72.422  1.00  0.00    -0.376 C  
HETATM   27  C   UNL     1      -9.077   7.219  71.504  1.00  0.00    -0.145 C  
HETATM   28  C   UNL     1      -8.422   6.240  72.490  1.00  0.00    -0.120 C  
HETATM   29  C   UNL     1      -8.151   7.395  70.187  1.00  0.00    -0.131 C  
HETATM   30  C   UNL     1      -6.577   7.347  70.068  1.00  0.00    -0.046 C  
HETATM   31  C   UNL     1      -6.064   7.010  68.527  1.00  0.00    -0.030 C  
HETATM   32  C   UNL     1      -6.519   8.106  67.428  1.00  0.00    -0.057 C  
HETATM   33  C   UNL     1      -5.478   9.220  67.558  1.00  0.00    -0.037 C  
ENDBRANCH  13  14
ENDBRANCH  11  13
ENDBRANCH  10  11
ENDBRANCH   9  10
ENDBRANCH   8   9
ENDBRANCH   7   8
ENDBRANCH   6   7
ENDBRANCH   5   6
ENDBRANCH   4   5
ENDBRANCH   3   4
ENDBRANCH   2   3
TORSDOF 11
ENDMDL
MODEL      217
REMARK 921   NORMALIZED FREE ENERGY PREDICTED BY IDOCK:    1.20 KCAL/MOL
REMARK 922        TOTAL FREE ENERGY PREDICTED BY IDOCK:   -0.22 KCAL/MOL
REMARK 923 INTER-LIGAND FREE ENERGY PREDICTED BY IDOCK:   -3.45 KCAL/MOL
REMARK 924 INTRA-LIGAND FREE ENERGY PREDICTED BY IDOCK:    3.23 KCAL/MOL
REMARK 927      BINDING AFFINITY PREDICTED BY RF-SCORE:    0.00 PKD
ROOT
HETATM    1  C   UNL     1      -7.851  14.372  70.495  1.00  0.00     1.610 C  
HETATM    2  C   UNL     1      -8.725  15.408  69.834  1.00  0.00     0.153 C  
ENDROOT
BRANCH   2   3
HETATM    3  C   UNL     1      -7.922  16.324  68.882  1.00  0.00    -0.230 C  
BRANCH   3   4
HETATM    4  C   UNL     1      -8.006  15.845  67.424  1.00  0.00    -0.187 C  
BRANCH   4   5
HETATM    5  C   UNL     1      -9.210  14.926  67.186  1.00  0.00    -0.231 C  
BRANCH   5   6
HETATM    6  C   UNL     1     -10.515  15.714  66.982  1.00  0.00    -0.303 C  
BRANCH   6   7
HETATM    7  C   UNL     1     -11.589  15.262  67.983  1.00  0.00    -0.325 C  
BRANCH   7   8
HETATM    8  C   UNL     1     -11.277  13.953  68.718  1.00  0.00    -0.302 C  
BRANCH   8   9
HETATM    9  C   UNL     1     -10.656  12.852  67.875  1.00  0.00    -0.232 C  
BRANCH   9  10
HETATM   10  C   UNL     1     -10.635  13.124  66.375  1.00  0.00    -0.293 C  
BRANCH  10  11
HETATM   11  C   UNL     1     -10.359  12.073  65.263  1.00  0.00    -0.275 C  
HETATM   12  O   UNL     1     -10.512  12.428  64.091  1.00  0.00    -0.335 OA 
BRANCH  11  13
HETATM   13  O   UNL     1     -10.165  10.737  65.603  1.00  0.00    -0.249 OA 
BRANCH  13  14
HETATM   14  C   UNL     1      -9.147  10.455  66.725  1.00  0.00    -0.143 C  
HETATM   15  C   UNL     1      -8.183   9.572  65.923  1.00  0.00    -0.115 C  
HETATM   16  C   UNL     1      -9.103   8.353  65.808  1.00  0.00    -0.195 C  
HETATM   17  C   UNL     1      -9.180   8.045  67.281  1.00  0.00    -0.164 C  
HETATM   18  C   UNL     1      -9.293   6.588  67.727  1.00  0.00    -0.118 C  
HETATM   19  C   UNL     1      -8.469   5.840  66.651  1.00  0.00    -0.113 C  
HETATM   20  C   UNL     1      -7.900   4.516  66.999  1.00  0.00    -0.098 C  
HETATM   21  C   UNL     1      -7.233   4.576  68.386  1.00  0.00    -0.060 C  
HETATM   22  C   UNL     1      -6.201   3.765  68.608  1.00  0.00    -0.032 C  
HETATM   23  C   UNL     1      -6.819   2.421  68.438  1.00  0.00    -0.040 C  
HETATM   24  O   UNL     1      -6.228   1.543  67.843  1.00  0.00    -0.023 OA 
HETATM   25  C   UNL     1      -8.249   2.277  69.046  1.00  0.00    -0.071 C  
HETATM   26  C   UNL     1      -9.093   3.619  69.393  1.00  0.00    -0.201 C  
HETATM   27  C   UNL     1      -8.214   4.929  69.517  1.00  0.00    -0.084 C  
HETATM   28  C   UNL     1      -7.651   4.880  70.946  1.00  0.00    -0.073 C  
HETATM   29  C   UNL     1      -8.608   6.449  69.120  1.00  0.00    -0.125 C  
HETATM   30  C   UNL     1      -9.151   7.607  70.046  1.00  0.00    -0.151 C  
HETATM   31  C   UNL     1      -8.896   9.113  69.401  1.00  0.00    -0.146 C  
HETATM   32  C   UNL     1      -9.632   9.353  67.981  1.00  0.00    -0.156 C  
HETATM   33  C   UNL     1     -11.065   9.732  68.362  1.00  0.00    -0.142 C  
ENDBRANCH  13  14
ENDBRANCH  11  13
ENDBRANCH  10  11
ENDBRANCH   9  10
ENDBRANCH   8   9
ENDBRANCH   7   8
ENDBRANCH   6   7
ENDBRANCH   5   6
ENDBRANCH   4   5
ENDBRANCH   3   4
ENDBRANCH   2   3
TORSDOF 11
ENDMDL
MODEL      218
REMARK 921   NORMALIZED FREE ENERGY PREDICTED BY IDOCK:    1.25 KCAL/MOL
REMARK 922        TOTAL FREE ENERGY PREDICTED BY IDOCK:   -0.12 KCAL/MOL
REMARK 923 INTER-LIGAND FREE ENERGY PREDICTED BY IDOCK:   -4.50 KCAL/MOL
REMARK 924 INTRA-LIGAND FREE ENERGY PREDICTED BY IDOCK:    4.37 KCAL/MOL
REMARK 927      BINDING AFFINITY PREDICTED BY RF-SCORE:    0.00 PKD
ROOT
HETATM    1  C   UNL     1     -13.876  14.494  70.147  1.00  0.00     1.395 C  
HETATM    2  C   UNL     1     -12.723  15.466  70.196  1.00  0.00    -0.263 C  
ENDROOT
BRANCH   2   3
HETATM    3  C   UNL     1     -11.715  15.114  71.314  1.00  0.00    -0.409 C  
BRANCH   3   4
HETATM    4  C   UNL     1     -12.020  15.872  72.616  1.00  0.00    -0.610 C  
BRANCH   4   5
HETATM    5  C   UNL     1     -12.834  15.025  73.602  1.00  0.00    -0.583 C  
BRANCH   5   6
HETATM    6  C   UNL     1     -13.752  14.020  72.888  1.00  0.00    -0.218 C  
BRANCH   6   7
HETATM    7  C   UNL     1     -12.987  12.737  72.532  1.00  0.00     0.026 C  
BRANCH   7   8
HETATM    8  C   UNL     1     -13.869  11.510  72.268  1.00  0.00     0.323 C  
BRANCH   8   9
HETATM    9  C   UNL     1     -13.218  10.384  71.480  1.00  0.00    -0.485 C  
BRANCH   9  10
HETATM   10  C   UNL     1     -13.013   9.089  72.259  1.00  0.00    -0.490 C  
BRANCH  10  11
HETATM   11  C   UNL     1     -12.126   7.892  71.815  1.00  0.00    -0.303 C  
HETATM   12  O   UNL     1     -12.615   7.083  71.021  1.00  0.00    -0.375 OA 
BRANCH  11  13
HETATM   13  O   UNL     1     -10.920   7.642  72.464  1.00  0.00    -0.269 OA 
BRANCH  13  14
HETATM   14  C   UNL     1      -9.672   8.337  71.886  1.00  0.00    -0.232 C  
HETATM   15  C   UNL     1     -10.335   8.987  70.665  1.00  0.00    -0.284 C  
HETATM   16  C   UNL     1     -10.563   7.697  69.871  1.00  0.00    -0.237 C  
HETATM   17  C   UNL     1      -9.111   7.335  69.695  1.00  0.00    -0.140 C  
HETATM   18  C   UNL     1      -8.675   6.629  68.411  1.00  0.00    -0.122 C  
HETATM   19  C   UNL     1      -9.629   7.235  67.353  1.00  0.00    -0.176 C  
HETATM   20  C   UNL     1      -9.201   7.219  65.933  1.00  0.00    -0.004 C  
HETATM   21  C   UNL     1      -7.739   7.688  65.817  1.00  0.00    -0.100 C  
HETATM   22  C   UNL     1      -7.378   8.305  64.694  1.00  0.00    -0.090 C  
HETATM   23  C   UNL     1      -7.621   7.252  63.669  1.00  0.00    -0.114 C  
HETATM   24  O   UNL     1      -8.127   7.537  62.603  1.00  0.00    -0.137 OA 
HETATM   25  C   UNL     1      -7.205   5.811  64.100  1.00  0.00    -0.055 C  
HETATM   26  C   UNL     1      -6.981   5.499  65.677  1.00  0.00    -0.065 C  
HETATM   27  C   UNL     1      -6.749   6.783  66.571  1.00  0.00    -0.049 C  
HETATM   28  C   UNL     1      -5.258   7.110  66.394  1.00  0.00    -0.023 C  
HETATM   29  C   UNL     1      -7.203   7.040  68.104  1.00  0.00    -0.091 C  
HETATM   30  C   UNL     1      -6.364   6.865  69.430  1.00  0.00    -0.039 C  
HETATM   31  C   UNL     1      -6.978   7.743  70.696  1.00  0.00    -0.046 C  
HETATM   32  C   UNL     1      -8.485   7.327  71.114  1.00  0.00    -0.116 C  
HETATM   33  C   UNL     1      -8.298   6.106  72.018  1.00  0.00    -0.114 C  
ENDBRANCH  13  14
ENDBRANCH  11  13
ENDBRANCH  10  11
ENDBRANCH   9  10
ENDBRANCH   8   9
ENDBRANCH   7   8
ENDBRANCH   6   7
ENDBRANCH   5   6
ENDBRANCH   4   5
ENDBRANCH   3   4
ENDBRANCH   2   3
TORSDOF 11
ENDMDL
MODEL      219
REMARK 921   NORMALIZED FREE ENERGY PREDICTED BY IDOCK:    1.33 KCAL/MOL
REMARK 922        TOTAL FREE ENERGY PREDICTED BY IDOCK:    0.00 KCAL/MOL
REMARK 923 INTER-LIGAND FREE ENERGY PREDICTED BY IDOCK:   -4.79 KCAL/MOL
REMARK 924 INTRA-LIGAND FREE ENERGY PREDICTED BY IDOCK:    4.79 KCAL/MOL
REMARK 927      BINDING AFFINITY PREDICTED BY RF-SCORE:    0.00 PKD
ROOT
HETATM    1  C   UNL     1     -10.500  18.207  69.241  1.00  0.00     0.241 C  
HETATM    2  C   UNL     1     -10.222  17.003  70.107  1.00  0.00     0.598 C  
ENDROOT
BRANCH   2   3
HETATM    3  C   UNL     1      -9.471  15.894  69.334  1.00  0.00    -0.248 C  
BRANCH   3   4
HETATM    4  C   UNL     1      -8.488  16.479  68.308  1.00  0.00    -0.199 C  
BRANCH   4   5
HETATM    5  C   UNL     1      -7.515  15.422  67.771  1.00  0.00    -0.173 C  
BRANCH   5   6
HETATM    6  C   UNL     1      -8.178  14.484  66.750  1.00  0.00     0.045 C  
BRANCH   6   7
HETATM    7  C   UNL     1      -9.699  14.696  66.719  1.00  0.00    -0.267 C  
BRANCH   7   8
HETATM    8  C   UNL     1     -10.530  13.411  66.617  1.00  0.00    -0.280 C  
BRANCH   8   9
HETATM    9  C   UNL     1      -9.759  12.153  66.249  1.00  0.00    -0.251 C  
BRANCH   9  10
HETATM   10  C   UNL     1     -10.187  10.895  66.996  1.00  0.00    -0.256 C  
BRANCH  10  11
HETATM   11  C   UNL     1     -11.051  10.854  68.289  1.00  0.00    -0.266 C  
HETATM   12  O   UNL     1     -12.270  11.003  68.165  1.00  0.00    -0.578 OA 
BRANCH  11  13
HETATM   13  O   UNL     1     -10.435  10.870  69.537  1.00  0.00    -0.215 OA 
BRANCH  13  14
HETATM   14  C   UNL     1      -9.090  10.126  69.649  1.00  0.00    -0.174 C  
HETATM   15  C   UNL     1      -8.984   9.654  68.194  1.00  0.00    -0.123 C  
HETATM   16  C   UNL     1     -10.104   8.610  68.257  1.00  0.00    -0.225 C  
HETATM   17  C   UNL     1      -9.451   7.709  69.273  1.00  0.00    -0.158 C  
HETATM   18  C   UNL     1      -9.685   6.201  69.182  1.00  0.00    -0.164 C  
HETATM   19  C   UNL     1      -9.804   5.969  67.655  1.00  0.00    -0.134 C  
HETATM   20  C   UNL     1      -9.509   4.615  67.127  1.00  0.00    -0.171 C  
HETATM   21  C   UNL     1      -8.212   4.074  67.756  1.00  0.00    -0.093 C  
HETATM   22  C   UNL     1      -7.481   3.232  67.028  1.00  0.00    -0.074 C  
HETATM   23  C   UNL     1      -8.422   2.095  66.830  1.00  0.00    -0.099 C  
HETATM   24  O   UNL     1      -8.501   1.544  65.751  1.00  0.00    -0.088 OA 
HETATM   25  C   UNL     1      -9.274   1.725  68.083  1.00  0.00    -0.227 C  
HETATM   26  C   UNL     1      -9.409   2.804  69.287  1.00  0.00    -0.193 C  
HETATM   27  C   UNL     1      -8.293   3.926  69.285  1.00  0.00    -0.079 C  
HETATM   28  C   UNL     1      -7.086   3.269  69.971  1.00  0.00    -0.041 C  
HETATM   29  C   UNL     1      -8.422   5.476  69.738  1.00  0.00    -0.105 C  
HETATM   30  C   UNL     1      -8.052   6.140  71.122  1.00  0.00    -0.121 C  
HETATM   31  C   UNL     1      -7.799   7.774  70.999  1.00  0.00    -0.089 C  
HETATM   32  C   UNL     1      -9.091   8.603  70.488  1.00  0.00    -0.188 C  
HETATM   33  C   UNL     1      -9.931   8.802  71.751  1.00  0.00    -0.396 C  
ENDBRANCH  13  14
ENDBRANCH  11  13
ENDBRANCH  10  11
ENDBRANCH   9  10
ENDBRANCH   8   9
ENDBRANCH   7   8
ENDBRANCH   6   7
ENDBRANCH   5   6
ENDBRANCH   4   5
ENDBRANCH   3   4
ENDBRANCH   2   3
TORSDOF 11
ENDMDL
MODEL      220
REMARK 921   NORMALIZED FREE ENERGY PREDICTED BY IDOCK:    1.38 KCAL/MOL
REMARK 922        TOTAL FREE ENERGY PREDICTED BY IDOCK:    0.08 KCAL/MOL
REMARK 923 INTER-LIGAND FREE ENERGY PREDICTED BY IDOCK:   -3.82 KCAL/MOL
REMARK 924 INTRA-LIGAND FREE ENERGY PREDICTED BY IDOCK:    3.90 KCAL/MOL
REMARK 927      BINDING AFFINITY PREDICTED BY RF-SCORE:    0.00 PKD
ROOT
HETATM    1  C   UNL     1      -6.635  10.569  70.266  1.00  0.00    -0.138 C  
HETATM    2  C   UNL     1      -7.162  11.348  69.086  1.00  0.00    -0.102 C  
ENDROOT
BRANCH   2   3
HETATM    3  C   UNL     1      -6.044  12.131  68.361  1.00  0.00    -0.051 C  
BRANCH   3   4
HETATM    4  C   UNL     1      -6.279  12.189  66.844  1.00  0.00    -0.011 C  
BRANCH   4   5
HETATM    5  C   UNL     1      -6.451  10.794  66.231  1.00  0.00    -0.134 C  
BRANCH   5   6
HETATM    6  C   UNL     1      -7.897  10.527  65.784  1.00  0.00    -0.154 C  
BRANCH   6   7
HETATM    7  C   UNL     1      -7.999  10.501  64.251  1.00  0.00    -0.005 C  
BRANCH   7   8
HETATM    8  C   UNL     1      -8.582   9.210  63.664  1.00  0.00    -0.180 C  
BRANCH   8   9
HETATM    9  C   UNL     1      -7.582   8.099  63.387  1.00  0.00    -0.132 C  
BRANCH   9  10
HETATM   10  C   UNL     1      -6.847   7.573  64.614  1.00  0.00    -0.051 C  
BRANCH  10  11
HETATM   11  C   UNL     1      -6.427   6.097  64.860  1.00  0.00    -0.038 C  
HETATM   12  O   UNL     1      -5.243   5.877  65.128  1.00  0.00    -0.012 OA 
BRANCH  11  13
HETATM   13  O   UNL     1      -7.315   5.064  64.569  1.00  0.00    -0.061 OA 
BRANCH  13  14
HETATM   14  C   UNL     1      -8.592   4.993  65.429  1.00  0.00    -0.143 C  
HETATM   15  C   UNL     1      -8.572   6.431  65.961  1.00  0.00    -0.149 C  
HETATM   16  C   UNL     1      -7.369   6.266  66.895  1.00  0.00    -0.083 C  
HETATM   17  C   UNL     1      -7.994   5.250  67.815  1.00  0.00    -0.099 C  
HETATM   18  C   UNL     1      -7.621   5.267  69.297  1.00  0.00    -0.073 C  
HETATM   19  C   UNL     1      -7.396   6.774  69.572  1.00  0.00    -0.091 C  
HETATM   20  C   UNL     1      -7.537   7.260  70.966  1.00  0.00    -0.084 C  
HETATM   21  C   UNL     1      -8.814   6.680  71.601  1.00  0.00    -0.134 C  
HETATM   22  C   UNL     1      -9.423   7.409  72.532  1.00  0.00    -0.192 C  
HETATM   23  C   UNL     1      -8.375   7.511  73.584  1.00  0.00    -0.164 C  
HETATM   24  O   UNL     1      -8.186   8.561  74.164  1.00  0.00    -0.334 OA 
HETATM   25  C   UNL     1      -7.565   6.201  73.829  1.00  0.00    -0.091 C  
HETATM   26  C   UNL     1      -7.596   5.037  72.699  1.00  0.00    -0.096 C  
HETATM   27  C   UNL     1      -8.806   5.143  71.685  1.00  0.00    -0.145 C  
HETATM   28  C   UNL     1      -9.986   4.496  72.426  1.00  0.00    -0.229 C  
HETATM   29  C   UNL     1      -8.843   4.749  70.114  1.00  0.00    -0.130 C  
HETATM   30  C   UNL     1      -9.348   3.414  69.439  1.00  0.00    -0.237 C  
HETATM   31  C   UNL     1      -9.740   3.617  67.840  1.00  0.00    -0.108 C  
HETATM   32  C   UNL     1      -8.501   4.093  66.915  1.00  0.00    -0.100 C  
HETATM   33  C   UNL     1      -7.755   2.797  66.594  1.00  0.00    -0.076 C  
ENDBRANCH  13  14
ENDBRANCH  11  13
ENDBRANCH  10  11
ENDBRANCH   9  10
ENDBRANCH   8   9
ENDBRANCH   7   8
ENDBRANCH   6   7
ENDBRANCH   5   6
ENDBRANCH   4   5
ENDBRANCH   3   4
ENDBRANCH   2   3
TORSDOF 11
ENDMDL
MODEL      221
REMARK 921   NORMALIZED FREE ENERGY PREDICTED BY IDOCK:    1.84 KCAL/MOL
REMARK 922        TOTAL FREE ENERGY PREDICTED BY IDOCK:    0.84 KCAL/MOL
REMARK 923 INTER-LIGAND FREE ENERGY PREDICTED BY IDOCK:   -4.91 KCAL/MOL
REMARK 924 INTRA-LIGAND FREE ENERGY PREDICTED BY IDOCK:    5.76 KCAL/MOL
REMARK 927      BINDING AFFINITY PREDICTED BY RF-SCORE:    0.00 PKD
ROOT
HETATM    1  C   UNL     1      -9.472  17.155  67.924  1.00  0.00    -0.257 C  
HETATM    2  C   UNL     1      -8.215  16.547  67.353  1.00  0.00    -0.183 C  
ENDROOT
BRANCH   2   3
HETATM    3  C   UNL     1      -7.428  17.553  66.482  1.00  0.00    -0.309 C  
BRANCH   3   4
HETATM    4  C   UNL     1      -6.639  18.555  67.339  1.00  0.00    -0.201 C  
BRANCH   4   5
HETATM    5  C   UNL     1      -7.052  18.505  68.815  1.00  0.00    -0.310 C  
BRANCH   5   6
HETATM    6  C   UNL     1      -6.395  17.334  69.565  1.00  0.00    -0.235 C  
BRANCH   6   7
HETATM    7  C   UNL     1      -5.292  16.689  68.713  1.00  0.00    -0.122 C  
BRANCH   7   8
HETATM    8  C   UNL     1      -5.178  15.166  68.849  1.00  0.00    -0.096 C  
BRANCH   8   9
HETATM    9  C   UNL     1      -5.924  14.548  70.020  1.00  0.00    -0.141 C  
BRANCH   9  10
HETATM   10  C   UNL     1      -7.065  13.613  69.636  1.00  0.00     0.243 C  
BRANCH  10  11
HETATM   11  C   UNL     1      -7.391  13.120  68.197  1.00  0.00    -0.119 C  
HETATM   12  O   UNL     1      -6.570  12.380  67.648  1.00  0.00    -0.099 OA 
BRANCH  11  13
HETATM   13  O   UNL     1      -8.457  13.677  67.497  1.00  0.00    -0.165 OA 
BRANCH  13  14
HETATM   14  C   UNL     1      -9.644  12.742  67.195  1.00  0.00    -0.219 C  
HETATM   15  C   UNL     1      -9.996  12.368  68.640  1.00  0.00    -0.117 C  
HETATM   16  C   UNL     1      -8.767  11.494  68.908  1.00  0.00     0.031 C  
HETATM   17  C   UNL     1      -9.072  10.435  67.880  1.00  0.00    -0.132 C  
HETATM   18  C   UNL     1      -8.676   8.988  68.169  1.00  0.00    -0.130 C  
HETATM   19  C   UNL     1      -8.855   8.889  69.704  1.00  0.00    -0.142 C  
HETATM   20  C   UNL     1      -9.083   7.549  70.298  1.00  0.00    -0.154 C  
HETATM   21  C   UNL     1     -10.140   6.782  69.481  1.00  0.00    -0.192 C  
HETATM   22  C   UNL     1     -10.897   5.901  70.129  1.00  0.00    -0.402 C  
HETATM   23  C   UNL     1      -9.885   4.928  70.627  1.00  0.00    -0.219 C  
HETATM   24  O   UNL     1      -9.969   4.475  71.751  1.00  0.00    -0.180 OA 
HETATM   25  C   UNL     1      -8.747   4.592  69.615  1.00  0.00    -0.111 C  
HETATM   26  C   UNL     1      -8.497   5.588  68.358  1.00  0.00    -0.101 C  
HETATM   27  C   UNL     1      -9.718   6.536  68.022  1.00  0.00    -0.119 C  
HETATM   28  C   UNL     1     -10.661   5.663  67.180  1.00  0.00    -0.344 C  
HETATM   29  C   UNL     1      -9.691   8.051  67.449  1.00  0.00    -0.216 C  
HETATM   30  C   UNL     1      -9.840   8.550  65.958  1.00  0.00    -0.135 C  
HETATM   31  C   UNL     1     -10.315  10.135  65.860  1.00  0.00    -0.221 C  
HETATM   32  C   UNL     1      -9.275  11.176  66.533  1.00  0.00    -0.194 C  
HETATM   33  C   UNL     1      -8.218  11.400  65.450  1.00  0.00     0.377 C  
ENDBRANCH  13  14
ENDBRANCH  11  13
ENDBRANCH  10  11
ENDBRANCH   9  10
ENDBRANCH   8   9
ENDBRANCH   7   8
ENDBRANCH   6   7
ENDBRANCH   5   6
ENDBRANCH   4   5
ENDBRANCH   3   4
ENDBRANCH   2   3
TORSDOF 11
ENDMDL
MODEL      222
REMARK 921   NORMALIZED FREE ENERGY PREDICTED BY IDOCK:    1.92 KCAL/MOL
REMARK 922        TOTAL FREE ENERGY PREDICTED BY IDOCK:    0.98 KCAL/MOL
REMARK 923 INTER-LIGAND FREE ENERGY PREDICTED BY IDOCK:   -1.17 KCAL/MOL
REMARK 924 INTRA-LIGAND FREE ENERGY PREDICTED BY IDOCK:    2.15 KCAL/MOL
REMARK 927      BINDING AFFINITY PREDICTED BY RF-SCORE:    0.00 PKD
ROOT
HETATM    1  C   UNL     1      -7.383  11.156  68.918  1.00  0.00    -0.110 C  
HETATM    2  C   UNL     1      -8.023  10.185  69.879  1.00  0.00    -0.149 C  
ENDROOT
BRANCH   2   3
HETATM    3  C   UNL     1      -7.299   8.819  69.893  1.00  0.00    -0.052 C  
BRANCH   3   4
HETATM    4  C   UNL     1      -8.210   7.686  69.397  1.00  0.00    -0.129 C  
BRANCH   4   5
HETATM    5  C   UNL     1      -7.971   7.357  67.918  1.00  0.00    -0.119 C  
BRANCH   5   6
HETATM    6  C   UNL     1      -8.751   8.292  66.979  1.00  0.00    -0.132 C  
BRANCH   6   7
HETATM    7  C   UNL     1     -10.260   8.021  67.065  1.00  0.00    -0.374 C  
BRANCH   7   8
HETATM    8  C   UNL     1     -10.847   8.076  68.481  1.00  0.00     0.042 C  
BRANCH   8   9
HETATM    9  C   UNL     1     -11.298   9.447  68.958  1.00  0.00     0.183 C  
BRANCH   9  10
HETATM   10  C   UNL     1     -10.827   9.830  70.356  1.00  0.00    -0.370 C  
BRANCH  10  11
HETATM   11  C   UNL     1     -11.707  10.467  71.469  1.00  0.00     0.123 C  
HETATM   12  O   UNL     1     -12.456   9.718  72.103  1.00  0.00    -0.336 OA 
BRANCH  11  13
HETATM   13  O   UNL     1     -11.793  11.852  71.579  1.00  0.00     0.630 OA 
BRANCH  13  14
HETATM   14  C   UNL     1     -12.183  12.619  70.300  1.00  0.00    -0.271 C  
HETATM   15  C   UNL     1     -11.007  12.180  69.419  1.00  0.00    -0.109 C  
HETATM   16  C   UNL     1      -9.925  12.990  70.140  1.00  0.00     2.922 C  
HETATM   17  C   UNL     1     -10.485  14.354  69.828  1.00  0.00     0.124 C  
HETATM   18  C   UNL     1      -9.518  15.517  69.608  1.00  0.00    -0.244 C  
HETATM   19  C   UNL     1      -8.302  14.824  68.945  1.00  0.00    -0.163 C  
HETATM   20  C   UNL     1      -7.394  15.649  68.112  1.00  0.00    -0.123 C  
HETATM   21  C   UNL     1      -8.215  16.543  67.164  1.00  0.00    -0.207 C  
HETATM   22  C   UNL     1      -7.665  16.866  65.995  1.00  0.00    -0.100 C  
HETATM   23  C   UNL     1      -6.450  17.615  66.419  1.00  0.00    -0.237 C  
HETATM   24  O   UNL     1      -5.392  17.442  65.849  1.00  0.00    -0.282 OA 
HETATM   25  C   UNL     1      -6.662  18.574  67.631  1.00  0.00    -0.200 C  
HETATM   26  C   UNL     1      -7.969  18.372  68.572  1.00  0.00    -0.333 C  
HETATM   27  C   UNL     1      -9.131  17.533  67.903  1.00  0.00    -0.261 C  
HETATM   28  C   UNL     1      -9.883  18.548  67.029  1.00  0.00    -0.341 C  
HETATM   29  C   UNL     1     -10.176  16.516  68.610  1.00  0.00    -0.264 C  
HETATM   30  C   UNL     1     -11.651  16.793  69.101  1.00  0.00     0.358 C  
HETATM   31  C   UNL     1     -12.549  15.405  69.238  1.00  0.00     0.139 C  
HETATM   32  C   UNL     1     -11.960  14.344  70.307  1.00  0.00    -0.388 C  
HETATM   33  C   UNL     1     -12.481  14.845  71.656  1.00  0.00    -0.395 C  
ENDBRANCH  13  14
ENDBRANCH  11  13
ENDBRANCH  10  11
ENDBRANCH   9  10
ENDBRANCH   8   9
ENDBRANCH   7   8
ENDBRANCH   6   7
ENDBRANCH   5   6
ENDBRANCH   4   5
ENDBRANCH   3   4
ENDBRANCH   2   3
TORSDOF 11
ENDMDL
MODEL      223
REMARK 921   NORMALIZED FREE ENERGY PREDICTED BY IDOCK:    2.02 KCAL/MOL
REMARK 922        TOTAL FREE ENERGY PREDICTED BY IDOCK:    1.13 KCAL/MOL
REMARK 923 INTER-LIGAND FREE ENERGY PREDICTED BY IDOCK:   -0.79 KCAL/MOL
REMARK 924 INTRA-LIGAND FREE ENERGY PREDICTED BY IDOCK:    1.93 KCAL/MOL
REMARK 927      BINDING AFFINITY PREDICTED BY RF-SCORE:    0.00 PKD
ROOT
HETATM    1  C   UNL     1      -8.516  18.015  66.144  1.00  0.00    -0.141 C  
HETATM    2  C   UNL     1      -7.565  17.330  67.093  1.00  0.00    -0.217 C  
ENDROOT
BRANCH   2   3
HETATM    3  C   UNL     1      -8.251  16.190  67.881  1.00  0.00    -0.159 C  
BRANCH   3   4
HETATM    4  C   UNL     1      -7.598  14.828  67.597  1.00  0.00    -0.193 C  
BRANCH   4   5
HETATM    5  C   UNL     1      -6.068  14.915  67.564  1.00  0.00    -0.002 C  
BRANCH   5   6
HETATM    6  C   UNL     1      -5.400  13.716  68.257  1.00  0.00    -0.107 C  
BRANCH   6   7
HETATM    7  C   UNL     1      -6.125  13.366  69.565  1.00  0.00    -0.110 C  
BRANCH   7   8
HETATM    8  C   UNL     1      -6.258  11.865  69.849  1.00  0.00    -0.139 C  
BRANCH   8   9
HETATM    9  C   UNL     1      -7.219  11.104  68.950  1.00  0.00    -0.106 C  
BRANCH   9  10
HETATM   10  C   UNL     1      -7.075   9.587  68.992  1.00  0.00    -0.066 C  
BRANCH  10  11
HETATM   11  C   UNL     1      -7.545   8.598  67.888  1.00  0.00    -0.098 C  
HETATM   12  O   UNL     1      -6.919   7.542  67.763  1.00  0.00    -0.074 OA 
BRANCH  11  13
HETATM   13  O   UNL     1      -8.491   9.002  66.949  1.00  0.00    -0.117 OA 
BRANCH  13  14
HETATM   14  C   UNL     1      -9.970   8.831  67.347  1.00  0.00    -0.208 C  
HETATM   15  C   UNL     1     -10.496  10.161  66.795  1.00  0.00    -0.270 C  
HETATM   16  C   UNL     1      -9.833  11.068  67.836  1.00  0.00    -0.186 C  
HETATM   17  C   UNL     1     -10.572  10.534  69.036  1.00  0.00    -0.250 C  
HETATM   18  C   UNL     1     -10.914  11.490  70.179  1.00  0.00     0.328 C  
HETATM   19  C   UNL     1     -11.162  12.827  69.438  1.00  0.00    -0.198 C  
HETATM   20  C   UNL     1     -12.011  13.847  70.099  1.00  0.00    -0.402 C  
HETATM   21  C   UNL     1     -13.282  13.188  70.669  1.00  0.00     0.284 C  
HETATM   22  C   UNL     1     -14.383  13.932  70.735  1.00  0.00     1.364 C  
HETATM   23  C   UNL     1     -13.964  15.026  71.655  1.00  0.00    -0.502 C  
HETATM   24  O   UNL     1     -14.282  16.176  71.427  1.00  0.00     0.183 OA 
HETATM   25  C   UNL     1     -13.091  14.567  72.863  1.00  0.00    -0.614 C  
HETATM   26  C   UNL     1     -12.366  13.116  72.800  1.00  0.00     1.342 C  
HETATM   27  C   UNL     1     -12.986  12.122  71.738  1.00  0.00    -0.437 C  
HETATM   28  C   UNL     1     -14.205  11.513  72.447  1.00  0.00     1.044 C  
HETATM   29  C   UNL     1     -12.232  10.996  70.850  1.00  0.00    -0.471 C  
HETATM   30  C   UNL     1     -12.086   9.448  71.126  1.00  0.00    -0.406 C  
HETATM   31  C   UNL     1     -11.754   8.583  69.751  1.00  0.00     0.528 C  
HETATM   32  C   UNL     1     -10.365   8.997  69.033  1.00  0.00    -0.233 C  
HETATM   33  C   UNL     1      -9.297   8.223  69.809  1.00  0.00    -0.158 C  
ENDBRANCH  13  14
ENDBRANCH  11  13
ENDBRANCH  10  11
ENDBRANCH   9  10
ENDBRANCH   8   9
ENDBRANCH   7   8
ENDBRANCH   6   7
ENDBRANCH   5   6
ENDBRANCH   4   5
ENDBRANCH   3   4
ENDBRANCH   2   3
TORSDOF 11
ENDMDL
MODEL      224
REMARK 921   NORMALIZED FREE ENERGY PREDICTED BY IDOCK:    2.22 KCAL/MOL
REMARK 922        TOTAL FREE ENERGY PREDICTED BY IDOCK:    1.47 KCAL/MOL
REMARK 923 INTER-LIGAND FREE ENERGY PREDICTED BY IDOCK:    0.03 KCAL/MOL
REMARK 924 INTRA-LIGAND FREE ENERGY PREDICTED BY IDOCK:    1.43 KCAL/MOL
REMARK 927      BINDING AFFINITY PREDICTED BY RF-SCORE:    0.00 PKD
ROOT
HETATM    1  C   UNL     1     -11.828   2.072  72.724  1.00  0.00     0.557 C  
HETATM    2  C   UNL     1     -12.017   3.240  73.660  1.00  0.00     0.387 C  
ENDROOT
BRANCH   2   3
HETATM    3  C   UNL     1     -12.435   4.525  72.908  1.00  0.00     0.724 C  
BRANCH   3   4
HETATM    4  C   UNL     1     -11.300   5.064  72.025  1.00  0.00     0.171 C  
BRANCH   4   5
HETATM    5  C   UNL     1      -9.917   4.651  72.543  1.00  0.00    -0.220 C  
BRANCH   5   6
HETATM    6  C   UNL     1      -8.781   5.438  71.869  1.00  0.00    -0.136 C  
BRANCH   6   7
HETATM    7  C   UNL     1      -9.036   5.582  70.361  1.00  0.00    -0.156 C  
BRANCH   7   8
HETATM    8  C   UNL     1      -8.737   4.326  69.532  1.00  0.00    -0.121 C  
BRANCH   8   9
HETATM    9  C   UNL     1      -7.371   3.696  69.755  1.00  0.00    -0.045 C  
BRANCH   9  10
HETATM   10  C   UNL     1      -6.195   4.501  69.213  1.00  0.00    -0.027 C  
BRANCH  10  11
HETATM   11  C   UNL     1      -5.921   4.815  67.715  1.00  0.00    -0.023 C  
HETATM   12  O   UNL     1      -6.248   3.962  66.885  1.00  0.00    -0.030 OA 
BRANCH  11  13
HETATM   13  O   UNL     1      -5.141   5.914  67.367  1.00  0.00    -0.004 OA 
BRANCH  13  14
HETATM   14  C   UNL     1      -5.746   6.884  66.333  1.00  0.00    -0.029 C  
HETATM   15  C   UNL     1      -5.398   8.198  67.043  1.00  0.00    -0.032 C  
HETATM   16  C   UNL     1      -6.399   8.056  68.194  1.00  0.00    -0.054 C  
HETATM   17  C   UNL     1      -7.647   8.094  67.351  1.00  0.00    -0.101 C  
HETATM   18  C   UNL     1      -8.907   8.742  67.926  1.00  0.00    -0.136 C  
HETATM   19  C   UNL     1      -8.332   9.877  68.807  1.00  0.00    -0.116 C  
HETATM   20  C   UNL     1      -9.201  11.040  69.107  1.00  0.00    -0.022 C  
HETATM   21  C   UNL     1      -9.900  11.522  67.822  1.00  0.00    -0.186 C  
HETATM   22  C   UNL     1     -10.199  12.816  67.734  1.00  0.00    -0.223 C  
HETATM   23  C   UNL     1     -11.134  12.999  68.878  1.00  0.00    -0.262 C  
HETATM   24  O   UNL     1     -11.058  13.985  69.583  1.00  0.00    -0.206 OA 
HETATM   25  C   UNL     1     -12.150  11.833  69.086  1.00  0.00    -0.290 C  
HETATM   26  C   UNL     1     -11.851  10.399  68.387  1.00  0.00     0.172 C  
HETATM   27  C   UNL     1     -10.815  10.458  67.193  1.00  0.00    -0.301 C  
HETATM   28  C   UNL     1     -11.648  10.906  65.983  1.00  0.00     0.806 C  
HETATM   29  C   UNL     1      -9.728   9.343  66.745  1.00  0.00    -0.257 C  
HETATM   30  C   UNL     1      -9.845   8.239  65.622  1.00  0.00     0.478 C  
HETATM   31  C   UNL     1      -8.366   7.694  65.107  1.00  0.00    -0.100 C  
HETATM   32  C   UNL     1      -7.480   6.997  66.268  1.00  0.00    -0.080 C  
HETATM   33  C   UNL     1      -8.013   5.565  66.335  1.00  0.00    -0.105 C  
ENDBRANCH  13  14
ENDBRANCH  11  13
ENDBRANCH  10  11
ENDBRANCH   9  10
ENDBRANCH   8   9
ENDBRANCH   7   8
ENDBRANCH   6   7
ENDBRANCH   5   6
ENDBRANCH   4   5
ENDBRANCH   3   4
ENDBRANCH   2   3
TORSDOF 11
ENDMDL
MODEL      225
REMARK 921   NORMALIZED FREE ENERGY PREDICTED BY IDOCK:    2.23 KCAL/MOL
REMARK 922        TOTAL FREE ENERGY PREDICTED BY IDOCK:    1.47 KCAL/MOL
REMARK 923 INTER-LIGAND FREE ENERGY PREDICTED BY IDOCK:   -3.60 KCAL/MOL
REMARK 924 INTRA-LIGAND FREE ENERGY PREDICTED BY IDOCK:    5.07 KCAL/MOL
REMARK 927      BINDING AFFINITY PREDICTED BY RF-SCORE:    0.00 PKD
ROOT
HETATM    1  C   UNL     1     -10.682  15.868  66.611  1.00  0.00    -0.270 C  
HETATM    2  C   UNL     1     -10.601  14.522  65.936  1.00  0.00    -0.315 C  
ENDROOT
BRANCH   2   3
HETATM    3  C   UNL     1     -11.779  13.602  66.332  1.00  0.00    -0.403 C  
BRANCH   3   4
HETATM    4  C   UNL     1     -11.438  12.730  67.550  1.00  0.00    -0.390 C  
BRANCH   4   5
HETATM    5  C   UNL     1     -10.022  12.147  67.466  1.00  0.00    -0.202 C  
BRANCH   5   6
HETATM    6  C   UNL     1      -9.036  12.869  68.399  1.00  0.00    -0.126 C  
BRANCH   6   7
HETATM    7  C   UNL     1      -7.843  13.426  67.609  1.00  0.00    -0.174 C  
BRANCH   7   8
HETATM    8  C   UNL     1      -6.471  12.906  68.058  1.00  0.00    -0.108 C  
BRANCH   8   9
HETATM    9  C   UNL     1      -6.492  11.742  69.035  1.00  0.00    -0.084 C  
BRANCH   9  10
HETATM   10  C   UNL     1      -6.647  10.367  68.395  1.00  0.00    -0.059 C  
BRANCH  10  11
HETATM   11  C   UNL     1      -6.436  10.035  66.891  1.00  0.00    -0.069 C  
HETATM   12  O   UNL     1      -6.998  10.759  66.063  1.00  0.00    -0.131 OA 
BRANCH  11  13
HETATM   13  O   UNL     1      -5.821   8.842  66.522  1.00  0.00    -0.052 OA 
BRANCH  13  14
HETATM   14  C   UNL     1      -6.695   7.575  66.574  1.00  0.00    -0.058 C  
HETATM   15  C   UNL     1      -8.065   8.253  66.447  1.00  0.00    -0.105 C  
HETATM   16  C   UNL     1      -8.083   8.891  67.839  1.00  0.00    -0.106 C  
HETATM   17  C   UNL     1      -8.074   7.607  68.626  1.00  0.00    -0.127 C  
HETATM   18  C   UNL     1      -8.824   7.550  69.957  1.00  0.00    -0.144 C  
HETATM   19  C   UNL     1     -10.026   8.493  69.708  1.00  0.00    -0.191 C  
HETATM   20  C   UNL     1     -11.245   8.307  70.531  1.00  0.00    -0.247 C  
HETATM   21  C   UNL     1     -11.611   6.813  70.604  1.00  0.00    -0.422 C  
HETATM   22  C   UNL     1     -12.897   6.501  70.741  1.00  0.00     0.418 C  
HETATM   23  C   UNL     1     -13.235   7.135  72.045  1.00  0.00    -0.112 C  
HETATM   24  O   UNL     1     -14.288   7.722  72.189  1.00  0.00    -0.318 OA 
HETATM   25  C   UNL     1     -12.135   6.998  73.142  1.00  0.00     0.843 C  
HETATM   26  C   UNL     1     -10.624   6.608  72.695  1.00  0.00    -0.249 C  
HETATM   27  C   UNL     1     -10.517   5.951  71.260  1.00  0.00    -0.289 C  
HETATM   28  C   UNL     1     -10.863   4.472  71.487  1.00  0.00     0.323 C  
HETATM   29  C   UNL     1      -9.323   6.090  70.174  1.00  0.00    -0.172 C  
HETATM   30  C   UNL     1      -8.110   5.116  69.905  1.00  0.00    -0.082 C  
HETATM   31  C   UNL     1      -7.461   5.308  68.391  1.00  0.00    -0.075 C  
HETATM   32  C   UNL     1      -6.862   6.785  68.115  1.00  0.00    -0.078 C  
HETATM   33  C   UNL     1      -5.465   6.744  68.736  1.00  0.00    -0.017 C  
ENDBRANCH  13  14
ENDBRANCH  11  13
ENDBRANCH  10  11
ENDBRANCH   9  10
ENDBRANCH   8   9
ENDBRANCH   7   8
ENDBRANCH   6   7
ENDBRANCH   5   6
ENDBRANCH   4   5
ENDBRANCH   3   4
ENDBRANCH   2   3
TORSDOF 11
ENDMDL
MODEL      226
REMARK 921   NORMALIZED FREE ENERGY PREDICTED BY IDOCK:    2.30 KCAL/MOL
REMARK 922        TOTAL FREE ENERGY PREDICTED BY IDOCK:    1.60 KCAL/MOL
REMARK 923 INTER-LIGAND FREE ENERGY PREDICTED BY IDOCK:    0.53 KCAL/MOL
REMARK 924 INTRA-LIGAND FREE ENERGY PREDICTED BY IDOCK:    1.06 KCAL/MOL
REMARK 927      BINDING AFFINITY PREDICTED BY RF-SCORE:    0.00 PKD
ROOT
HETATM    1  C   UNL     1      -8.377  16.631  67.140  1.00  0.00    -0.202 C  
HETATM    2  C   UNL     1      -8.483  15.944  68.479  1.00  0.00    -0.184 C  
ENDROOT
BRANCH   2   3
HETATM    3  C   UNL     1      -9.951  15.657  68.870  1.00  0.00    -0.215 C  
BRANCH   3   4
HETATM    4  C   UNL     1     -10.364  14.219  68.518  1.00  0.00    -0.244 C  
BRANCH   4   5
HETATM    5  C   UNL     1     -11.834  14.128  68.092  1.00  0.00    -0.387 C  
BRANCH   5   6
HETATM    6  C   UNL     1     -12.282  12.677  67.848  1.00  0.00     0.056 C  
BRANCH   6   7
HETATM    7  C   UNL     1     -11.257  11.927  66.984  1.00  0.00    -0.379 C  
BRANCH   7   8
HETATM    8  C   UNL     1     -11.762  10.611  66.378  1.00  0.00     1.364 C  
BRANCH   8   9
HETATM    9  C   UNL     1     -10.688   9.648  65.899  1.00  0.00     0.443 C  
BRANCH   9  10
HETATM   10  C   UNL     1      -9.572  10.286  65.078  1.00  0.00    -0.346 C  
BRANCH  10  11
HETATM   11  C   UNL     1      -8.110  10.516  65.555  1.00  0.00    -0.155 C  
HETATM   12  O   UNL     1      -7.680  11.673  65.537  1.00  0.00     0.541 OA 
BRANCH  11  13
HETATM   13  O   UNL     1      -7.271   9.427  65.777  1.00  0.00    -0.091 OA 
BRANCH  13  14
HETATM   14  C   UNL     1      -6.700   9.280  67.201  1.00  0.00    -0.076 C  
HETATM   15  C   UNL     1      -6.931   7.773  67.370  1.00  0.00    -0.078 C  
HETATM   16  C   UNL     1      -8.458   7.833  67.482  1.00  0.00    -0.120 C  
HETATM   17  C   UNL     1      -8.513   8.637  68.755  1.00  0.00    -0.129 C  
HETATM   18  C   UNL     1      -9.650   8.378  69.744  1.00  0.00    -0.170 C  
HETATM   19  C   UNL     1      -9.903   6.860  69.577  1.00  0.00    -0.163 C  
HETATM   20  C   UNL     1     -10.537   6.128  70.700  1.00  0.00    -0.307 C  
HETATM   21  C   UNL     1      -9.870   6.522  72.031  1.00  0.00    -0.169 C  
HETATM   22  C   UNL     1      -9.844   5.609  72.999  1.00  0.00    -0.181 C  
HETATM   23  C   UNL     1     -11.294   5.376  73.247  1.00  0.00    -0.204 C  
HETATM   24  O   UNL     1     -11.714   4.252  73.428  1.00  0.00    -0.214 OA 
HETATM   25  C   UNL     1     -12.176   6.663  73.221  1.00  0.00     1.424 C  
HETATM   26  C   UNL     1     -11.585   8.005  72.526  1.00  0.00    -0.464 C  
HETATM   27  C   UNL     1     -10.012   8.017  72.363  1.00  0.00    -0.317 C  
HETATM   28  C   UNL     1      -9.486   8.462  73.736  1.00  0.00     0.617 C  
HETATM   29  C   UNL     1      -9.126   8.680  71.180  1.00  0.00    -0.263 C  
HETATM   30  C   UNL     1      -8.406  10.086  71.148  1.00  0.00     1.529 C  
HETATM   31  C   UNL     1      -7.177  10.148  70.037  1.00  0.00    -0.166 C  
HETATM   32  C   UNL     1      -7.657   9.907  68.511  1.00  0.00    -0.080 C  
HETATM   33  C   UNL     1      -8.170  11.276  68.060  1.00  0.00    -0.134 C  
ENDBRANCH  13  14
ENDBRANCH  11  13
ENDBRANCH  10  11
ENDBRANCH   9  10
ENDBRANCH   8   9
ENDBRANCH   7   8
ENDBRANCH   6   7
ENDBRANCH   5   6
ENDBRANCH   4   5
ENDBRANCH   3   4
ENDBRANCH   2   3
TORSDOF 11
ENDMDL
MODEL      227
REMARK 921   NORMALIZED FREE ENERGY PREDICTED BY IDOCK:    2.71 KCAL/MOL
REMARK 922        TOTAL FREE ENERGY PREDICTED BY IDOCK:    2.27 KCAL/MOL
REMARK 923 INTER-LIGAND FREE ENERGY PREDICTED BY IDOCK:   -2.52 KCAL/MOL
REMARK 924 INTRA-LIGAND FREE ENERGY PREDICTED BY IDOCK:    4.79 KCAL/MOL
REMARK 927      BINDING AFFINITY PREDICTED BY RF-SCORE:    0.00 PKD
ROOT
HETATM    1  C   UNL     1      -5.601   8.493  67.530  1.00  0.00    -0.039 C  
HETATM    2  C   UNL     1      -6.633   8.935  68.536  1.00  0.00    -0.059 C  
ENDROOT
BRANCH   2   3
HETATM    3  C   UNL     1      -8.026   8.330  68.244  1.00  0.00    -0.119 C  
BRANCH   3   4
HETATM    4  C   UNL     1      -8.231   8.071  66.743  1.00  0.00    -0.111 C  
BRANCH   4   5
HETATM    5  C   UNL     1      -8.285   9.372  65.933  1.00  0.00    -0.115 C  
BRANCH   5   6
HETATM    6  C   UNL     1      -8.609   9.124  64.451  1.00  0.00    -0.204 C  
BRANCH   6   7
HETATM    7  C   UNL     1      -9.915   9.828  64.051  1.00  0.00     0.594 C  
BRANCH   7   8
HETATM    8  C   UNL     1     -10.175  11.160  64.764  1.00  0.00    -0.365 C  
BRANCH   8   9
HETATM    9  C   UNL     1      -9.665  12.402  64.051  1.00  0.00    -0.031 C  
BRANCH   9  10
HETATM   10  C   UNL     1     -10.743  13.405  63.653  1.00  0.00     0.403 C  
BRANCH  10  11
HETATM   11  C   UNL     1     -10.953  14.812  64.281  1.00  0.00     0.154 C  
HETATM   12  O   UNL     1     -12.114  15.204  64.427  1.00  0.00    -0.441 OA 
BRANCH  11  13
HETATM   13  O   UNL     1      -9.866  15.663  64.458  1.00  0.00     0.212 OA 
BRANCH  13  14
HETATM   14  C   UNL     1      -9.201  15.649  65.848  1.00  0.00    -0.295 C  
HETATM   15  C   UNL     1      -9.532  14.200  66.229  1.00  0.00    -0.264 C  
HETATM   16  C   UNL     1     -11.036  14.402  66.431  1.00  0.00    -0.326 C  
HETATM   17  C   UNL     1     -10.936  15.362  67.588  1.00  0.00    -0.315 C  
HETATM   18  C   UNL     1     -12.010  15.326  68.674  1.00  0.00    -0.263 C  
HETATM   19  C   UNL     1     -12.388  13.825  68.726  1.00  0.00    -0.041 C  
HETATM   20  C   UNL     1     -12.989  13.297  69.974  1.00  0.00     0.481 C  
HETATM   21  C   UNL     1     -12.196  13.797  71.195  1.00  0.00    -0.362 C  
HETATM   22  C   UNL     1     -12.165  13.015  72.271  1.00  0.00     1.019 C  
HETATM   23  C   UNL     1     -13.606  12.938  72.642  1.00  0.00    -0.138 C  
HETATM   24  O   UNL     1     -14.094  11.885  72.996  1.00  0.00     0.875 OA 
HETATM   25  C   UNL     1     -14.388  14.281  72.504  1.00  0.00    -0.197 C  
HETATM   26  C   UNL     1     -13.753  15.470  71.601  1.00  0.00    -0.562 C  
HETATM   27  C   UNL     1     -12.199  15.330  71.336  1.00  0.00    -0.414 C  
HETATM   28  C   UNL     1     -11.540  15.898  72.601  1.00  0.00    -0.400 C  
HETATM   29  C   UNL     1     -11.358  15.761  70.021  1.00  0.00    -0.354 C  
HETATM   30  C   UNL     1     -10.539  17.086  69.758  1.00  0.00    -0.004 C  
HETATM   31  C   UNL     1      -9.396  16.905  68.570  1.00  0.00    -0.259 C  
HETATM   32  C   UNL     1     -10.007  16.514  67.124  1.00  0.00    -0.266 C  
HETATM   33  C   UNL     1     -10.448  17.854  66.530  1.00  0.00    -0.315 C  
ENDBRANCH  13  14
ENDBRANCH  11  13
ENDBRANCH  10  11
ENDBRANCH   9  10
ENDBRANCH   8   9
ENDBRANCH   7   8
ENDBRANCH   6   7
ENDBRANCH   5   6
ENDBRANCH   4   5
ENDBRANCH   3   4
ENDBRANCH   2   3
TORSDOF 11
ENDMDL
MODEL      228
REMARK 921   NORMALIZED FREE ENERGY PREDICTED BY IDOCK:    3.00 KCAL/MOL
REMARK 922        TOTAL FREE ENERGY PREDICTED BY IDOCK:    2.75 KCAL/MOL
REMARK 923 INTER-LIGAND FREE ENERGY PREDICTED BY IDOCK:   -2.12 KCAL/MOL
REMARK 924 INTRA-LIGAND FREE ENERGY PREDICTED BY IDOCK:    4.87 KCAL/MOL
REMARK 927      BINDING AFFINITY PREDICTED BY RF-SCORE:    0.00 PKD
ROOT
HETATM    1  C   UNL     1     -10.455   2.549  69.107  1.00  0.00     2.390 C  
HETATM    2  C   UNL     1      -9.350   1.601  69.502  1.00  0.00    -0.158 C  
ENDROOT
BRANCH   2   3
HETATM    3  C   UNL     1      -8.723   1.976  70.865  1.00  0.00    -0.105 C  
BRANCH   3   4
HETATM    4  C   UNL     1      -8.295   3.451  70.909  1.00  0.00    -0.090 C  
BRANCH   4   5
HETATM    5  C   UNL     1      -9.314   4.370  70.225  1.00  0.00    -0.218 C  
BRANCH   5   6
HETATM    6  C   UNL     1     -10.616   4.501  71.032  1.00  0.00     0.185 C  
BRANCH   6   7
HETATM    7  C   UNL     1     -11.083   5.964  71.082  1.00  0.00    -0.305 C  
BRANCH   7   8
HETATM    8  C   UNL     1     -11.536   6.544  69.737  1.00  0.00    -0.392 C  
BRANCH   8   9
HETATM    9  C   UNL     1     -10.560   7.497  69.065  1.00  0.00    -0.190 C  
BRANCH   9  10
HETATM   10  C   UNL     1      -9.937   6.975  67.775  1.00  0.00    -0.186 C  
BRANCH  10  11
HETATM   11  C   UNL     1      -8.441   6.603  67.574  1.00  0.00    -0.121 C  
HETATM   12  O   UNL     1      -8.039   5.556  68.090  1.00  0.00    -0.096 OA 
BRANCH  11  13
HETATM   13  O   UNL     1      -7.562   7.530  67.022  1.00  0.00    -0.098 OA 
BRANCH  13  14
HETATM   14  C   UNL     1      -6.914   8.528  68.001  1.00  0.00    -0.074 C  
HETATM   15  C   UNL     1      -8.170   8.892  68.801  1.00  0.00    -0.115 C  
HETATM   16  C   UNL     1      -8.863   9.699  67.699  1.00  0.00    -0.127 C  
HETATM   17  C   UNL     1      -7.829  10.791  67.599  1.00  0.00    -0.109 C  
HETATM   18  C   UNL     1      -8.283  12.211  67.265  1.00  0.00    -0.180 C  
HETATM   19  C   UNL     1      -9.673  12.290  67.944  1.00  0.00    -0.202 C  
HETATM   20  C   UNL     1     -10.202  13.627  68.304  1.00  0.00    -0.243 C  
HETATM   21  C   UNL     1      -9.106  14.461  68.995  1.00  0.00     0.000 C  
HETATM   22  C   UNL     1      -9.495  15.366  69.890  1.00  0.00    -0.063 C  
HETATM   23  C   UNL     1     -10.335  16.278  69.065  1.00  0.00    -0.264 C  
HETATM   24  O   UNL     1     -11.381  16.713  69.502  1.00  0.00    -0.174 OA 
HETATM   25  C   UNL     1      -9.772  16.577  67.641  1.00  0.00    -0.239 C  
HETATM   26  C   UNL     1      -8.637  15.594  67.024  1.00  0.00    -0.253 C  
HETATM   27  C   UNL     1      -7.881  14.714  68.099  1.00  0.00    -0.128 C  
HETATM   28  C   UNL     1      -6.803  15.648  68.670  1.00  0.00    -0.120 C  
HETATM   29  C   UNL     1      -7.298  13.211  67.943  1.00  0.00    -0.131 C  
HETATM   30  C   UNL     1      -5.827  12.748  67.603  1.00  0.00    -0.141 C  
HETATM   31  C   UNL     1      -5.522  11.190  68.081  1.00  0.00    -0.042 C  
HETATM   32  C   UNL     1      -6.466  10.086  67.369  1.00  0.00    -0.068 C  
HETATM   33  C   UNL     1      -5.791   9.832  66.020  1.00  0.00    -0.062 C  
ENDBRANCH  13  14
ENDBRANCH  11  13
ENDBRANCH  10  11
ENDBRANCH   9  10
ENDBRANCH   8   9
ENDBRANCH   7   8
ENDBRANCH   6   7
ENDBRANCH   5   6
ENDBRANCH   4   5
ENDBRANCH   3   4
ENDBRANCH   2   3
TORSDOF 11
ENDMDL
MODEL      229
REMARK 921   NORMALIZED FREE ENERGY PREDICTED BY IDOCK:    3.17 KCAL/MOL
REMARK 922        TOTAL FREE ENERGY PREDICTED BY IDOCK:    3.03 KCAL/MOL
REMARK 923 INTER-LIGAND FREE ENERGY PREDICTED BY IDOCK:   -4.05 KCAL/MOL
REMARK 924 INTRA-LIGAND FREE ENERGY PREDICTED BY IDOCK:    7.07 KCAL/MOL
REMARK 927      BINDING AFFINITY PREDICTED BY RF-SCORE:    0.00 PKD
ROOT
HETATM    1  C   UNL     1     -10.111   6.277  69.453  1.00  0.00    -0.215 C  
HETATM    2  C   UNL     1     -10.735   5.088  68.764  1.00  0.00     0.266 C  
ENDROOT
BRANCH   2   3
HETATM    3  C   UNL     1      -9.709   4.309  67.909  1.00  0.00    -0.172 C  
BRANCH   3   4
HETATM    4  C   UNL     1      -8.409   5.103  67.714  1.00  0.00    -0.105 C  
BRANCH   4   5
HETATM    5  C   UNL     1      -8.409   6.418  68.503  1.00  0.00    -0.113 C  
BRANCH   5   6
HETATM    6  C   UNL     1      -7.233   7.330  68.118  1.00  0.00    -0.091 C  
BRANCH   6   7
HETATM    7  C   UNL     1      -7.146   7.497  66.594  1.00  0.00    -0.078 C  
BRANCH   7   8
HETATM    8  C   UNL     1      -7.960   6.479  65.785  1.00  0.00    -0.115 C  
BRANCH   8   9
HETATM    9  C   UNL     1      -7.610   6.375  64.309  1.00  0.00    -0.099 C  
BRANCH   9  10
HETATM   10  C   UNL     1      -8.043   7.565  63.459  1.00  0.00    -0.023 C  
BRANCH  10  11
HETATM   11  C   UNL     1      -8.958   8.731  63.927  1.00  0.00     0.334 C  
HETATM   12  O   UNL     1      -9.130   9.671  63.145  1.00  0.00    -0.259 OA 
BRANCH  11  13
HETATM   13  O   UNL     1      -9.375   8.799  65.253  1.00  0.00    -0.122 OA 
BRANCH  13  14
HETATM   14  C   UNL     1     -10.582   9.711  65.548  1.00  0.00     0.735 C  
HETATM   15  C   UNL     1     -10.289  10.797  64.505  1.00  0.00    -0.401 C  
HETATM   16  C   UNL     1      -9.065  11.398  65.203  1.00  0.00    -0.058 C  
HETATM   17  C   UNL     1      -9.780  11.874  66.441  1.00  0.00    -0.238 C  
HETATM   18  C   UNL     1      -9.303  13.157  67.123  1.00  0.00    -0.235 C  
HETATM   19  C   UNL     1      -8.817  14.013  65.928  1.00  0.00     0.700 C  
HETATM   20  C   UNL     1      -8.776  15.486  66.093  1.00  0.00    -0.186 C  
HETATM   21  C   UNL     1     -10.081  15.981  66.743  1.00  0.00    -0.272 C  
HETATM   22  C   UNL     1     -10.495  17.208  66.433  1.00  0.00    -0.255 C  
HETATM   23  C   UNL     1      -9.371  18.050  66.927  1.00  0.00    -0.276 C  
HETATM   24  O   UNL     1      -8.972  18.990  66.270  1.00  0.00    -0.340 OA 
HETATM   25  C   UNL     1      -8.770  17.601  68.295  1.00  0.00    -0.276 C  
HETATM   26  C   UNL     1      -9.072  16.099  68.830  1.00  0.00    -0.229 C  
HETATM   27  C   UNL     1     -10.318  15.401  68.148  1.00  0.00    -0.239 C  
HETATM   28  C   UNL     1     -11.532  15.949  68.914  1.00  0.00    -0.386 C  
HETATM   29  C   UNL     1     -10.532  13.833  67.803  1.00  0.00    -0.240 C  
HETATM   30  C   UNL     1     -11.296  12.730  68.634  1.00  0.00    -0.333 C  
HETATM   31  C   UNL     1     -11.763  11.439  67.703  1.00  0.00    -0.246 C  
HETATM   32  C   UNL     1     -10.533  10.646  67.015  1.00  0.00    -0.295 C  
HETATM   33  C   UNL     1     -10.033   9.705  68.113  1.00  0.00    -0.185 C  
ENDBRANCH  13  14
ENDBRANCH  11  13
ENDBRANCH  10  11
ENDBRANCH   9  10
ENDBRANCH   8   9
ENDBRANCH   7   8
ENDBRANCH   6   7
ENDBRANCH   5   6
ENDBRANCH   4   5
ENDBRANCH   3   4
ENDBRANCH   2   3
TORSDOF 11
ENDMDL
MODEL      230
REMARK 921   NORMALIZED FREE ENERGY PREDICTED BY IDOCK:    3.40 KCAL/MOL
REMARK 922        TOTAL FREE ENERGY PREDICTED BY IDOCK:    3.41 KCAL/MOL
REMARK 923 INTER-LIGAND FREE ENERGY PREDICTED BY IDOCK:    1.28 KCAL/MOL
REMARK 924 INTRA-LIGAND FREE ENERGY PREDICTED BY IDOCK:    2.13 KCAL/MOL
REMARK 927      BINDING AFFINITY PREDICTED BY RF-SCORE:    0.00 PKD
ROOT
HETATM    1  C   UNL     1     -11.917   6.791  72.396  1.00  0.00    -0.171 C  
HETATM    2  C   UNL     1     -11.354   7.150  71.043  1.00  0.00    -0.310 C  
ENDROOT
BRANCH   2   3
HETATM    3  C   UNL     1     -11.888   8.510  70.536  1.00  0.00    -0.022 C  
BRANCH   3   4
HETATM    4  C   UNL     1     -12.369   9.401  71.691  1.00  0.00    -0.465 C  
BRANCH   4   5
HETATM    5  C   UNL     1     -11.787  10.817  71.611  1.00  0.00     0.349 C  
BRANCH   5   6
HETATM    6  C   UNL     1     -11.581  11.282  70.160  1.00  0.00    -0.393 C  
BRANCH   6   7
HETATM    7  C   UNL     1     -12.863  11.088  69.336  1.00  0.00     0.555 C  
BRANCH   7   8
HETATM    8  C   UNL     1     -12.960  11.957  68.076  1.00  0.00     3.514 C  
BRANCH   8   9
HETATM    9  C   UNL     1     -11.931  11.671  66.994  1.00  0.00     0.166 C  
BRANCH   9  10
HETATM   10  C   UNL     1     -12.271  12.233  65.618  1.00  0.00    -0.203 C  
BRANCH  10  11
HETATM   11  C   UNL     1     -11.339  13.116  64.741  1.00  0.00    -0.324 C  
HETATM   12  O   UNL     1     -11.473  14.341  64.820  1.00  0.00    -0.359 OA 
BRANCH  11  13
HETATM   13  O   UNL     1     -10.550  12.529  63.756  1.00  0.00    -0.414 OA 
BRANCH  13  14
HETATM   14  C   UNL     1      -9.061  12.328  64.097  1.00  0.00     0.838 C  
HETATM   15  C   UNL     1      -8.832  11.034  63.307  1.00  0.00    -0.115 C  
HETATM   16  C   UNL     1      -9.650  10.115  64.220  1.00  0.00    -0.354 C  
HETATM   17  C   UNL     1      -8.794  10.275  65.450  1.00  0.00    -0.192 C  
HETATM   18  C   UNL     1      -8.638   9.089  66.401  1.00  0.00    -0.136 C  
HETATM   19  C   UNL     1      -8.686   7.876  65.439  1.00  0.00    -0.078 C  
HETATM   20  C   UNL     1      -8.055   6.608  65.878  1.00  0.00    -0.126 C  
HETATM   21  C   UNL     1      -6.666   6.890  66.480  1.00  0.00    -0.052 C  
HETATM   22  C   UNL     1      -5.742   5.939  66.365  1.00  0.00    -0.017 C  
HETATM   23  C   UNL     1      -6.362   4.811  67.114  1.00  0.00    -0.040 C  
HETATM   24  O   UNL     1      -6.293   3.677  66.684  1.00  0.00    -0.034 OA 
HETATM   25  C   UNL     1      -7.098   5.223  68.426  1.00  0.00    -0.062 C  
HETATM   26  C   UNL     1      -7.508   6.779  68.640  1.00  0.00    -0.099 C  
HETATM   27  C   UNL     1      -6.714   7.795  67.723  1.00  0.00    -0.068 C  
HETATM   28  C   UNL     1      -5.383   8.015  68.457  1.00  0.00    -0.032 C  
HETATM   29  C   UNL     1      -7.235   9.184  67.073  1.00  0.00    -0.090 C  
HETATM   30  C   UNL     1      -7.052  10.659  67.607  1.00  0.00    -0.084 C  
HETATM   31  C   UNL     1      -7.221  11.796  66.412  1.00  0.00     0.211 C  
HETATM   32  C   UNL     1      -8.679  11.799  65.710  1.00  0.00     0.132 C  
HETATM   33  C   UNL     1      -9.548  12.628  66.657  1.00  0.00    -0.249 C  
ENDBRANCH  13  14
ENDBRANCH  11  13
ENDBRANCH  10  11
ENDBRANCH   9  10
ENDBRANCH   8   9
ENDBRANCH   7   8
ENDBRANCH   6   7
ENDBRANCH   5   6
ENDBRANCH   4   5
ENDBRANCH   3   4
ENDBRANCH   2   3
TORSDOF 11
ENDMDL
MODEL      231
REMARK 921   NORMALIZED FREE ENERGY PREDICTED BY IDOCK:    3.95 KCAL/MOL
REMARK 922        TOTAL FREE ENERGY PREDICTED BY IDOCK:    4.32 KCAL/MOL
REMARK 923 INTER-LIGAND FREE ENERGY PREDICTED BY IDOCK:   -1.71 KCAL/MOL
REMARK 924 INTRA-LIGAND FREE ENERGY PREDICTED BY IDOCK:    6.02 KCAL/MOL
REMARK 927      BINDING AFFINITY PREDICTED BY RF-SCORE:    0.00 PKD
ROOT
HETATM    1  C   UNL     1      -9.623  12.572  65.076  1.00  0.00     0.098 C  
HETATM    2  C   UNL     1     -10.713  12.838  66.085  1.00  0.00    -0.297 C  
ENDROOT
BRANCH   2   3
HETATM    3  C   UNL     1     -10.158  12.945  67.524  1.00  0.00    -0.214 C  
BRANCH   3   4
HETATM    4  C   UNL     1      -8.643  13.205  67.534  1.00  0.00    -0.196 C  
BRANCH   4   5
HETATM    5  C   UNL     1      -8.068  13.220  68.955  1.00  0.00     0.300 C  
BRANCH   5   6
HETATM    6  C   UNL     1      -8.021  14.636  69.552  1.00  0.00     0.063 C  
BRANCH   6   7
HETATM    7  C   UNL     1      -7.342  15.615  68.582  1.00  0.00    -0.127 C  
BRANCH   7   8
HETATM    8  C   UNL     1      -5.834  15.403  68.399  1.00  0.00    -0.107 C  
BRANCH   8   9
HETATM    9  C   UNL     1      -5.266  14.132  69.009  1.00  0.00    -0.078 C  
BRANCH   9  10
HETATM   10  C   UNL     1      -6.196  12.924  68.964  1.00  0.00    -0.095 C  
BRANCH  10  11
HETATM   11  C   UNL     1      -6.294  11.811  70.044  1.00  0.00    -0.092 C  
HETATM   12  O   UNL     1      -5.537  11.890  71.016  1.00  0.00    -0.308 OA 
BRANCH  11  13
HETATM   13  O   UNL     1      -7.051  10.668  69.798  1.00  0.00    -0.134 OA 
BRANCH  13  14
HETATM   14  C   UNL     1      -6.276   9.419  69.336  1.00  0.00    -0.040 C  
HETATM   15  C   UNL     1      -6.404   9.634  67.823  1.00  0.00    -0.053 C  
HETATM   16  C   UNL     1      -7.901   9.323  67.719  1.00  0.00    -0.092 C  
HETATM   17  C   UNL     1      -7.816   7.884  68.157  1.00  0.00    -0.127 C  
HETATM   18  C   UNL     1      -8.786   6.869  67.552  1.00  0.00    -0.118 C  
HETATM   19  C   UNL     1      -8.983   7.406  66.113  1.00  0.00    -0.182 C  
HETATM   20  C   UNL     1      -9.413   6.452  65.062  1.00  0.00     0.993 C  
HETATM   21  C   UNL     1      -8.585   5.157  65.153  1.00  0.00    -0.150 C  
HETATM   22  C   UNL     1      -8.376   4.481  64.026  1.00  0.00    -0.116 C  
HETATM   23  C   UNL     1      -9.762   4.129  63.612  1.00  0.00    -0.117 C  
HETATM   24  O   UNL     1     -10.094   4.207  62.447  1.00  0.00    -0.157 OA 
HETATM   25  C   UNL     1     -10.703   3.699  64.779  1.00  0.00     0.091 C  
HETATM   26  C   UNL     1     -10.286   4.074  66.302  1.00  0.00     0.095 C  
HETATM   27  C   UNL     1      -8.754   4.420  66.493  1.00  0.00    -0.112 C  
HETATM   28  C   UNL     1      -8.063   3.053  66.609  1.00  0.00    -0.084 C  
HETATM   29  C   UNL     1      -8.080   5.481  67.515  1.00  0.00    -0.101 C  
HETATM   30  C   UNL     1      -7.444   5.221  68.937  1.00  0.00    -0.074 C  
HETATM   31  C   UNL     1      -6.390   6.417  69.393  1.00  0.00    -0.035 C  
HETATM   32  C   UNL     1      -7.069   7.880  69.515  1.00  0.00    -0.059 C  
HETATM   33  C   UNL     1      -7.709   7.880  70.905  1.00  0.00    -0.083 C  
ENDBRANCH  13  14
ENDBRANCH  11  13
ENDBRANCH  10  11
ENDBRANCH   9  10
ENDBRANCH   8   9
ENDBRANCH   7   8
ENDBRANCH   6   7
ENDBRANCH   5   6
ENDBRANCH   4   5
ENDBRANCH   3   4
ENDBRANCH   2   3
TORSDOF 11
ENDMDL
MODEL      232
REMARK 921   NORMALIZED FREE ENERGY PREDICTED BY IDOCK:    5.14 KCAL/MOL
REMARK 922        TOTAL FREE ENERGY PREDICTED BY IDOCK:    6.26 KCAL/MOL
REMARK 923 INTER-LIGAND FREE ENERGY PREDICTED BY IDOCK:    7.10 KCAL/MOL
REMARK 924 INTRA-LIGAND FREE ENERGY PREDICTED BY IDOCK:   -0.84 KCAL/MOL
REMARK 927      BINDING AFFINITY PREDICTED BY RF-SCORE:    0.00 PKD
ROOT
HETATM    1  C   UNL     1      -6.399   9.851  72.838  1.00  0.00     1.186 C  
HETATM    2  C   UNL     1      -6.643  10.706  74.056  1.00  0.00     3.057 C  
ENDROOT
BRANCH   2   3
HETATM    3  C   UNL     1      -6.248  12.182  73.818  1.00  0.00     3.418 C  
BRANCH   3   4
HETATM    4  C   UNL     1      -6.151  12.512  72.321  1.00  0.00     2.527 C  
BRANCH   4   5
HETATM    5  C   UNL     1      -5.174  13.661  72.044  1.00  0.00    -0.181 C  
BRANCH   5   6
HETATM    6  C   UNL     1      -5.329  14.230  70.624  1.00  0.00    -0.127 C  
BRANCH   6   7
HETATM    7  C   UNL     1      -6.471  15.257  70.568  1.00  0.00     0.137 C  
BRANCH   7   8
HETATM    8  C   UNL     1      -7.202  15.338  69.222  1.00  0.00    -0.184 C  
BRANCH   8   9
HETATM    9  C   UNL     1      -7.670  14.013  68.642  1.00  0.00    -0.135 C  
BRANCH   9  10
HETATM   10  C   UNL     1      -8.082  14.062  67.175  1.00  0.00    -0.121 C  
BRANCH  10  11
HETATM   11  C   UNL     1      -9.181  13.186  66.510  1.00  0.00    -0.177 C  
HETATM   12  O   UNL     1      -9.567  13.513  65.383  1.00  0.00    -0.068 OA 
BRANCH  11  13
HETATM   13  O   UNL     1      -9.843  12.216  67.256  1.00  0.00    -0.194 OA 
BRANCH  13  14
HETATM   14  C   UNL     1      -9.917  10.806  66.638  1.00  0.00    -0.206 C  
HETATM   15  C   UNL     1     -10.642  10.103  67.792  1.00  0.00    -0.304 C  
HETATM   16  C   UNL     1      -9.473  10.120  68.781  1.00  0.00    -0.171 C  
HETATM   17  C   UNL     1      -8.546   9.244  67.978  1.00  0.00    -0.121 C  
HETATM   18  C   UNL     1      -7.592   8.305  68.716  1.00  0.00    -0.101 C  
HETATM   19  C   UNL     1      -8.410   7.910  69.970  1.00  0.00    -0.121 C  
HETATM   20  C   UNL     1      -8.072   6.639  70.655  1.00  0.00    -0.112 C  
HETATM   21  C   UNL     1      -7.905   5.510  69.620  1.00  0.00    -0.090 C  
HETATM   22  C   UNL     1      -8.203   4.272  70.008  1.00  0.00    -0.070 C  
HETATM   23  C   UNL     1      -7.230   4.050  71.113  1.00  0.00    -0.033 C  
HETATM   24  O   UNL     1      -7.577   3.491  72.134  1.00  0.00    -0.055 OA 
HETATM   25  C   UNL     1      -5.799   4.610  70.847  1.00  0.00    -0.017 C  
HETATM   26  C   UNL     1      -5.594   5.715  69.676  1.00  0.00    -0.008 C  
HETATM   27  C   UNL     1      -6.768   5.769  68.617  1.00  0.00    -0.060 C  
HETATM   28  C   UNL     1      -6.453   4.630  67.636  1.00  0.00    -0.045 C  
HETATM   29  C   UNL     1      -7.347   7.055  67.820  1.00  0.00    -0.097 C  
HETATM   30  C   UNL     1      -6.996   7.561  66.366  1.00  0.00    -0.070 C  
HETATM   31  C   UNL     1      -8.176   8.534  65.726  1.00  0.00    -0.125 C  
HETATM   32  C   UNL     1      -8.442   9.888  66.571  1.00  0.00    -0.127 C  
HETATM   33  C   UNL     1      -7.353  10.849  66.090  1.00  0.00    -0.103 C  
ENDBRANCH  13  14
ENDBRANCH  11  13
ENDBRANCH  10  11
ENDBRANCH   9  10
ENDBRANCH   8   9
ENDBRANCH   7   8
ENDBRANCH   6   7
ENDBRANCH   5   6
ENDBRANCH   4   5
ENDBRANCH   3   4
ENDBRANCH   2   3
TORSDOF 11
ENDMDL
MODEL      233
REMARK 921   NORMALIZED FREE ENERGY PREDICTED BY IDOCK:    5.22 KCAL/MOL
REMARK 922        TOTAL FREE ENERGY PREDICTED BY IDOCK:    6.40 KCAL/MOL
REMARK 923 INTER-LIGAND FREE ENERGY PREDICTED BY IDOCK:    5.12 KCAL/MOL
REMARK 924 INTRA-LIGAND FREE ENERGY PREDICTED BY IDOCK:    1.28 KCAL/MOL
REMARK 927      BINDING AFFINITY PREDICTED BY RF-SCORE:    0.00 PKD
ROOT
HETATM    1  C   UNL     1      -6.745  10.180  67.586  1.00  0.00    -0.075 C  
HETATM    2  C   UNL     1      -7.301   9.146  68.534  1.00  0.00    -0.077 C  
ENDROOT
BRANCH   2   3
HETATM    3  C   UNL     1      -6.532   7.808  68.448  1.00  0.00    -0.053 C  
BRANCH   3   4
HETATM    4  C   UNL     1      -7.432   6.662  67.960  1.00  0.00    -0.098 C  
BRANCH   4   5
HETATM    5  C   UNL     1      -7.398   6.509  66.435  1.00  0.00    -0.074 C  
BRANCH   5   6
HETATM    6  C   UNL     1      -8.419   7.419  65.733  1.00  0.00    -0.149 C  
BRANCH   6   7
HETATM    7  C   UNL     1      -9.849   6.898  65.941  1.00  0.00     0.416 C  
BRANCH   7   8
HETATM    8  C   UNL     1     -10.211   6.564  67.394  1.00  0.00    -0.227 C  
BRANCH   8   9
HETATM    9  C   UNL     1     -10.800   7.705  68.208  1.00  0.00    -0.023 C  
BRANCH   9  10
HETATM   10  C   UNL     1     -10.193   7.886  69.595  1.00  0.00    -0.207 C  
BRANCH  10  11
HETATM   11  C   UNL     1     -10.986   7.994  70.928  1.00  0.00    -0.243 C  
HETATM   12  O   UNL     1     -11.390   6.944  71.437  1.00  0.00    -0.249 OA 
BRANCH  11  13
HETATM   13  O   UNL     1     -11.402   9.239  71.391  1.00  0.00    -0.307 OA 
BRANCH  13  14
HETATM   14  C   UNL     1     -12.177  10.119  70.392  1.00  0.00    -0.218 C  
HETATM   15  C   UNL     1     -11.053  10.324  69.369  1.00  0.00    -0.299 C  
HETATM   16  C   UNL     1     -10.186  11.246  70.231  1.00  0.00     1.450 C  
HETATM   17  C   UNL     1     -11.173  12.379  70.333  1.00  0.00     0.811 C  
HETATM   18  C   UNL     1     -10.650  13.814  70.393  1.00  0.00     1.421 C  
HETATM   19  C   UNL     1      -9.381  13.747  69.508  1.00  0.00     0.966 C  
HETATM   20  C   UNL     1      -8.891  15.003  68.890  1.00  0.00    -0.201 C  
HETATM   21  C   UNL     1     -10.067  15.777  68.264  1.00  0.00    -0.222 C  
HETATM   22  C   UNL     1      -9.806  16.538  67.204  1.00  0.00    -0.255 C  
HETATM   23  C   UNL     1      -8.834  17.521  67.757  1.00  0.00    -0.241 C  
HETATM   24  O   UNL     1      -7.861  17.853  67.112  1.00  0.00    -0.201 OA 
HETATM   25  C   UNL     1      -9.165  18.029  69.194  1.00  0.00     0.059 C  
HETATM   26  C   UNL     1     -10.207  17.182  70.106  1.00  0.00     0.666 C  
HETATM   27  C   UNL     1     -11.135  16.194  69.290  1.00  0.00    -0.327 C  
HETATM   28  C   UNL     1     -12.273  17.082  68.764  1.00  0.00     2.117 C  
HETATM   29  C   UNL     1     -11.711  14.749  69.740  1.00  0.00    -0.354 C  
HETATM   30  C   UNL     1     -13.119  14.392  70.359  1.00  0.00    -0.106 C  
HETATM   31  C   UNL     1     -13.520  12.796  70.153  1.00  0.00     1.817 C  
HETATM   32  C   UNL     1     -12.496  11.764  70.861  1.00  0.00    -0.416 C  
HETATM   33  C   UNL     1     -12.958  11.719  72.319  1.00  0.00     0.023 C  
ENDBRANCH  13  14
ENDBRANCH  11  13
ENDBRANCH  10  11
ENDBRANCH   9  10
ENDBRANCH   8   9
ENDBRANCH   7   8
ENDBRANCH   6   7
ENDBRANCH   5   6
ENDBRANCH   4   5
ENDBRANCH   3   4
ENDBRANCH   2   3
TORSDOF 11
ENDMDL
MODEL      234
REMARK 921   NORMALIZED FREE ENERGY PREDICTED BY IDOCK:    5.54 KCAL/MOL
REMARK 922        TOTAL FREE ENERGY PREDICTED BY IDOCK:    6.92 KCAL/MOL
REMARK 923 INTER-LIGAND FREE ENERGY PREDICTED BY IDOCK:    1.08 KCAL/MOL
REMARK 924 INTRA-LIGAND FREE ENERGY PREDICTED BY IDOCK:    5.84 KCAL/MOL
REMARK 927      BINDING AFFINITY PREDICTED BY RF-SCORE:    0.00 PKD
ROOT
HETATM    1  C   UNL     1      -9.905  18.616  71.080  1.00  0.00     3.798 C  
HETATM    2  C   UNL     1     -10.721  18.142  69.904  1.00  0.00     1.360 C  
ENDROOT
BRANCH   2   3
HETATM    3  C   UNL     1     -10.647  16.608  69.726  1.00  0.00    -0.227 C  
BRANCH   3   4
HETATM    4  C   UNL     1     -11.415  15.867  70.831  1.00  0.00    -0.444 C  
BRANCH   4   5
HETATM    5  C   UNL     1     -12.434  14.873  70.260  1.00  0.00    -0.386 C  
BRANCH   5   6
HETATM    6  C   UNL     1     -12.628  13.649  71.171  1.00  0.00    -0.452 C  
BRANCH   6   7
HETATM    7  C   UNL     1     -11.988  12.398  70.550  1.00  0.00    -0.284 C  
BRANCH   7   8
HETATM    8  C   UNL     1     -11.405  12.600  69.146  1.00  0.00    -0.339 C  
BRANCH   8   9
HETATM    9  C   UNL     1      -9.888  12.644  69.059  1.00  0.00     0.276 C  
BRANCH   9  10
HETATM   10  C   UNL     1      -9.246  11.433  68.390  1.00  0.00    -0.183 C  
BRANCH  10  11
HETATM   11  C   UNL     1      -8.677  10.185  69.121  1.00  0.00    -0.170 C  
HETATM   12  O   UNL     1      -9.314   9.131  69.030  1.00  0.00    -0.148 OA 
BRANCH  11  13
HETATM   13  O   UNL     1      -7.618  10.324  70.013  1.00  0.00    -0.163 OA 
BRANCH  13  14
HETATM   14  C   UNL     1      -6.633   9.142  70.100  1.00  0.00    -0.048 C  
HETATM   15  C   UNL     1      -6.253   9.070  68.616  1.00  0.00    -0.045 C  
HETATM   16  C   UNL     1      -7.593   8.528  68.109  1.00  0.00    -0.098 C  
HETATM   17  C   UNL     1      -7.546   7.215  68.847  1.00  0.00    -0.100 C  
HETATM   18  C   UNL     1      -8.165   5.978  68.195  1.00  0.00    -0.113 C  
HETATM   19  C   UNL     1      -7.901   6.221  66.689  1.00  0.00    -0.104 C  
HETATM   20  C   UNL     1      -7.867   5.047  65.785  1.00  0.00    -0.092 C  
HETATM   21  C   UNL     1      -7.017   3.924  66.409  1.00  0.00    -0.059 C  
HETATM   22  C   UNL     1      -6.380   3.101  65.579  1.00  0.00    -0.031 C  
HETATM   23  C   UNL     1      -7.508   2.481  64.830  1.00  0.00    -0.071 C  
HETATM   24  O   UNL     1      -7.427   2.306  63.632  1.00  0.00    -0.052 OA 
HETATM   25  C   UNL     1      -8.754   2.126  65.700  1.00  0.00    -0.119 C  
HETATM   26  C   UNL     1      -8.914   2.817  67.159  1.00  0.00    -0.182 C  
HETATM   27  C   UNL     1      -7.574   3.415  67.750  1.00  0.00    -0.065 C  
HETATM   28  C   UNL     1      -6.855   2.206  68.370  1.00  0.00    -0.039 C  
HETATM   29  C   UNL     1      -7.378   4.724  68.683  1.00  0.00    -0.065 C  
HETATM   30  C   UNL     1      -7.249   4.813  70.254  1.00  0.00    -0.050 C  
HETATM   31  C   UNL     1      -6.515   6.212  70.756  1.00  0.00    -0.041 C  
HETATM   32  C   UNL     1      -7.311   7.558  70.341  1.00  0.00    -0.072 C  
HETATM   33  C   UNL     1      -8.386   7.704  71.420  1.00  0.00    -0.111 C  
ENDBRANCH  13  14
ENDBRANCH  11  13
ENDBRANCH  10  11
ENDBRANCH   9  10
ENDBRANCH   8   9
ENDBRANCH   7   8
ENDBRANCH   6   7
ENDBRANCH   5   6
ENDBRANCH   4   5
ENDBRANCH   3   4
ENDBRANCH   2   3
TORSDOF 11
ENDMDL
MODEL      235
REMARK 921   NORMALIZED FREE ENERGY PREDICTED BY IDOCK:    5.65 KCAL/MOL
REMARK 922        TOTAL FREE ENERGY PREDICTED BY IDOCK:    7.11 KCAL/MOL
REMARK 923 INTER-LIGAND FREE ENERGY PREDICTED BY IDOCK:    0.77 KCAL/MOL
REMARK 924 INTRA-LIGAND FREE ENERGY PREDICTED BY IDOCK:    6.34 KCAL/MOL
REMARK 927      BINDING AFFINITY PREDICTED BY RF-SCORE:    0.00 PKD
ROOT
HETATM    1  C   UNL     1      -6.150   7.164  71.443  1.00  0.00    -0.037 C  
HETATM    2  C   UNL     1      -5.730   6.939  70.012  1.00  0.00    -0.023 C  
ENDROOT
BRANCH   2   3
HETATM    3  C   UNL     1      -5.142   8.218  69.373  1.00  0.00    -0.030 C  
BRANCH   3   4
HETATM    4  C   UNL     1      -6.105   8.840  68.350  1.00  0.00    -0.050 C  
BRANCH   4   5
HETATM    5  C   UNL     1      -7.343   9.451  69.019  1.00  0.00    -0.072 C  
BRANCH   5   6
HETATM    6  C   UNL     1      -7.565  10.916  68.607  1.00  0.00    -0.114 C  
BRANCH   6   7
HETATM    7  C   UNL     1      -8.542  11.009  67.425  1.00  0.00    -0.132 C  
BRANCH   7   8
HETATM    8  C   UNL     1      -9.591  12.122  67.540  1.00  0.00    -0.179 C  
BRANCH   8   9
HETATM    9  C   UNL     1     -10.279  12.245  68.889  1.00  0.00    -0.041 C  
BRANCH   9  10
HETATM   10  C   UNL     1     -11.153  11.057  69.278  1.00  0.00    -0.312 C  
BRANCH  10  11
HETATM   11  C   UNL     1     -11.457  10.589  70.729  1.00  0.00    -0.285 C  
HETATM   12  O   UNL     1     -12.423  11.100  71.303  1.00  0.00    -0.376 OA 
BRANCH  11  13
HETATM   13  O   UNL     1     -10.540   9.792  71.409  1.00  0.00    -0.233 OA 
BRANCH  13  14
HETATM   14  C   UNL     1     -10.728   8.268  71.283  1.00  0.00    -0.227 C  
HETATM   15  C   UNL     1      -9.248   7.868  71.286  1.00  0.00    -0.170 C  
HETATM   16  C   UNL     1      -8.906   8.414  69.897  1.00  0.00    -0.137 C  
HETATM   17  C   UNL     1      -9.815   7.501  69.116  1.00  0.00    -0.170 C  
HETATM   18  C   UNL     1      -9.383   7.040  67.724  1.00  0.00    -0.127 C  
HETATM   19  C   UNL     1      -7.844   6.942  67.864  1.00  0.00    -0.113 C  
HETATM   20  C   UNL     1      -7.112   6.046  66.937  1.00  0.00    -0.070 C  
HETATM   21  C   UNL     1      -7.831   4.688  66.835  1.00  0.00    -0.099 C  
HETATM   22  C   UNL     1      -7.085   3.615  66.586  1.00  0.00    -0.059 C  
HETATM   23  C   UNL     1      -6.502   3.942  65.256  1.00  0.00    -0.032 C  
HETATM   24  O   UNL     1      -5.337   3.698  65.018  1.00  0.00    -0.009 OA 
HETATM   25  C   UNL     1      -7.489   4.626  64.260  1.00  0.00    -0.071 C  
HETATM   26  C   UNL     1      -8.845   5.303  64.840  1.00  0.00    -0.090 C  
HETATM   27  C   UNL     1      -9.262   4.799  66.281  1.00  0.00    -0.141 C  
HETATM   28  C   UNL     1      -9.997   3.474  66.027  1.00  0.00     0.157 C  
HETATM   29  C   UNL     1      -9.989   5.627  67.468  1.00  0.00    -0.180 C  
HETATM   30  C   UNL     1     -11.522   5.681  67.845  1.00  0.00     1.280 C  
HETATM   31  C   UNL     1     -11.777   6.166  69.410  1.00  0.00     0.262 C  
HETATM   32  C   UNL     1     -11.229   7.653  69.735  1.00  0.00    -0.042 C  
HETATM   33  C   UNL     1     -12.343   8.578  69.239  1.00  0.00     2.691 C  
ENDBRANCH  13  14
ENDBRANCH  11  13
ENDBRANCH  10  11
ENDBRANCH   9  10
ENDBRANCH   8   9
ENDBRANCH   7   8
ENDBRANCH   6   7
ENDBRANCH   5   6
ENDBRANCH   4   5
ENDBRANCH   3   4
ENDBRANCH   2   3
TORSDOF 11
ENDMDL
MODEL      236
REMARK 921   NORMALIZED FREE ENERGY PREDICTED BY IDOCK:    6.07 KCAL/MOL
REMARK 922        TOTAL FREE ENERGY PREDICTED BY IDOCK:    7.79 KCAL/MOL
REMARK 923 INTER-LIGAND FREE ENERGY PREDICTED BY IDOCK:    1.64 KCAL/MOL
REMARK 924 INTRA-LIGAND FREE ENERGY PREDICTED BY IDOCK:    6.16 KCAL/MOL
REMARK 927      BINDING AFFINITY PREDICTED BY RF-SCORE:    0.00 PKD
ROOT
HETATM    1  C   UNL     1      -5.562  11.219  72.871  1.00  0.00     1.310 C  
HETATM    2  C   UNL     1      -6.252  12.183  71.938  1.00  0.00     2.681 C  
ENDROOT
BRANCH   2   3
HETATM    3  C   UNL     1      -5.253  13.148  71.259  1.00  0.00    -0.185 C  
BRANCH   3   4
HETATM    4  C   UNL     1      -5.781  13.658  69.909  1.00  0.00    -0.117 C  
BRANCH   4   5
HETATM    5  C   UNL     1      -6.119  12.511  68.949  1.00  0.00    -0.075 C  
BRANCH   5   6
HETATM    6  C   UNL     1      -7.612  12.142  68.985  1.00  0.00     0.081 C  
BRANCH   6   7
HETATM    7  C   UNL     1      -8.371  12.821  67.835  1.00  0.00    -0.172 C  
BRANCH   7   8
HETATM    8  C   UNL     1      -9.193  11.873  66.953  1.00  0.00    -0.193 C  
BRANCH   8   9
HETATM    9  C   UNL     1      -8.543  11.458  65.643  1.00  0.00     0.044 C  
BRANCH   9  10
HETATM   10  C   UNL     1      -7.317  10.563  65.788  1.00  0.00    -0.137 C  
BRANCH  10  11
HETATM   11  C   UNL     1      -6.882   9.449  64.794  1.00  0.00    -0.094 C  
HETATM   12  O   UNL     1      -5.721   9.481  64.375  1.00  0.00    -0.067 OA 
BRANCH  11  13
HETATM   13  O   UNL     1      -7.835   8.598  64.243  1.00  0.00    -0.124 OA 
BRANCH  13  14
HETATM   14  C   UNL     1      -8.769   7.879  65.236  1.00  0.00     0.001 C  
HETATM   15  C   UNL     1      -8.603   8.839  66.420  1.00  0.00    -0.138 C  
HETATM   16  C   UNL     1      -7.162   8.453  66.769  1.00  0.00    -0.078 C  
HETATM   17  C   UNL     1      -7.444   7.020  67.140  1.00  0.00    -0.095 C  
HETATM   18  C   UNL     1      -6.617   6.367  68.247  1.00  0.00    -0.066 C  
HETATM   19  C   UNL     1      -6.340   7.550  69.205  1.00  0.00    -0.035 C  
HETATM   20  C   UNL     1      -6.036   7.246  70.624  1.00  0.00    -0.031 C  
HETATM   21  C   UNL     1      -7.034   6.206  71.167  1.00  0.00    -0.068 C  
HETATM   22  C   UNL     1      -7.325   6.252  72.465  1.00  0.00    -0.085 C  
HETATM   23  C   UNL     1      -5.997   6.007  73.092  1.00  0.00    -0.049 C  
HETATM   24  O   UNL     1      -5.649   6.645  74.065  1.00  0.00    -0.052 OA 
HETATM   25  C   UNL     1      -5.131   4.920  72.383  1.00  0.00    -0.004 C  
HETATM   26  C   UNL     1      -5.503   4.487  70.864  1.00  0.00    -0.011 C  
HETATM   27  C   UNL     1      -6.975   4.861  70.421  1.00  0.00    -0.045 C  
HETATM   28  C   UNL     1      -7.846   3.730  70.988  1.00  0.00    -0.062 C  
HETATM   29  C   UNL     1      -7.505   5.300  68.954  1.00  0.00    -0.074 C  
HETATM   30  C   UNL     1      -8.180   4.410  67.837  1.00  0.00    -0.095 C  
HETATM   31  C   UNL     1      -9.065   5.305  66.757  1.00  0.00    -0.118 C  
HETATM   32  C   UNL     1      -8.194   6.393  65.936  1.00  0.00    -0.130 C  
HETATM   33  C   UNL     1      -7.569   5.588  64.795  1.00  0.00    -0.079 C  
ENDBRANCH  13  14
ENDBRANCH  11  13
ENDBRANCH  10  11
ENDBRANCH   9  10
ENDBRANCH   8   9
ENDBRANCH   7   8
ENDBRANCH   6   7
ENDBRANCH   5   6
ENDBRANCH   4   5
ENDBRANCH   3   4
ENDBRANCH   2   3
TORSDOF 11
ENDMDL
MODEL      237
REMARK 921   NORMALIZED FREE ENERGY PREDICTED BY IDOCK:    6.32 KCAL/MOL
REMARK 922        TOTAL FREE ENERGY PREDICTED BY IDOCK:    8.20 KCAL/MOL
REMARK 923 INTER-LIGAND FREE ENERGY PREDICTED BY IDOCK:   -2.42 KCAL/MOL
REMARK 924 INTRA-LIGAND FREE ENERGY PREDICTED BY IDOCK:   10.61 KCAL/MOL
REMARK 927      BINDING AFFINITY PREDICTED BY RF-SCORE:    0.00 PKD
ROOT
HETATM    1  C   UNL     1     -12.077   4.478  73.417  1.00  0.00     0.306 C  
HETATM    2  C   UNL     1     -12.004   4.975  71.995  1.00  0.00     0.983 C  
ENDROOT
BRANCH   2   3
HETATM    3  C   UNL     1     -10.778   5.888  71.761  1.00  0.00    -0.299 C  
BRANCH   3   4
HETATM    4  C   UNL     1     -10.417   6.691  73.020  1.00  0.00    -0.268 C  
BRANCH   4   5
HETATM    5  C   UNL     1     -10.406   8.202  72.759  1.00  0.00    -0.384 C  
BRANCH   5   6
HETATM    6  C   UNL     1      -9.906   8.547  71.347  1.00  0.00    -0.296 C  
BRANCH   6   7
HETATM    7  C   UNL     1     -11.023   8.360  70.310  1.00  0.00    -0.236 C  
BRANCH   7   8
HETATM    8  C   UNL     1     -10.716   7.341  69.205  1.00  0.00    -0.212 C  
BRANCH   8   9
HETATM    9  C   UNL     1      -9.379   7.510  68.502  1.00  0.00    -0.142 C  
BRANCH   9  10
HETATM   10  C   UNL     1      -9.245   8.781  67.671  1.00  0.00    -0.148 C  
BRANCH  10  11
HETATM   11  C   UNL     1      -8.638  10.127  68.159  1.00  0.00    -0.118 C  
HETATM   12  O   UNL     1      -8.854  10.460  69.328  1.00  0.00    -0.166 OA 
BRANCH  11  13
HETATM   13  O   UNL     1      -8.069  11.006  67.242  1.00  0.00    -0.119 OA 
BRANCH  13  14
HETATM   14  C   UNL     1      -7.149  10.383  66.174  1.00  0.00    -0.130 C  
HETATM   15  C   UNL     1      -8.237   9.931  65.191  1.00  0.00    -0.144 C  
HETATM   16  C   UNL     1      -8.797   8.792  66.049  1.00  0.00    -0.210 C  
HETATM   17  C   UNL     1      -7.550   7.946  66.060  1.00  0.00    -0.086 C  
HETATM   18  C   UNL     1      -7.690   6.424  66.081  1.00  0.00    -0.092 C  
HETATM   19  C   UNL     1      -8.979   6.192  65.254  1.00  0.00     0.104 C  
HETATM   20  C   UNL     1      -9.166   4.872  64.604  1.00  0.00    -0.032 C  
HETATM   21  C   UNL     1      -7.867   4.444  63.895  1.00  0.00    -0.088 C  
HETATM   22  C   UNL     1      -7.981   3.674  62.815  1.00  0.00    -0.071 C  
HETATM   23  C   UNL     1      -8.643   2.460  63.366  1.00  0.00    -0.085 C  
HETATM   24  O   UNL     1      -9.533   1.911  62.749  1.00  0.00    -0.089 OA 
HETATM   25  C   UNL     1      -8.120   2.008  64.765  1.00  0.00    -0.078 C  
HETATM   26  C   UNL     1      -7.281   3.064  65.667  1.00  0.00    -0.070 C  
HETATM   27  C   UNL     1      -6.677   4.280  64.856  1.00  0.00    -0.048 C  
HETATM   28  C   UNL     1      -5.380   3.728  64.245  1.00  0.00    -0.009 C  
HETATM   29  C   UNL     1      -6.462   5.810  65.343  1.00  0.00    -0.042 C  
HETATM   30  C   UNL     1      -5.160   6.495  65.916  1.00  0.00    -0.017 C  
HETATM   31  C   UNL     1      -5.187   8.146  65.763  1.00  0.00    -0.028 C  
HETATM   32  C   UNL     1      -6.401   8.861  66.558  1.00  0.00    -0.062 C  
HETATM   33  C   UNL     1      -5.890   8.977  67.995  1.00  0.00    -0.039 C  
ENDBRANCH  13  14
ENDBRANCH  11  13
ENDBRANCH  10  11
ENDBRANCH   9  10
ENDBRANCH   8   9
ENDBRANCH   7   8
ENDBRANCH   6   7
ENDBRANCH   5   6
ENDBRANCH   4   5
ENDBRANCH   3   4
ENDBRANCH   2   3
TORSDOF 11
ENDMDL
MODEL      238
REMARK 921   NORMALIZED FREE ENERGY PREDICTED BY IDOCK:    6.41 KCAL/MOL
REMARK 922        TOTAL FREE ENERGY PREDICTED BY IDOCK:    8.35 KCAL/MOL
REMARK 923 INTER-LIGAND FREE ENERGY PREDICTED BY IDOCK:    0.80 KCAL/MOL
REMARK 924 INTRA-LIGAND FREE ENERGY PREDICTED BY IDOCK:    7.55 KCAL/MOL
REMARK 927      BINDING AFFINITY PREDICTED BY RF-SCORE:    0.00 PKD
ROOT
HETATM    1  C   UNL     1     -11.312  12.292  70.702  1.00  0.00     1.016 C  
HETATM    2  C   UNL     1     -10.124  11.566  70.120  1.00  0.00     1.715 C  
ENDROOT
BRANCH   2   3
HETATM    3  C   UNL     1      -9.437  12.382  69.001  1.00  0.00     0.374 C  
BRANCH   3   4
HETATM    4  C   UNL     1     -10.378  12.624  67.810  1.00  0.00    -0.221 C  
BRANCH   4   5
HETATM    5  C   UNL     1     -11.783  13.042  68.259  1.00  0.00    -0.390 C  
BRANCH   5   6
HETATM    6  C   UNL     1     -11.755  14.233  69.231  1.00  0.00    -0.363 C  
BRANCH   6   7
HETATM    7  C   UNL     1     -10.342  14.829  69.325  1.00  0.00    -0.213 C  
BRANCH   7   8
HETATM    8  C   UNL     1      -9.653  15.074  67.977  1.00  0.00    -0.208 C  
BRANCH   8   9
HETATM    9  C   UNL     1      -8.149  14.851  67.953  1.00  0.00    -0.148 C  
BRANCH   9  10
HETATM   10  C   UNL     1      -7.654  13.924  66.849  1.00  0.00     0.449 C  
BRANCH  10  11
HETATM   11  C   UNL     1      -6.908  12.576  67.060  1.00  0.00     0.054 C  
HETATM   12  O   UNL     1      -5.686  12.621  67.230  1.00  0.00    -0.256 OA 
BRANCH  11  13
HETATM   13  O   UNL     1      -7.572  11.372  66.843  1.00  0.00    -0.139 OA 
BRANCH  13  14
HETATM   14  C   UNL     1      -6.694  10.109  66.754  1.00  0.00    -0.077 C  
HETATM   15  C   UNL     1      -7.749   9.154  66.184  1.00  0.00    -0.095 C  
HETATM   16  C   UNL     1      -8.601   9.043  67.453  1.00  0.00    -0.115 C  
HETATM   17  C   UNL     1      -7.551   8.396  68.318  1.00  0.00    -0.098 C  
HETATM   18  C   UNL     1      -7.988   7.387  69.381  1.00  0.00    -0.124 C  
HETATM   19  C   UNL     1      -9.211   6.708  68.718  1.00  0.00    -0.129 C  
HETATM   20  C   UNL     1      -9.589   5.348  69.174  1.00  0.00    -0.193 C  
HETATM   21  C   UNL     1      -8.338   4.456  69.269  1.00  0.00    -0.083 C  
HETATM   22  C   UNL     1      -8.496   3.151  69.060  1.00  0.00    -0.095 C  
HETATM   23  C   UNL     1      -9.432   2.772  70.154  1.00  0.00    -0.107 C  
HETATM   24  O   UNL     1     -10.349   2.005  69.941  1.00  0.00     0.807 OA 
HETATM   25  C   UNL     1      -9.144   3.454  71.527  1.00  0.00    -0.172 C  
HETATM   26  C   UNL     1      -8.205   4.778  71.564  1.00  0.00    -0.104 C  
HETATM   27  C   UNL     1      -7.300   4.971  70.281  1.00  0.00    -0.055 C  
HETATM   28  C   UNL     1      -6.084   4.066  70.529  1.00  0.00    -0.018 C  
HETATM   29  C   UNL     1      -6.838   6.353  69.572  1.00  0.00    -0.065 C  
HETATM   30  C   UNL     1      -5.488   7.153  69.746  1.00  0.00    -0.022 C  
HETATM   31  C   UNL     1      -5.177   8.164  68.469  1.00  0.00    -0.032 C  
HETATM   32  C   UNL     1      -6.299   9.308  68.247  1.00  0.00    -0.054 C  
HETATM   33  C   UNL     1      -5.915  10.406  69.242  1.00  0.00    -0.037 C  
ENDBRANCH  13  14
ENDBRANCH  11  13
ENDBRANCH  10  11
ENDBRANCH   9  10
ENDBRANCH   8   9
ENDBRANCH   7   8
ENDBRANCH   6   7
ENDBRANCH   5   6
ENDBRANCH   4   5
ENDBRANCH   3   4
ENDBRANCH   2   3
TORSDOF 11
ENDMDL
MODEL      239
REMARK 921   NORMALIZED FREE ENERGY PREDICTED BY IDOCK:    8.00 KCAL/MOL
REMARK 922        TOTAL FREE ENERGY PREDICTED BY IDOCK:   10.96 KCAL/MOL
REMARK 923 INTER-LIGAND FREE ENERGY PREDICTED BY IDOCK:    2.27 KCAL/MOL
REMARK 924 INTRA-LIGAND FREE ENERGY PREDICTED BY IDOCK:    8.69 KCAL/MOL
REMARK 927      BINDING AFFINITY PREDICTED BY RF-SCORE:    0.00 PKD
ROOT
HETATM    1  C   UNL     1      -5.798  10.941  67.070  1.00  0.00    -0.064 C  
HETATM    2  C   UNL     1      -5.138   9.597  66.886  1.00  0.00    -0.041 C  
ENDROOT
BRANCH   2   3
HETATM    3  C   UNL     1      -6.172   8.455  66.762  1.00  0.00    -0.055 C  
BRANCH   3   4
HETATM    4  C   UNL     1      -5.586   7.104  67.201  1.00  0.00    -0.022 C  
BRANCH   4   5
HETATM    5  C   UNL     1      -5.334   7.046  68.712  1.00  0.00    -0.017 C  
BRANCH   5   6
HETATM    6  C   UNL     1      -5.515   5.629  69.280  1.00  0.00    -0.008 C  
BRANCH   6   7
HETATM    7  C   UNL     1      -6.979   5.380  69.672  1.00  0.00    -0.062 C  
BRANCH   7   8
HETATM    8  C   UNL     1      -7.429   3.916  69.592  1.00  0.00    -0.052 C  
BRANCH   8   9
HETATM    9  C   UNL     1      -7.962   3.460  68.243  1.00  0.00    -0.072 C  
BRANCH   9  10
HETATM   10  C   UNL     1      -8.215   4.580  67.239  1.00  0.00    -0.101 C  
BRANCH  10  11
HETATM   11  C   UNL     1      -9.579   5.283  66.986  1.00  0.00    -0.142 C  
HETATM   12  O   UNL     1     -10.595   4.582  67.009  1.00  0.00     0.009 OA 
BRANCH  11  13
HETATM   13  O   UNL     1      -9.609   6.599  66.536  1.00  0.00    -0.168 OA 
BRANCH  13  14
HETATM   14  C   UNL     1      -9.654   7.694  67.619  1.00  0.00    -0.145 C  
HETATM   15  C   UNL     1     -11.115   8.122  67.432  1.00  0.00     0.312 C  
HETATM   16  C   UNL     1     -10.933   8.811  66.076  1.00  0.00     2.027 C  
HETATM   17  C   UNL     1     -10.003   9.898  66.551  1.00  0.00    -0.291 C  
HETATM   18  C   UNL     1     -10.077  11.274  65.891  1.00  0.00    -0.291 C  
HETATM   19  C   UNL     1     -11.582  11.405  65.551  1.00  0.00     0.162 C  
HETATM   20  C   UNL     1     -12.149  12.766  65.392  1.00  0.00    -0.512 C  
HETATM   21  C   UNL     1     -11.673  13.674  66.542  1.00  0.00    -0.414 C  
HETATM   22  C   UNL     1     -12.484  14.658  66.923  1.00  0.00     0.217 C  
HETATM   23  C   UNL     1     -12.584  15.477  65.684  1.00  0.00     1.254 C  
HETATM   24  O   UNL     1     -13.651  15.942  65.338  1.00  0.00     2.582 OA 
HETATM   25  C   UNL     1     -11.245  15.641  64.899  1.00  0.00    -0.376 C  
HETATM   26  C   UNL     1     -10.026  14.614  65.204  1.00  0.00    -0.275 C  
HETATM   27  C   UNL     1     -10.146  13.850  66.584  1.00  0.00    -0.273 C  
HETATM   28  C   UNL     1      -9.605  14.846  67.622  1.00  0.00    -0.200 C  
HETATM   29  C   UNL     1      -9.671  12.345  66.948  1.00  0.00    -0.217 C  
HETATM   30  C   UNL     1      -8.333  11.865  67.636  1.00  0.00    -0.152 C  
HETATM   31  C   UNL     1      -8.472  10.365  68.326  1.00  0.00    -0.123 C  
HETATM   32  C   UNL     1      -8.830   9.188  67.276  1.00  0.00    -0.132 C  
HETATM   33  C   UNL     1      -7.479   8.809  66.665  1.00  0.00    -0.085 C  
ENDBRANCH  13  14
ENDBRANCH  11  13
ENDBRANCH  10  11
ENDBRANCH   9  10
ENDBRANCH   8   9
ENDBRANCH   7   8
ENDBRANCH   6   7
ENDBRANCH   5   6
ENDBRANCH   4   5
ENDBRANCH   3   4
ENDBRANCH   2   3
TORSDOF 11
ENDMDL
MODEL      240
REMARK 921   NORMALIZED FREE ENERGY PREDICTED BY IDOCK:    8.13 KCAL/MOL
REMARK 922        TOTAL FREE ENERGY PREDICTED BY IDOCK:   11.17 KCAL/MOL
REMARK 923 INTER-LIGAND FREE ENERGY PREDICTED BY IDOCK:    2.95 KCAL/MOL
REMARK 924 INTRA-LIGAND FREE ENERGY PREDICTED BY IDOCK:    8.22 KCAL/MOL
REMARK 927      BINDING AFFINITY PREDICTED BY RF-SCORE:    0.00 PKD
ROOT
HETATM    1  C   UNL     1      -7.327  12.245  65.439  1.00  0.00     3.256 C  
HETATM    2  C   UNL     1      -8.736  12.359  65.967  1.00  0.00     0.298 C  
ENDROOT
BRANCH   2   3
HETATM    3  C   UNL     1      -8.775  12.400  67.512  1.00  0.00    -0.179 C  
BRANCH   3   4
HETATM    4  C   UNL     1      -7.445  12.893  68.104  1.00  0.00    -0.126 C  
BRANCH   4   5
HETATM    5  C   UNL     1      -7.506  13.030  69.630  1.00  0.00     0.763 C  
BRANCH   5   6
HETATM    6  C   UNL     1      -7.948  14.434  70.073  1.00  0.00     0.743 C  
BRANCH   6   7
HETATM    7  C   UNL     1      -7.116  15.517  69.369  1.00  0.00    -0.194 C  
BRANCH   7   8
HETATM    8  C   UNL     1      -5.604  15.432  69.616  1.00  0.00    -0.108 C  
BRANCH   8   9
HETATM    9  C   UNL     1      -5.129  14.224  70.407  1.00  0.00    -0.096 C  
BRANCH   9  10
HETATM   10  C   UNL     1      -6.022  12.993  70.299  1.00  0.00    -0.126 C  
BRANCH  10  11
HETATM   11  C   UNL     1      -6.034  11.790  71.284  1.00  0.00     0.720 C  
HETATM   12  O   UNL     1      -5.271  11.838  72.253  1.00  0.00    -0.340 OA 
BRANCH  11  13
HETATM   13  O   UNL     1      -6.718  10.625  70.949  1.00  0.00    -0.283 OA 
BRANCH  13  14
HETATM   14  C   UNL     1      -6.157   9.310  71.524  1.00  0.00    -0.063 C  
HETATM   15  C   UNL     1      -5.297   8.900  70.322  1.00  0.00    -0.027 C  
HETATM   16  C   UNL     1      -6.453   8.545  69.381  1.00  0.00    -0.037 C  
HETATM   17  C   UNL     1      -7.002   7.402  70.195  1.00  0.00    -0.060 C  
HETATM   18  C   UNL     1      -7.630   6.212  69.470  1.00  0.00    -0.094 C  
HETATM   19  C   UNL     1      -6.788   6.125  68.173  1.00  0.00    -0.067 C  
HETATM   20  C   UNL     1      -6.722   4.823  67.467  1.00  0.00    -0.055 C  
HETATM   21  C   UNL     1      -6.460   3.688  68.475  1.00  0.00    -0.037 C  
HETATM   22  C   UNL     1      -5.792   2.622  68.041  1.00  0.00    -0.023 C  
HETATM   23  C   UNL     1      -6.689   2.107  66.970  1.00  0.00    -0.039 C  
HETATM   24  O   UNL     1      -6.227   1.707  65.920  1.00  0.00    -0.021 OA 
HETATM   25  C   UNL     1      -8.211   2.162  67.309  1.00  0.00    -0.076 C  
HETATM   26  C   UNL     1      -8.711   3.122  68.518  1.00  0.00    -0.143 C  
HETATM   27  C   UNL     1      -7.571   3.545  69.530  1.00  0.00    -0.051 C  
HETATM   28  C   UNL     1      -7.447   2.352  70.490  1.00  0.00    -0.036 C  
HETATM   29  C   UNL     1      -7.408   4.938  70.340  1.00  0.00    -0.054 C  
HETATM   30  C   UNL     1      -7.836   5.280  71.821  1.00  0.00    -0.111 C  
HETATM   31  C   UNL     1      -7.012   6.579  72.440  1.00  0.00    -0.069 C  
HETATM   32  C   UNL     1      -7.245   7.956  71.624  1.00  0.00    -0.069 C  
HETATM   33  C   UNL     1      -8.565   8.499  72.176  1.00  0.00    -0.242 C  
ENDBRANCH  13  14
ENDBRANCH  11  13
ENDBRANCH  10  11
ENDBRANCH   9  10
ENDBRANCH   8   9
ENDBRANCH   7   8
ENDBRANCH   6   7
ENDBRANCH   5   6
ENDBRANCH   4   5
ENDBRANCH   3   4
ENDBRANCH   2   3
TORSDOF 11
ENDMDL
MODEL      241
REMARK 921   NORMALIZED FREE ENERGY PREDICTED BY IDOCK:    8.34 KCAL/MOL
REMARK 922        TOTAL FREE ENERGY PREDICTED BY IDOCK:   11.52 KCAL/MOL
REMARK 923 INTER-LIGAND FREE ENERGY PREDICTED BY IDOCK:    0.20 KCAL/MOL
REMARK 924 INTRA-LIGAND FREE ENERGY PREDICTED BY IDOCK:   11.32 KCAL/MOL
REMARK 927      BINDING AFFINITY PREDICTED BY RF-SCORE:    0.00 PKD
ROOT
HETATM    1  C   UNL     1      -5.666  11.379  69.149  1.00  0.00    -0.045 C  
HETATM    2  C   UNL     1      -5.132   9.979  68.972  1.00  0.00    -0.036 C  
ENDROOT
BRANCH   2   3
HETATM    3  C   UNL     1      -6.266   8.938  68.836  1.00  0.00    -0.044 C  
BRANCH   3   4
HETATM    4  C   UNL     1      -7.654   9.584  68.972  1.00  0.00    -0.075 C  
BRANCH   4   5
HETATM    5  C   UNL     1      -7.575  11.013  69.523  1.00  0.00    -0.001 C  
BRANCH   5   6
HETATM    6  C   UNL     1      -7.628  11.050  71.059  1.00  0.00     3.601 C  
BRANCH   6   7
HETATM    7  C   UNL     1      -7.445   9.643  71.647  1.00  0.00     0.850 C  
BRANCH   7   8
HETATM    8  C   UNL     1      -8.599   8.672  71.370  1.00  0.00    -0.247 C  
BRANCH   8   9
HETATM    9  C   UNL     1      -8.853   8.346  69.907  1.00  0.00    -0.137 C  
BRANCH   9  10
HETATM   10  C   UNL     1     -10.202   8.812  69.369  1.00  0.00    -0.210 C  
BRANCH  10  11
HETATM   11  C   UNL     1     -10.670   8.726  67.889  1.00  0.00    -0.107 C  
HETATM   12  O   UNL     1     -11.734   8.143  67.661  1.00  0.00     1.518 OA 
BRANCH  11  13
HETATM   13  O   UNL     1      -9.806   9.099  66.864  1.00  0.00    -0.182 OA 
BRANCH  13  14
HETATM   14  C   UNL     1     -10.284  10.239  65.944  1.00  0.00    -0.223 C  
HETATM   15  C   UNL     1      -8.907  10.772  65.530  1.00  0.00    -0.203 C  
HETATM   16  C   UNL     1      -8.533  11.387  66.882  1.00  0.00    -0.157 C  
HETATM   17  C   UNL     1      -9.633  12.416  66.923  1.00  0.00    -0.219 C  
HETATM   18  C   UNL     1      -9.360  13.765  67.588  1.00  0.00    -0.213 C  
HETATM   19  C   UNL     1      -7.862  13.999  67.272  1.00  0.00    -0.143 C  
HETATM   20  C   UNL     1      -7.356  15.393  67.275  1.00  0.00    -0.239 C  
HETATM   21  C   UNL     1      -8.323  16.308  66.501  1.00  0.00    -0.343 C  
HETATM   22  C   UNL     1      -7.805  17.369  65.887  1.00  0.00    -0.077 C  
HETATM   23  C   UNL     1      -7.232  18.140  67.025  1.00  0.00    -0.201 C  
HETATM   24  O   UNL     1      -6.146  18.673  66.922  1.00  0.00    -0.158 OA 
HETATM   25  C   UNL     1      -8.118  18.163  68.309  1.00  0.00    -0.306 C  
HETATM   26  C   UNL     1      -9.293  17.057  68.472  1.00  0.00    -0.265 C  
HETATM   27  C   UNL     1      -9.731  16.365  67.118  1.00  0.00    -0.241 C  
HETATM   28  C   UNL     1     -10.714  17.358  66.479  1.00  0.00    -0.086 C  
HETATM   29  C   UNL     1     -10.233  14.844  66.879  1.00  0.00    -0.254 C  
HETATM   30  C   UNL     1     -11.709  14.289  66.786  1.00  0.00    -0.424 C  
HETATM   31  C   UNL     1     -11.796  12.835  65.994  1.00  0.00    -0.495 C  
HETATM   32  C   UNL     1     -10.963  11.647  66.709  1.00  0.00    -0.341 C  
HETATM   33  C   UNL     1     -11.904  11.136  67.803  1.00  0.00    -0.098 C  
ENDBRANCH  13  14
ENDBRANCH  11  13
ENDBRANCH  10  11
ENDBRANCH   9  10
ENDBRANCH   8   9
ENDBRANCH   7   8
ENDBRANCH   6   7
ENDBRANCH   5   6
ENDBRANCH   4   5
ENDBRANCH   3   4
ENDBRANCH   2   3
TORSDOF 11
ENDMDL
MODEL      242
REMARK 921   NORMALIZED FREE ENERGY PREDICTED BY IDOCK:    9.36 KCAL/MOL
REMARK 922        TOTAL FREE ENERGY PREDICTED BY IDOCK:   13.20 KCAL/MOL
REMARK 923 INTER-LIGAND FREE ENERGY PREDICTED BY IDOCK:    2.36 KCAL/MOL
REMARK 924 INTRA-LIGAND FREE ENERGY PREDICTED BY IDOCK:   10.84 KCAL/MOL
REMARK 927      BINDING AFFINITY PREDICTED BY RF-SCORE:    0.00 PKD
ROOT
HETATM    1  C   UNL     1     -13.457  13.198  70.281  1.00  0.00     1.274 C  
HETATM    2  C   UNL     1     -12.968  14.025  69.118  1.00  0.00     1.224 C  
ENDROOT
BRANCH   2   3
HETATM    3  C   UNL     1     -11.470  13.783  68.823  1.00  0.00    -0.338 C  
BRANCH   3   4
HETATM    4  C   UNL     1     -10.593  14.933  69.343  1.00  0.00    -0.255 C  
BRANCH   4   5
HETATM    5  C   UNL     1     -10.535  14.969  70.875  1.00  0.00     0.300 C  
BRANCH   5   6
HETATM    6  C   UNL     1     -11.716  14.226  71.521  1.00  0.00     0.047 C  
BRANCH   6   7
HETATM    7  C   UNL     1     -11.472  12.710  71.525  1.00  0.00     2.831 C  
BRANCH   7   8
HETATM    8  C   UNL     1     -12.624  11.871  72.091  1.00  0.00     0.320 C  
BRANCH   8   9
HETATM    9  C   UNL     1     -12.658  10.414  71.657  1.00  0.00    -0.521 C  
BRANCH   9  10
HETATM   10  C   UNL     1     -12.712   9.403  72.797  1.00  0.00     0.098 C  
BRANCH  10  11
HETATM   11  C   UNL     1     -11.945   8.052  72.851  1.00  0.00    -0.041 C  
HETATM   12  O   UNL     1     -12.348   7.138  72.126  1.00  0.00    -0.273 OA 
BRANCH  11  13
HETATM   13  O   UNL     1     -10.990   7.834  73.840  1.00  0.00     0.061 OA 
BRANCH  13  14
HETATM   14  C   UNL     1      -9.516   7.954  73.409  1.00  0.00    -0.275 C  
HETATM   15  C   UNL     1      -9.729   8.795  72.145  1.00  0.00    -0.335 C  
HETATM   16  C   UNL     1     -10.376   7.694  71.299  1.00  0.00    -0.215 C  
HETATM   17  C   UNL     1      -9.185   6.773  71.262  1.00  0.00    -0.154 C  
HETATM   18  C   UNL     1      -8.941   5.929  70.011  1.00  0.00    -0.146 C  
HETATM   19  C   UNL     1      -9.455   6.850  68.877  1.00  0.00    -0.136 C  
HETATM   20  C   UNL     1      -8.926   6.637  67.508  1.00  0.00    -0.114 C  
HETATM   21  C   UNL     1      -7.395   6.473  67.553  1.00  0.00    -0.095 C  
HETATM   22  C   UNL     1      -6.703   6.871  66.488  1.00  0.00    -0.052 C  
HETATM   23  C   UNL     1      -7.243   5.989  65.417  1.00  0.00    -0.074 C  
HETATM   24  O   UNL     1      -7.478   6.435  64.313  1.00  0.00    -0.076 OA 
HETATM   25  C   UNL     1      -7.492   4.511  65.851  1.00  0.00    -0.082 C  
HETATM   26  C   UNL     1      -7.577   4.162  67.434  1.00  0.00    -0.076 C  
HETATM   27  C   UNL     1      -6.939   5.258  68.379  1.00  0.00    -0.061 C  
HETATM   28  C   UNL     1      -5.434   4.951  68.363  1.00  0.00    -0.015 C  
HETATM   29  C   UNL     1      -7.406   5.704  69.865  1.00  0.00    -0.070 C  
HETATM   30  C   UNL     1      -6.850   5.227  71.264  1.00  0.00    -0.052 C  
HETATM   31  C   UNL     1      -7.185   6.300  72.483  1.00  0.00    -0.084 C  
HETATM   32  C   UNL     1      -8.765   6.537  72.736  1.00  0.00    -0.126 C  
HETATM   33  C   UNL     1      -9.181   5.361  73.622  1.00  0.00    -0.130 C  
ENDBRANCH  13  14
ENDBRANCH  11  13
ENDBRANCH  10  11
ENDBRANCH   9  10
ENDBRANCH   8   9
ENDBRANCH   7   8
ENDBRANCH   6   7
ENDBRANCH   5   6
ENDBRANCH   4   5
ENDBRANCH   3   4
ENDBRANCH   2   3
TORSDOF 11
ENDMDL
MODEL      243
REMARK 921   NORMALIZED FREE ENERGY PREDICTED BY IDOCK:   11.59 KCAL/MOL
REMARK 922        TOTAL FREE ENERGY PREDICTED BY IDOCK:   16.86 KCAL/MOL
REMARK 923 INTER-LIGAND FREE ENERGY PREDICTED BY IDOCK:    7.28 KCAL/MOL
REMARK 924 INTRA-LIGAND FREE ENERGY PREDICTED BY IDOCK:    9.58 KCAL/MOL
REMARK 927      BINDING AFFINITY PREDICTED BY RF-SCORE:    0.00 PKD
ROOT
HETATM    1  C   UNL     1      -9.403  18.268  65.310  1.00  0.00     1.809 C  
HETATM    2  C   UNL     1      -8.284  17.369  65.773  1.00  0.00     0.194 C  
ENDROOT
BRANCH   2   3
HETATM    3  C   UNL     1      -8.813  16.047  66.376  1.00  0.00    -0.363 C  
BRANCH   3   4
HETATM    4  C   UNL     1     -10.210  16.221  66.994  1.00  0.00    -0.280 C  
BRANCH   4   5
HETATM    5  C   UNL     1     -10.824  17.586  66.659  1.00  0.00     0.033 C  
BRANCH   5   6
HETATM    6  C   UNL     1     -12.169  17.456  65.925  1.00  0.00     4.752 C  
BRANCH   6   7
HETATM    7  C   UNL     1     -12.548  15.979  65.736  1.00  0.00     2.464 C  
BRANCH   7   8
HETATM    8  C   UNL     1     -12.156  15.379  64.380  1.00  0.00    -0.205 C  
BRANCH   8   9
HETATM    9  C   UNL     1     -10.816  14.664  64.336  1.00  0.00    -0.032 C  
BRANCH   9  10
HETATM   10  C   UNL     1     -10.547  13.727  65.508  1.00  0.00    -0.312 C  
BRANCH  10  11
HETATM   11  C   UNL     1      -9.789  12.372  65.434  1.00  0.00    -0.183 C  
HETATM   12  O   UNL     1      -8.692  12.300  65.996  1.00  0.00     0.038 OA 
BRANCH  11  13
HETATM   13  O   UNL     1     -10.241  11.368  64.582  1.00  0.00    -0.256 OA 
BRANCH  13  14
HETATM   14  C   UNL     1     -10.017   9.917  65.051  1.00  0.00    -0.165 C  
HETATM   15  C   UNL     1     -11.033   9.903  66.199  1.00  0.00     0.417 C  
HETATM   16  C   UNL     1     -10.256  10.825  67.144  1.00  0.00    -0.255 C  
HETATM   17  C   UNL     1      -9.062   9.926  67.333  1.00  0.00    -0.147 C  
HETATM   18  C   UNL     1      -8.344   9.924  68.682  1.00  0.00    -0.110 C  
HETATM   19  C   UNL     1      -9.501  10.176  69.680  1.00  0.00    -0.226 C  
HETATM   20  C   UNL     1      -9.325   9.730  71.083  1.00  0.00     0.556 C  
HETATM   21  C   UNL     1      -8.754   8.299  71.115  1.00  0.00    -0.176 C  
HETATM   22  C   UNL     1      -9.082   7.530  72.151  1.00  0.00    -0.165 C  
HETATM   23  C   UNL     1      -8.513   8.292  73.297  1.00  0.00    -0.199 C  
HETATM   24  O   UNL     1      -9.138   8.404  74.332  1.00  0.00     0.535 OA 
HETATM   25  C   UNL     1      -7.113   8.927  73.030  1.00  0.00     0.253 C  
HETATM   26  C   UNL     1      -6.608   9.096  71.497  1.00  0.00    -0.034 C  
HETATM   27  C   UNL     1      -7.370   8.182  70.454  1.00  0.00    -0.062 C  
HETATM   28  C   UNL     1      -6.678   6.815  70.562  1.00  0.00    -0.053 C  
HETATM   29  C   UNL     1      -7.738   8.506  68.910  1.00  0.00    -0.100 C  
HETATM   30  C   UNL     1      -6.963   8.093  67.598  1.00  0.00    -0.078 C  
HETATM   31  C   UNL     1      -7.929   8.121  66.250  1.00  0.00    -0.101 C  
HETATM   32  C   UNL     1      -8.544   9.578  65.913  1.00  0.00    -0.144 C  
HETATM   33  C   UNL     1      -7.422  10.291  65.155  1.00  0.00    -0.130 C  
ENDBRANCH  13  14
ENDBRANCH  11  13
ENDBRANCH  10  11
ENDBRANCH   9  10
ENDBRANCH   8   9
ENDBRANCH   7   8
ENDBRANCH   6   7
ENDBRANCH   5   6
ENDBRANCH   4   5
ENDBRANCH   3   4
ENDBRANCH   2   3
TORSDOF 11
ENDMDL
MODEL      244
REMARK 921   NORMALIZED FREE ENERGY PREDICTED BY IDOCK:   12.18 KCAL/MOL
REMARK 922        TOTAL FREE ENERGY PREDICTED BY IDOCK:   17.83 KCAL/MOL
REMARK 923 INTER-LIGAND FREE ENERGY PREDICTED BY IDOCK:   13.30 KCAL/MOL
REMARK 924 INTRA-LIGAND FREE ENERGY PREDICTED BY IDOCK:    4.53 KCAL/MOL
REMARK 927      BINDING AFFINITY PREDICTED BY RF-SCORE:    0.00 PKD
ROOT
HETATM    1  C   UNL     1     -11.312  12.292  70.702  1.00  0.00     1.016 C  
HETATM    2  C   UNL     1     -10.124  11.566  70.120  1.00  0.00     1.715 C  
ENDROOT
BRANCH   2   3
HETATM    3  C   UNL     1      -9.437  12.382  69.001  1.00  0.00     0.374 C  
BRANCH   3   4
HETATM    4  C   UNL     1     -10.378  12.624  67.810  1.00  0.00    -0.221 C  
BRANCH   4   5
HETATM    5  C   UNL     1     -11.783  13.042  68.259  1.00  0.00    -0.390 C  
BRANCH   5   6
HETATM    6  C   UNL     1     -11.755  14.233  69.231  1.00  0.00    -0.363 C  
BRANCH   6   7
HETATM    7  C   UNL     1     -10.342  14.829  69.325  1.00  0.00    -0.213 C  
BRANCH   7   8
HETATM    8  C   UNL     1      -9.851  15.532  68.054  1.00  0.00    -0.212 C  
BRANCH   8   9
HETATM    9  C   UNL     1      -8.366  15.398  67.755  1.00  0.00    -0.156 C  
BRANCH   9  10
HETATM   10  C   UNL     1      -8.034  14.905  66.351  1.00  0.00     0.705 C  
BRANCH  10  11
HETATM   11  C   UNL     1      -7.268  13.598  66.003  1.00  0.00     4.374 C  
HETATM   12  O   UNL     1      -6.035  13.640  66.012  1.00  0.00     4.056 OA 
BRANCH  11  13
HETATM   13  O   UNL     1      -7.959  12.502  65.493  1.00  0.00     1.714 OA 
BRANCH  13  14
HETATM   14  C   UNL     1      -7.104  11.379  64.875  1.00  0.00     1.449 C  
HETATM   15  C   UNL     1      -8.231  10.615  64.169  1.00  0.00     0.020 C  
HETATM   16  C   UNL     1      -8.894  10.058  65.433  1.00  0.00    -0.199 C  
HETATM   17  C   UNL     1      -7.733   9.212  65.887  1.00  0.00    -0.095 C  
HETATM   18  C   UNL     1      -8.016   7.892  66.605  1.00  0.00    -0.103 C  
HETATM   19  C   UNL     1      -9.322   7.412  65.927  1.00  0.00     0.040 C  
HETATM   20  C   UNL     1      -9.634   5.963  65.955  1.00  0.00     0.012 C  
HETATM   21  C   UNL     1      -8.383   5.146  65.581  1.00  0.00    -0.123 C  
HETATM   22  C   UNL     1      -8.572   3.975  64.977  1.00  0.00    -0.115 C  
HETATM   23  C   UNL     1      -9.344   3.217  66.000  1.00  0.00    -0.117 C  
HETATM   24  O   UNL     1     -10.283   2.521  65.671  1.00  0.00     0.775 OA 
HETATM   25  C   UNL     1      -8.863   3.426  67.469  1.00  0.00    -0.152 C  
HETATM   26  C   UNL     1      -7.926   4.706  67.814  1.00  0.00    -0.092 C  
HETATM   27  C   UNL     1      -7.211   5.349  66.557  1.00  0.00    -0.077 C  
HETATM   28  C   UNL     1      -5.974   4.468  66.327  1.00  0.00    -0.027 C  
HETATM   29  C   UNL     1      -6.853   6.905  66.288  1.00  0.00    -0.064 C  
HETATM   30  C   UNL     1      -5.490   7.665  66.533  1.00  0.00    -0.025 C  
HETATM   31  C   UNL     1      -5.362   9.051  65.631  1.00  0.00    -0.037 C  
HETATM   32  C   UNL     1      -6.502  10.153  65.952  1.00  0.00    -0.104 C  
HETATM   33  C   UNL     1      -5.979  10.881  67.192  1.00  0.00    -0.066 C  
ENDBRANCH  13  14
ENDBRANCH  11  13
ENDBRANCH  10  11
ENDBRANCH   9  10
ENDBRANCH   8   9
ENDBRANCH   7   8
ENDBRANCH   6   7
ENDBRANCH   5   6
ENDBRANCH   4   5
ENDBRANCH   3   4
ENDBRANCH   2   3
TORSDOF 11
ENDMDL
MODEL      245
REMARK 921   NORMALIZED FREE ENERGY PREDICTED BY IDOCK:   12.44 KCAL/MOL
REMARK 922        TOTAL FREE ENERGY PREDICTED BY IDOCK:   18.25 KCAL/MOL
REMARK 923 INTER-LIGAND FREE ENERGY PREDICTED BY IDOCK:    8.99 KCAL/MOL
REMARK 924 INTRA-LIGAND FREE ENERGY PREDICTED BY IDOCK:    9.26 KCAL/MOL
REMARK 927      BINDING AFFINITY PREDICTED BY RF-SCORE:    0.00 PKD
ROOT
HETATM    1  C   UNL     1      -9.615  15.396  72.103  1.00  0.00     4.819 C  
HETATM    2  C   UNL     1     -10.521  15.462  70.899  1.00  0.00     0.139 C  
ENDROOT
BRANCH   2   3
HETATM    3  C   UNL     1     -10.158  16.638  69.963  1.00  0.00     0.337 C  
BRANCH   3   4
HETATM    4  C   UNL     1      -9.315  16.174  68.765  1.00  0.00    -0.229 C  
BRANCH   4   5
HETATM    5  C   UNL     1      -8.883  14.708  68.894  1.00  0.00    -0.136 C  
BRANCH   5   6
HETATM    6  C   UNL     1      -8.639  14.299  70.356  1.00  0.00     2.270 C  
BRANCH   6   7
HETATM    7  C   UNL     1      -7.465  13.314  70.460  1.00  0.00     2.770 C  
BRANCH   7   8
HETATM    8  C   UNL     1      -6.257  13.653  69.578  1.00  0.00    -0.118 C  
BRANCH   8   9
HETATM    9  C   UNL     1      -5.205  12.563  69.449  1.00  0.00    -0.071 C  
BRANCH   9  10
HETATM   10  C   UNL     1      -5.683  11.284  68.770  1.00  0.00    -0.042 C  
BRANCH  10  11
HETATM   11  C   UNL     1      -6.576  10.190  69.419  1.00  0.00    -0.054 C  
HETATM   12  O   UNL     1      -6.883  10.334  70.607  1.00  0.00    -0.309 OA 
BRANCH  11  13
HETATM   13  O   UNL     1      -6.823   9.001  68.739  1.00  0.00    -0.060 OA 
BRANCH  13  14
HETATM   14  C   UNL     1      -7.113   9.120  67.230  1.00  0.00    -0.079 C  
HETATM   15  C   UNL     1      -6.721  10.592  67.053  1.00  0.00    -0.086 C  
HETATM   16  C   UNL     1      -7.912  11.192  67.807  1.00  0.00    -0.116 C  
HETATM   17  C   UNL     1      -8.984  10.697  66.872  1.00  0.00    -0.147 C  
HETATM   18  C   UNL     1     -10.228  11.558  66.651  1.00  0.00    -0.254 C  
HETATM   19  C   UNL     1      -9.666  12.997  66.762  1.00  0.00    -0.248 C  
HETATM   20  C   UNL     1     -10.414  14.094  66.101  1.00  0.00    -0.297 C  
HETATM   21  C   UNL     1     -10.817  13.674  64.675  1.00  0.00    -0.416 C  
HETATM   22  C   UNL     1     -10.926  14.634  63.760  1.00  0.00     1.355 C  
HETATM   23  C   UNL     1     -12.008  15.485  64.327  1.00  0.00    -0.153 C  
HETATM   24  O   UNL     1     -11.924  16.696  64.286  1.00  0.00    -0.630 OA 
HETATM   25  C   UNL     1     -13.187  14.696  64.976  1.00  0.00     0.657 C  
HETATM   26  C   UNL     1     -12.965  13.139  65.373  1.00  0.00    -0.095 C  
HETATM   27  C   UNL     1     -11.744  12.447  64.643  1.00  0.00    -0.426 C  
HETATM   28  C   UNL     1     -12.295  12.047  63.266  1.00  0.00    -0.553 C  
HETATM   29  C   UNL     1     -10.752  11.297  65.207  1.00  0.00    -0.302 C  
HETATM   30  C   UNL     1     -10.821   9.734  64.991  1.00  0.00     1.932 C  
HETATM   31  C   UNL     1      -9.360   8.990  65.241  1.00  0.00    -0.158 C  
HETATM   32  C   UNL     1      -8.782   9.165  66.741  1.00  0.00    -0.138 C  
HETATM   33  C   UNL     1      -9.500   8.081  67.547  1.00  0.00    -0.177 C  
ENDBRANCH  13  14
ENDBRANCH  11  13
ENDBRANCH  10  11
ENDBRANCH   9  10
ENDBRANCH   8   9
ENDBRANCH   7   8
ENDBRANCH   6   7
ENDBRANCH   5   6
ENDBRANCH   4   5
ENDBRANCH   3   4
ENDBRANCH   2   3
TORSDOF 11
ENDMDL
MODEL      246
REMARK 921   NORMALIZED FREE ENERGY PREDICTED BY IDOCK:   15.13 KCAL/MOL
REMARK 922        TOTAL FREE ENERGY PREDICTED BY IDOCK:   22.68 KCAL/MOL
REMARK 923 INTER-LIGAND FREE ENERGY PREDICTED BY IDOCK:   11.71 KCAL/MOL
REMARK 924 INTRA-LIGAND FREE ENERGY PREDICTED BY IDOCK:   10.97 KCAL/MOL
REMARK 927      BINDING AFFINITY PREDICTED BY RF-SCORE:    0.00 PKD
ROOT
HETATM    1  C   UNL     1     -13.244  13.080  70.424  1.00  0.00     0.621 C  
HETATM    2  C   UNL     1     -12.770  13.964  69.297  1.00  0.00     0.462 C  
ENDROOT
BRANCH   2   3
HETATM    3  C   UNL     1     -11.290  13.699  68.935  1.00  0.00    -0.332 C  
BRANCH   3   4
HETATM    4  C   UNL     1     -10.366  14.806  69.467  1.00  0.00    -0.127 C  
BRANCH   4   5
HETATM    5  C   UNL     1     -10.099  14.663  70.970  1.00  0.00     1.712 C  
BRANCH   5   6
HETATM    6  C   UNL     1     -11.170  13.815  71.675  1.00  0.00     2.403 C  
BRANCH   6   7
HETATM    7  C   UNL     1     -11.045  12.336  71.280  1.00  0.00     3.752 C  
BRANCH   7   8
HETATM    8  C   UNL     1     -12.153  11.425  71.822  1.00  0.00     0.643 C  
BRANCH   8   9
HETATM    9  C   UNL     1     -12.489  10.212  70.971  1.00  0.00    -0.474 C  
BRANCH   9  10
HETATM   10  C   UNL     1     -12.317   8.868  71.669  1.00  0.00    -0.405 C  
BRANCH  10  11
HETATM   11  C   UNL     1     -11.721   7.581  71.032  1.00  0.00    -0.292 C  
HETATM   12  O   UNL     1     -12.423   6.966  70.224  1.00  0.00    -0.126 OA 
BRANCH  11  13
HETATM   13  O   UNL     1     -10.536   7.044  71.529  1.00  0.00    -0.212 OA 
BRANCH  13  14
HETATM   14  C   UNL     1      -9.241   7.442  70.796  1.00  0.00    -0.159 C  
HETATM   15  C   UNL     1      -9.647   8.868  70.403  1.00  0.00    -0.227 C  
HETATM   16  C   UNL     1     -10.683   8.479  69.344  1.00  0.00    -0.166 C  
HETATM   17  C   UNL     1      -9.727   7.801  68.397  1.00  0.00    -0.167 C  
HETATM   18  C   UNL     1      -9.989   7.887  66.894  1.00  0.00    -0.332 C  
HETATM   19  C   UNL     1     -10.628   9.289  66.742  1.00  0.00    -0.207 C  
HETATM   20  C   UNL     1     -10.544   9.958  65.422  1.00  0.00     0.405 C  
HETATM   21  C   UNL     1      -9.113   9.845  64.863  1.00  0.00    -0.271 C  
HETATM   22  C   UNL     1      -8.684  10.824  64.070  1.00  0.00    -0.075 C  
HETATM   23  C   UNL     1      -9.644  10.748  62.934  1.00  0.00    -0.338 C  
HETATM   24  O   UNL     1     -10.094  11.762  62.440  1.00  0.00     0.446 OA 
HETATM   25  C   UNL     1     -10.015   9.300  62.488  1.00  0.00     1.965 C  
HETATM   26  C   UNL     1      -9.718   8.066  63.500  1.00  0.00     3.966 C  
HETATM   27  C   UNL     1      -8.664   8.392  64.634  1.00  0.00     0.028 C  
HETATM   28  C   UNL     1      -7.299   8.201  63.955  1.00  0.00    -0.100 C  
HETATM   29  C   UNL     1      -8.617   7.840  66.156  1.00  0.00    -0.164 C  
HETATM   30  C   UNL     1      -7.788   6.634  66.749  1.00  0.00    -0.107 C  
HETATM   31  C   UNL     1      -7.581   6.748  68.390  1.00  0.00    -0.104 C  
HETATM   32  C   UNL     1      -8.963   6.738  69.230  1.00  0.00    -0.137 C  
HETATM   33  C   UNL     1      -9.316   5.254  69.351  1.00  0.00    -0.172 C  
ENDBRANCH  13  14
ENDBRANCH  11  13
ENDBRANCH  10  11
ENDBRANCH   9  10
ENDBRANCH   8   9
ENDBRANCH   7   8
ENDBRANCH   6   7
ENDBRANCH   5   6
ENDBRANCH   4   5
ENDBRANCH   3   4
ENDBRANCH   2   3
TORSDOF 11
ENDMDL
MODEL      247
REMARK 921   NORMALIZED FREE ENERGY PREDICTED BY IDOCK:   15.33 KCAL/MOL
REMARK 922        TOTAL FREE ENERGY PREDICTED BY IDOCK:   23.01 KCAL/MOL
REMARK 923 INTER-LIGAND FREE ENERGY PREDICTED BY IDOCK:   -3.94 KCAL/MOL
REMARK 924 INTRA-LIGAND FREE ENERGY PREDICTED BY IDOCK:   26.95 KCAL/MOL
REMARK 927      BINDING AFFINITY PREDICTED BY RF-SCORE:    0.00 PKD
ROOT
HETATM    1  C   UNL     1      -9.622  14.553  67.096  1.00  0.00    -0.233 C  
HETATM    2  C   UNL     1      -9.313  13.451  66.114  1.00  0.00    -0.075 C  
ENDROOT
BRANCH   2   3
HETATM    3  C   UNL     1     -10.437  12.390  66.059  1.00  0.00    -0.281 C  
BRANCH   3   4
HETATM    4  C   UNL     1     -10.105  11.162  66.921  1.00  0.00    -0.250 C  
BRANCH   4   5
HETATM    5  C   UNL     1      -8.603  10.853  66.934  1.00  0.00    -0.136 C  
BRANCH   5   6
HETATM    6  C   UNL     1      -7.967  11.105  68.311  1.00  0.00    -0.127 C  
BRANCH   6   7
HETATM    7  C   UNL     1      -7.045  12.333  68.271  1.00  0.00    -0.093 C  
BRANCH   7   8
HETATM    8  C   UNL     1      -5.547  12.021  68.381  1.00  0.00    -0.053 C  
BRANCH   8   9
HETATM    9  C   UNL     1      -5.168  10.552  68.284  1.00  0.00    -0.034 C  
BRANCH   9  10
HETATM   10  C   UNL     1      -5.834   9.790  67.143  1.00  0.00    -0.051 C  
BRANCH  10  11
HETATM   11  C   UNL     1      -6.689  10.418  66.007  1.00  0.00    -0.124 C  
HETATM   12  O   UNL     1      -7.404  11.382  66.297  1.00  0.00    -0.066 OA 
BRANCH  11  13
HETATM   13  O   UNL     1      -6.798   9.771  64.779  1.00  0.00    -0.108 OA 
BRANCH  13  14
HETATM   14  C   UNL     1      -7.708   8.528  64.737  1.00  0.00    -0.107 C  
HETATM   15  C   UNL     1      -8.836   9.058  65.630  1.00  0.00    -0.224 C  
HETATM   16  C   UNL     1      -8.058   9.024  66.949  1.00  0.00    -0.112 C  
HETATM   17  C   UNL     1      -7.850   7.532  66.996  1.00  0.00    -0.116 C  
HETATM   18  C   UNL     1      -7.832   6.831  68.355  1.00  0.00    -0.114 C  
HETATM   19  C   UNL     1      -8.839   7.668  69.180  1.00  0.00    -0.139 C  
HETATM   20  C   UNL     1      -9.493   7.026  70.346  1.00  0.00    -0.162 C  
HETATM   21  C   UNL     1      -9.994   5.621  69.963  1.00  0.00    -0.267 C  
HETATM   22  C   UNL     1     -11.069   5.158  70.596  1.00  0.00     0.374 C  
HETATM   23  C   UNL     1     -10.608   5.127  72.011  1.00  0.00    -0.200 C  
HETATM   24  O   UNL     1     -11.345   5.489  72.906  1.00  0.00    -0.291 OA 
HETATM   25  C   UNL     1      -9.141   4.634  72.211  1.00  0.00    -0.146 C  
HETATM   26  C   UNL     1      -8.137   4.625  70.936  1.00  0.00    -0.082 C  
HETATM   27  C   UNL     1      -8.864   4.670  69.531  1.00  0.00    -0.121 C  
HETATM   28  C   UNL     1      -9.267   3.213  69.260  1.00  0.00    -0.218 C  
HETATM   29  C   UNL     1      -8.369   5.381  68.163  1.00  0.00    -0.098 C  
HETATM   30  C   UNL     1      -7.616   4.743  66.930  1.00  0.00    -0.087 C  
HETATM   31  C   UNL     1      -7.792   5.635  65.543  1.00  0.00    -0.100 C  
HETATM   32  C   UNL     1      -7.197   7.136  65.647  1.00  0.00    -0.070 C  
HETATM   33  C   UNL     1      -5.701   6.964  65.377  1.00  0.00    -0.031 C  
ENDBRANCH  13  14
ENDBRANCH  11  13
ENDBRANCH  10  11
ENDBRANCH   9  10
ENDBRANCH   8   9
ENDBRANCH   7   8
ENDBRANCH   6   7
ENDBRANCH   5   6
ENDBRANCH   4   5
ENDBRANCH   3   4
ENDBRANCH   2   3
TORSDOF 11
ENDMDL
MODEL      248
REMARK 921   NORMALIZED FREE ENERGY PREDICTED BY IDOCK:   15.56 KCAL/MOL
REMARK 922        TOTAL FREE ENERGY PREDICTED BY IDOCK:   23.39 KCAL/MOL
REMARK 923 INTER-LIGAND FREE ENERGY PREDICTED BY IDOCK:   -1.50 KCAL/MOL
REMARK 924 INTRA-LIGAND FREE ENERGY PREDICTED BY IDOCK:   24.89 KCAL/MOL
REMARK 927      BINDING AFFINITY PREDICTED BY RF-SCORE:    0.00 PKD
ROOT
HETATM    1  C   UNL     1      -5.879  10.938  67.055  1.00  0.00    -0.064 C  
HETATM    2  C   UNL     1      -5.235   9.633  66.657  1.00  0.00    -0.044 C  
ENDROOT
BRANCH   2   3
HETATM    3  C   UNL     1      -6.282   8.533  66.369  1.00  0.00    -0.057 C  
BRANCH   3   4
HETATM    4  C   UNL     1      -5.677   7.125  66.486  1.00  0.00    -0.030 C  
BRANCH   4   5
HETATM    5  C   UNL     1      -5.414   6.728  67.944  1.00  0.00    -0.015 C  
BRANCH   5   6
HETATM    6  C   UNL     1      -5.490   5.207  68.158  1.00  0.00    -0.011 C  
BRANCH   6   7
HETATM    7  C   UNL     1      -6.948   4.750  68.317  1.00  0.00    -0.057 C  
BRANCH   7   8
HETATM    8  C   UNL     1      -7.243   3.337  67.799  1.00  0.00    -0.054 C  
BRANCH   8   9
HETATM    9  C   UNL     1      -7.437   3.210  66.296  1.00  0.00    -0.076 C  
BRANCH   9  10
HETATM   10  C   UNL     1      -7.317   4.516  65.519  1.00  0.00    -0.080 C  
BRANCH  10  11
HETATM   11  C   UNL     1      -8.479   5.505  65.219  1.00  0.00    -0.147 C  
HETATM   12  O   UNL     1      -9.575   5.024  64.918  1.00  0.00    -0.020 OA 
BRANCH  11  13
HETATM   13  O   UNL     1      -8.216   6.866  65.084  1.00  0.00    -0.134 OA 
BRANCH  13  14
HETATM   14  C   UNL     1      -8.186   7.691  66.385  1.00  0.00    -0.124 C  
HETATM   15  C   UNL     1      -7.379   6.710  67.244  1.00  0.00    -0.090 C  
HETATM   16  C   UNL     1      -8.474   5.648  67.388  1.00  0.00    -0.106 C  
HETATM   17  C   UNL     1      -9.456   6.504  68.145  1.00  0.00    -0.114 C  
HETATM   18  C   UNL     1     -10.353   5.848  69.194  1.00  0.00    -0.303 C  
HETATM   19  C   UNL     1      -9.446   4.729  69.762  1.00  0.00    -0.233 C  
HETATM   20  C   UNL     1      -9.732   4.219  71.124  1.00  0.00    -0.259 C  
HETATM   21  C   UNL     1      -9.974   5.396  72.088  1.00  0.00    -0.226 C  
HETATM   22  C   UNL     1      -9.648   5.220  73.367  1.00  0.00    -0.148 C  
HETATM   23  C   UNL     1     -10.537   4.093  73.763  1.00  0.00    -0.223 C  
HETATM   24  O   UNL     1     -10.117   3.195  74.463  1.00  0.00    -0.126 OA 
HETATM   25  C   UNL     1     -11.985   4.169  73.185  1.00  0.00     0.196 C  
HETATM   26  C   UNL     1     -12.275   5.144  71.921  1.00  0.00     1.388 C  
HETATM   27  C   UNL     1     -11.181   6.265  71.696  1.00  0.00    -0.337 C  
HETATM   28  C   UNL     1     -11.565   7.380  72.680  1.00  0.00    -0.295 C  
HETATM   29  C   UNL     1     -10.662   6.901  70.300  1.00  0.00    -0.274 C  
HETATM   30  C   UNL     1     -11.118   8.234  69.587  1.00  0.00    -0.009 C  
HETATM   31  C   UNL     1      -9.988   8.805  68.516  1.00  0.00    -0.200 C  
HETATM   32  C   UNL     1      -9.662   7.788  67.300  1.00  0.00    -0.224 C  
HETATM   33  C   UNL     1     -10.784   8.042  66.291  1.00  0.00     1.002 C  
ENDBRANCH  13  14
ENDBRANCH  11  13
ENDBRANCH  10  11
ENDBRANCH   9  10
ENDBRANCH   8   9
ENDBRANCH   7   8
ENDBRANCH   6   7
ENDBRANCH   5   6
ENDBRANCH   4   5
ENDBRANCH   3   4
ENDBRANCH   2   3
TORSDOF 11
ENDMDL
MODEL      249
REMARK 921   NORMALIZED FREE ENERGY PREDICTED BY IDOCK:   16.32 KCAL/MOL
REMARK 922        TOTAL FREE ENERGY PREDICTED BY IDOCK:   24.63 KCAL/MOL
REMARK 923 INTER-LIGAND FREE ENERGY PREDICTED BY IDOCK:   16.12 KCAL/MOL
REMARK 924 INTRA-LIGAND FREE ENERGY PREDICTED BY IDOCK:    8.51 KCAL/MOL
REMARK 927      BINDING AFFINITY PREDICTED BY RF-SCORE:    0.00 PKD
ROOT
HETATM    1  C   UNL     1      -9.601  17.572  71.818  1.00  0.00     8.519 C  
HETATM    2  C   UNL     1     -10.843  17.889  71.023  1.00  0.00     2.332 C  
ENDROOT
BRANCH   2   3
HETATM    3  C   UNL     1     -11.241  16.727  70.083  1.00  0.00     0.163 C  
BRANCH   3   4
HETATM    4  C   UNL     1     -11.617  15.461  70.869  1.00  0.00    -0.396 C  
BRANCH   4   5
HETATM    5  C   UNL     1     -12.750  14.678  70.195  1.00  0.00    -0.268 C  
BRANCH   5   6
HETATM    6  C   UNL     1     -12.937  13.279  70.807  1.00  0.00    -0.097 C  
BRANCH   6   7
HETATM    7  C   UNL     1     -11.911  12.290  70.234  1.00  0.00    -0.324 C  
BRANCH   7   8
HETATM    8  C   UNL     1     -10.676  12.938  69.595  1.00  0.00     0.414 C  
BRANCH   8   9
HETATM    9  C   UNL     1      -9.356  12.690  70.306  1.00  0.00     4.768 C  
BRANCH   9  10
HETATM   10  C   UNL     1      -8.359  11.833  69.533  1.00  0.00     0.953 C  
BRANCH  10  11
HETATM   11  C   UNL     1      -8.271  10.281  69.573  1.00  0.00    -0.155 C  
HETATM   12  O   UNL     1      -8.515   9.669  68.529  1.00  0.00    -0.116 OA 
BRANCH  11  13
HETATM   13  O   UNL     1      -8.141   9.623  70.793  1.00  0.00    -0.279 OA 
BRANCH  13  14
HETATM   14  C   UNL     1      -8.247   8.087  70.759  1.00  0.00    -0.113 C  
HETATM   15  C   UNL     1      -7.048   7.809  69.844  1.00  0.00    -0.062 C  
HETATM   16  C   UNL     1      -7.672   8.350  68.554  1.00  0.00    -0.104 C  
HETATM   17  C   UNL     1      -8.793   7.348  68.463  1.00  0.00    -0.126 C  
HETATM   18  C   UNL     1      -9.268   6.893  67.083  1.00  0.00    -0.153 C  
HETATM   19  C   UNL     1      -7.962   6.924  66.250  1.00  0.00    -0.108 C  
HETATM   20  C   UNL     1      -7.883   6.071  65.040  1.00  0.00    -0.108 C  
HETATM   21  C   UNL     1      -8.406   4.657  65.355  1.00  0.00    -0.119 C  
HETATM   22  C   UNL     1      -7.887   3.643  64.668  1.00  0.00    -0.085 C  
HETATM   23  C   UNL     1      -8.267   3.987  63.270  1.00  0.00    -0.087 C  
HETATM   24  O   UNL     1      -7.475   3.833  62.362  1.00  0.00    -0.043 OA 
HETATM   25  C   UNL     1      -9.706   4.565  63.107  1.00  0.00     0.064 C  
HETATM   26  C   UNL     1     -10.472   5.142  64.417  1.00  0.00     1.283 C  
HETATM   27  C   UNL     1      -9.880   4.638  65.795  1.00  0.00    -0.227 C  
HETATM   28  C   UNL     1     -10.511   3.252  66.000  1.00  0.00     1.497 C  
HETATM   29  C   UNL     1      -9.792   5.431  67.204  1.00  0.00    -0.178 C  
HETATM   30  C   UNL     1     -10.772   5.367  68.441  1.00  0.00    -0.071 C  
HETATM   31  C   UNL     1     -10.054   5.865  69.850  1.00  0.00    -0.258 C  
HETATM   32  C   UNL     1      -9.540   7.399  69.821  1.00  0.00    -0.163 C  
HETATM   33  C   UNL     1     -10.793   8.218  70.139  1.00  0.00    -0.237 C  
ENDBRANCH  13  14
ENDBRANCH  11  13
ENDBRANCH  10  11
ENDBRANCH   9  10
ENDBRANCH   8   9
ENDBRANCH   7   8
ENDBRANCH   6   7
ENDBRANCH   5   6
ENDBRANCH   4   5
ENDBRANCH   3   4
ENDBRANCH   2   3
TORSDOF 11
ENDMDL
MODEL      250
REMARK 921   NORMALIZED FREE ENERGY PREDICTED BY IDOCK:   16.47 KCAL/MOL
REMARK 922        TOTAL FREE ENERGY PREDICTED BY IDOCK:   24.88 KCAL/MOL
REMARK 923 INTER-LIGAND FREE ENERGY PREDICTED BY IDOCK:    8.54 KCAL/MOL
REMARK 924 INTRA-LIGAND FREE ENERGY PREDICTED BY IDOCK:   16.34 KCAL/MOL
REMARK 927      BINDING AFFINITY PREDICTED BY RF-SCORE:    0.00 PKD
ROOT
HETATM    1  C   UNL     1      -7.221  12.942  65.156  1.00  0.00     7.320 C  
HETATM    2  C   UNL     1      -8.663  13.002  65.595  1.00  0.00     1.172 C  
ENDROOT
BRANCH   2   3
HETATM    3  C   UNL     1      -8.800  13.032  67.135  1.00  0.00    -0.218 C  
BRANCH   3   4
HETATM    4  C   UNL     1      -7.553  13.627  67.807  1.00  0.00    -0.167 C  
BRANCH   4   5
HETATM    5  C   UNL     1      -7.696  13.699  69.332  1.00  0.00     0.429 C  
BRANCH   5   6
HETATM    6  C   UNL     1      -8.348  15.012  69.796  1.00  0.00     0.095 C  
BRANCH   6   7
HETATM    7  C   UNL     1      -7.733  16.215  69.065  1.00  0.00    -0.222 C  
BRANCH   7   8
HETATM    8  C   UNL     1      -6.203  16.195  68.959  1.00  0.00    -0.139 C  
BRANCH   8   9
HETATM    9  C   UNL     1      -5.532  14.883  69.332  1.00  0.00    -0.091 C  
BRANCH   9  10
HETATM   10  C   UNL     1      -6.401  13.643  69.156  1.00  0.00    -0.103 C  
BRANCH  10  11
HETATM   11  C   UNL     1      -6.081  12.223  69.705  1.00  0.00    -0.132 C  
HETATM   12  O   UNL     1      -5.173  12.124  70.535  1.00  0.00    -0.098 OA 
BRANCH  11  13
HETATM   13  O   UNL     1      -6.653  11.103  69.109  1.00  0.00    -0.067 OA 
BRANCH  13  14
HETATM   14  C   UNL     1      -5.845   9.793  69.193  1.00  0.00    -0.034 C  
HETATM   15  C   UNL     1      -6.610   9.000  68.126  1.00  0.00    -0.060 C  
HETATM   16  C   UNL     1      -7.900   8.808  68.929  1.00  0.00    -0.104 C  
HETATM   17  C   UNL     1      -7.301   7.980  70.036  1.00  0.00    -0.062 C  
HETATM   18  C   UNL     1      -8.152   6.889  70.688  1.00  0.00    -0.118 C  
HETATM   19  C   UNL     1      -9.026   6.395  69.509  1.00  0.00    -0.136 C  
HETATM   20  C   UNL     1      -9.591   5.026  69.582  1.00  0.00    -0.240 C  
HETATM   21  C   UNL     1      -8.505   4.030  70.034  1.00  0.00    -0.093 C  
HETATM   22  C   UNL     1      -8.601   2.777  69.597  1.00  0.00    -0.116 C  
HETATM   23  C   UNL     1      -9.906   2.346  70.170  1.00  0.00     0.245 C  
HETATM   24  O   UNL     1     -10.681   1.686  69.508  1.00  0.00     1.649 OA 
HETATM   25  C   UNL     1     -10.173   2.834  71.628  1.00  0.00     0.086 C  
HETATM   26  C   UNL     1      -9.292   4.064  72.217  1.00  0.00    -0.174 C  
HETATM   27  C   UNL     1      -7.945   4.336  71.434  1.00  0.00    -0.081 C  
HETATM   28  C   UNL     1      -6.954   3.313  72.008  1.00  0.00    -0.034 C  
HETATM   29  C   UNL     1      -7.202   5.750  71.166  1.00  0.00    -0.074 C  
HETATM   30  C   UNL     1      -6.013   6.413  71.967  1.00  0.00    -0.038 C  
HETATM   31  C   UNL     1      -5.191   7.541  71.071  1.00  0.00    -0.027 C  
HETATM   32  C   UNL     1      -6.100   8.790  70.591  1.00  0.00    -0.035 C  
HETATM   33  C   UNL     1      -6.117   9.726  71.802  1.00  0.00     0.210 C  
ENDBRANCH  13  14
ENDBRANCH  11  13
ENDBRANCH  10  11
ENDBRANCH   9  10
ENDBRANCH   8   9
ENDBRANCH   7   8
ENDBRANCH   6   7
ENDBRANCH   5   6
ENDBRANCH   4   5
ENDBRANCH   3   4
ENDBRANCH   2   3
TORSDOF 11
ENDMDL
MODEL      251
REMARK 921   NORMALIZED FREE ENERGY PREDICTED BY IDOCK:   17.70 KCAL/MOL
REMARK 922        TOTAL FREE ENERGY PREDICTED BY IDOCK:   26.90 KCAL/MOL
REMARK 923 INTER-LIGAND FREE ENERGY PREDICTED BY IDOCK:   13.83 KCAL/MOL
REMARK 924 INTRA-LIGAND FREE ENERGY PREDICTED BY IDOCK:   13.07 KCAL/MOL
REMARK 927      BINDING AFFINITY PREDICTED BY RF-SCORE:    0.00 PKD
ROOT
HETATM    1  C   UNL     1     -10.069  13.205  65.219  1.00  0.00    -0.250 C  
HETATM    2  C   UNL     1     -10.101  12.879  63.746  1.00  0.00     0.123 C  
ENDROOT
BRANCH   2   3
HETATM    3  C   UNL     1      -8.700  12.518  63.201  1.00  0.00     3.049 C  
BRANCH   3   4
HETATM    4  C   UNL     1      -7.769  12.009  64.313  1.00  0.00     3.505 C  
BRANCH   4   5
HETATM    5  C   UNL     1      -8.443  10.949  65.191  1.00  0.00    -0.038 C  
BRANCH   5   6
HETATM    6  C   UNL     1      -8.682  11.446  66.627  1.00  0.00    -0.178 C  
BRANCH   6   7
HETATM    7  C   UNL     1      -7.582  10.939  67.571  1.00  0.00    -0.101 C  
BRANCH   7   8
HETATM    8  C   UNL     1      -6.883  12.028  68.394  1.00  0.00    -0.072 C  
BRANCH   8   9
HETATM    9  C   UNL     1      -6.242  11.568  69.693  1.00  0.00    -0.124 C  
BRANCH   9  10
HETATM   10  C   UNL     1      -5.445  12.637  70.432  1.00  0.00    -0.154 C  
BRANCH  10  11
HETATM   11  C   UNL     1      -5.627  13.039  71.923  1.00  0.00     0.280 C  
HETATM   12  O   UNL     1      -5.182  14.134  72.277  1.00  0.00    -0.177 OA 
BRANCH  11  13
HETATM   13  O   UNL     1      -6.075  12.099  72.847  1.00  0.00     1.836 OA 
BRANCH  13  14
HETATM   14  C   UNL     1      -5.731  10.626  72.549  1.00  0.00     0.953 C  
HETATM   15  C   UNL     1      -5.866  10.678  71.023  1.00  0.00     0.016 C  
HETATM   16  C   UNL     1      -7.390  10.822  70.977  1.00  0.00     2.301 C  
HETATM   17  C   UNL     1      -7.715   9.491  71.604  1.00  0.00     0.723 C  
HETATM   18  C   UNL     1      -8.972   8.748  71.153  1.00  0.00    -0.280 C  
HETATM   19  C   UNL     1      -9.073   9.133  69.656  1.00  0.00    -0.163 C  
HETATM   20  C   UNL     1      -9.820   8.230  68.749  1.00  0.00    -0.179 C  
HETATM   21  C   UNL     1      -9.410   6.767  69.005  1.00  0.00    -0.134 C  
HETATM   22  C   UNL     1      -9.468   5.924  67.977  1.00  0.00    -0.111 C  
HETATM   23  C   UNL     1     -10.916   5.956  67.629  1.00  0.00    -0.145 C  
HETATM   24  O   UNL     1     -11.269   5.984  66.468  1.00  0.00    -0.144 OA 
HETATM   25  C   UNL     1     -11.882   5.980  68.854  1.00  0.00     1.323 C  
HETATM   26  C   UNL     1     -11.295   6.400  70.308  1.00  0.00    -0.468 C  
HETATM   27  C   UNL     1      -9.722   6.290  70.434  1.00  0.00    -0.189 C  
HETATM   28  C   UNL     1      -9.463   4.804  70.726  1.00  0.00    -0.228 C  
HETATM   29  C   UNL     1      -8.712   7.218  71.296  1.00  0.00    -0.127 C  
HETATM   30  C   UNL     1      -8.111   6.960  72.733  1.00  0.00    -0.114 C  
HETATM   31  C   UNL     1      -6.728   7.830  73.012  1.00  0.00    -0.080 C  
HETATM   32  C   UNL     1      -6.934   9.433  72.943  1.00  0.00     0.943 C  
HETATM   33  C   UNL     1      -7.475   9.800  74.327  1.00  0.00     2.241 C  
ENDBRANCH  13  14
ENDBRANCH  11  13
ENDBRANCH  10  11
ENDBRANCH   9  10
ENDBRANCH   8   9
ENDBRANCH   7   8
ENDBRANCH   6   7
ENDBRANCH   5   6
ENDBRANCH   4   5
ENDBRANCH   3   4
ENDBRANCH   2   3
TORSDOF 11
ENDMDL
MODEL      252
REMARK 921   NORMALIZED FREE ENERGY PREDICTED BY IDOCK:   22.03 KCAL/MOL
REMARK 922        TOTAL FREE ENERGY PREDICTED BY IDOCK:   34.01 KCAL/MOL
REMARK 923 INTER-LIGAND FREE ENERGY PREDICTED BY IDOCK:   -0.22 KCAL/MOL
REMARK 924 INTRA-LIGAND FREE ENERGY PREDICTED BY IDOCK:   34.23 KCAL/MOL
REMARK 927      BINDING AFFINITY PREDICTED BY RF-SCORE:    0.00 PKD
ROOT
HETATM    1  C   UNL     1     -11.528  12.237  70.622  1.00  0.00     0.703 C  
HETATM    2  C   UNL     1     -10.470  11.923  69.594  1.00  0.00     0.478 C  
ENDROOT
BRANCH   2   3
HETATM    3  C   UNL     1     -10.546  12.870  68.374  1.00  0.00    -0.267 C  
BRANCH   3   4
HETATM    4  C   UNL     1     -11.263  12.212  67.185  1.00  0.00    -0.372 C  
BRANCH   4   5
HETATM    5  C   UNL     1     -12.034  10.953  67.598  1.00  0.00     0.495 C  
BRANCH   5   6
HETATM    6  C   UNL     1     -12.676  11.091  68.989  1.00  0.00     0.775 C  
BRANCH   6   7
HETATM    7  C   UNL     1     -12.404  12.483  69.580  1.00  0.00    -0.035 C  
BRANCH   7   8
HETATM    8  C   UNL     1     -12.960  13.654  68.761  1.00  0.00     1.719 C  
BRANCH   8   9
HETATM    9  C   UNL     1     -11.932  14.647  68.243  1.00  0.00    -0.282 C  
BRANCH   9  10
HETATM   10  C   UNL     1     -11.539  14.464  66.781  1.00  0.00    -0.399 C  
BRANCH  10  11
HETATM   11  C   UNL     1     -10.318  13.654  66.262  1.00  0.00    -0.293 C  
HETATM   12  O   UNL     1      -9.250  14.258  66.125  1.00  0.00    -0.211 OA 
BRANCH  11  13
HETATM   13  O   UNL     1     -10.498  12.365  65.769  1.00  0.00    -0.248 OA 
BRANCH  13  14
HETATM   14  C   UNL     1      -9.273  11.708  65.103  1.00  0.00     0.012 C  
HETATM   15  C   UNL     1      -9.991  10.511  64.467  1.00  0.00    -0.413 C  
HETATM   16  C   UNL     1     -10.278   9.756  65.769  1.00  0.00    -0.222 C  
HETATM   17  C   UNL     1      -8.842   9.511  66.155  1.00  0.00    -0.177 C  
HETATM   18  C   UNL     1      -8.484   8.220  66.891  1.00  0.00    -0.118 C  
HETATM   19  C   UNL     1      -9.485   7.201  66.292  1.00  0.00    -0.125 C  
HETATM   20  C   UNL     1      -9.133   5.762  66.341  1.00  0.00    -0.152 C  
HETATM   21  C   UNL     1      -7.673   5.559  65.895  1.00  0.00    -0.091 C  
HETATM   22  C   UNL     1      -7.365   4.407  65.305  1.00  0.00    -0.073 C  
HETATM   23  C   UNL     1      -7.675   3.417  66.373  1.00  0.00    -0.078 C  
HETATM   24  O   UNL     1      -8.234   2.374  66.102  1.00  0.00    -0.083 OA 
HETATM   25  C   UNL     1      -7.256   3.854  67.811  1.00  0.00    -0.063 C  
HETATM   26  C   UNL     1      -6.952   5.423  68.097  1.00  0.00    -0.061 C  
HETATM   27  C   UNL     1      -6.657   6.278  66.799  1.00  0.00    -0.055 C  
HETATM   28  C   UNL     1      -5.173   6.016  66.496  1.00  0.00    -0.009 C  
HETATM   29  C   UNL     1      -7.026   7.827  66.507  1.00  0.00    -0.067 C  
HETATM   30  C   UNL     1      -6.119   9.110  66.668  1.00  0.00    -0.064 C  
HETATM   31  C   UNL     1      -6.654  10.389  65.758  1.00  0.00    -0.126 C  
HETATM   32  C   UNL     1      -8.142  10.894  66.145  1.00  0.00    -0.160 C  
HETATM   33  C   UNL     1      -7.923  11.811  67.350  1.00  0.00    -0.155 C  
ENDBRANCH  13  14
ENDBRANCH  11  13
ENDBRANCH  10  11
ENDBRANCH   9  10
ENDBRANCH   8   9
ENDBRANCH   7   8
ENDBRANCH   6   7
ENDBRANCH   5   6
ENDBRANCH   4   5
ENDBRANCH   3   4
ENDBRANCH   2   3
TORSDOF 11
ENDMDL
MODEL      253
REMARK 921   NORMALIZED FREE ENERGY PREDICTED BY IDOCK:   37.05 KCAL/MOL
REMARK 922        TOTAL FREE ENERGY PREDICTED BY IDOCK:   58.69 KCAL/MOL
REMARK 923 INTER-LIGAND FREE ENERGY PREDICTED BY IDOCK:    0.76 KCAL/MOL
REMARK 924 INTRA-LIGAND FREE ENERGY PREDICTED BY IDOCK:   57.93 KCAL/MOL
REMARK 927      BINDING AFFINITY PREDICTED BY RF-SCORE:    0.00 PKD
ROOT
HETATM    1  C   UNL     1      -5.372  11.241  69.572  1.00  0.00    -0.045 C  
HETATM    2  C   UNL     1      -5.145   9.751  69.620  1.00  0.00    -0.034 C  
ENDROOT
BRANCH   2   3
HETATM    3  C   UNL     1      -6.474   8.961  69.597  1.00  0.00    -0.042 C  
BRANCH   3   4
HETATM    4  C   UNL     1      -7.687   9.889  69.426  1.00  0.00    -0.119 C  
BRANCH   4   5
HETATM    5  C   UNL     1      -7.292  11.370  69.466  1.00  0.00     0.077 C  
BRANCH   5   6
HETATM    6  C   UNL     1      -7.204  11.913  70.902  1.00  0.00     3.817 C  
BRANCH   6   7
HETATM    7  C   UNL     1      -6.148  11.147  71.712  1.00  0.00     1.406 C  
BRANCH   7   8
HETATM    8  C   UNL     1      -6.214   9.620  71.581  1.00  0.00     0.139 C  
BRANCH   8   9
HETATM    9  C   UNL     1      -5.949   9.064  70.191  1.00  0.00    -0.034 C  
BRANCH   9  10
HETATM   10  C   UNL     1      -7.183   8.552  69.456  1.00  0.00    -0.060 C  
BRANCH  10  11
HETATM   11  C   UNL     1      -7.244   8.146  67.956  1.00  0.00    -0.094 C  
HETATM   12  O   UNL     1      -7.684   7.025  67.687  1.00  0.00    -0.107 OA 
BRANCH  11  13
HETATM   13  O   UNL     1      -6.622   8.938  66.996  1.00  0.00    -0.060 OA 
BRANCH  13  14
HETATM   14  C   UNL     1      -7.534   9.555  65.918  1.00  0.00    -0.100 C  
HETATM   15  C   UNL     1      -6.710  10.816  65.634  1.00  0.00    -0.019 C  
HETATM   16  C   UNL     1      -7.001  11.528  66.958  1.00  0.00    -0.145 C  
HETATM   17  C   UNL     1      -8.488  11.676  66.759  1.00  0.00    -0.177 C  
HETATM   18  C   UNL     1      -9.190  12.912  67.322  1.00  0.00    -0.208 C  
HETATM   19  C   UNL     1      -8.107  14.009  67.179  1.00  0.00    -0.121 C  
HETATM   20  C   UNL     1      -8.547  15.424  67.114  1.00  0.00    -0.235 C  
HETATM   21  C   UNL     1      -9.731  15.564  66.139  1.00  0.00    -0.348 C  
HETATM   22  C   UNL     1      -9.864  16.723  65.497  1.00  0.00     0.021 C  
HETATM   23  C   UNL     1     -10.060  17.680  66.620  1.00  0.00    -0.335 C  
HETATM   24  O   UNL     1      -9.513  18.764  66.607  1.00  0.00    -0.307 OA 
HETATM   25  C   UNL     1     -10.973  17.158  67.773  1.00  0.00    -0.180 C  
HETATM   26  C   UNL     1     -11.256  15.564  67.888  1.00  0.00    -0.325 C  
HETATM   27  C   UNL     1     -10.967  14.752  66.562  1.00  0.00    -0.325 C  
HETATM   28  C   UNL     1     -12.231  14.943  65.711  1.00  0.00     0.072 C  
HETATM   29  C   UNL     1     -10.409  13.239  66.408  1.00  0.00    -0.286 C  
HETATM   30  C   UNL     1     -11.217  11.902  66.180  1.00  0.00    -0.387 C  
HETATM   31  C   UNL     1     -10.286  10.696  65.526  1.00  0.00    -0.329 C  
HETATM   32  C   UNL     1      -9.034  10.257  66.451  1.00  0.00    -0.166 C  
HETATM   33  C   UNL     1      -9.639   9.278  67.459  1.00  0.00    -0.184 C  
ENDBRANCH  13  14
ENDBRANCH  11  13
ENDBRANCH  10  11
ENDBRANCH   9  10
ENDBRANCH   8   9
ENDBRANCH   7   8
ENDBRANCH   6   7
ENDBRANCH   5   6
ENDBRANCH   4   5
ENDBRANCH   3   4
ENDBRANCH   2   3
TORSDOF 11
ENDMDL
MODEL      254
REMARK 921   NORMALIZED FREE ENERGY PREDICTED BY IDOCK:   37.08 KCAL/MOL
REMARK 922        TOTAL FREE ENERGY PREDICTED BY IDOCK:   58.74 KCAL/MOL
REMARK 923 INTER-LIGAND FREE ENERGY PREDICTED BY IDOCK:   31.59 KCAL/MOL
REMARK 924 INTRA-LIGAND FREE ENERGY PREDICTED BY IDOCK:   27.15 KCAL/MOL
REMARK 927      BINDING AFFINITY PREDICTED BY RF-SCORE:    0.00 PKD
ROOT
HETATM    1  C   UNL     1      -5.732  11.421  69.183  1.00  0.00    -0.045 C  
HETATM    2  C   UNL     1      -5.351   9.962  69.197  1.00  0.00    -0.035 C  
ENDROOT
BRANCH   2   3
HETATM    3  C   UNL     1      -6.591   9.040  69.259  1.00  0.00    -0.049 C  
BRANCH   3   4
HETATM    4  C   UNL     1      -7.901   9.842  69.230  1.00  0.00    -0.117 C  
BRANCH   4   5
HETATM    5  C   UNL     1      -7.655  11.354  69.299  1.00  0.00     0.024 C  
BRANCH   5   6
HETATM    6  C   UNL     1      -7.569  11.867  70.746  1.00  0.00     4.613 C  
BRANCH   6   7
HETATM    7  C   UNL     1      -6.635  10.982  71.585  1.00  0.00     2.502 C  
BRANCH   7   8
HETATM    8  C   UNL     1      -7.125   9.545  71.799  1.00  0.00     0.533 C  
BRANCH   8   9
HETATM    9  C   UNL     1      -7.268   8.701  70.543  1.00  0.00    -0.053 C  
BRANCH   9  10
HETATM   10  C   UNL     1      -8.689   8.246  70.232  1.00  0.00    -0.139 C  
BRANCH  10  11
HETATM   11  C   UNL     1      -9.135   7.455  68.970  1.00  0.00    -0.133 C  
HETATM   12  O   UNL     1      -9.736   6.391  69.146  1.00  0.00    -0.135 OA 
BRANCH  11  13
HETATM   13  O   UNL     1      -8.674   7.834  67.713  1.00  0.00    -0.124 OA 
BRANCH  13  14
HETATM   14  C   UNL     1      -9.748   8.197  66.668  1.00  0.00    -0.248 C  
HETATM   15  C   UNL     1      -8.925   9.205  65.857  1.00  0.00    -0.231 C  
HETATM   16  C   UNL     1      -8.903  10.316  66.911  1.00  0.00    -0.141 C  
HETATM   17  C   UNL     1     -10.388  10.571  66.935  1.00  0.00    -0.293 C  
HETATM   18  C   UNL     1     -10.890  11.994  67.182  1.00  0.00    -0.297 C  
HETATM   19  C   UNL     1      -9.796  12.859  66.510  1.00  0.00    -0.254 C  
HETATM   20  C   UNL     1     -10.158  14.229  66.071  1.00  0.00    -0.333 C  
HETATM   21  C   UNL     1     -11.504  14.205  65.322  1.00  0.00    -0.330 C  
HETATM   22  C   UNL     1     -11.696  15.120  64.375  1.00  0.00    -0.301 C  
HETATM   23  C   UNL     1     -11.607  16.390  65.147  1.00  0.00     0.410 C  
HETATM   24  O   UNL     1     -11.012  17.346  64.692  1.00  0.00    -0.959 OA 
HETATM   25  C   UNL     1     -12.298  16.355  66.545  1.00  0.00     2.823 C  
HETATM   26  C   UNL     1     -12.643  14.918  67.214  1.00  0.00     0.860 C  
HETATM   27  C   UNL     1     -12.674  13.712  66.191  1.00  0.00    -0.295 C  
HETATM   28  C   UNL     1     -14.071  13.784  65.555  1.00  0.00     3.726 C  
HETATM   29  C   UNL     1     -12.247  12.169  66.437  1.00  0.00     0.249 C  
HETATM   30  C   UNL     1     -13.161  10.932  66.794  1.00  0.00     8.970 C  
HETATM   31  C   UNL     1     -12.451   9.483  66.412  1.00  0.00    10.100 C  
HETATM   32  C   UNL     1     -11.066   9.201  67.198  1.00  0.00     0.309 C  
HETATM   33  C   UNL     1     -11.511   8.654  68.556  1.00  0.00     0.980 C  
ENDBRANCH  13  14
ENDBRANCH  11  13
ENDBRANCH  10  11
ENDBRANCH   9  10
ENDBRANCH   8   9
ENDBRANCH   7   8
ENDBRANCH   6   7
ENDBRANCH   5   6
ENDBRANCH   4   5
ENDBRANCH   3   4
ENDBRANCH   2   3
TORSDOF 11
ENDMDL
MODEL      255
REMARK 921   NORMALIZED FREE ENERGY PREDICTED BY IDOCK:   43.05 KCAL/MOL
REMARK 922        TOTAL FREE ENERGY PREDICTED BY IDOCK:   68.55 KCAL/MOL
REMARK 923 INTER-LIGAND FREE ENERGY PREDICTED BY IDOCK:   14.93 KCAL/MOL
REMARK 924 INTRA-LIGAND FREE ENERGY PREDICTED BY IDOCK:   53.62 KCAL/MOL
REMARK 927      BINDING AFFINITY PREDICTED BY RF-SCORE:    0.00 PKD
ROOT
HETATM    1  C   UNL     1      -5.376  11.245  69.572  1.00  0.00    -0.045 C  
HETATM    2  C   UNL     1      -5.192   9.752  69.675  1.00  0.00    -0.034 C  
ENDROOT
BRANCH   2   3
HETATM    3  C   UNL     1      -6.541   8.997  69.626  1.00  0.00    -0.043 C  
BRANCH   3   4
HETATM    4  C   UNL     1      -7.712   9.892  70.060  1.00  0.00    -0.188 C  
BRANCH   4   5
HETATM    5  C   UNL     1      -7.241  11.271  70.536  1.00  0.00     1.597 C  
BRANCH   5   6
HETATM    6  C   UNL     1      -6.849  11.273  72.023  1.00  0.00     5.119 C  
BRANCH   6   7
HETATM    7  C   UNL     1      -5.769  10.219  72.306  1.00  0.00     0.502 C  
BRANCH   7   8
HETATM    8  C   UNL     1      -6.021   8.847  71.668  1.00  0.00    -0.063 C  
BRANCH   8   9
HETATM    9  C   UNL     1      -6.003   8.810  70.149  1.00  0.00    -0.030 C  
BRANCH   9  10
HETATM   10  C   UNL     1      -7.375   8.723  69.490  1.00  0.00    -0.067 C  
BRANCH  10  11
HETATM   11  C   UNL     1      -7.663   8.854  67.967  1.00  0.00    -0.101 C  
HETATM   12  O   UNL     1      -8.332   7.964  67.435  1.00  0.00    -0.121 OA 
BRANCH  11  13
HETATM   13  O   UNL     1      -7.000   9.820  67.215  1.00  0.00    -0.082 OA 
BRANCH  13  14
HETATM   14  C   UNL     1      -7.881  10.887  66.538  1.00  0.00    -0.152 C  
HETATM   15  C   UNL     1      -6.851  12.022  66.497  1.00  0.00     0.310 C  
HETATM   16  C   UNL     1      -6.836  12.312  68.001  1.00  0.00    -0.082 C  
HETATM   17  C   UNL     1      -8.272  12.754  68.113  1.00  0.00    -0.167 C  
HETATM   18  C   UNL     1      -8.635  13.842  69.123  1.00  0.00     0.406 C  
HETATM   19  C   UNL     1      -7.371  14.737  69.122  1.00  0.00    -0.151 C  
HETATM   20  C   UNL     1      -7.514  16.150  69.550  1.00  0.00    -0.084 C  
HETATM   21  C   UNL     1      -8.746  16.784  68.877  1.00  0.00    -0.224 C  
HETATM   22  C   UNL     1      -8.708  18.092  68.634  1.00  0.00    -0.272 C  
HETATM   23  C   UNL     1      -8.573  18.659  70.004  1.00  0.00     1.678 C  
HETATM   24  O   UNL     1      -7.818  19.587  70.213  1.00  0.00     0.611 OA 
HETATM   25  C   UNL     1      -9.436  17.952  71.093  1.00  0.00     6.043 C  
HETATM   26  C   UNL     1     -10.028  16.472  70.786  1.00  0.00     1.934 C  
HETATM   27  C   UNL     1     -10.067  16.090  69.251  1.00  0.00    -0.249 C  
HETATM   28  C   UNL     1     -11.352  16.745  68.725  1.00  0.00    -0.038 C  
HETATM   29  C   UNL     1      -9.855  14.636  68.569  1.00  0.00    -0.228 C  
HETATM   30  C   UNL     1     -10.944  13.591  68.104  1.00  0.00    -0.275 C  
HETATM   31  C   UNL     1     -10.363  12.523  66.976  1.00  0.00    -0.236 C  
HETATM   32  C   UNL     1      -9.132  11.615  67.504  1.00  0.00    -0.172 C  
HETATM   33  C   UNL     1      -9.808  10.477  68.271  1.00  0.00    -0.162 C  
ENDBRANCH  13  14
ENDBRANCH  11  13
ENDBRANCH  10  11
ENDBRANCH   9  10
ENDBRANCH   8   9
ENDBRANCH   7   8
ENDBRANCH   6   7
ENDBRANCH   5   6
ENDBRANCH   4   5
ENDBRANCH   3   4
ENDBRANCH   2   3
TORSDOF 11
ENDMDL
MODEL      256
REMARK 921   NORMALIZED FREE ENERGY PREDICTED BY IDOCK:   56.04 KCAL/MOL
REMARK 922        TOTAL FREE ENERGY PREDICTED BY IDOCK:   89.90 KCAL/MOL
REMARK 923 INTER-LIGAND FREE ENERGY PREDICTED BY IDOCK:    2.98 KCAL/MOL
REMARK 924 INTRA-LIGAND FREE ENERGY PREDICTED BY IDOCK:   86.92 KCAL/MOL
REMARK 927      BINDING AFFINITY PREDICTED BY RF-SCORE:    0.00 PKD
ROOT
HETATM    1  C   UNL     1      -5.948  10.941  67.055  1.00  0.00    -0.069 C  
HETATM    2  C   UNL     1      -5.701   9.488  66.733  1.00  0.00    -0.051 C  
ENDROOT
BRANCH   2   3
HETATM    3  C   UNL     1      -7.015   8.722  66.458  1.00  0.00    -0.079 C  
BRANCH   3   4
HETATM    4  C   UNL     1      -6.902   7.238  66.839  1.00  0.00    -0.069 C  
BRANCH   4   5
HETATM    5  C   UNL     1      -6.967   7.023  68.356  1.00  0.00    -0.076 C  
BRANCH   5   6
HETATM    6  C   UNL     1      -7.583   5.664  68.727  1.00  0.00    -0.088 C  
BRANCH   6   7
HETATM    7  C   UNL     1      -9.111   5.694  68.564  1.00  0.00    -0.118 C  
BRANCH   7   8
HETATM    8  C   UNL     1      -9.748   4.347  68.203  1.00  0.00    -0.181 C  
BRANCH   8   9
HETATM    9  C   UNL     1      -9.473   3.840  66.796  1.00  0.00    -0.216 C  
BRANCH   9  10
HETATM   10  C   UNL     1      -8.382   4.594  66.043  1.00  0.00    -0.114 C  
BRANCH  10  11
HETATM   11  C   UNL     1      -8.560   5.949  65.301  1.00  0.00    -0.117 C  
HETATM   12  O   UNL     1      -9.621   6.134  64.698  1.00  0.00     1.019 OA 
BRANCH  11  13
HETATM   13  O   UNL     1      -7.474   6.807  65.151  1.00  0.00    -0.077 OA 
BRANCH  13  14
HETATM   14  C   UNL     1      -7.083   7.641  66.386  1.00  0.00    -0.071 C  
HETATM   15  C   UNL     1      -8.114   7.069  67.367  1.00  0.00    -0.116 C  
HETATM   16  C   UNL     1      -9.349   7.718  66.735  1.00  0.00    -0.227 C  
HETATM   17  C   UNL     1      -8.949   9.149  66.988  1.00  0.00    -0.139 C  
HETATM   18  C   UNL     1     -10.038  10.180  67.281  1.00  0.00    -0.254 C  
HETATM   19  C   UNL     1     -11.094   9.348  68.049  1.00  0.00    -0.004 C  
HETATM   20  C   UNL     1     -12.029  10.063  68.951  1.00  0.00     0.475 C  
HETATM   21  C   UNL     1     -11.257  11.073  69.820  1.00  0.00    -0.339 C  
HETATM   22  C   UNL     1     -11.744  11.344  71.028  1.00  0.00     0.259 C  
HETATM   23  C   UNL     1     -13.078  11.920  70.704  1.00  0.00     0.340 C  
HETATM   24  O   UNL     1     -14.054  11.621  71.362  1.00  0.00     1.200 OA 
HETATM   25  C   UNL     1     -13.095  12.876  69.471  1.00  0.00     1.549 C  
HETATM   26  C   UNL     1     -11.857  12.828  68.424  1.00  0.00    -0.353 C  
HETATM   27  C   UNL     1     -10.542  12.160  68.997  1.00  0.00    -0.117 C  
HETATM   28  C   UNL     1      -9.860  13.280  69.798  1.00  0.00     1.658 C  
HETATM   29  C   UNL     1      -9.436  11.275  68.212  1.00  0.00    -0.190 C  
HETATM   30  C   UNL     1      -8.056  11.732  67.596  1.00  0.00    -0.144 C  
HETATM   31  C   UNL     1      -6.999  10.470  67.393  1.00  0.00    -0.085 C  
HETATM   32  C   UNL     1      -7.530   9.322  66.385  1.00  0.00    -0.093 C  
HETATM   33  C   UNL     1      -7.194   9.861  64.994  1.00  0.00    -0.135 C  
ENDBRANCH  13  14
ENDBRANCH  11  13
ENDBRANCH  10  11
ENDBRANCH   9  10
ENDBRANCH   8   9
ENDBRANCH   7   8
ENDBRANCH   6   7
ENDBRANCH   5   6
ENDBRANCH   4   5
ENDBRANCH   3   4
ENDBRANCH   2   3
TORSDOF 11
ENDMDL
MODEL      257
REMARK 921   NORMALIZED FREE ENERGY PREDICTED BY IDOCK:   56.68 KCAL/MOL
REMARK 922        TOTAL FREE ENERGY PREDICTED BY IDOCK:   90.94 KCAL/MOL
REMARK 923 INTER-LIGAND FREE ENERGY PREDICTED BY IDOCK:   74.90 KCAL/MOL
REMARK 924 INTRA-LIGAND FREE ENERGY PREDICTED BY IDOCK:   16.04 KCAL/MOL
REMARK 927      BINDING AFFINITY PREDICTED BY RF-SCORE:    0.00 PKD
ROOT
HETATM    1  C   UNL     1      -9.609  15.858  72.977  1.00  0.00     9.254 C  
HETATM    2  C   UNL     1     -10.751  16.640  72.377  1.00  0.00     2.834 C  
ENDROOT
BRANCH   2   3
HETATM    3  C   UNL     1     -10.294  18.019  71.846  1.00  0.00     4.458 C  
BRANCH   3   4
HETATM    4  C   UNL     1      -9.019  17.908  70.995  1.00  0.00     6.741 C  
BRANCH   4   5
HETATM    5  C   UNL     1      -8.360  16.529  71.117  1.00  0.00     6.051 C  
BRANCH   5   6
HETATM    6  C   UNL     1      -8.804  15.779  72.383  1.00  0.00     9.477 C  
BRANCH   6   7
HETATM    7  C   UNL     1      -7.830  14.639  72.714  1.00  0.00     6.620 C  
BRANCH   7   8
HETATM    8  C   UNL     1      -6.345  14.993  72.561  1.00  0.00     1.414 C  
BRANCH   8   9
HETATM    9  C   UNL     1      -5.438  13.860  72.107  1.00  0.00    -0.192 C  
BRANCH   9  10
HETATM   10  C   UNL     1      -5.940  13.080  70.897  1.00  0.00     0.099 C  
BRANCH  10  11
HETATM   11  C   UNL     1      -7.251  12.247  70.831  1.00  0.00     4.142 C  
HETATM   12  O   UNL     1      -8.048  12.363  71.767  1.00  0.00    11.324 OA 
BRANCH  11  13
HETATM   13  O   UNL     1      -7.398  11.257  69.864  1.00  0.00     0.073 OA 
BRANCH  13  14
HETATM   14  C   UNL     1      -7.138  11.678  68.405  1.00  0.00    -0.083 C  
HETATM   15  C   UNL     1      -6.858  13.165  68.657  1.00  0.00    -0.099 C  
HETATM   16  C   UNL     1      -8.293  13.565  69.011  1.00  0.00     0.310 C  
HETATM   17  C   UNL     1      -8.904  13.246  67.672  1.00  0.00    -0.200 C  
HETATM   18  C   UNL     1     -10.065  14.103  67.166  1.00  0.00    -0.258 C  
HETATM   19  C   UNL     1      -9.728  15.501  67.738  1.00  0.00    -0.211 C  
HETATM   20  C   UNL     1     -10.295  16.691  67.060  1.00  0.00    -0.301 C  
HETATM   21  C   UNL     1     -10.116  16.565  65.535  1.00  0.00    -0.203 C  
HETATM   22  C   UNL     1      -9.985  17.691  64.837  1.00  0.00     2.192 C  
HETATM   23  C   UNL     1     -11.278  18.378  65.107  1.00  0.00     1.430 C  
HETATM   24  O   UNL     1     -11.306  19.572  65.321  1.00  0.00    -0.166 OA 
HETATM   25  C   UNL     1     -12.526  17.442  65.115  1.00  0.00     6.199 C  
HETATM   26  C   UNL     1     -12.306  15.842  65.274  1.00  0.00     1.034 C  
HETATM   27  C   UNL     1     -10.842  15.347  64.937  1.00  0.00    -0.445 C  
HETATM   28  C   UNL     1     -10.820  15.227  63.406  1.00  0.00     3.781 C  
HETATM   29  C   UNL     1     -10.008  14.132  65.609  1.00  0.00    -0.331 C  
HETATM   30  C   UNL     1      -9.838  12.646  65.101  1.00  0.00    -0.112 C  
HETATM   31  C   UNL     1      -8.497  11.905  65.735  1.00  0.00     0.387 C  
HETATM   32  C   UNL     1      -8.516  11.780  67.348  1.00  0.00    -0.158 C  
HETATM   33  C   UNL     1      -9.363  10.535  67.617  1.00  0.00    -0.160 C  
ENDBRANCH  13  14
ENDBRANCH  11  13
ENDBRANCH  10  11
ENDBRANCH   9  10
ENDBRANCH   8   9
ENDBRANCH   7   8
ENDBRANCH   6   7
ENDBRANCH   5   6
ENDBRANCH   4   5
ENDBRANCH   3   4
ENDBRANCH   2   3
TORSDOF 11
ENDMDL
