MODEL        1
REMARK 921   NORMALIZED FREE ENERGY PREDICTED BY IDOCK:   -5.32 KCAL/MOL
REMARK 922        TOTAL FREE ENERGY PREDICTED BY IDOCK:   -5.89 KCAL/MOL
REMARK 923 INTER-LIGAND FREE ENERGY PREDICTED BY IDOCK:   -5.63 KCAL/MOL
REMARK 924 INTRA-LIGAND FREE ENERGY PREDICTED BY IDOCK:   -0.25 KCAL/MOL
REMARK 927      BINDING AFFINITY PREDICTED BY RF-SCORE:    0.00 PKD
ROOT
HETATM    1  C   UNL     1     -10.442  16.721  67.088  1.00  0.00    -0.299 C  
HETATM    2  C   UNL     1     -10.873  16.614  68.552  1.00  0.00    -0.356 C  
HETATM    3  N   UNL     1     -11.714  15.388  68.637  1.00  0.00    -0.363 NA 
HETATM    4  C   UNL     1     -11.421  14.715  67.548  1.00  0.00    -0.361 C  
HETATM    5  N   UNL     1     -10.563  15.344  66.676  1.00  0.00    -0.302 NA 
ENDROOT
BRANCH   4   6
HETATM    6  C   UNL     1     -12.012  13.325  67.321  1.00  0.00    -0.393 C  
HETATM    7  C   UNL     1     -11.527  12.400  68.451  1.00  0.00    -0.356 C  
HETATM    8  C   UNL     1     -10.042  12.092  68.272  1.00  0.00    -0.210 C  
HETATM    9  C   UNL     1      -9.805  11.321  66.979  1.00  0.00    -0.217 C  
HETATM   10  C   UNL     1     -10.649  11.779  65.812  1.00  0.00    -0.312 A  
HETATM   11  C   UNL     1     -10.430  11.179  64.563  1.00  0.00    -0.415 A  
HETATM   12  C   UNL     1     -11.244  11.484  63.474  1.00  0.00    -0.412 A  
HETATM   13  C   UNL     1     -12.281  12.401  63.620  1.00  0.00    -0.653 A  
HETATM   14  C   UNL     1     -12.505  13.014  64.855  1.00  0.00    -0.512 A  
HETATM   15  C   UNL     1     -11.702  12.703  65.967  1.00  0.00    -0.470 A  
ENDBRANCH   4   6
TORSDOF 1
ENDMDL
MODEL        2
REMARK 921   NORMALIZED FREE ENERGY PREDICTED BY IDOCK:   -5.26 KCAL/MOL
REMARK 922        TOTAL FREE ENERGY PREDICTED BY IDOCK:   -5.82 KCAL/MOL
REMARK 923 INTER-LIGAND FREE ENERGY PREDICTED BY IDOCK:   -5.63 KCAL/MOL
REMARK 924 INTRA-LIGAND FREE ENERGY PREDICTED BY IDOCK:   -0.19 KCAL/MOL
REMARK 927      BINDING AFFINITY PREDICTED BY RF-SCORE:    0.00 PKD
ROOT
HETATM    1  C   UNL     1     -10.691  16.763  68.802  1.00  0.00    -0.341 C  
HETATM    2  C   UNL     1     -10.253  16.784  67.336  1.00  0.00    -0.288 C  
HETATM    3  N   UNL     1     -10.590  15.438  66.794  1.00  0.00    -0.305 NA 
HETATM    4  C   UNL     1     -11.453  14.947  67.654  1.00  0.00    -0.352 C  
HETATM    5  N   UNL     1     -11.692  15.725  68.763  1.00  0.00    -0.395 NA 
ENDROOT
BRANCH   4   6
HETATM    6  C   UNL     1     -12.125  13.602  67.386  1.00  0.00    -0.375 C  
HETATM    7  C   UNL     1     -11.821  12.664  68.567  1.00  0.00    -0.342 C  
HETATM    8  C   UNL     1     -10.354  12.241  68.533  1.00  0.00    -0.234 C  
HETATM    9  C   UNL     1     -10.056  11.431  67.276  1.00  0.00    -0.218 C  
HETATM   10  C   UNL     1     -10.750  11.931  66.030  1.00  0.00    -0.326 A  
HETATM   11  C   UNL     1     -10.461  11.294  64.814  1.00  0.00    -0.384 A  
HETATM   12  C   UNL     1     -11.144  11.640  63.649  1.00  0.00    -0.506 A  
HETATM   13  C   UNL     1     -12.116  12.635  63.686  1.00  0.00    -0.632 A  
HETATM   14  C   UNL     1     -12.407  13.285  64.888  1.00  0.00    -0.476 A  
HETATM   15  C   UNL     1     -11.738  12.934  66.074  1.00  0.00    -0.456 A  
ENDBRANCH   4   6
TORSDOF 1
ENDMDL
MODEL        3
REMARK 921   NORMALIZED FREE ENERGY PREDICTED BY IDOCK:   -5.16 KCAL/MOL
REMARK 922        TOTAL FREE ENERGY PREDICTED BY IDOCK:   -5.72 KCAL/MOL
REMARK 923 INTER-LIGAND FREE ENERGY PREDICTED BY IDOCK:   -5.50 KCAL/MOL
REMARK 924 INTRA-LIGAND FREE ENERGY PREDICTED BY IDOCK:   -0.22 KCAL/MOL
REMARK 927      BINDING AFFINITY PREDICTED BY RF-SCORE:    0.00 PKD
ROOT
HETATM    1  C   UNL     1     -11.016  15.253  64.857  1.00  0.00    -0.430 C  
HETATM    2  C   UNL     1     -11.613  14.748  66.173  1.00  0.00    -0.292 C  
HETATM    3  N   UNL     1     -10.765  15.329  67.250  1.00  0.00    -0.305 NA 
HETATM    4  C   UNL     1     -10.126  16.316  66.666  1.00  0.00    -0.276 C  
HETATM    5  N   UNL     1     -10.342  16.443  65.314  1.00  0.00    -0.618 NA 
ENDROOT
BRANCH   4   6
HETATM    6  C   UNL     1      -9.223  17.238  67.483  1.00  0.00    -0.227 C  
HETATM    7  C   UNL     1     -10.112  18.217  68.269  1.00  0.00    -0.406 C  
HETATM    8  C   UNL     1     -10.739  19.232  67.316  1.00  0.00    -0.594 C  
HETATM    9  C   UNL     1      -9.663  20.090  66.659  1.00  0.00    -0.566 C  
HETATM   10  C   UNL     1      -8.409  19.338  66.277  1.00  0.00    -0.327 A  
HETATM   11  C   UNL     1      -7.405  20.036  65.590  1.00  0.00    -0.311 A  
HETATM   12  C   UNL     1      -6.185  19.427  65.301  1.00  0.00    -0.293 A  
HETATM   13  C   UNL     1      -5.959  18.109  65.689  1.00  0.00    -0.253 A  
HETATM   14  C   UNL     1      -6.954  17.399  66.366  1.00  0.00    -0.314 A  
HETATM   15  C   UNL     1      -8.183  18.006  66.678  1.00  0.00    -0.285 A  
ENDBRANCH   4   6
TORSDOF 1
ENDMDL
MODEL        4
REMARK 921   NORMALIZED FREE ENERGY PREDICTED BY IDOCK:   -5.13 KCAL/MOL
REMARK 922        TOTAL FREE ENERGY PREDICTED BY IDOCK:   -5.68 KCAL/MOL
REMARK 923 INTER-LIGAND FREE ENERGY PREDICTED BY IDOCK:   -5.57 KCAL/MOL
REMARK 924 INTRA-LIGAND FREE ENERGY PREDICTED BY IDOCK:   -0.11 KCAL/MOL
REMARK 927      BINDING AFFINITY PREDICTED BY RF-SCORE:    0.00 PKD
ROOT
HETATM    1  C   UNL     1     -12.215  12.473  65.056  1.00  0.00    -0.456 C  
HETATM    2  C   UNL     1     -12.661  13.886  65.438  1.00  0.00    -0.490 C  
HETATM    3  N   UNL     1     -12.281  14.058  66.867  1.00  0.00    -0.426 NA 
HETATM    4  C   UNL     1     -11.398  13.111  67.086  1.00  0.00    -0.316 C  
HETATM    5  N   UNL     1     -11.179  12.251  66.036  1.00  0.00    -0.317 NA 
ENDROOT
BRANCH   4   6
HETATM    6  C   UNL     1     -10.681  13.024  68.432  1.00  0.00    -0.273 C  
HETATM    7  C   UNL     1     -10.614  11.544  68.851  1.00  0.00    -0.236 C  
HETATM    8  C   UNL     1     -12.001  11.052  69.254  1.00  0.00    -0.410 C  
HETATM    9  C   UNL     1     -12.504  11.805  70.481  1.00  0.00    -0.317 C  
HETATM   10  C   UNL     1     -12.169  13.278  70.493  1.00  0.00    -0.416 A  
HETATM   11  C   UNL     1     -12.669  14.060  71.544  1.00  0.00    -0.443 A  
HETATM   12  C   UNL     1     -12.311  15.401  71.668  1.00  0.00    -0.444 A  
HETATM   13  C   UNL     1     -11.455  15.978  70.733  1.00  0.00    -0.444 A  
HETATM   14  C   UNL     1     -10.957  15.214  69.675  1.00  0.00    -0.291 A  
HETATM   15  C   UNL     1     -11.296  13.855  69.549  1.00  0.00    -0.293 A  
ENDBRANCH   4   6
TORSDOF 1
ENDMDL
MODEL        5
REMARK 921   NORMALIZED FREE ENERGY PREDICTED BY IDOCK:   -5.08 KCAL/MOL
REMARK 922        TOTAL FREE ENERGY PREDICTED BY IDOCK:   -5.63 KCAL/MOL
REMARK 923 INTER-LIGAND FREE ENERGY PREDICTED BY IDOCK:   -5.37 KCAL/MOL
REMARK 924 INTRA-LIGAND FREE ENERGY PREDICTED BY IDOCK:   -0.26 KCAL/MOL
REMARK 927      BINDING AFFINITY PREDICTED BY RF-SCORE:    0.00 PKD
ROOT
HETATM    1  C   UNL     1      -9.837  11.134  68.689  1.00  0.00    -0.202 C  
HETATM    2  C   UNL     1     -10.975  10.274  68.137  1.00  0.00    -0.274 C  
HETATM    3  N   UNL     1     -12.017  11.231  67.675  1.00  0.00    -0.607 NA 
HETATM    4  C   UNL     1     -11.384  12.377  67.570  1.00  0.00    -0.315 C  
HETATM    5  N   UNL     1     -10.072  12.369  67.982  1.00  0.00    -0.208 NA 
ENDROOT
BRANCH   4   6
HETATM    6  C   UNL     1     -12.102  13.604  67.011  1.00  0.00    -0.423 C  
HETATM    7  C   UNL     1     -12.452  13.332  65.537  1.00  0.00    -0.531 C  
HETATM    8  C   UNL     1     -11.184  13.354  64.687  1.00  0.00    -0.377 C  
HETATM    9  C   UNL     1     -10.544  14.737  64.710  1.00  0.00    -0.355 C  
HETATM   10  C   UNL     1     -10.591  15.427  66.054  1.00  0.00    -0.330 A  
HETATM   11  C   UNL     1      -9.948  16.667  66.181  1.00  0.00    -0.356 A  
HETATM   12  C   UNL     1     -10.041  17.400  67.363  1.00  0.00    -0.321 A  
HETATM   13  C   UNL     1     -10.772  16.894  68.435  1.00  0.00    -0.368 A  
HETATM   14  C   UNL     1     -11.409  15.656  68.326  1.00  0.00    -0.357 A  
HETATM   15  C   UNL     1     -11.337  14.914  67.133  1.00  0.00    -0.348 A  
ENDBRANCH   4   6
TORSDOF 1
ENDMDL
MODEL        6
REMARK 921   NORMALIZED FREE ENERGY PREDICTED BY IDOCK:   -5.06 KCAL/MOL
REMARK 922        TOTAL FREE ENERGY PREDICTED BY IDOCK:   -5.61 KCAL/MOL
REMARK 923 INTER-LIGAND FREE ENERGY PREDICTED BY IDOCK:   -5.37 KCAL/MOL
REMARK 924 INTRA-LIGAND FREE ENERGY PREDICTED BY IDOCK:   -0.24 KCAL/MOL
REMARK 927      BINDING AFFINITY PREDICTED BY RF-SCORE:    0.00 PKD
ROOT
HETATM    1  C   UNL     1     -10.069   6.502  74.381  1.00  0.00    -0.348 C  
HETATM    2  C   UNL     1     -10.450   5.093  73.922  1.00  0.00    -0.274 C  
HETATM    3  N   UNL     1     -11.474   5.278  72.857  1.00  0.00    -0.307 NA 
HETATM    4  C   UNL     1     -11.338   6.531  72.489  1.00  0.00    -0.262 C  
HETATM    5  N   UNL     1     -10.428   7.266  73.211  1.00  0.00    -0.334 NA 
ENDROOT
BRANCH   4   6
HETATM    6  C   UNL     1     -12.155   7.082  71.322  1.00  0.00    -0.403 C  
HETATM    7  C   UNL     1     -11.598   6.489  70.016  1.00  0.00    -0.455 C  
HETATM    8  C   UNL     1     -10.236   7.104  69.703  1.00  0.00    -0.215 C  
HETATM    9  C   UNL     1     -10.366   8.601  69.451  1.00  0.00    -0.221 C  
HETATM   10  C   UNL     1     -11.346   9.306  70.361  1.00  0.00    -0.283 A  
HETATM   11  C   UNL     1     -11.461  10.700  70.252  1.00  0.00    -0.422 A  
HETATM   12  C   UNL     1     -12.418  11.395  70.989  1.00  0.00    -0.486 A  
HETATM   13  C   UNL     1     -13.266  10.703  71.850  1.00  0.00    -0.528 A  
HETATM   14  C   UNL     1     -13.156   9.316  71.976  1.00  0.00    -0.512 A  
HETATM   15  C   UNL     1     -12.206   8.601  71.226  1.00  0.00    -0.320 A  
ENDBRANCH   4   6
TORSDOF 1
ENDMDL
MODEL        7
REMARK 921   NORMALIZED FREE ENERGY PREDICTED BY IDOCK:   -5.05 KCAL/MOL
REMARK 922        TOTAL FREE ENERGY PREDICTED BY IDOCK:   -5.60 KCAL/MOL
REMARK 923 INTER-LIGAND FREE ENERGY PREDICTED BY IDOCK:   -6.04 KCAL/MOL
REMARK 924 INTRA-LIGAND FREE ENERGY PREDICTED BY IDOCK:    0.44 KCAL/MOL
REMARK 927      BINDING AFFINITY PREDICTED BY RF-SCORE:    0.00 PKD
ROOT
HETATM    1  C   UNL     1     -12.580  14.037  65.359  1.00  0.00    -0.505 C  
HETATM    2  C   UNL     1     -12.531  12.511  65.263  1.00  0.00    -0.319 C  
HETATM    3  N   UNL     1     -11.668  12.062  66.390  1.00  0.00    -0.565 NA 
HETATM    4  C   UNL     1     -11.634  13.092  67.204  1.00  0.00    -0.358 C  
HETATM    5  N   UNL     1     -12.276  14.222  66.757  1.00  0.00    -0.423 NA 
ENDROOT
BRANCH   4   6
HETATM    6  C   UNL     1     -10.923  12.983  68.552  1.00  0.00    -0.290 C  
HETATM    7  C   UNL     1     -10.011  11.744  68.521  1.00  0.00    -0.203 C  
HETATM    8  C   UNL     1     -10.857  10.473  68.562  1.00  0.00    -0.275 C  
HETATM    9  C   UNL     1     -11.630  10.383  69.872  1.00  0.00    -0.358 C  
HETATM   10  C   UNL     1     -12.184  11.700  70.365  1.00  0.00    -0.434 A  
HETATM   11  C   UNL     1     -12.981  11.690  71.519  1.00  0.00    -0.463 A  
HETATM   12  C   UNL     1     -13.435  12.882  72.081  1.00  0.00    -0.619 A  
HETATM   13  C   UNL     1     -13.104  14.097  71.489  1.00  0.00    -0.424 A  
HETATM   14  C   UNL     1     -12.319  14.122  70.334  1.00  0.00    -0.428 A  
HETATM   15  C   UNL     1     -11.839  12.928  69.766  1.00  0.00    -0.380 A  
ENDBRANCH   4   6
TORSDOF 1
ENDMDL
MODEL        8
REMARK 921   NORMALIZED FREE ENERGY PREDICTED BY IDOCK:   -5.00 KCAL/MOL
REMARK 922        TOTAL FREE ENERGY PREDICTED BY IDOCK:   -5.55 KCAL/MOL
REMARK 923 INTER-LIGAND FREE ENERGY PREDICTED BY IDOCK:   -5.44 KCAL/MOL
REMARK 924 INTRA-LIGAND FREE ENERGY PREDICTED BY IDOCK:   -0.11 KCAL/MOL
REMARK 927      BINDING AFFINITY PREDICTED BY RF-SCORE:    0.00 PKD
ROOT
HETATM    1  C   UNL     1     -12.652  13.999  65.920  1.00  0.00    -0.449 C  
HETATM    2  C   UNL     1     -11.793  13.331  64.845  1.00  0.00    -0.362 C  
HETATM    3  N   UNL     1     -10.613  14.221  64.660  1.00  0.00    -0.403 NA 
HETATM    4  C   UNL     1     -10.600  14.973  65.737  1.00  0.00    -0.339 C  
HETATM    5  N   UNL     1     -11.657  14.792  66.598  1.00  0.00    -0.345 NA 
ENDROOT
BRANCH   4   6
HETATM    6  C   UNL     1      -9.458  15.959  65.972  1.00  0.00    -0.389 C  
HETATM    7  C   UNL     1      -8.342  15.234  66.744  1.00  0.00    -0.258 C  
HETATM    8  C   UNL     1      -8.781  14.984  68.185  1.00  0.00    -0.165 C  
HETATM    9  C   UNL     1      -8.997  16.303  68.918  1.00  0.00    -0.248 C  
HETATM   10  C   UNL     1      -9.647  17.383  68.085  1.00  0.00    -0.287 A  
HETATM   11  C   UNL     1      -9.960  18.600  68.709  1.00  0.00    -0.427 A  
HETATM   12  C   UNL     1     -10.465  19.670  67.972  1.00  0.00    -0.537 A  
HETATM   13  C   UNL     1     -10.670  19.531  66.602  1.00  0.00    -0.552 A  
HETATM   14  C   UNL     1     -10.372  18.322  65.969  1.00  0.00    -0.377 A  
HETATM   15  C   UNL     1      -9.847  17.240  66.697  1.00  0.00    -0.299 A  
ENDBRANCH   4   6
TORSDOF 1
ENDMDL
MODEL        9
REMARK 921   NORMALIZED FREE ENERGY PREDICTED BY IDOCK:   -5.00 KCAL/MOL
REMARK 922        TOTAL FREE ENERGY PREDICTED BY IDOCK:   -5.55 KCAL/MOL
REMARK 923 INTER-LIGAND FREE ENERGY PREDICTED BY IDOCK:   -5.35 KCAL/MOL
REMARK 924 INTRA-LIGAND FREE ENERGY PREDICTED BY IDOCK:   -0.20 KCAL/MOL
REMARK 927      BINDING AFFINITY PREDICTED BY RF-SCORE:    0.00 PKD
ROOT
HETATM    1  C   UNL     1     -12.762  12.537  64.272  1.00  0.00    -0.341 C  
HETATM    2  C   UNL     1     -11.505  11.887  63.691  1.00  0.00    -0.461 C  
HETATM    3  N   UNL     1     -10.421  12.152  64.677  1.00  0.00    -0.286 NA 
HETATM    4  C   UNL     1     -11.055  12.475  65.780  1.00  0.00    -0.308 C  
HETATM    5  N   UNL     1     -12.423  12.559  65.674  1.00  0.00    -0.611 NA 
ENDROOT
BRANCH   4   6
HETATM    6  C   UNL     1     -10.276  12.718  67.071  1.00  0.00    -0.245 C  
HETATM    7  C   UNL     1      -9.924  11.354  67.690  1.00  0.00    -0.196 C  
HETATM    8  C   UNL     1     -11.181  10.697  68.256  1.00  0.00    -0.362 C  
HETATM    9  C   UNL     1     -11.757  11.530  69.396  1.00  0.00    -0.413 C  
HETATM   10  C   UNL     1     -11.693  13.023  69.175  1.00  0.00    -0.378 A  
HETATM   11  C   UNL     1     -12.280  13.858  70.137  1.00  0.00    -0.425 A  
HETATM   12  C   UNL     1     -12.165  15.244  70.043  1.00  0.00    -0.385 A  
HETATM   13  C   UNL     1     -11.469  15.810  68.979  1.00  0.00    -0.394 A  
HETATM   14  C   UNL     1     -10.888  14.991  68.008  1.00  0.00    -0.270 A  
HETATM   15  C   UNL     1     -10.982  13.591  68.099  1.00  0.00    -0.275 A  
ENDBRANCH   4   6
TORSDOF 1
ENDMDL
MODEL       10
REMARK 921   NORMALIZED FREE ENERGY PREDICTED BY IDOCK:   -4.95 KCAL/MOL
REMARK 922        TOTAL FREE ENERGY PREDICTED BY IDOCK:   -5.49 KCAL/MOL
REMARK 923 INTER-LIGAND FREE ENERGY PREDICTED BY IDOCK:   -5.28 KCAL/MOL
REMARK 924 INTRA-LIGAND FREE ENERGY PREDICTED BY IDOCK:   -0.22 KCAL/MOL
REMARK 927      BINDING AFFINITY PREDICTED BY RF-SCORE:    0.00 PKD
ROOT
HETATM    1  C   UNL     1     -11.454  15.728  70.588  1.00  0.00    -0.390 C  
HETATM    2  C   UNL     1     -11.821  14.464  69.808  1.00  0.00    -0.320 C  
HETATM    3  N   UNL     1     -11.847  14.867  68.375  1.00  0.00    -0.307 NA 
HETATM    4  C   UNL     1     -11.181  15.998  68.342  1.00  0.00    -0.364 C  
HETATM    5  N   UNL     1     -10.775  16.482  69.563  1.00  0.00    -0.317 NA 
ENDROOT
BRANCH   4   6
HETATM    6  C   UNL     1     -10.894  16.683  67.007  1.00  0.00    -0.091 C  
HETATM    7  C   UNL     1     -10.233  15.659  66.068  1.00  0.00    -0.354 C  
HETATM    8  C   UNL     1      -8.807  15.371  66.532  1.00  0.00    -0.347 C  
HETATM    9  C   UNL     1      -7.947  16.626  66.443  1.00  0.00    -0.360 C  
HETATM   10  C   UNL     1      -8.653  17.899  66.849  1.00  0.00    -0.259 A  
HETATM   11  C   UNL     1      -7.908  19.087  66.878  1.00  0.00    -0.256 A  
HETATM   12  C   UNL     1      -8.524  20.308  67.144  1.00  0.00    -0.407 A  
HETATM   13  C   UNL     1      -9.893  20.354  67.394  1.00  0.00    -0.587 A  
HETATM   14  C   UNL     1     -10.646  19.177  67.378  1.00  0.00    -0.577 A  
HETATM   15  C   UNL     1     -10.041  17.940  67.094  1.00  0.00    -0.340 A  
ENDBRANCH   4   6
TORSDOF 1
ENDMDL
MODEL       11
REMARK 921   NORMALIZED FREE ENERGY PREDICTED BY IDOCK:   -4.91 KCAL/MOL
REMARK 922        TOTAL FREE ENERGY PREDICTED BY IDOCK:   -5.46 KCAL/MOL
REMARK 923 INTER-LIGAND FREE ENERGY PREDICTED BY IDOCK:   -5.23 KCAL/MOL
REMARK 924 INTRA-LIGAND FREE ENERGY PREDICTED BY IDOCK:   -0.23 KCAL/MOL
REMARK 927      BINDING AFFINITY PREDICTED BY RF-SCORE:    0.00 PKD
ROOT
HETATM    1  C   UNL     1     -12.615  12.836  64.817  1.00  0.00    -0.446 C  
HETATM    2  C   UNL     1     -11.233  12.981  64.177  1.00  0.00    -0.399 C  
HETATM    3  N   UNL     1     -10.284  13.180  65.307  1.00  0.00    -0.300 NA 
HETATM    4  C   UNL     1     -10.944  12.767  66.364  1.00  0.00    -0.276 C  
HETATM    5  N   UNL     1     -12.249  12.395  66.140  1.00  0.00    -0.609 NA 
ENDROOT
BRANCH   4   6
HETATM    6  C   UNL     1     -10.257  12.713  67.727  1.00  0.00    -0.222 C  
HETATM    7  C   UNL     1      -9.320  11.493  67.751  1.00  0.00    -0.168 C  
HETATM    8  C   UNL     1     -10.139  10.206  67.813  1.00  0.00    -0.216 C  
HETATM    9  C   UNL     1     -10.936  10.138  69.111  1.00  0.00    -0.270 C  
HETATM   10  C   UNL     1     -11.526  11.456  69.554  1.00  0.00    -0.381 A  
HETATM   11  C   UNL     1     -12.345  11.463  70.693  1.00  0.00    -0.466 A  
HETATM   12  C   UNL     1     -12.835  12.661  71.211  1.00  0.00    -0.344 A  
HETATM   13  C   UNL     1     -12.517  13.866  70.589  1.00  0.00    -0.436 A  
HETATM   14  C   UNL     1     -11.710  13.873  69.449  1.00  0.00    -0.367 A  
HETATM   15  C   UNL     1     -11.196  12.673  68.925  1.00  0.00    -0.329 A  
ENDBRANCH   4   6
TORSDOF 1
ENDMDL
MODEL       12
REMARK 921   NORMALIZED FREE ENERGY PREDICTED BY IDOCK:   -4.89 KCAL/MOL
REMARK 922        TOTAL FREE ENERGY PREDICTED BY IDOCK:   -5.43 KCAL/MOL
REMARK 923 INTER-LIGAND FREE ENERGY PREDICTED BY IDOCK:   -5.25 KCAL/MOL
REMARK 924 INTRA-LIGAND FREE ENERGY PREDICTED BY IDOCK:   -0.18 KCAL/MOL
REMARK 927      BINDING AFFINITY PREDICTED BY RF-SCORE:    0.00 PKD
ROOT
HETATM    1  C   UNL     1     -11.013  10.340  68.832  1.00  0.00    -0.238 C  
HETATM    2  C   UNL     1     -11.411  10.425  70.307  1.00  0.00    -0.325 C  
HETATM    3  N   UNL     1     -11.719  11.860  70.560  1.00  0.00    -0.157 NA 
HETATM    4  C   UNL     1     -11.900  12.371  69.364  1.00  0.00    -0.304 C  
HETATM    5  N   UNL     1     -11.672  11.514  68.313  1.00  0.00    -0.474 NA 
ENDROOT
BRANCH   4   6
HETATM    6  C   UNL     1     -12.345  13.824  69.207  1.00  0.00    -0.185 C  
HETATM    7  C   UNL     1     -11.363  14.533  68.258  1.00  0.00    -0.319 C  
HETATM    8  C   UNL     1     -10.020  14.738  68.955  1.00  0.00    -0.218 C  
HETATM    9  C   UNL     1     -10.173  15.665  70.156  1.00  0.00    -0.210 C  
HETATM   10  C   UNL     1     -11.438  15.451  70.955  1.00  0.00    -0.407 A  
HETATM   11  C   UNL     1     -11.614  16.204  72.125  1.00  0.00    -0.459 A  
HETATM   12  C   UNL     1     -12.803  16.127  72.849  1.00  0.00    -0.481 A  
HETATM   13  C   UNL     1     -13.826  15.289  72.414  1.00  0.00    -0.641 A  
HETATM   14  C   UNL     1     -13.660  14.526  71.256  1.00  0.00    -0.423 A  
HETATM   15  C   UNL     1     -12.473  14.606  70.507  1.00  0.00    -0.408 A  
ENDBRANCH   4   6
TORSDOF 1
ENDMDL
MODEL       13
REMARK 921   NORMALIZED FREE ENERGY PREDICTED BY IDOCK:   -4.84 KCAL/MOL
REMARK 922        TOTAL FREE ENERGY PREDICTED BY IDOCK:   -5.38 KCAL/MOL
REMARK 923 INTER-LIGAND FREE ENERGY PREDICTED BY IDOCK:   -5.13 KCAL/MOL
REMARK 924 INTRA-LIGAND FREE ENERGY PREDICTED BY IDOCK:   -0.26 KCAL/MOL
REMARK 927      BINDING AFFINITY PREDICTED BY RF-SCORE:    0.00 PKD
ROOT
HETATM    1  C   UNL     1     -12.153  13.870  69.255  1.00  0.00    -0.339 C  
HETATM    2  C   UNL     1     -12.028  15.387  69.105  1.00  0.00    -0.299 C  
HETATM    3  N   UNL     1     -11.061  15.605  67.994  1.00  0.00    -0.325 NA 
HETATM    4  C   UNL     1     -11.024  14.454  67.364  1.00  0.00    -0.299 C  
HETATM    5  N   UNL     1     -11.758  13.442  67.935  1.00  0.00    -0.341 NA 
ENDROOT
BRANCH   4   6
HETATM    6  C   UNL     1     -10.211  14.307  66.079  1.00  0.00    -0.327 C  
HETATM    7  C   UNL     1     -10.841  15.205  65.000  1.00  0.00    -0.457 C  
HETATM    8  C   UNL     1     -12.173  14.616  64.543  1.00  0.00    -0.473 C  
HETATM    9  C   UNL     1     -11.962  13.260  63.878  1.00  0.00    -0.541 C  
HETATM   10  C   UNL     1     -10.916  12.394  64.539  1.00  0.00    -0.355 A  
HETATM   11  C   UNL     1     -10.722  11.097  64.042  1.00  0.00    -0.409 A  
HETATM   12  C   UNL     1      -9.704  10.287  64.541  1.00  0.00    -0.395 A  
HETATM   13  C   UNL     1      -8.873  10.763  65.552  1.00  0.00    -0.203 A  
HETATM   14  C   UNL     1      -9.061  12.049  66.065  1.00  0.00    -0.092 A  
HETATM   15  C   UNL     1     -10.074  12.883  65.558  1.00  0.00    -0.270 A  
ENDBRANCH   4   6
TORSDOF 1
ENDMDL
MODEL       14
REMARK 921   NORMALIZED FREE ENERGY PREDICTED BY IDOCK:   -4.83 KCAL/MOL
REMARK 922        TOTAL FREE ENERGY PREDICTED BY IDOCK:   -5.37 KCAL/MOL
REMARK 923 INTER-LIGAND FREE ENERGY PREDICTED BY IDOCK:   -5.26 KCAL/MOL
REMARK 924 INTRA-LIGAND FREE ENERGY PREDICTED BY IDOCK:   -0.10 KCAL/MOL
REMARK 927      BINDING AFFINITY PREDICTED BY RF-SCORE:    0.00 PKD
ROOT
HETATM    1  C   UNL     1      -8.768  16.325  66.192  1.00  0.00    -0.318 C  
HETATM    2  C   UNL     1      -9.876  17.268  65.719  1.00  0.00    -0.027 C  
HETATM    3  N   UNL     1     -10.883  16.401  65.045  1.00  0.00    -0.629 NA 
HETATM    4  C   UNL     1     -10.607  15.190  65.471  1.00  0.00    -0.366 C  
HETATM    5  N   UNL     1      -9.495  15.082  66.272  1.00  0.00    -0.294 NA 
ENDROOT
BRANCH   4   6
HETATM    6  C   UNL     1     -11.502  14.015  65.080  1.00  0.00    -0.344 C  
HETATM    7  C   UNL     1     -12.598  13.863  66.150  1.00  0.00    -0.426 C  
HETATM    8  C   UNL     1     -11.993  13.320  67.442  1.00  0.00    -0.383 C  
HETATM    9  C   UNL     1     -11.431  11.919  67.227  1.00  0.00    -0.385 C  
HETATM   10  C   UNL     1     -10.734  11.721  65.900  1.00  0.00    -0.328 A  
HETATM   11  C   UNL     1     -10.113  10.487  65.659  1.00  0.00    -0.333 A  
HETATM   12  C   UNL     1      -9.544  10.207  64.418  1.00  0.00    -0.366 A  
HETATM   13  C   UNL     1      -9.582  11.163  63.407  1.00  0.00    -0.355 A  
HETATM   14  C   UNL     1     -10.188  12.400  63.636  1.00  0.00    -0.383 A  
HETATM   15  C   UNL     1     -10.781  12.690  64.878  1.00  0.00    -0.327 A  
ENDBRANCH   4   6
TORSDOF 1
ENDMDL
MODEL       15
REMARK 921   NORMALIZED FREE ENERGY PREDICTED BY IDOCK:   -4.81 KCAL/MOL
REMARK 922        TOTAL FREE ENERGY PREDICTED BY IDOCK:   -5.35 KCAL/MOL
REMARK 923 INTER-LIGAND FREE ENERGY PREDICTED BY IDOCK:   -5.16 KCAL/MOL
REMARK 924 INTRA-LIGAND FREE ENERGY PREDICTED BY IDOCK:   -0.19 KCAL/MOL
REMARK 927      BINDING AFFINITY PREDICTED BY RF-SCORE:    0.00 PKD
ROOT
HETATM    1  C   UNL     1      -9.536  10.733  64.520  1.00  0.00    -0.270 C  
HETATM    2  C   UNL     1     -10.110  11.195  63.180  1.00  0.00    -0.330 C  
HETATM    3  N   UNL     1     -11.294  12.035  63.515  1.00  0.00    -0.438 NA 
HETATM    4  C   UNL     1     -11.125  12.346  64.780  1.00  0.00    -0.304 C  
HETATM    5  N   UNL     1     -10.040  11.765  65.393  1.00  0.00    -0.246 NA 
ENDROOT
BRANCH   4   6
HETATM    6  C   UNL     1     -12.093  13.302  65.472  1.00  0.00    -0.480 C  
HETATM    7  C   UNL     1     -12.278  14.540  64.576  1.00  0.00    -0.483 C  
HETATM    8  C   UNL     1     -11.008  15.388  64.591  1.00  0.00    -0.333 C  
HETATM    9  C   UNL     1     -10.738  15.930  65.990  1.00  0.00    -0.289 C  
HETATM   10  C   UNL     1     -11.034  14.955  67.106  1.00  0.00    -0.323 A  
HETATM   11  C   UNL     1     -10.731  15.345  68.419  1.00  0.00    -0.256 A  
HETATM   12  C   UNL     1     -11.074  14.534  69.500  1.00  0.00    -0.285 A  
HETATM   13  C   UNL     1     -11.716  13.319  69.278  1.00  0.00    -0.380 A  
HETATM   14  C   UNL     1     -12.015  12.914  67.975  1.00  0.00    -0.323 A  
HETATM   15  C   UNL     1     -11.690  13.730  66.876  1.00  0.00    -0.424 A  
ENDBRANCH   4   6
TORSDOF 1
ENDMDL
MODEL       16
REMARK 921   NORMALIZED FREE ENERGY PREDICTED BY IDOCK:   -4.79 KCAL/MOL
REMARK 922        TOTAL FREE ENERGY PREDICTED BY IDOCK:   -5.32 KCAL/MOL
REMARK 923 INTER-LIGAND FREE ENERGY PREDICTED BY IDOCK:   -5.18 KCAL/MOL
REMARK 924 INTRA-LIGAND FREE ENERGY PREDICTED BY IDOCK:   -0.14 KCAL/MOL
REMARK 927      BINDING AFFINITY PREDICTED BY RF-SCORE:    0.00 PKD
ROOT
HETATM    1  C   UNL     1      -9.733  19.757  65.992  1.00  0.00    -0.370 C  
HETATM    2  C   UNL     1     -10.698  19.772  67.179  1.00  0.00    -0.421 C  
HETATM    3  N   UNL     1     -10.732  18.373  67.689  1.00  0.00    -0.409 NA 
HETATM    4  C   UNL     1      -9.658  17.814  67.180  1.00  0.00    -0.276 C  
HETATM    5  N   UNL     1      -8.934  18.601  66.316  1.00  0.00    -0.445 NA 
ENDROOT
BRANCH   4   6
HETATM    6  C   UNL     1      -9.279  16.385  67.564  1.00  0.00    -0.199 C  
HETATM    7  C   UNL     1      -8.913  15.618  66.281  1.00  0.00    -0.377 C  
HETATM    8  C   UNL     1     -10.170  15.349  65.458  1.00  0.00    -0.411 C  
HETATM    9  C   UNL     1     -11.129  14.442  66.220  1.00  0.00    -0.331 C  
HETATM   10  C   UNL     1     -11.218  14.728  67.701  1.00  0.00    -0.332 A  
HETATM   11  C   UNL     1     -12.142  13.995  68.460  1.00  0.00    -0.329 A  
HETATM   12  C   UNL     1     -12.199  14.139  69.845  1.00  0.00    -0.416 A  
HETATM   13  C   UNL     1     -11.338  15.025  70.486  1.00  0.00    -0.316 A  
HETATM   14  C   UNL     1     -10.419  15.769  69.741  1.00  0.00    -0.318 A  
HETATM   15  C   UNL     1     -10.339  15.621  68.345  1.00  0.00    -0.231 A  
ENDBRANCH   4   6
TORSDOF 1
ENDMDL
MODEL       17
REMARK 921   NORMALIZED FREE ENERGY PREDICTED BY IDOCK:   -4.78 KCAL/MOL
REMARK 922        TOTAL FREE ENERGY PREDICTED BY IDOCK:   -5.32 KCAL/MOL
REMARK 923 INTER-LIGAND FREE ENERGY PREDICTED BY IDOCK:   -5.07 KCAL/MOL
REMARK 924 INTRA-LIGAND FREE ENERGY PREDICTED BY IDOCK:   -0.25 KCAL/MOL
REMARK 927      BINDING AFFINITY PREDICTED BY RF-SCORE:    0.00 PKD
ROOT
HETATM    1  C   UNL     1     -11.948  14.707  69.811  1.00  0.00    -0.329 C  
HETATM    2  C   UNL     1     -10.695  15.475  70.236  1.00  0.00    -0.333 C  
HETATM    3  N   UNL     1      -9.684  15.219  69.172  1.00  0.00    -0.231 NA 
HETATM    4  C   UNL     1     -10.388  14.785  68.152  1.00  0.00    -0.239 C  
HETATM    5  N   UNL     1     -11.732  14.617  68.388  1.00  0.00    -0.318 NA 
ENDROOT
BRANCH   4   6
HETATM    6  C   UNL     1      -9.709  14.511  66.811  1.00  0.00    -0.269 C  
HETATM    7  C   UNL     1      -9.294  15.858  66.193  1.00  0.00    -0.385 C  
HETATM    8  C   UNL     1     -10.530  16.617  65.717  1.00  0.00    -0.324 C  
HETATM    9  C   UNL     1     -11.235  15.853  64.602  1.00  0.00    -0.361 C  
HETATM   10  C   UNL     1     -11.270  14.354  64.795  1.00  0.00    -0.391 A  
HETATM   11  C   UNL     1     -11.975  13.585  63.858  1.00  0.00    -0.491 A  
HETATM   12  C   UNL     1     -11.959  12.193  63.923  1.00  0.00    -0.581 A  
HETATM   13  C   UNL     1     -11.244  11.555  64.934  1.00  0.00    -0.242 A  
HETATM   14  C   UNL     1     -10.546  12.309  65.879  1.00  0.00    -0.290 A  
HETATM   15  C   UNL     1     -10.539  13.713  65.816  1.00  0.00    -0.285 A  
ENDBRANCH   4   6
TORSDOF 1
ENDMDL
MODEL       18
REMARK 921   NORMALIZED FREE ENERGY PREDICTED BY IDOCK:   -4.75 KCAL/MOL
REMARK 922        TOTAL FREE ENERGY PREDICTED BY IDOCK:   -5.28 KCAL/MOL
REMARK 923 INTER-LIGAND FREE ENERGY PREDICTED BY IDOCK:   -5.03 KCAL/MOL
REMARK 924 INTRA-LIGAND FREE ENERGY PREDICTED BY IDOCK:   -0.26 KCAL/MOL
REMARK 927      BINDING AFFINITY PREDICTED BY RF-SCORE:    0.00 PKD
ROOT
HETATM    1  C   UNL     1     -12.223  13.323  63.468  1.00  0.00    -0.441 C  
HETATM    2  C   UNL     1     -11.684  11.900  63.617  1.00  0.00    -0.474 C  
HETATM    3  N   UNL     1     -10.586  11.986  64.619  1.00  0.00    -0.291 NA 
HETATM    4  C   UNL     1     -10.792  13.129  65.231  1.00  0.00    -0.297 C  
HETATM    5  N   UNL     1     -11.824  13.890  64.733  1.00  0.00    -0.377 NA 
ENDROOT
BRANCH   4   6
HETATM    6  C   UNL     1      -9.921  13.534  66.419  1.00  0.00    -0.296 C  
HETATM    7  C   UNL     1     -10.189  12.553  67.574  1.00  0.00    -0.219 C  
HETATM    8  C   UNL     1     -11.576  12.804  68.161  1.00  0.00    -0.380 C  
HETATM    9  C   UNL     1     -11.655  14.196  68.777  1.00  0.00    -0.362 C  
HETATM   10  C   UNL     1     -10.938  15.270  67.993  1.00  0.00    -0.299 A  
HETATM   11  C   UNL     1     -11.036  16.594  68.445  1.00  0.00    -0.345 A  
HETATM   12  C   UNL     1     -10.315  17.613  67.826  1.00  0.00    -0.365 A  
HETATM   13  C   UNL     1      -9.495  17.321  66.740  1.00  0.00    -0.274 A  
HETATM   14  C   UNL     1      -9.396  16.008  66.272  1.00  0.00    -0.356 A  
HETATM   15  C   UNL     1     -10.104  14.967  66.898  1.00  0.00    -0.249 A  
ENDBRANCH   4   6
TORSDOF 1
ENDMDL
MODEL       19
REMARK 921   NORMALIZED FREE ENERGY PREDICTED BY IDOCK:   -4.73 KCAL/MOL
REMARK 922        TOTAL FREE ENERGY PREDICTED BY IDOCK:   -5.26 KCAL/MOL
REMARK 923 INTER-LIGAND FREE ENERGY PREDICTED BY IDOCK:   -5.21 KCAL/MOL
REMARK 924 INTRA-LIGAND FREE ENERGY PREDICTED BY IDOCK:   -0.05 KCAL/MOL
REMARK 927      BINDING AFFINITY PREDICTED BY RF-SCORE:    0.00 PKD
ROOT
HETATM    1  C   UNL     1      -6.523  19.998  66.674  1.00  0.00    -0.192 C  
HETATM    2  C   UNL     1      -6.412  18.833  65.689  1.00  0.00    -0.272 C  
HETATM    3  N   UNL     1      -7.726  18.134  65.740  1.00  0.00    -0.538 NA 
HETATM    4  C   UNL     1      -8.538  19.008  66.288  1.00  0.00    -0.274 C  
HETATM    5  N   UNL     1      -7.953  20.179  66.708  1.00  0.00    -0.303 NA 
ENDROOT
BRANCH   4   6
HETATM    6  C   UNL     1     -10.028  18.697  66.417  1.00  0.00    -0.415 C  
HETATM    7  C   UNL     1     -10.542  19.318  67.728  1.00  0.00    -0.516 C  
HETATM    8  C   UNL     1     -10.002  18.536  68.923  1.00  0.00    -0.383 C  
HETATM    9  C   UNL     1     -10.526  17.105  68.913  1.00  0.00    -0.346 C  
HETATM   10  C   UNL     1     -10.599  16.475  67.541  1.00  0.00    -0.313 A  
HETATM   11  C   UNL     1     -10.990  15.131  67.452  1.00  0.00    -0.314 A  
HETATM   12  C   UNL     1     -11.175  14.523  66.212  1.00  0.00    -0.342 A  
HETATM   13  C   UNL     1     -10.962  15.252  65.045  1.00  0.00    -0.450 A  
HETATM   14  C   UNL     1     -10.563  16.588  65.118  1.00  0.00    -0.237 A  
HETATM   15  C   UNL     1     -10.389  17.219  66.363  1.00  0.00    -0.316 A  
ENDBRANCH   4   6
TORSDOF 1
ENDMDL
MODEL       20
REMARK 921   NORMALIZED FREE ENERGY PREDICTED BY IDOCK:   -4.71 KCAL/MOL
REMARK 922        TOTAL FREE ENERGY PREDICTED BY IDOCK:   -5.24 KCAL/MOL
REMARK 923 INTER-LIGAND FREE ENERGY PREDICTED BY IDOCK:   -4.98 KCAL/MOL
REMARK 924 INTRA-LIGAND FREE ENERGY PREDICTED BY IDOCK:   -0.26 KCAL/MOL
REMARK 927      BINDING AFFINITY PREDICTED BY RF-SCORE:    0.00 PKD
ROOT
HETATM    1  C   UNL     1     -13.980  15.314  71.599  1.00  0.00    -0.529 C  
HETATM    2  C   UNL     1     -12.976  16.011  72.519  1.00  0.00    -0.387 C  
HETATM    3  N   UNL     1     -11.629  15.645  71.999  1.00  0.00    -0.434 NA 
HETATM    4  C   UNL     1     -11.857  15.219  70.778  1.00  0.00    -0.338 C  
HETATM    5  N   UNL     1     -13.180  15.153  70.410  1.00  0.00    -0.206 NA 
ENDROOT
BRANCH   4   6
HETATM    6  C   UNL     1     -10.691  14.846  69.864  1.00  0.00    -0.198 C  
HETATM    7  C   UNL     1      -9.879  16.120  69.568  1.00  0.00    -0.198 C  
HETATM    8  C   UNL     1     -10.668  17.035  68.634  1.00  0.00    -0.333 C  
HETATM    9  C   UNL     1     -10.890  16.364  67.283  1.00  0.00    -0.194 C  
HETATM   10  C   UNL     1     -11.193  14.886  67.360  1.00  0.00    -0.343 A  
HETATM   11  C   UNL     1     -11.495  14.211  66.168  1.00  0.00    -0.350 A  
HETATM   12  C   UNL     1     -11.683  12.830  66.159  1.00  0.00    -0.458 A  
HETATM   13  C   UNL     1     -11.579  12.109  67.345  1.00  0.00    -0.410 A  
HETATM   14  C   UNL     1     -11.289  12.769  68.542  1.00  0.00    -0.326 A  
HETATM   15  C   UNL     1     -11.081  14.160  68.563  1.00  0.00    -0.276 A  
ENDBRANCH   4   6
TORSDOF 1
ENDMDL
MODEL       21
REMARK 921   NORMALIZED FREE ENERGY PREDICTED BY IDOCK:   -4.65 KCAL/MOL
REMARK 922        TOTAL FREE ENERGY PREDICTED BY IDOCK:   -5.18 KCAL/MOL
REMARK 923 INTER-LIGAND FREE ENERGY PREDICTED BY IDOCK:   -4.93 KCAL/MOL
REMARK 924 INTRA-LIGAND FREE ENERGY PREDICTED BY IDOCK:   -0.25 KCAL/MOL
REMARK 927      BINDING AFFINITY PREDICTED BY RF-SCORE:    0.00 PKD
ROOT
HETATM    1  C   UNL     1     -12.652  12.803  65.033  1.00  0.00    -0.468 C  
HETATM    2  C   UNL     1     -11.831  14.049  64.697  1.00  0.00    -0.417 C  
HETATM    3  N   UNL     1     -11.130  14.422  65.957  1.00  0.00    -0.318 NA 
HETATM    4  C   UNL     1     -11.192  13.340  66.698  1.00  0.00    -0.306 C  
HETATM    5  N   UNL     1     -11.915  12.299  66.165  1.00  0.00    -0.618 NA 
ENDROOT
BRANCH   4   6
HETATM    6  C   UNL     1     -10.480  13.290  68.048  1.00  0.00    -0.248 C  
HETATM    7  C   UNL     1      -8.962  13.265  67.796  1.00  0.00    -0.196 C  
HETATM    8  C   UNL     1      -8.550  11.910  67.226  1.00  0.00    -0.170 C  
HETATM    9  C   UNL     1      -8.817  10.798  68.234  1.00  0.00    -0.139 C  
HETATM   10  C   UNL     1     -10.103  10.954  69.012  1.00  0.00    -0.212 A  
HETATM   11  C   UNL     1     -10.467   9.930  69.898  1.00  0.00    -0.309 A  
HETATM   12  C   UNL     1     -11.586  10.061  70.719  1.00  0.00    -0.444 A  
HETATM   13  C   UNL     1     -12.359  11.217  70.655  1.00  0.00    -0.477 A  
HETATM   14  C   UNL     1     -12.014  12.242  69.770  1.00  0.00    -0.365 A  
HETATM   15  C   UNL     1     -10.879  12.129  68.949  1.00  0.00    -0.241 A  
ENDBRANCH   4   6
TORSDOF 1
ENDMDL
MODEL       22
REMARK 921   NORMALIZED FREE ENERGY PREDICTED BY IDOCK:   -4.64 KCAL/MOL
REMARK 922        TOTAL FREE ENERGY PREDICTED BY IDOCK:   -5.17 KCAL/MOL
REMARK 923 INTER-LIGAND FREE ENERGY PREDICTED BY IDOCK:   -4.91 KCAL/MOL
REMARK 924 INTRA-LIGAND FREE ENERGY PREDICTED BY IDOCK:   -0.26 KCAL/MOL
REMARK 927      BINDING AFFINITY PREDICTED BY RF-SCORE:    0.00 PKD
ROOT
HETATM    1  C   UNL     1     -12.373  11.030  69.537  1.00  0.00    -0.197 C  
HETATM    2  C   UNL     1     -12.447  12.423  70.166  1.00  0.00    -0.020 C  
HETATM    3  N   UNL     1     -11.584  13.294  69.322  1.00  0.00    -0.297 NA 
HETATM    4  C   UNL     1     -11.441  12.624  68.202  1.00  0.00    -0.313 C  
HETATM    5  N   UNL     1     -12.007  11.371  68.184  1.00  0.00    -0.630 NA 
ENDROOT
BRANCH   4   6
HETATM    6  C   UNL     1     -10.695  13.247  67.024  1.00  0.00    -0.263 C  
HETATM    7  C   UNL     1     -11.504  14.456  66.521  1.00  0.00    -0.369 C  
HETATM    8  C   UNL     1     -12.770  13.980  65.814  1.00  0.00    -0.487 C  
HETATM    9  C   UNL     1     -12.420  13.173  64.569  1.00  0.00    -0.406 C  
HETATM   10  C   UNL     1     -11.229  12.256  64.730  1.00  0.00    -0.364 A  
HETATM   11  C   UNL     1     -10.894  11.415  63.659  1.00  0.00    -0.459 A  
HETATM   12  C   UNL     1      -9.748  10.623  63.707  1.00  0.00    -0.382 A  
HETATM   13  C   UNL     1      -8.929  10.657  64.833  1.00  0.00    -0.218 A  
HETATM   14  C   UNL     1      -9.256  11.483  65.911  1.00  0.00    -0.223 A  
HETATM   15  C   UNL     1     -10.400  12.300  65.869  1.00  0.00    -0.280 A  
ENDBRANCH   4   6
TORSDOF 1
ENDMDL
MODEL       23
REMARK 921   NORMALIZED FREE ENERGY PREDICTED BY IDOCK:   -4.62 KCAL/MOL
REMARK 922        TOTAL FREE ENERGY PREDICTED BY IDOCK:   -5.14 KCAL/MOL
REMARK 923 INTER-LIGAND FREE ENERGY PREDICTED BY IDOCK:   -4.93 KCAL/MOL
REMARK 924 INTRA-LIGAND FREE ENERGY PREDICTED BY IDOCK:   -0.21 KCAL/MOL
REMARK 927      BINDING AFFINITY PREDICTED BY RF-SCORE:    0.00 PKD
ROOT
HETATM    1  C   UNL     1      -8.907  11.070  68.173  1.00  0.00    -0.141 C  
HETATM    2  C   UNL     1      -9.699  10.469  67.011  1.00  0.00    -0.177 C  
HETATM    3  N   UNL     1     -11.044  11.107  67.066  1.00  0.00    -0.294 NA 
HETATM    4  C   UNL     1     -10.869  12.172  67.814  1.00  0.00    -0.224 C  
HETATM    5  N   UNL     1      -9.615  12.313  68.360  1.00  0.00    -0.207 NA 
ENDROOT
BRANCH   4   6
HETATM    6  C   UNL     1     -12.013  13.162  68.022  1.00  0.00    -0.345 C  
HETATM    7  C   UNL     1     -12.130  14.040  66.763  1.00  0.00    -0.480 C  
HETATM    8  C   UNL     1     -10.950  15.006  66.688  1.00  0.00    -0.325 C  
HETATM    9  C   UNL     1     -10.971  15.973  67.867  1.00  0.00    -0.327 C  
HETATM   10  C   UNL     1     -11.383  15.350  69.180  1.00  0.00    -0.323 A  
HETATM   11  C   UNL     1     -11.345  16.151  70.331  1.00  0.00    -0.377 A  
HETATM   12  C   UNL     1     -11.809  15.667  71.552  1.00  0.00    -0.493 A  
HETATM   13  C   UNL     1     -12.309  14.370  71.638  1.00  0.00    -0.415 A  
HETATM   14  C   UNL     1     -12.344  13.557  70.502  1.00  0.00    -0.412 A  
HETATM   15  C   UNL     1     -11.894  14.039  69.260  1.00  0.00    -0.389 A  
ENDBRANCH   4   6
TORSDOF 1
ENDMDL
MODEL       24
REMARK 921   NORMALIZED FREE ENERGY PREDICTED BY IDOCK:   -4.60 KCAL/MOL
REMARK 922        TOTAL FREE ENERGY PREDICTED BY IDOCK:   -5.12 KCAL/MOL
REMARK 923 INTER-LIGAND FREE ENERGY PREDICTED BY IDOCK:   -4.93 KCAL/MOL
REMARK 924 INTRA-LIGAND FREE ENERGY PREDICTED BY IDOCK:   -0.19 KCAL/MOL
REMARK 927      BINDING AFFINITY PREDICTED BY RF-SCORE:    0.00 PKD
ROOT
HETATM    1  C   UNL     1      -7.690  17.225  67.998  1.00  0.00    -0.202 C  
HETATM    2  C   UNL     1      -7.422  16.143  66.951  1.00  0.00    -0.231 C  
HETATM    3  N   UNL     1      -8.715  15.426  66.771  1.00  0.00    -0.249 NA 
HETATM    4  C   UNL     1      -9.613  16.243  67.270  1.00  0.00    -0.230 C  
HETATM    5  N   UNL     1      -9.116  17.385  67.853  1.00  0.00    -0.250 NA 
ENDROOT
BRANCH   4   6
HETATM    6  C   UNL     1     -11.099  15.905  67.173  1.00  0.00    -0.148 C  
HETATM    7  C   UNL     1     -11.645  15.702  68.598  1.00  0.00    -0.391 C  
HETATM    8  C   UNL     1     -11.110  14.396  69.181  1.00  0.00    -0.290 C  
HETATM    9  C   UNL     1     -11.610  13.202  68.375  1.00  0.00    -0.372 C  
HETATM   10  C   UNL     1     -11.650  13.427  66.881  1.00  0.00    -0.404 A  
HETATM   11  C   UNL     1     -12.016  12.350  66.061  1.00  0.00    -0.419 A  
HETATM   12  C   UNL     1     -12.171  12.521  64.687  1.00  0.00    -0.524 A  
HETATM   13  C   UNL     1     -11.952  13.772  64.116  1.00  0.00    -0.473 A  
HETATM   14  C   UNL     1     -11.577  14.852  64.919  1.00  0.00    -0.395 A  
HETATM   15  C   UNL     1     -11.434  14.697  66.309  1.00  0.00    -0.351 A  
ENDBRANCH   4   6
TORSDOF 1
ENDMDL
MODEL       25
REMARK 921   NORMALIZED FREE ENERGY PREDICTED BY IDOCK:   -4.60 KCAL/MOL
REMARK 922        TOTAL FREE ENERGY PREDICTED BY IDOCK:   -5.12 KCAL/MOL
REMARK 923 INTER-LIGAND FREE ENERGY PREDICTED BY IDOCK:   -4.89 KCAL/MOL
REMARK 924 INTRA-LIGAND FREE ENERGY PREDICTED BY IDOCK:   -0.22 KCAL/MOL
REMARK 927      BINDING AFFINITY PREDICTED BY RF-SCORE:    0.00 PKD
ROOT
HETATM    1  C   UNL     1     -10.586   9.211  68.919  1.00  0.00    -0.191 C  
HETATM    2  C   UNL     1      -9.419   9.796  69.717  1.00  0.00    -0.228 C  
HETATM    3  N   UNL     1      -8.879  10.908  68.887  1.00  0.00    -0.160 NA 
HETATM    4  C   UNL     1      -9.839  11.172  68.031  1.00  0.00    -0.174 C  
HETATM    5  N   UNL     1     -10.933  10.341  68.092  1.00  0.00    -0.269 NA 
ENDROOT
BRANCH   4   6
HETATM    6  C   UNL     1      -9.704  12.345  67.062  1.00  0.00    -0.211 C  
HETATM    7  C   UNL     1      -9.949  13.650  67.840  1.00  0.00    -0.244 C  
HETATM    8  C   UNL     1     -11.427  13.772  68.203  1.00  0.00    -0.348 C  
HETATM    9  C   UNL     1     -12.283  13.876  66.946  1.00  0.00    -0.415 C  
HETATM   10  C   UNL     1     -11.834  12.991  65.807  1.00  0.00    -0.453 A  
HETATM   11  C   UNL     1     -12.618  12.963  64.644  1.00  0.00    -0.459 A  
HETATM   12  C   UNL     1     -12.203  12.248  63.522  1.00  0.00    -0.669 A  
HETATM   13  C   UNL     1     -11.002  11.544  63.555  1.00  0.00    -0.453 A  
HETATM   14  C   UNL     1     -10.216  11.555  64.709  1.00  0.00    -0.331 A  
HETATM   15  C   UNL     1     -10.614  12.286  65.843  1.00  0.00    -0.290 A  
ENDBRANCH   4   6
TORSDOF 1
ENDMDL
MODEL       26
REMARK 921   NORMALIZED FREE ENERGY PREDICTED BY IDOCK:   -4.60 KCAL/MOL
REMARK 922        TOTAL FREE ENERGY PREDICTED BY IDOCK:   -5.12 KCAL/MOL
REMARK 923 INTER-LIGAND FREE ENERGY PREDICTED BY IDOCK:   -4.89 KCAL/MOL
REMARK 924 INTRA-LIGAND FREE ENERGY PREDICTED BY IDOCK:   -0.23 KCAL/MOL
REMARK 927      BINDING AFFINITY PREDICTED BY RF-SCORE:    0.00 PKD
ROOT
HETATM    1  C   UNL     1      -6.216  19.630  69.867  1.00  0.00    -0.321 C  
HETATM    2  C   UNL     1      -5.754  20.777  68.966  1.00  0.00    -0.366 C  
HETATM    3  N   UNL     1      -6.183  20.407  67.589  1.00  0.00    -0.221 NA 
HETATM    4  C   UNL     1      -7.094  19.478  67.769  1.00  0.00    -0.252 C  
HETATM    5  N   UNL     1      -7.292  19.088  69.073  1.00  0.00    -0.327 NA 
ENDROOT
BRANCH   4   6
HETATM    6  C   UNL     1      -7.861  18.912  66.577  1.00  0.00    -0.280 C  
HETATM    7  C   UNL     1      -8.897  19.957  66.125  1.00  0.00    -0.358 C  
HETATM    8  C   UNL     1     -10.025  20.050  67.149  1.00  0.00    -0.580 C  
HETATM    9  C   UNL     1     -10.783  18.730  67.236  1.00  0.00    -0.490 C  
HETATM   10  C   UNL     1      -9.911  17.500  67.152  1.00  0.00    -0.297 A  
HETATM   11  C   UNL     1     -10.520  16.246  67.311  1.00  0.00    -0.300 A  
HETATM   12  C   UNL     1      -9.789  15.072  67.142  1.00  0.00    -0.233 A  
HETATM   13  C   UNL     1      -8.435  15.139  66.822  1.00  0.00    -0.272 A  
HETATM   14  C   UNL     1      -7.813  16.380  66.670  1.00  0.00    -0.316 A  
HETATM   15  C   UNL     1      -8.543  17.573  66.821  1.00  0.00    -0.276 A  
ENDBRANCH   4   6
TORSDOF 1
ENDMDL
MODEL       27
REMARK 921   NORMALIZED FREE ENERGY PREDICTED BY IDOCK:   -4.54 KCAL/MOL
REMARK 922        TOTAL FREE ENERGY PREDICTED BY IDOCK:   -5.06 KCAL/MOL
REMARK 923 INTER-LIGAND FREE ENERGY PREDICTED BY IDOCK:   -4.82 KCAL/MOL
REMARK 924 INTRA-LIGAND FREE ENERGY PREDICTED BY IDOCK:   -0.24 KCAL/MOL
REMARK 927      BINDING AFFINITY PREDICTED BY RF-SCORE:    0.00 PKD
ROOT
HETATM    1  C   UNL     1      -7.611  12.852  68.448  1.00  0.00    -0.133 C  
HETATM    2  C   UNL     1      -7.426  11.458  69.049  1.00  0.00    -0.093 C  
HETATM    3  N   UNL     1      -8.664  10.704  68.708  1.00  0.00    -0.150 NA 
HETATM    4  C   UNL     1      -9.207  11.392  67.731  1.00  0.00    -0.159 C  
HETATM    5  N   UNL     1      -8.568  12.566  67.407  1.00  0.00    -0.178 NA 
ENDROOT
BRANCH   4   6
HETATM    6  C   UNL     1     -10.459  10.873  67.027  1.00  0.00    -0.291 C  
HETATM    7  C   UNL     1     -10.148   9.481  66.449  1.00  0.00    -0.328 C  
HETATM    8  C   UNL     1      -9.205   9.610  65.255  1.00  0.00    -0.295 C  
HETATM    9  C   UNL     1      -9.870  10.387  64.124  1.00  0.00    -0.379 C  
HETATM   10  C   UNL     1     -10.713  11.556  64.579  1.00  0.00    -0.390 A  
HETATM   11  C   UNL     1     -11.290  12.374  63.597  1.00  0.00    -0.556 A  
HETATM   12  C   UNL     1     -12.159  13.405  63.949  1.00  0.00    -0.514 A  
HETATM   13  C   UNL     1     -12.454  13.634  65.290  1.00  0.00    -0.517 A  
HETATM   14  C   UNL     1     -11.879  12.834  66.279  1.00  0.00    -0.485 A  
HETATM   15  C   UNL     1     -11.013  11.780  65.937  1.00  0.00    -0.354 A  
ENDBRANCH   4   6
TORSDOF 1
ENDMDL
MODEL       28
REMARK 921   NORMALIZED FREE ENERGY PREDICTED BY IDOCK:   -4.53 KCAL/MOL
REMARK 922        TOTAL FREE ENERGY PREDICTED BY IDOCK:   -5.05 KCAL/MOL
REMARK 923 INTER-LIGAND FREE ENERGY PREDICTED BY IDOCK:   -4.80 KCAL/MOL
REMARK 924 INTRA-LIGAND FREE ENERGY PREDICTED BY IDOCK:   -0.25 KCAL/MOL
REMARK 927      BINDING AFFINITY PREDICTED BY RF-SCORE:    0.00 PKD
ROOT
HETATM    1  C   UNL     1      -9.113  10.619  66.144  1.00  0.00    -0.170 C  
HETATM    2  C   UNL     1      -9.795  10.457  64.784  1.00  0.00    -0.340 C  
HETATM    3  N   UNL     1     -11.019  11.303  64.842  1.00  0.00    -0.224 NA 
HETATM    4  C   UNL     1     -10.804  12.118  65.850  1.00  0.00    -0.278 C  
HETATM    5  N   UNL     1      -9.645  11.895  66.555  1.00  0.00    -0.208 NA 
ENDROOT
BRANCH   4   6
HETATM    6  C   UNL     1     -11.804  13.228  66.167  1.00  0.00    -0.437 C  
HETATM    7  C   UNL     1     -11.928  14.137  64.931  1.00  0.00    -0.424 C  
HETATM    8  C   UNL     1     -10.655  14.963  64.761  1.00  0.00    -0.336 C  
HETATM    9  C   UNL     1     -10.460  15.903  65.945  1.00  0.00    -0.373 C  
HETATM   10  C   UNL     1     -10.826  15.307  67.285  1.00  0.00    -0.318 A  
HETATM   11  C   UNL     1     -10.595  16.076  68.435  1.00  0.00    -0.270 A  
HETATM   12  C   UNL     1     -11.005  15.625  69.688  1.00  0.00    -0.288 A  
HETATM   13  C   UNL     1     -11.643  14.393  69.806  1.00  0.00    -0.352 A  
HETATM   14  C   UNL     1     -11.870  13.612  68.671  1.00  0.00    -0.409 A  
HETATM   15  C   UNL     1     -11.477  14.062  67.398  1.00  0.00    -0.373 A  
ENDBRANCH   4   6
TORSDOF 1
ENDMDL
MODEL       29
REMARK 921   NORMALIZED FREE ENERGY PREDICTED BY IDOCK:   -4.52 KCAL/MOL
REMARK 922        TOTAL FREE ENERGY PREDICTED BY IDOCK:   -5.04 KCAL/MOL
REMARK 923 INTER-LIGAND FREE ENERGY PREDICTED BY IDOCK:   -4.78 KCAL/MOL
REMARK 924 INTRA-LIGAND FREE ENERGY PREDICTED BY IDOCK:   -0.26 KCAL/MOL
REMARK 927      BINDING AFFINITY PREDICTED BY RF-SCORE:    0.00 PKD
ROOT
HETATM    1  C   UNL     1     -11.114  12.142  63.367  1.00  0.00    -0.420 C  
HETATM    2  C   UNL     1     -12.252  13.160  63.463  1.00  0.00    -0.476 C  
HETATM    3  N   UNL     1     -12.712  13.120  64.878  1.00  0.00    -0.697 NA 
HETATM    4  C   UNL     1     -11.727  12.541  65.525  1.00  0.00    -0.409 C  
HETATM    5  N   UNL     1     -10.688  12.092  64.744  1.00  0.00    -0.288 NA 
ENDROOT
BRANCH   4   6
HETATM    6  C   UNL     1     -11.778  12.411  67.046  1.00  0.00    -0.423 C  
HETATM    7  C   UNL     1     -11.782  13.824  67.655  1.00  0.00    -0.402 C  
HETATM    8  C   UNL     1     -10.408  14.469  67.487  1.00  0.00    -0.244 C  
HETATM    9  C   UNL     1      -9.350  13.690  68.262  1.00  0.00    -0.204 C  
HETATM   10  C   UNL     1      -9.515  12.189  68.211  1.00  0.00    -0.204 A  
HETATM   11  C   UNL     1      -8.535  11.396  68.826  1.00  0.00    -0.089 A  
HETATM   12  C   UNL     1      -8.682  10.013  68.903  1.00  0.00    -0.146 A  
HETATM   13  C   UNL     1      -9.810   9.405  68.357  1.00  0.00    -0.177 A  
HETATM   14  C   UNL     1     -10.789  10.181  67.733  1.00  0.00    -0.346 A  
HETATM   15  C   UNL     1     -10.661  11.580  67.663  1.00  0.00    -0.255 A  
ENDBRANCH   4   6
TORSDOF 1
ENDMDL
MODEL       30
REMARK 921   NORMALIZED FREE ENERGY PREDICTED BY IDOCK:   -4.51 KCAL/MOL
REMARK 922        TOTAL FREE ENERGY PREDICTED BY IDOCK:   -5.02 KCAL/MOL
REMARK 923 INTER-LIGAND FREE ENERGY PREDICTED BY IDOCK:   -4.78 KCAL/MOL
REMARK 924 INTRA-LIGAND FREE ENERGY PREDICTED BY IDOCK:   -0.24 KCAL/MOL
REMARK 927      BINDING AFFINITY PREDICTED BY RF-SCORE:    0.00 PKD
ROOT
HETATM    1  C   UNL     1     -12.593  13.318  70.714  1.00  0.00    -0.280 C  
HETATM    2  C   UNL     1     -12.430  11.834  71.050  1.00  0.00    -0.309 C  
HETATM    3  N   UNL     1     -12.144  11.156  69.755  1.00  0.00    -0.337 NA 
HETATM    4  C   UNL     1     -11.770  12.127  68.954  1.00  0.00    -0.327 C  
HETATM    5  N   UNL     1     -11.843  13.394  69.484  1.00  0.00    -0.316 NA 
ENDROOT
BRANCH   4   6
HETATM    6  C   UNL     1     -11.284  11.814  67.540  1.00  0.00    -0.354 C  
HETATM    7  C   UNL     1      -9.893  11.162  67.639  1.00  0.00    -0.191 C  
HETATM    8  C   UNL     1      -8.857  12.203  68.053  1.00  0.00    -0.181 C  
HETATM    9  C   UNL     1      -8.729  13.288  66.989  1.00  0.00    -0.192 C  
HETATM   10  C   UNL     1     -10.037  13.703  66.357  1.00  0.00    -0.295 A  
HETATM   11  C   UNL     1     -10.017  14.756  65.431  1.00  0.00    -0.369 A  
HETATM   12  C   UNL     1     -11.171  15.117  64.738  1.00  0.00    -0.396 A  
HETATM   13  C   UNL     1     -12.361  14.433  64.971  1.00  0.00    -0.401 A  
HETATM   14  C   UNL     1     -12.398  13.389  65.898  1.00  0.00    -0.493 A  
HETATM   15  C   UNL     1     -11.237  13.003  66.592  1.00  0.00    -0.341 A  
ENDBRANCH   4   6
TORSDOF 1
ENDMDL
MODEL       31
REMARK 921   NORMALIZED FREE ENERGY PREDICTED BY IDOCK:   -4.44 KCAL/MOL
REMARK 922        TOTAL FREE ENERGY PREDICTED BY IDOCK:   -4.95 KCAL/MOL
REMARK 923 INTER-LIGAND FREE ENERGY PREDICTED BY IDOCK:   -4.79 KCAL/MOL
REMARK 924 INTRA-LIGAND FREE ENERGY PREDICTED BY IDOCK:   -0.16 KCAL/MOL
REMARK 927      BINDING AFFINITY PREDICTED BY RF-SCORE:    0.00 PKD
ROOT
HETATM    1  C   UNL     1     -12.303  14.197  70.098  1.00  0.00    -0.351 C  
HETATM    2  C   UNL     1     -12.270  15.655  70.561  1.00  0.00    -0.399 C  
HETATM    3  N   UNL     1     -11.251  16.327  69.708  1.00  0.00    -0.334 NA 
HETATM    4  C   UNL     1     -11.097  15.518  68.685  1.00  0.00    -0.297 C  
HETATM    5  N   UNL     1     -11.797  14.337  68.754  1.00  0.00    -0.334 NA 
ENDROOT
BRANCH   4   6
HETATM    6  C   UNL     1     -10.196  15.917  67.518  1.00  0.00    -0.269 C  
HETATM    7  C   UNL     1      -8.895  15.099  67.607  1.00  0.00    -0.178 C  
HETATM    8  C   UNL     1      -8.049  15.591  68.778  1.00  0.00    -0.170 C  
HETATM    9  C   UNL     1      -7.612  17.035  68.558  1.00  0.00    -0.231 C  
HETATM   10  C   UNL     1      -8.668  17.920  67.937  1.00  0.00    -0.252 A  
HETATM   11  C   UNL     1      -8.377  19.283  67.780  1.00  0.00    -0.335 A  
HETATM   12  C   UNL     1      -9.266  20.131  67.122  1.00  0.00    -0.506 A  
HETATM   13  C   UNL     1     -10.462  19.624  66.621  1.00  0.00    -0.610 A  
HETATM   14  C   UNL     1     -10.770  18.271  66.778  1.00  0.00    -0.247 A  
HETATM   15  C   UNL     1      -9.874  17.401  67.425  1.00  0.00    -0.281 A  
ENDBRANCH   4   6
TORSDOF 1
ENDMDL
MODEL       32
REMARK 921   NORMALIZED FREE ENERGY PREDICTED BY IDOCK:   -4.41 KCAL/MOL
REMARK 922        TOTAL FREE ENERGY PREDICTED BY IDOCK:   -4.92 KCAL/MOL
REMARK 923 INTER-LIGAND FREE ENERGY PREDICTED BY IDOCK:   -4.78 KCAL/MOL
REMARK 924 INTRA-LIGAND FREE ENERGY PREDICTED BY IDOCK:   -0.14 KCAL/MOL
REMARK 927      BINDING AFFINITY PREDICTED BY RF-SCORE:    0.00 PKD
ROOT
HETATM    1  C   UNL     1     -11.670  15.817  71.597  1.00  0.00    -0.464 C  
HETATM    2  C   UNL     1     -12.344  14.455  71.418  1.00  0.00    -0.360 C  
HETATM    3  N   UNL     1     -12.526  14.284  69.950  1.00  0.00    -0.318 NA 
HETATM    4  C   UNL     1     -11.706  15.158  69.416  1.00  0.00    -0.332 C  
HETATM    5  N   UNL     1     -11.047  15.974  70.306  1.00  0.00    -0.356 NA 
ENDROOT
BRANCH   4   6
HETATM    6  C   UNL     1     -11.524  15.216  67.901  1.00  0.00    -0.344 C  
HETATM    7  C   UNL     1     -11.426  13.775  67.368  1.00  0.00    -0.372 C  
HETATM    8  C   UNL     1     -10.090  13.158  67.775  1.00  0.00    -0.226 C  
HETATM    9  C   UNL     1      -8.931  13.913  67.134  1.00  0.00    -0.242 C  
HETATM   10  C   UNL     1      -9.111  15.413  67.085  1.00  0.00    -0.236 A  
HETATM   11  C   UNL     1      -8.053  16.188  66.589  1.00  0.00    -0.323 A  
HETATM   12  C   UNL     1      -8.195  17.565  66.423  1.00  0.00    -0.305 A  
HETATM   13  C   UNL     1      -9.396  18.182  66.760  1.00  0.00    -0.286 A  
HETATM   14  C   UNL     1     -10.455  17.424  67.264  1.00  0.00    -0.321 A  
HETATM   15  C   UNL     1     -10.331  16.032  67.421  1.00  0.00    -0.294 A  
ENDBRANCH   4   6
TORSDOF 1
ENDMDL
MODEL       33
REMARK 921   NORMALIZED FREE ENERGY PREDICTED BY IDOCK:   -4.39 KCAL/MOL
REMARK 922        TOTAL FREE ENERGY PREDICTED BY IDOCK:   -4.90 KCAL/MOL
REMARK 923 INTER-LIGAND FREE ENERGY PREDICTED BY IDOCK:   -4.86 KCAL/MOL
REMARK 924 INTRA-LIGAND FREE ENERGY PREDICTED BY IDOCK:   -0.04 KCAL/MOL
REMARK 927      BINDING AFFINITY PREDICTED BY RF-SCORE:    0.00 PKD
ROOT
HETATM    1  C   UNL     1      -7.809  11.207  67.351  1.00  0.00    -0.121 C  
HETATM    2  C   UNL     1      -7.981  10.475  68.684  1.00  0.00    -0.124 C  
HETATM    3  N   UNL     1      -9.353  10.811  69.155  1.00  0.00    -0.167 NA 
HETATM    4  C   UNL     1      -9.967  11.254  68.083  1.00  0.00    -0.181 C  
HETATM    5  N   UNL     1      -9.188  11.358  66.955  1.00  0.00    -0.172 NA 
ENDROOT
BRANCH   4   6
HETATM    6  C   UNL     1     -11.452  11.605  68.136  1.00  0.00    -0.382 C  
HETATM    7  C   UNL     1     -11.707  12.788  67.186  1.00  0.00    -0.443 C  
HETATM    8  C   UNL     1     -11.109  14.065  67.771  1.00  0.00    -0.284 C  
HETATM    9  C   UNL     1     -11.799  14.433  69.080  1.00  0.00    -0.358 C  
HETATM   10  C   UNL     1     -12.132  13.254  69.965  1.00  0.00    -0.385 A  
HETATM   11  C   UNL     1     -12.690  13.513  71.225  1.00  0.00    -0.432 A  
HETATM   12  C   UNL     1     -13.113  12.468  72.045  1.00  0.00    -0.472 A  
HETATM   13  C   UNL     1     -12.972  11.151  71.616  1.00  0.00    -0.548 A  
HETATM   14  C   UNL     1     -12.408  10.878  70.368  1.00  0.00    -0.436 A  
HETATM   15  C   UNL     1     -11.993  11.923  69.523  1.00  0.00    -0.355 A  
ENDBRANCH   4   6
TORSDOF 1
ENDMDL
MODEL       34
REMARK 921   NORMALIZED FREE ENERGY PREDICTED BY IDOCK:   -4.39 KCAL/MOL
REMARK 922        TOTAL FREE ENERGY PREDICTED BY IDOCK:   -4.90 KCAL/MOL
REMARK 923 INTER-LIGAND FREE ENERGY PREDICTED BY IDOCK:   -4.71 KCAL/MOL
REMARK 924 INTRA-LIGAND FREE ENERGY PREDICTED BY IDOCK:   -0.18 KCAL/MOL
REMARK 927      BINDING AFFINITY PREDICTED BY RF-SCORE:    0.00 PKD
ROOT
HETATM    1  C   UNL     1      -9.221  19.145  66.794  1.00  0.00    -0.320 C  
HETATM    2  C   UNL     1     -10.716  19.071  67.110  1.00  0.00    -0.456 C  
HETATM    3  N   UNL     1     -10.902  17.815  67.889  1.00  0.00    -0.310 NA 
HETATM    4  C   UNL     1      -9.696  17.509  68.308  1.00  0.00    -0.311 C  
HETATM    5  N   UNL     1      -8.686  18.325  67.853  1.00  0.00    -0.261 NA 
ENDROOT
BRANCH   4   6
HETATM    6  C   UNL     1      -9.486  16.322  69.245  1.00  0.00    -0.202 C  
HETATM    7  C   UNL     1      -8.717  15.230  68.481  1.00  0.00    -0.176 C  
HETATM    8  C   UNL     1      -9.625  14.587  67.436  1.00  0.00    -0.212 C  
HETATM    9  C   UNL     1     -10.796  13.875  68.104  1.00  0.00    -0.262 C  
HETATM   10  C   UNL     1     -11.376  14.605  69.294  1.00  0.00    -0.313 A  
HETATM   11  C   UNL     1     -12.510  14.060  69.913  1.00  0.00    -0.301 A  
HETATM   12  C   UNL     1     -13.030  14.628  71.074  1.00  0.00    -0.419 A  
HETATM   13  C   UNL     1     -12.426  15.755  71.624  1.00  0.00    -0.525 A  
HETATM   14  C   UNL     1     -11.301  16.314  71.013  1.00  0.00    -0.315 A  
HETATM   15  C   UNL     1     -10.756  15.741  69.850  1.00  0.00    -0.332 A  
ENDBRANCH   4   6
TORSDOF 1
ENDMDL
MODEL       35
REMARK 921   NORMALIZED FREE ENERGY PREDICTED BY IDOCK:   -4.37 KCAL/MOL
REMARK 922        TOTAL FREE ENERGY PREDICTED BY IDOCK:   -4.88 KCAL/MOL
REMARK 923 INTER-LIGAND FREE ENERGY PREDICTED BY IDOCK:   -4.62 KCAL/MOL
REMARK 924 INTRA-LIGAND FREE ENERGY PREDICTED BY IDOCK:   -0.26 KCAL/MOL
REMARK 927      BINDING AFFINITY PREDICTED BY RF-SCORE:    0.00 PKD
ROOT
HETATM    1  C   UNL     1     -10.573   5.640  68.733  1.00  0.00    -0.216 C  
HETATM    2  C   UNL     1     -10.142   4.957  70.032  1.00  0.00    -0.266 C  
HETATM    3  N   UNL     1      -9.668   6.051  70.925  1.00  0.00    -0.172 NA 
HETATM    4  C   UNL     1     -10.170   7.143  70.397  1.00  0.00    -0.193 C  
HETATM    5  N   UNL     1     -10.849   6.972  69.214  1.00  0.00    -0.231 NA 
ENDROOT
BRANCH   4   6
HETATM    6  C   UNL     1      -9.992   8.488  71.099  1.00  0.00    -0.265 C  
HETATM    7  C   UNL     1     -10.720   8.429  72.454  1.00  0.00    -0.405 C  
HETATM    8  C   UNL     1     -12.231   8.441  72.234  1.00  0.00    -0.449 C  
HETATM    9  C   UNL     1     -12.672   9.748  71.586  1.00  0.00    -0.517 C  
HETATM   10  C   UNL     1     -11.729  10.271  70.527  1.00  0.00    -0.418 A  
HETATM   11  C   UNL     1     -12.104  11.424  69.821  1.00  0.00    -0.388 A  
HETATM   12  C   UNL     1     -11.234  12.013  68.906  1.00  0.00    -0.315 A  
HETATM   13  C   UNL     1      -9.981  11.449  68.679  1.00  0.00    -0.209 A  
HETATM   14  C   UNL     1      -9.598  10.295  69.368  1.00  0.00    -0.237 A  
HETATM   15  C   UNL     1     -10.460   9.700  70.306  1.00  0.00    -0.338 A  
ENDBRANCH   4   6
TORSDOF 1
ENDMDL
MODEL       36
REMARK 921   NORMALIZED FREE ENERGY PREDICTED BY IDOCK:   -4.34 KCAL/MOL
REMARK 922        TOTAL FREE ENERGY PREDICTED BY IDOCK:   -4.85 KCAL/MOL
REMARK 923 INTER-LIGAND FREE ENERGY PREDICTED BY IDOCK:   -4.66 KCAL/MOL
REMARK 924 INTRA-LIGAND FREE ENERGY PREDICTED BY IDOCK:   -0.19 KCAL/MOL
REMARK 927      BINDING AFFINITY PREDICTED BY RF-SCORE:    0.00 PKD
ROOT
HETATM    1  C   UNL     1      -9.321   3.827  73.432  1.00  0.00    -0.104 C  
HETATM    2  C   UNL     1     -10.321   4.595  74.299  1.00  0.00    -0.263 C  
HETATM    3  N   UNL     1     -10.817   5.713  73.449  1.00  0.00    -0.274 NA 
HETATM    4  C   UNL     1     -10.504   5.356  72.225  1.00  0.00    -0.219 C  
HETATM    5  N   UNL     1      -9.780   4.192  72.114  1.00  0.00    -0.154 NA 
ENDROOT
BRANCH   4   6
HETATM    6  C   UNL     1     -10.949   6.208  71.038  1.00  0.00    -0.354 C  
HETATM    7  C   UNL     1      -9.694   6.751  70.332  1.00  0.00    -0.183 C  
HETATM    8  C   UNL     1      -9.032   7.822  71.196  1.00  0.00    -0.146 C  
HETATM    9  C   UNL     1      -9.957   9.021  71.371  1.00  0.00    -0.388 C  
HETATM   10  C   UNL     1     -11.414   8.666  71.555  1.00  0.00    -0.363 A  
HETATM   11  C   UNL     1     -12.320   9.706  71.808  1.00  0.00    -0.474 A  
HETATM   12  C   UNL     1     -13.689   9.457  71.885  1.00  0.00    -0.440 A  
HETATM   13  C   UNL     1     -14.166   8.159  71.718  1.00  0.00    -0.548 A  
HETATM   14  C   UNL     1     -13.275   7.112  71.475  1.00  0.00    -0.419 A  
HETATM   15  C   UNL     1     -11.893   7.352  71.379  1.00  0.00    -0.329 A  
ENDBRANCH   4   6
TORSDOF 1
ENDMDL
MODEL       37
REMARK 921   NORMALIZED FREE ENERGY PREDICTED BY IDOCK:   -4.33 KCAL/MOL
REMARK 922        TOTAL FREE ENERGY PREDICTED BY IDOCK:   -4.84 KCAL/MOL
REMARK 923 INTER-LIGAND FREE ENERGY PREDICTED BY IDOCK:   -4.65 KCAL/MOL
REMARK 924 INTRA-LIGAND FREE ENERGY PREDICTED BY IDOCK:   -0.19 KCAL/MOL
REMARK 927      BINDING AFFINITY PREDICTED BY RF-SCORE:    0.00 PKD
ROOT
HETATM    1  C   UNL     1      -8.776  16.448  68.336  1.00  0.00    -0.213 C  
HETATM    2  C   UNL     1      -7.895  15.724  67.316  1.00  0.00    -0.195 C  
HETATM    3  N   UNL     1      -8.755  14.665  66.718  1.00  0.00    -0.229 NA 
HETATM    4  C   UNL     1      -9.980  15.034  67.014  1.00  0.00    -0.242 C  
HETATM    5  N   UNL     1     -10.086  16.150  67.810  1.00  0.00    -0.245 NA 
ENDROOT
BRANCH   4   6
HETATM    6  C   UNL     1     -11.172  14.246  66.474  1.00  0.00    -0.333 C  
HETATM    7  C   UNL     1     -12.033  13.792  67.666  1.00  0.00    -0.392 C  
HETATM    8  C   UNL     1     -11.313  12.690  68.440  1.00  0.00    -0.329 C  
HETATM    9  C   UNL     1     -11.129  11.452  67.570  1.00  0.00    -0.339 C  
HETATM   10  C   UNL     1     -10.778  11.746  66.129  1.00  0.00    -0.320 A  
HETATM   11  C   UNL     1     -10.507  10.662  65.282  1.00  0.00    -0.264 A  
HETATM   12  C   UNL     1     -10.278  10.860  63.922  1.00  0.00    -0.418 A  
HETATM   13  C   UNL     1     -10.309  12.149  63.395  1.00  0.00    -0.438 A  
HETATM   14  C   UNL     1     -10.568  13.239  64.229  1.00  0.00    -0.402 A  
HETATM   15  C   UNL     1     -10.817  13.052  65.600  1.00  0.00    -0.293 A  
ENDBRANCH   4   6
TORSDOF 1
ENDMDL
MODEL       38
REMARK 921   NORMALIZED FREE ENERGY PREDICTED BY IDOCK:   -4.33 KCAL/MOL
REMARK 922        TOTAL FREE ENERGY PREDICTED BY IDOCK:   -4.84 KCAL/MOL
REMARK 923 INTER-LIGAND FREE ENERGY PREDICTED BY IDOCK:   -4.58 KCAL/MOL
REMARK 924 INTRA-LIGAND FREE ENERGY PREDICTED BY IDOCK:   -0.26 KCAL/MOL
REMARK 927      BINDING AFFINITY PREDICTED BY RF-SCORE:    0.00 PKD
ROOT
HETATM    1  C   UNL     1     -10.025  15.610  68.075  1.00  0.00    -0.222 C  
HETATM    2  C   UNL     1     -11.021  15.572  69.236  1.00  0.00    -0.268 C  
HETATM    3  N   UNL     1     -11.962  14.460  68.925  1.00  0.00    -0.318 NA 
HETATM    4  C   UNL     1     -11.334  13.746  68.020  1.00  0.00    -0.288 C  
HETATM    5  N   UNL     1     -10.130  14.255  67.593  1.00  0.00    -0.228 NA 
ENDROOT
BRANCH   4   6
HETATM    6  C   UNL     1     -11.941  12.437  67.517  1.00  0.00    -0.253 C  
HETATM    7  C   UNL     1     -12.031  11.458  68.700  1.00  0.00    -0.317 C  
HETATM    8  C   UNL     1     -10.635  10.974  69.086  1.00  0.00    -0.253 C  
HETATM    9  C   UNL     1     -10.005  10.184  67.945  1.00  0.00    -0.190 C  
HETATM   10  C   UNL     1     -10.280  10.743  66.568  1.00  0.00    -0.287 A  
HETATM   11  C   UNL     1      -9.666  10.125  65.470  1.00  0.00    -0.344 A  
HETATM   12  C   UNL     1      -9.960  10.528  64.168  1.00  0.00    -0.385 A  
HETATM   13  C   UNL     1     -10.866  11.562  63.952  1.00  0.00    -0.469 A  
HETATM   14  C   UNL     1     -11.479  12.194  65.037  1.00  0.00    -0.377 A  
HETATM   15  C   UNL     1     -11.204  11.786  66.355  1.00  0.00    -0.382 A  
ENDBRANCH   4   6
TORSDOF 1
ENDMDL
MODEL       39
REMARK 921   NORMALIZED FREE ENERGY PREDICTED BY IDOCK:   -4.32 KCAL/MOL
REMARK 922        TOTAL FREE ENERGY PREDICTED BY IDOCK:   -4.82 KCAL/MOL
REMARK 923 INTER-LIGAND FREE ENERGY PREDICTED BY IDOCK:   -4.66 KCAL/MOL
REMARK 924 INTRA-LIGAND FREE ENERGY PREDICTED BY IDOCK:   -0.17 KCAL/MOL
REMARK 927      BINDING AFFINITY PREDICTED BY RF-SCORE:    0.00 PKD
ROOT
HETATM    1  C   UNL     1     -10.263  13.074  68.132  1.00  0.00    -0.239 C  
HETATM    2  C   UNL     1     -11.357  14.137  68.248  1.00  0.00    -0.291 C  
HETATM    3  N   UNL     1     -10.706  15.428  67.892  1.00  0.00    -0.278 NA 
HETATM    4  C   UNL     1      -9.608  15.077  67.264  1.00  0.00    -0.207 C  
HETATM    5  N   UNL     1      -9.359  13.726  67.215  1.00  0.00    -0.230 NA 
ENDROOT
BRANCH   4   6
HETATM    6  C   UNL     1      -8.706  16.140  66.639  1.00  0.00    -0.300 C  
HETATM    7  C   UNL     1      -7.262  15.889  67.109  1.00  0.00    -0.254 C  
HETATM    8  C   UNL     1      -7.123  16.256  68.585  1.00  0.00    -0.155 C  
HETATM    9  C   UNL     1      -7.373  17.745  68.796  1.00  0.00    -0.271 C  
HETATM   10  C   UNL     1      -8.490  18.318  67.956  1.00  0.00    -0.273 A  
HETATM   11  C   UNL     1      -8.841  19.662  68.153  1.00  0.00    -0.370 A  
HETATM   12  C   UNL     1      -9.791  20.276  67.340  1.00  0.00    -0.586 A  
HETATM   13  C   UNL     1     -10.409  19.550  66.325  1.00  0.00    -0.601 A  
HETATM   14  C   UNL     1     -10.076  18.208  66.124  1.00  0.00    -0.338 A  
HETATM   15  C   UNL     1      -9.107  17.580  66.926  1.00  0.00    -0.265 A  
ENDBRANCH   4   6
TORSDOF 1
ENDMDL
MODEL       40
REMARK 921   NORMALIZED FREE ENERGY PREDICTED BY IDOCK:   -4.31 KCAL/MOL
REMARK 922        TOTAL FREE ENERGY PREDICTED BY IDOCK:   -4.81 KCAL/MOL
REMARK 923 INTER-LIGAND FREE ENERGY PREDICTED BY IDOCK:   -4.56 KCAL/MOL
REMARK 924 INTRA-LIGAND FREE ENERGY PREDICTED BY IDOCK:   -0.26 KCAL/MOL
REMARK 927      BINDING AFFINITY PREDICTED BY RF-SCORE:    0.00 PKD
ROOT
HETATM    1  C   UNL     1      -9.914   8.220  66.889  1.00  0.00    -0.273 C  
HETATM    2  C   UNL     1      -8.393   8.281  67.041  1.00  0.00    -0.122 C  
HETATM    3  N   UNL     1      -8.143   9.037  68.300  1.00  0.00    -0.108 NA 
HETATM    4  C   UNL     1      -9.289   8.994  68.939  1.00  0.00    -0.143 C  
HETATM    5  N   UNL     1     -10.323   8.393  68.261  1.00  0.00    -0.208 NA 
ENDROOT
BRANCH   4   6
HETATM    6  C   UNL     1      -9.407   9.577  70.346  1.00  0.00    -0.311 C  
HETATM    7  C   UNL     1      -8.545   8.728  71.298  1.00  0.00    -0.258 C  
HETATM    8  C   UNL     1      -9.198   7.365  71.517  1.00  0.00    -0.149 C  
HETATM    9  C   UNL     1     -10.547   7.520  72.211  1.00  0.00    -0.280 C  
HETATM   10  C   UNL     1     -11.360   8.705  71.743  1.00  0.00    -0.393 A  
HETATM   11  C   UNL     1     -12.650   8.869  72.269  1.00  0.00    -0.455 A  
HETATM   12  C   UNL     1     -13.409   9.995  71.955  1.00  0.00    -0.516 A  
HETATM   13  C   UNL     1     -12.888  10.966  71.103  1.00  0.00    -0.508 A  
HETATM   14  C   UNL     1     -11.609  10.810  70.563  1.00  0.00    -0.425 A  
HETATM   15  C   UNL     1     -10.826   9.687  70.885  1.00  0.00    -0.409 A  
ENDBRANCH   4   6
TORSDOF 1
ENDMDL
MODEL       41
REMARK 921   NORMALIZED FREE ENERGY PREDICTED BY IDOCK:   -4.30 KCAL/MOL
REMARK 922        TOTAL FREE ENERGY PREDICTED BY IDOCK:   -4.80 KCAL/MOL
REMARK 923 INTER-LIGAND FREE ENERGY PREDICTED BY IDOCK:   -4.55 KCAL/MOL
REMARK 924 INTRA-LIGAND FREE ENERGY PREDICTED BY IDOCK:   -0.26 KCAL/MOL
REMARK 927      BINDING AFFINITY PREDICTED BY RF-SCORE:    0.00 PKD
ROOT
HETATM    1  C   UNL     1      -8.546   9.525  69.276  1.00  0.00    -0.149 C  
HETATM    2  C   UNL     1      -7.371   9.316  70.234  1.00  0.00    -0.100 C  
HETATM    3  N   UNL     1      -7.974   9.171  71.588  1.00  0.00    -0.328 NA 
HETATM    4  C   UNL     1      -9.236   8.894  71.354  1.00  0.00    -0.258 C  
HETATM    5  N   UNL     1      -9.613   8.917  70.032  1.00  0.00    -0.171 NA 
ENDROOT
BRANCH   4   6
HETATM    6  C   UNL     1     -10.178   8.565  72.511  1.00  0.00    -0.323 C  
HETATM    7  C   UNL     1      -9.691   7.267  73.179  1.00  0.00    -0.254 C  
HETATM    8  C   UNL     1      -9.964   6.076  72.265  1.00  0.00    -0.189 C  
HETATM    9  C   UNL     1     -11.463   5.892  72.053  1.00  0.00    -0.311 C  
HETATM   10  C   UNL     1     -12.236   7.181  71.900  1.00  0.00    -0.358 A  
HETATM   11  C   UNL     1     -13.607   7.098  71.615  1.00  0.00    -0.399 A  
HETATM   12  C   UNL     1     -14.395   8.247  71.564  1.00  0.00    -0.525 A  
HETATM   13  C   UNL     1     -13.817   9.493  71.789  1.00  0.00    -0.313 A  
HETATM   14  C   UNL     1     -12.451   9.592  72.064  1.00  0.00    -0.427 A  
HETATM   15  C   UNL     1     -11.648   8.440  72.135  1.00  0.00    -0.442 A  
ENDBRANCH   4   6
TORSDOF 1
ENDMDL
MODEL       42
REMARK 921   NORMALIZED FREE ENERGY PREDICTED BY IDOCK:   -4.29 KCAL/MOL
REMARK 922        TOTAL FREE ENERGY PREDICTED BY IDOCK:   -4.80 KCAL/MOL
REMARK 923 INTER-LIGAND FREE ENERGY PREDICTED BY IDOCK:   -4.59 KCAL/MOL
REMARK 924 INTRA-LIGAND FREE ENERGY PREDICTED BY IDOCK:   -0.21 KCAL/MOL
REMARK 927      BINDING AFFINITY PREDICTED BY RF-SCORE:    0.00 PKD
ROOT
HETATM    1  C   UNL     1      -7.402  13.708  68.560  1.00  0.00    -0.114 C  
HETATM    2  C   UNL     1      -8.258  12.476  68.259  1.00  0.00    -0.168 C  
HETATM    3  N   UNL     1      -9.664  12.963  68.213  1.00  0.00    -0.223 NA 
HETATM    4  C   UNL     1      -9.554  14.263  68.059  1.00  0.00    -0.223 C  
HETATM    5  N   UNL     1      -8.271  14.756  68.084  1.00  0.00    -0.135 NA 
ENDROOT
BRANCH   4   6
HETATM    6  C   UNL     1     -10.801  15.122  67.859  1.00  0.00    -0.291 C  
HETATM    7  C   UNL     1     -11.631  14.514  66.714  1.00  0.00    -0.388 C  
HETATM    8  C   UNL     1     -10.928  14.747  65.379  1.00  0.00    -0.365 C  
HETATM    9  C   UNL     1     -10.835  16.238  65.073  1.00  0.00    -0.337 C  
HETATM   10  C   UNL     1     -10.532  17.106  66.272  1.00  0.00    -0.260 A  
HETATM   11  C   UNL     1     -10.344  18.480  66.062  1.00  0.00    -0.423 A  
HETATM   12  C   UNL     1     -10.164  19.347  67.138  1.00  0.00    -0.521 A  
HETATM   13  C   UNL     1     -10.161  18.847  68.437  1.00  0.00    -0.449 A  
HETATM   14  C   UNL     1     -10.336  17.480  68.661  1.00  0.00    -0.369 A  
HETATM   15  C   UNL     1     -10.536  16.596  67.586  1.00  0.00    -0.321 A  
ENDBRANCH   4   6
TORSDOF 1
ENDMDL
MODEL       43
REMARK 921   NORMALIZED FREE ENERGY PREDICTED BY IDOCK:   -4.29 KCAL/MOL
REMARK 922        TOTAL FREE ENERGY PREDICTED BY IDOCK:   -4.80 KCAL/MOL
REMARK 923 INTER-LIGAND FREE ENERGY PREDICTED BY IDOCK:   -4.61 KCAL/MOL
REMARK 924 INTRA-LIGAND FREE ENERGY PREDICTED BY IDOCK:   -0.19 KCAL/MOL
REMARK 927      BINDING AFFINITY PREDICTED BY RF-SCORE:    0.00 PKD
ROOT
HETATM    1  C   UNL     1      -5.885  16.935  67.440  1.00  0.00    -0.154 C  
HETATM    2  C   UNL     1      -6.170  15.441  67.600  1.00  0.00    -0.142 C  
HETATM    3  N   UNL     1      -7.632  15.281  67.366  1.00  0.00    -0.185 NA 
HETATM    4  C   UNL     1      -7.986  16.386  66.750  1.00  0.00    -0.260 C  
HETATM    5  N   UNL     1      -6.994  17.327  66.606  1.00  0.00    -0.210 NA 
ENDROOT
BRANCH   4   6
HETATM    6  C   UNL     1      -9.415  16.557  66.238  1.00  0.00    -0.339 C  
HETATM    7  C   UNL     1     -10.078  17.703  67.023  1.00  0.00    -0.330 C  
HETATM    8  C   UNL     1     -10.359  17.260  68.457  1.00  0.00    -0.371 C  
HETATM    9  C   UNL     1     -11.362  16.112  68.479  1.00  0.00    -0.359 C  
HETATM   10  C   UNL     1     -11.177  15.097  67.374  1.00  0.00    -0.323 A  
HETATM   11  C   UNL     1     -12.004  13.965  67.374  1.00  0.00    -0.436 A  
HETATM   12  C   UNL     1     -11.953  13.046  66.328  1.00  0.00    -0.477 A  
HETATM   13  C   UNL     1     -11.066  13.245  65.273  1.00  0.00    -0.306 A  
HETATM   14  C   UNL     1     -10.229  14.363  65.266  1.00  0.00    -0.416 A  
HETATM   15  C   UNL     1     -10.282  15.308  66.307  1.00  0.00    -0.300 A  
ENDBRANCH   4   6
TORSDOF 1
ENDMDL
MODEL       44
REMARK 921   NORMALIZED FREE ENERGY PREDICTED BY IDOCK:   -4.28 KCAL/MOL
REMARK 922        TOTAL FREE ENERGY PREDICTED BY IDOCK:   -4.79 KCAL/MOL
REMARK 923 INTER-LIGAND FREE ENERGY PREDICTED BY IDOCK:   -4.56 KCAL/MOL
REMARK 924 INTRA-LIGAND FREE ENERGY PREDICTED BY IDOCK:   -0.23 KCAL/MOL
REMARK 927      BINDING AFFINITY PREDICTED BY RF-SCORE:    0.00 PKD
ROOT
HETATM    1  C   UNL     1     -12.196  11.000  70.463  1.00  0.00    -0.381 C  
HETATM    2  C   UNL     1     -13.088  10.945  71.706  1.00  0.00    -0.459 C  
HETATM    3  N   UNL     1     -13.111   9.516  72.123  1.00  0.00    -0.426 NA 
HETATM    4  C   UNL     1     -12.078   8.982  71.514  1.00  0.00    -0.340 C  
HETATM    5  N   UNL     1     -11.395   9.817  70.661  1.00  0.00    -0.304 NA 
ENDROOT
BRANCH   4   6
HETATM    6  C   UNL     1     -11.697   7.526  71.779  1.00  0.00    -0.317 C  
HETATM    7  C   UNL     1     -11.036   7.443  73.167  1.00  0.00    -0.408 C  
HETATM    8  C   UNL     1      -9.648   8.079  73.122  1.00  0.00    -0.344 C  
HETATM    9  C   UNL     1      -8.731   7.305  72.182  1.00  0.00    -0.134 C  
HETATM   10  C   UNL     1      -9.400   6.812  70.920  1.00  0.00    -0.157 A  
HETATM   11  C   UNL     1      -8.605   6.166  69.961  1.00  0.00    -0.136 A  
HETATM   12  C   UNL     1      -9.180   5.599  68.825  1.00  0.00    -0.133 A  
HETATM   13  C   UNL     1     -10.556   5.680  68.631  1.00  0.00    -0.268 A  
HETATM   14  C   UNL     1     -11.358   6.329  69.572  1.00  0.00    -0.475 A  
HETATM   15  C   UNL     1     -10.794   6.891  70.731  1.00  0.00    -0.279 A  
ENDBRANCH   4   6
TORSDOF 1
ENDMDL
MODEL       45
REMARK 921   NORMALIZED FREE ENERGY PREDICTED BY IDOCK:   -4.28 KCAL/MOL
REMARK 922        TOTAL FREE ENERGY PREDICTED BY IDOCK:   -4.78 KCAL/MOL
REMARK 923 INTER-LIGAND FREE ENERGY PREDICTED BY IDOCK:   -4.53 KCAL/MOL
REMARK 924 INTRA-LIGAND FREE ENERGY PREDICTED BY IDOCK:   -0.26 KCAL/MOL
REMARK 927      BINDING AFFINITY PREDICTED BY RF-SCORE:    0.00 PKD
ROOT
HETATM    1  C   UNL     1     -11.219  11.359  63.778  1.00  0.00    -0.288 C  
HETATM    2  C   UNL     1     -12.617  11.982  63.775  1.00  0.00    -0.454 C  
HETATM    3  N   UNL     1     -12.744  12.694  65.077  1.00  0.00    -0.771 NA 
HETATM    4  C   UNL     1     -11.507  12.823  65.500  1.00  0.00    -0.337 C  
HETATM    5  N   UNL     1     -10.549  12.221  64.720  1.00  0.00    -0.284 NA 
ENDROOT
BRANCH   4   6
HETATM    6  C   UNL     1     -11.209  13.610  66.774  1.00  0.00    -0.327 C  
HETATM    7  C   UNL     1     -11.641  15.071  66.555  1.00  0.00    -0.184 C  
HETATM    8  C   UNL     1     -10.683  15.759  65.586  1.00  0.00    -0.360 C  
HETATM    9  C   UNL     1      -9.279  15.829  66.175  1.00  0.00    -0.385 C  
HETATM   10  C   UNL     1      -8.858  14.595  66.939  1.00  0.00    -0.267 A  
HETATM   11  C   UNL     1      -7.548  14.544  67.439  1.00  0.00    -0.209 A  
HETATM   12  C   UNL     1      -7.132  13.481  68.238  1.00  0.00    -0.110 A  
HETATM   13  C   UNL     1      -8.020  12.451  68.537  1.00  0.00    -0.110 A  
HETATM   14  C   UNL     1      -9.324  12.483  68.037  1.00  0.00    -0.205 A  
HETATM   15  C   UNL     1      -9.762  13.559  67.244  1.00  0.00    -0.236 A  
ENDBRANCH   4   6
TORSDOF 1
ENDMDL
MODEL       46
REMARK 921   NORMALIZED FREE ENERGY PREDICTED BY IDOCK:   -4.23 KCAL/MOL
REMARK 922        TOTAL FREE ENERGY PREDICTED BY IDOCK:   -4.73 KCAL/MOL
REMARK 923 INTER-LIGAND FREE ENERGY PREDICTED BY IDOCK:   -4.54 KCAL/MOL
REMARK 924 INTRA-LIGAND FREE ENERGY PREDICTED BY IDOCK:   -0.19 KCAL/MOL
REMARK 927      BINDING AFFINITY PREDICTED BY RF-SCORE:    0.00 PKD
ROOT
HETATM    1  C   UNL     1     -11.881  14.583  64.432  1.00  0.00    -0.403 C  
HETATM    2  C   UNL     1     -12.695  13.583  65.256  1.00  0.00    -0.427 C  
HETATM    3  N   UNL     1     -11.868  13.281  66.457  1.00  0.00    -0.380 NA 
HETATM    4  C   UNL     1     -10.997  14.262  66.508  1.00  0.00    -0.316 C  
HETATM    5  N   UNL     1     -11.044  15.152  65.460  1.00  0.00    -0.345 NA 
ENDROOT
BRANCH   4   6
HETATM    6  C   UNL     1     -10.024  14.367  67.681  1.00  0.00    -0.224 C  
HETATM    7  C   UNL     1     -10.825  14.231  68.989  1.00  0.00    -0.274 C  
HETATM    8  C   UNL     1     -11.661  15.487  69.222  1.00  0.00    -0.380 C  
HETATM    9  C   UNL     1     -10.764  16.704  69.413  1.00  0.00    -0.331 C  
HETATM   10  C   UNL     1      -9.550  16.735  68.514  1.00  0.00    -0.245 A  
HETATM   11  C   UNL     1      -8.719  17.864  68.566  1.00  0.00    -0.297 A  
HETATM   12  C   UNL     1      -7.531  17.908  67.838  1.00  0.00    -0.216 A  
HETATM   13  C   UNL     1      -7.167  16.827  67.041  1.00  0.00    -0.236 A  
HETATM   14  C   UNL     1      -7.990  15.700  66.971  1.00  0.00    -0.268 A  
HETATM   15  C   UNL     1      -9.182  15.635  67.714  1.00  0.00    -0.193 A  
ENDBRANCH   4   6
TORSDOF 1
ENDMDL
MODEL       47
REMARK 921   NORMALIZED FREE ENERGY PREDICTED BY IDOCK:   -4.21 KCAL/MOL
REMARK 922        TOTAL FREE ENERGY PREDICTED BY IDOCK:   -4.71 KCAL/MOL
REMARK 923 INTER-LIGAND FREE ENERGY PREDICTED BY IDOCK:   -4.53 KCAL/MOL
REMARK 924 INTRA-LIGAND FREE ENERGY PREDICTED BY IDOCK:   -0.19 KCAL/MOL
REMARK 927      BINDING AFFINITY PREDICTED BY RF-SCORE:    0.00 PKD
ROOT
HETATM    1  C   UNL     1      -7.995   7.140  68.047  1.00  0.00    -0.119 C  
HETATM    2  C   UNL     1      -9.453   7.370  67.647  1.00  0.00    -0.136 C  
HETATM    3  N   UNL     1     -10.104   7.994  68.832  1.00  0.00    -0.196 NA 
HETATM    4  C   UNL     1      -9.103   8.437  69.558  1.00  0.00    -0.153 C  
HETATM    5  N   UNL     1      -7.848   8.127  69.088  1.00  0.00    -0.105 NA 
ENDROOT
BRANCH   4   6
HETATM    6  C   UNL     1      -9.371   9.246  70.825  1.00  0.00    -0.322 C  
HETATM    7  C   UNL     1      -8.653   8.560  72.001  1.00  0.00    -0.250 C  
HETATM    8  C   UNL     1      -9.366   7.258  72.359  1.00  0.00    -0.166 C  
HETATM    9  C   UNL     1     -10.783   7.537  72.848  1.00  0.00    -0.411 C  
HETATM   10  C   UNL     1     -11.501   8.634  72.096  1.00  0.00    -0.443 A  
HETATM   11  C   UNL     1     -12.839   8.895  72.427  1.00  0.00    -0.446 A  
HETATM   12  C   UNL     1     -13.523   9.959  71.843  1.00  0.00    -0.467 A  
HETATM   13  C   UNL     1     -12.878  10.770  70.913  1.00  0.00    -0.443 A  
HETATM   14  C   UNL     1     -11.548  10.517  70.567  1.00  0.00    -0.441 A  
HETATM   15  C   UNL     1     -10.841   9.456  71.161  1.00  0.00    -0.427 A  
ENDBRANCH   4   6
TORSDOF 1
ENDMDL
MODEL       48
REMARK 921   NORMALIZED FREE ENERGY PREDICTED BY IDOCK:   -4.20 KCAL/MOL
REMARK 922        TOTAL FREE ENERGY PREDICTED BY IDOCK:   -4.70 KCAL/MOL
REMARK 923 INTER-LIGAND FREE ENERGY PREDICTED BY IDOCK:   -4.45 KCAL/MOL
REMARK 924 INTRA-LIGAND FREE ENERGY PREDICTED BY IDOCK:   -0.25 KCAL/MOL
REMARK 927      BINDING AFFINITY PREDICTED BY RF-SCORE:    0.00 PKD
ROOT
HETATM    1  C   UNL     1     -13.454   9.943  71.358  1.00  0.00    -0.302 C  
HETATM    2  C   UNL     1     -12.657  10.794  70.367  1.00  0.00    -0.314 C  
HETATM    3  N   UNL     1     -11.251  10.313  70.460  1.00  0.00    -0.318 NA 
HETATM    4  C   UNL     1     -11.346   9.137  71.038  1.00  0.00    -0.309 C  
HETATM    5  N   UNL     1     -12.610   8.775  71.440  1.00  0.00    -0.309 NA 
ENDROOT
BRANCH   4   6
HETATM    6  C   UNL     1     -10.105   8.265  71.215  1.00  0.00    -0.249 C  
HETATM    7  C   UNL     1      -9.676   7.743  69.833  1.00  0.00    -0.176 C  
HETATM    8  C   UNL     1     -10.670   6.695  69.339  1.00  0.00    -0.303 C  
HETATM    9  C   UNL     1     -10.670   5.478  70.257  1.00  0.00    -0.333 C  
HETATM   10  C   UNL     1     -10.550   5.802  71.728  1.00  0.00    -0.293 A  
HETATM   11  C   UNL     1     -10.628   4.744  72.645  1.00  0.00    -0.271 A  
HETATM   12  C   UNL     1     -10.423   4.965  74.006  1.00  0.00    -0.329 A  
HETATM   13  C   UNL     1     -10.145   6.249  74.465  1.00  0.00    -0.353 A  
HETATM   14  C   UNL     1     -10.074   7.314  73.564  1.00  0.00    -0.387 A  
HETATM   15  C   UNL     1     -10.262   7.103  72.186  1.00  0.00    -0.207 A  
ENDBRANCH   4   6
TORSDOF 1
ENDMDL
MODEL       49
REMARK 921   NORMALIZED FREE ENERGY PREDICTED BY IDOCK:   -4.20 KCAL/MOL
REMARK 922        TOTAL FREE ENERGY PREDICTED BY IDOCK:   -4.70 KCAL/MOL
REMARK 923 INTER-LIGAND FREE ENERGY PREDICTED BY IDOCK:   -4.52 KCAL/MOL
REMARK 924 INTRA-LIGAND FREE ENERGY PREDICTED BY IDOCK:   -0.18 KCAL/MOL
REMARK 927      BINDING AFFINITY PREDICTED BY RF-SCORE:    0.00 PKD
ROOT
HETATM    1  C   UNL     1     -12.606  15.462  70.761  1.00  0.00    -0.442 C  
HETATM    2  C   UNL     1     -12.732  13.946  70.928  1.00  0.00    -0.340 C  
HETATM    3  N   UNL     1     -12.080  13.352  69.728  1.00  0.00    -0.325 NA 
HETATM    4  C   UNL     1     -11.344  14.324  69.242  1.00  0.00    -0.283 C  
HETATM    5  N   UNL     1     -11.465  15.536  69.881  1.00  0.00    -0.298 NA 
ENDROOT
BRANCH   4   6
HETATM    6  C   UNL     1     -10.424  14.070  68.049  1.00  0.00    -0.241 C  
HETATM    7  C   UNL     1     -10.988  14.824  66.832  1.00  0.00    -0.328 C  
HETATM    8  C   UNL     1     -12.260  14.139  66.338  1.00  0.00    -0.473 C  
HETATM    9  C   UNL     1     -11.957  12.729  65.845  1.00  0.00    -0.506 C  
HETATM   10  C   UNL     1     -10.945  11.978  66.679  1.00  0.00    -0.330 A  
HETATM   11  C   UNL     1     -10.674  10.644  66.344  1.00  0.00    -0.198 A  
HETATM   12  C   UNL     1      -9.678   9.930  67.009  1.00  0.00    -0.230 A  
HETATM   13  C   UNL     1      -8.948  10.543  68.024  1.00  0.00    -0.135 A  
HETATM   14  C   UNL     1      -9.214  11.868  68.375  1.00  0.00    -0.173 A  
HETATM   15  C   UNL     1     -10.204  12.605  67.701  1.00  0.00    -0.217 A  
ENDBRANCH   4   6
TORSDOF 1
ENDMDL
MODEL       50
REMARK 921   NORMALIZED FREE ENERGY PREDICTED BY IDOCK:   -4.20 KCAL/MOL
REMARK 922        TOTAL FREE ENERGY PREDICTED BY IDOCK:   -4.70 KCAL/MOL
REMARK 923 INTER-LIGAND FREE ENERGY PREDICTED BY IDOCK:   -4.75 KCAL/MOL
REMARK 924 INTRA-LIGAND FREE ENERGY PREDICTED BY IDOCK:    0.05 KCAL/MOL
REMARK 927      BINDING AFFINITY PREDICTED BY RF-SCORE:    0.00 PKD
ROOT
HETATM    1  C   UNL     1      -9.531  16.588  66.087  1.00  0.00    -0.315 C  
HETATM    2  C   UNL     1      -9.899  16.704  67.567  1.00  0.00    -0.253 C  
HETATM    3  N   UNL     1     -10.954  15.679  67.803  1.00  0.00    -0.311 NA 
HETATM    4  C   UNL     1     -10.850  14.864  66.779  1.00  0.00    -0.320 C  
HETATM    5  N   UNL     1      -9.934  15.229  65.821  1.00  0.00    -0.334 NA 
ENDROOT
BRANCH   4   6
HETATM    6  C   UNL     1     -11.707  13.601  66.712  1.00  0.00    -0.426 C  
HETATM    7  C   UNL     1     -12.073  13.186  68.149  1.00  0.00    -0.224 C  
HETATM    8  C   UNL     1     -10.841  12.636  68.863  1.00  0.00    -0.238 C  
HETATM    9  C   UNL     1     -10.346  11.366  68.182  1.00  0.00    -0.206 C  
HETATM   10  C   UNL     1     -10.421  11.394  66.672  1.00  0.00    -0.285 A  
HETATM   11  C   UNL     1      -9.904  10.299  65.965  1.00  0.00    -0.292 A  
HETATM   12  C   UNL     1     -10.035  10.219  64.580  1.00  0.00    -0.377 A  
HETATM   13  C   UNL     1     -10.677  11.241  63.885  1.00  0.00    -0.451 A  
HETATM   14  C   UNL     1     -11.187  12.343  64.575  1.00  0.00    -0.371 A  
HETATM   15  C   UNL     1     -11.077  12.428  65.975  1.00  0.00    -0.344 A  
ENDBRANCH   4   6
TORSDOF 1
ENDMDL
MODEL       51
REMARK 921   NORMALIZED FREE ENERGY PREDICTED BY IDOCK:   -4.19 KCAL/MOL
REMARK 922        TOTAL FREE ENERGY PREDICTED BY IDOCK:   -4.69 KCAL/MOL
REMARK 923 INTER-LIGAND FREE ENERGY PREDICTED BY IDOCK:   -4.64 KCAL/MOL
REMARK 924 INTRA-LIGAND FREE ENERGY PREDICTED BY IDOCK:   -0.05 KCAL/MOL
REMARK 927      BINDING AFFINITY PREDICTED BY RF-SCORE:    0.00 PKD
ROOT
HETATM    1  C   UNL     1      -7.070  19.046  67.257  1.00  0.00    -0.207 C  
HETATM    2  C   UNL     1      -7.029  18.395  65.873  1.00  0.00    -0.271 C  
HETATM    3  N   UNL     1      -8.122  17.383  65.871  1.00  0.00    -0.554 NA 
HETATM    4  C   UNL     1      -8.892  17.733  66.875  1.00  0.00    -0.248 C  
HETATM    5  N   UNL     1      -8.439  18.790  67.629  1.00  0.00    -0.270 NA 
ENDROOT
BRANCH   4   6
HETATM    6  C   UNL     1     -10.199  16.988  67.137  1.00  0.00    -0.306 C  
HETATM    7  C   UNL     1     -10.423  16.919  68.658  1.00  0.00    -0.352 C  
HETATM    8  C   UNL     1      -9.430  15.946  69.288  1.00  0.00    -0.260 C  
HETATM    9  C   UNL     1      -9.663  14.530  68.774  1.00  0.00    -0.210 C  
HETATM   10  C   UNL     1     -10.008  14.446  67.305  1.00  0.00    -0.247 A  
HETATM   11  C   UNL     1     -10.153  13.173  66.733  1.00  0.00    -0.253 A  
HETATM   12  C   UNL     1     -10.569  13.030  65.410  1.00  0.00    -0.307 A  
HETATM   13  C   UNL     1     -10.836  14.160  64.642  1.00  0.00    -0.401 A  
HETATM   14  C   UNL     1     -10.686  15.434  65.195  1.00  0.00    -0.460 A  
HETATM   15  C   UNL     1     -10.283  15.593  66.533  1.00  0.00    -0.291 A  
ENDBRANCH   4   6
TORSDOF 1
ENDMDL
MODEL       52
REMARK 921   NORMALIZED FREE ENERGY PREDICTED BY IDOCK:   -4.19 KCAL/MOL
REMARK 922        TOTAL FREE ENERGY PREDICTED BY IDOCK:   -4.69 KCAL/MOL
REMARK 923 INTER-LIGAND FREE ENERGY PREDICTED BY IDOCK:   -4.56 KCAL/MOL
REMARK 924 INTRA-LIGAND FREE ENERGY PREDICTED BY IDOCK:   -0.13 KCAL/MOL
REMARK 927      BINDING AFFINITY PREDICTED BY RF-SCORE:    0.00 PKD
ROOT
HETATM    1  C   UNL     1      -6.081  20.035  71.078  1.00  0.00    -0.240 C  
HETATM    2  C   UNL     1      -5.140  18.832  71.170  1.00  0.00    -0.283 C  
HETATM    3  N   UNL     1      -5.606  17.874  70.129  1.00  0.00    -0.241 NA 
HETATM    4  C   UNL     1      -6.351  18.601  69.328  1.00  0.00    -0.265 C  
HETATM    5  N   UNL     1      -6.542  19.905  69.718  1.00  0.00    -0.346 NA 
ENDROOT
BRANCH   4   6
HETATM    6  C   UNL     1      -6.934  17.989  68.055  1.00  0.00    -0.211 C  
HETATM    7  C   UNL     1      -5.899  18.141  66.926  1.00  0.00    -0.168 C  
HETATM    8  C   UNL     1      -5.802  19.604  66.500  1.00  0.00    -0.164 C  
HETATM    9  C   UNL     1      -7.125  20.083  65.913  1.00  0.00    -0.317 C  
HETATM   10  C   UNL     1      -8.351  19.561  66.625  1.00  0.00    -0.340 A  
HETATM   11  C   UNL     1      -9.606  20.022  66.201  1.00  0.00    -0.476 A  
HETATM   12  C   UNL     1     -10.778  19.502  66.747  1.00  0.00    -0.569 A  
HETATM   13  C   UNL     1     -10.707  18.520  67.732  1.00  0.00    -0.378 A  
HETATM   14  C   UNL     1      -9.464  18.058  68.171  1.00  0.00    -0.292 A  
HETATM   15  C   UNL     1      -8.274  18.562  67.616  1.00  0.00    -0.267 A  
ENDBRANCH   4   6
TORSDOF 1
ENDMDL
MODEL       53
REMARK 921   NORMALIZED FREE ENERGY PREDICTED BY IDOCK:   -4.18 KCAL/MOL
REMARK 922        TOTAL FREE ENERGY PREDICTED BY IDOCK:   -4.68 KCAL/MOL
REMARK 923 INTER-LIGAND FREE ENERGY PREDICTED BY IDOCK:   -4.76 KCAL/MOL
REMARK 924 INTRA-LIGAND FREE ENERGY PREDICTED BY IDOCK:    0.08 KCAL/MOL
REMARK 927      BINDING AFFINITY PREDICTED BY RF-SCORE:    0.00 PKD
ROOT
HETATM    1  C   UNL     1      -9.005  18.310  68.568  1.00  0.00    -0.312 C  
HETATM    2  C   UNL     1      -8.285  16.960  68.597  1.00  0.00    -0.254 C  
HETATM    3  N   UNL     1      -9.352  15.937  68.771  1.00  0.00    -0.207 NA 
HETATM    4  C   UNL     1     -10.459  16.560  68.439  1.00  0.00    -0.307 C  
HETATM    5  N   UNL     1     -10.322  17.897  68.148  1.00  0.00    -0.378 NA 
ENDROOT
BRANCH   4   6
HETATM    6  C   UNL     1     -11.783  15.801  68.386  1.00  0.00    -0.279 C  
HETATM    7  C   UNL     1     -12.347  15.706  69.815  1.00  0.00    -0.216 C  
HETATM    8  C   UNL     1     -11.512  14.730  70.641  1.00  0.00    -0.283 C  
HETATM    9  C   UNL     1     -11.606  13.321  70.066  1.00  0.00    -0.212 C  
HETATM   10  C   UNL     1     -11.606  13.258  68.557  1.00  0.00    -0.368 A  
HETATM   11  C   UNL     1     -11.603  11.994  67.949  1.00  0.00    -0.405 A  
HETATM   12  C   UNL     1     -11.705  11.869  66.564  1.00  0.00    -0.247 A  
HETATM   13  C   UNL     1     -11.803  13.010  65.772  1.00  0.00    -0.453 A  
HETATM   14  C   UNL     1     -11.797  14.275  66.363  1.00  0.00    -0.427 A  
HETATM   15  C   UNL     1     -11.711  14.415  67.759  1.00  0.00    -0.407 A  
ENDBRANCH   4   6
TORSDOF 1
ENDMDL
MODEL       54
REMARK 921   NORMALIZED FREE ENERGY PREDICTED BY IDOCK:   -4.17 KCAL/MOL
REMARK 922        TOTAL FREE ENERGY PREDICTED BY IDOCK:   -4.67 KCAL/MOL
REMARK 923 INTER-LIGAND FREE ENERGY PREDICTED BY IDOCK:   -4.57 KCAL/MOL
REMARK 924 INTRA-LIGAND FREE ENERGY PREDICTED BY IDOCK:   -0.10 KCAL/MOL
REMARK 927      BINDING AFFINITY PREDICTED BY RF-SCORE:    0.00 PKD
ROOT
HETATM    1  C   UNL     1      -8.210  10.022  68.591  1.00  0.00    -0.111 C  
HETATM    2  C   UNL     1      -9.551  10.755  68.527  1.00  0.00    -0.183 C  
HETATM    3  N   UNL     1     -10.420  10.097  69.542  1.00  0.00    -0.224 NA 
HETATM    4  C   UNL     1      -9.582   9.450  70.318  1.00  0.00    -0.249 C  
HETATM    5  N   UNL     1      -8.263   9.492  69.931  1.00  0.00    -0.142 NA 
ENDROOT
BRANCH   4   6
HETATM    6  C   UNL     1     -10.090   8.725  71.563  1.00  0.00    -0.371 C  
HETATM    7  C   UNL     1      -9.357   7.376  71.672  1.00  0.00    -0.162 C  
HETATM    8  C   UNL     1      -9.853   6.424  70.587  1.00  0.00    -0.206 C  
HETATM    9  C   UNL     1     -11.331   6.107  70.783  1.00  0.00    -0.364 C  
HETATM   10  C   UNL     1     -12.171   7.282  71.227  1.00  0.00    -0.389 A  
HETATM   11  C   UNL     1     -13.556   7.096  71.348  1.00  0.00    -0.368 A  
HETATM   12  C   UNL     1     -14.370   8.109  71.850  1.00  0.00    -0.566 A  
HETATM   13  C   UNL     1     -13.808   9.325  72.230  1.00  0.00    -0.492 A  
HETATM   14  C   UNL     1     -12.431   9.528  72.107  1.00  0.00    -0.376 A  
HETATM   15  C   UNL     1     -11.596   8.508  71.617  1.00  0.00    -0.364 A  
ENDBRANCH   4   6
TORSDOF 1
ENDMDL
MODEL       55
REMARK 921   NORMALIZED FREE ENERGY PREDICTED BY IDOCK:   -4.15 KCAL/MOL
REMARK 922        TOTAL FREE ENERGY PREDICTED BY IDOCK:   -4.64 KCAL/MOL
REMARK 923 INTER-LIGAND FREE ENERGY PREDICTED BY IDOCK:   -4.45 KCAL/MOL
REMARK 924 INTRA-LIGAND FREE ENERGY PREDICTED BY IDOCK:   -0.20 KCAL/MOL
REMARK 927      BINDING AFFINITY PREDICTED BY RF-SCORE:    0.00 PKD
ROOT
HETATM    1  C   UNL     1     -14.369   7.942  71.529  1.00  0.00    -0.445 C  
HETATM    2  C   UNL     1     -13.777   9.348  71.651  1.00  0.00    -0.321 C  
HETATM    3  N   UNL     1     -12.510   9.188  72.417  1.00  0.00    -0.325 NA 
HETATM    4  C   UNL     1     -12.235   7.907  72.328  1.00  0.00    -0.287 C  
HETATM    5  N   UNL     1     -13.179   7.141  71.686  1.00  0.00    -0.378 NA 
ENDROOT
BRANCH   4   6
HETATM    6  C   UNL     1     -10.932   7.358  72.906  1.00  0.00    -0.408 C  
HETATM    7  C   UNL     1      -9.769   8.227  72.395  1.00  0.00    -0.373 C  
HETATM    8  C   UNL     1      -9.534   7.962  70.910  1.00  0.00    -0.167 C  
HETATM    9  C   UNL     1      -9.101   6.519  70.682  1.00  0.00    -0.148 C  
HETATM   10  C   UNL     1      -9.814   5.506  71.547  1.00  0.00    -0.221 A  
HETATM   11  C   UNL     1      -9.535   4.148  71.339  1.00  0.00    -0.229 A  
HETATM   12  C   UNL     1     -10.082   3.173  72.172  1.00  0.00    -0.200 A  
HETATM   13  C   UNL     1     -10.921   3.546  73.218  1.00  0.00    -0.271 A  
HETATM   14  C   UNL     1     -11.216   4.895  73.430  1.00  0.00    -0.415 A  
HETATM   15  C   UNL     1     -10.658   5.891  72.608  1.00  0.00    -0.255 A  
ENDBRANCH   4   6
TORSDOF 1
ENDMDL
MODEL       56
REMARK 921   NORMALIZED FREE ENERGY PREDICTED BY IDOCK:   -4.10 KCAL/MOL
REMARK 922        TOTAL FREE ENERGY PREDICTED BY IDOCK:   -4.59 KCAL/MOL
REMARK 923 INTER-LIGAND FREE ENERGY PREDICTED BY IDOCK:   -4.35 KCAL/MOL
REMARK 924 INTRA-LIGAND FREE ENERGY PREDICTED BY IDOCK:   -0.24 KCAL/MOL
REMARK 927      BINDING AFFINITY PREDICTED BY RF-SCORE:    0.00 PKD
ROOT
HETATM    1  C   UNL     1     -11.660  12.050  67.535  1.00  0.00    -0.330 C  
HETATM    2  C   UNL     1     -10.184  12.373  67.299  1.00  0.00    -0.215 C  
HETATM    3  N   UNL     1      -9.450  11.773  68.448  1.00  0.00    -0.195 NA 
HETATM    4  C   UNL     1     -10.295  10.907  68.958  1.00  0.00    -0.211 C  
HETATM    5  N   UNL     1     -11.544  10.888  68.382  1.00  0.00    -0.427 NA 
ENDROOT
BRANCH   4   6
HETATM    6  C   UNL     1      -9.865   9.999  70.108  1.00  0.00    -0.205 C  
HETATM    7  C   UNL     1      -8.627   9.202  69.660  1.00  0.00    -0.143 C  
HETATM    8  C   UNL     1      -9.028   8.153  68.626  1.00  0.00    -0.137 C  
HETATM    9  C   UNL     1      -9.977   7.129  69.238  1.00  0.00    -0.168 C  
HETATM   10  C   UNL     1     -10.997   7.710  70.190  1.00  0.00    -0.255 A  
HETATM   11  C   UNL     1     -11.962   6.848  70.730  1.00  0.00    -0.424 A  
HETATM   12  C   UNL     1     -12.864   7.301  71.691  1.00  0.00    -0.415 A  
HETATM   13  C   UNL     1     -12.816   8.626  72.116  1.00  0.00    -0.442 A  
HETATM   14  C   UNL     1     -11.866   9.498  71.579  1.00  0.00    -0.478 A  
HETATM   15  C   UNL     1     -10.939   9.050  70.622  1.00  0.00    -0.308 A  
ENDBRANCH   4   6
TORSDOF 1
ENDMDL
MODEL       57
REMARK 921   NORMALIZED FREE ENERGY PREDICTED BY IDOCK:   -4.08 KCAL/MOL
REMARK 922        TOTAL FREE ENERGY PREDICTED BY IDOCK:   -4.57 KCAL/MOL
REMARK 923 INTER-LIGAND FREE ENERGY PREDICTED BY IDOCK:   -4.39 KCAL/MOL
REMARK 924 INTRA-LIGAND FREE ENERGY PREDICTED BY IDOCK:   -0.18 KCAL/MOL
REMARK 927      BINDING AFFINITY PREDICTED BY RF-SCORE:    0.00 PKD
ROOT
HETATM    1  C   UNL     1     -11.424  15.201  67.460  1.00  0.00    -0.298 C  
HETATM    2  C   UNL     1     -10.595  15.351  66.183  1.00  0.00    -0.316 C  
HETATM    3  N   UNL     1     -10.298  13.964  65.728  1.00  0.00    -0.306 NA 
HETATM    4  C   UNL     1     -11.173  13.219  66.363  1.00  0.00    -0.302 C  
HETATM    5  N   UNL     1     -11.974  13.882  67.262  1.00  0.00    -0.408 NA 
ENDROOT
BRANCH   4   6
HETATM    6  C   UNL     1     -11.260  11.722  66.075  1.00  0.00    -0.352 C  
HETATM    7  C   UNL     1     -11.129  10.962  67.407  1.00  0.00    -0.373 C  
HETATM    8  C   UNL     1      -9.693  11.053  67.920  1.00  0.00    -0.183 C  
HETATM    9  C   UNL     1      -8.733  10.364  66.957  1.00  0.00    -0.132 C  
HETATM   10  C   UNL     1      -9.051  10.578  65.495  1.00  0.00    -0.214 A  
HETATM   11  C   UNL     1      -8.166  10.050  64.543  1.00  0.00    -0.164 A  
HETATM   12  C   UNL     1      -8.456  10.125  63.182  1.00  0.00    -0.182 A  
HETATM   13  C   UNL     1      -9.631  10.739  62.757  1.00  0.00    -0.337 A  
HETATM   14  C   UNL     1     -10.517  11.278  63.693  1.00  0.00    -0.464 A  
HETATM   15  C   UNL     1     -10.245  11.195  65.071  1.00  0.00    -0.354 A  
ENDBRANCH   4   6
TORSDOF 1
ENDMDL
MODEL       58
REMARK 921   NORMALIZED FREE ENERGY PREDICTED BY IDOCK:   -4.06 KCAL/MOL
REMARK 922        TOTAL FREE ENERGY PREDICTED BY IDOCK:   -4.55 KCAL/MOL
REMARK 923 INTER-LIGAND FREE ENERGY PREDICTED BY IDOCK:   -4.98 KCAL/MOL
REMARK 924 INTRA-LIGAND FREE ENERGY PREDICTED BY IDOCK:    0.43 KCAL/MOL
REMARK 927      BINDING AFFINITY PREDICTED BY RF-SCORE:    0.00 PKD
ROOT
HETATM    1  C   UNL     1      -7.787  12.398  67.798  1.00  0.00    -0.154 C  
HETATM    2  C   UNL     1      -7.856  13.915  67.989  1.00  0.00    -0.154 C  
HETATM    3  N   UNL     1      -9.301  14.267  67.911  1.00  0.00    -0.192 NA 
HETATM    4  C   UNL     1      -9.925  13.127  68.103  1.00  0.00    -0.234 C  
HETATM    5  N   UNL     1      -9.116  12.020  68.212  1.00  0.00    -0.193 NA 
ENDROOT
BRANCH   4   6
HETATM    6  C   UNL     1     -11.448  13.092  68.201  1.00  0.00    -0.349 C  
HETATM    7  C   UNL     1     -11.998  14.442  67.708  1.00  0.00    -0.368 C  
HETATM    8  C   UNL     1     -11.690  15.536  68.728  1.00  0.00    -0.372 C  
HETATM    9  C   UNL     1     -12.402  15.258  70.047  1.00  0.00    -0.366 C  
HETATM   10  C   UNL     1     -12.426  13.802  70.452  1.00  0.00    -0.384 A  
HETATM   11  C   UNL     1     -12.987  13.472  71.694  1.00  0.00    -0.447 A  
HETATM   12  C   UNL     1     -13.131  12.141  72.080  1.00  0.00    -0.462 A  
HETATM   13  C   UNL     1     -12.707  11.124  71.229  1.00  0.00    -0.531 A  
HETATM   14  C   UNL     1     -12.138  11.438  69.992  1.00  0.00    -0.417 A  
HETATM   15  C   UNL     1     -12.001  12.777  69.584  1.00  0.00    -0.354 A  
ENDBRANCH   4   6
TORSDOF 1
ENDMDL
MODEL       59
REMARK 921   NORMALIZED FREE ENERGY PREDICTED BY IDOCK:   -4.02 KCAL/MOL
REMARK 922        TOTAL FREE ENERGY PREDICTED BY IDOCK:   -4.51 KCAL/MOL
REMARK 923 INTER-LIGAND FREE ENERGY PREDICTED BY IDOCK:   -4.27 KCAL/MOL
REMARK 924 INTRA-LIGAND FREE ENERGY PREDICTED BY IDOCK:   -0.24 KCAL/MOL
REMARK 927      BINDING AFFINITY PREDICTED BY RF-SCORE:    0.00 PKD
ROOT
HETATM    1  C   UNL     1      -5.210  16.803  68.807  1.00  0.00    -0.120 C  
HETATM    2  C   UNL     1      -5.444  15.481  69.542  1.00  0.00    -0.106 C  
HETATM    3  N   UNL     1      -6.885  15.477  69.916  1.00  0.00    -0.140 NA 
HETATM    4  C   UNL     1      -7.426  16.390  69.142  1.00  0.00    -0.228 C  
HETATM    5  N   UNL     1      -6.548  17.090  68.350  1.00  0.00    -0.153 NA 
ENDROOT
BRANCH   4   6
HETATM    6  C   UNL     1      -8.937  16.611  69.154  1.00  0.00    -0.145 C  
HETATM    7  C   UNL     1      -9.625  15.277  68.812  1.00  0.00    -0.214 C  
HETATM    8  C   UNL     1      -9.415  14.945  67.337  1.00  0.00    -0.206 C  
HETATM    9  C   UNL     1     -10.080  15.991  66.449  1.00  0.00    -0.314 C  
HETATM   10  C   UNL     1      -9.953  17.410  66.951  1.00  0.00    -0.300 A  
HETATM   11  C   UNL     1     -10.463  18.442  66.148  1.00  0.00    -0.422 A  
HETATM   12  C   UNL     1     -10.469  19.760  66.601  1.00  0.00    -0.615 A  
HETATM   13  C   UNL     1      -9.956  20.062  67.860  1.00  0.00    -0.558 A  
HETATM   14  C   UNL     1      -9.436  19.046  68.666  1.00  0.00    -0.457 A  
HETATM   15  C   UNL     1      -9.439  17.710  68.228  1.00  0.00    -0.295 A  
ENDBRANCH   4   6
TORSDOF 1
ENDMDL
MODEL       60
REMARK 921   NORMALIZED FREE ENERGY PREDICTED BY IDOCK:   -4.02 KCAL/MOL
REMARK 922        TOTAL FREE ENERGY PREDICTED BY IDOCK:   -4.51 KCAL/MOL
REMARK 923 INTER-LIGAND FREE ENERGY PREDICTED BY IDOCK:   -4.32 KCAL/MOL
REMARK 924 INTRA-LIGAND FREE ENERGY PREDICTED BY IDOCK:   -0.19 KCAL/MOL
REMARK 927      BINDING AFFINITY PREDICTED BY RF-SCORE:    0.00 PKD
ROOT
HETATM    1  C   UNL     1      -8.500   4.790  71.984  1.00  0.00    -0.119 C  
HETATM    2  C   UNL     1      -8.705   5.925  72.989  1.00  0.00    -0.123 C  
HETATM    3  N   UNL     1      -9.645   6.878  72.336  1.00  0.00    -0.153 NA 
HETATM    4  C   UNL     1     -10.198   6.181  71.371  1.00  0.00    -0.205 C  
HETATM    5  N   UNL     1      -9.708   4.907  71.205  1.00  0.00    -0.169 NA 
ENDROOT
BRANCH   4   6
HETATM    6  C   UNL     1     -11.315   6.790  70.525  1.00  0.00    -0.394 C  
HETATM    7  C   UNL     1     -10.800   6.950  69.084  1.00  0.00    -0.262 C  
HETATM    8  C   UNL     1      -9.772   8.076  69.018  1.00  0.00    -0.159 C  
HETATM    9  C   UNL     1     -10.412   9.412  69.377  1.00  0.00    -0.231 C  
HETATM   10  C   UNL     1     -11.417   9.342  70.504  1.00  0.00    -0.317 A  
HETATM   11  C   UNL     1     -11.989  10.542  70.953  1.00  0.00    -0.481 A  
HETATM   12  C   UNL     1     -12.996  10.534  71.917  1.00  0.00    -0.553 A  
HETATM   13  C   UNL     1     -13.436   9.325  72.449  1.00  0.00    -0.526 A  
HETATM   14  C   UNL     1     -12.869   8.123  72.018  1.00  0.00    -0.346 A  
HETATM   15  C   UNL     1     -11.864   8.115  71.034  1.00  0.00    -0.279 A  
ENDBRANCH   4   6
TORSDOF 1
ENDMDL
MODEL       61
REMARK 921   NORMALIZED FREE ENERGY PREDICTED BY IDOCK:   -4.00 KCAL/MOL
REMARK 922        TOTAL FREE ENERGY PREDICTED BY IDOCK:   -4.49 KCAL/MOL
REMARK 923 INTER-LIGAND FREE ENERGY PREDICTED BY IDOCK:   -4.30 KCAL/MOL
REMARK 924 INTRA-LIGAND FREE ENERGY PREDICTED BY IDOCK:   -0.19 KCAL/MOL
REMARK 927      BINDING AFFINITY PREDICTED BY RF-SCORE:    0.00 PKD
ROOT
HETATM    1  C   UNL     1      -8.038   6.752  72.440  1.00  0.00    -0.102 C  
HETATM    2  C   UNL     1      -8.348   8.039  73.206  1.00  0.00    -0.211 C  
HETATM    3  N   UNL     1      -9.341   8.775  72.375  1.00  0.00    -0.351 NA 
HETATM    4  C   UNL     1      -9.821   7.865  71.559  1.00  0.00    -0.165 C  
HETATM    5  N   UNL     1      -9.235   6.624  71.645  1.00  0.00    -0.146 NA 
ENDROOT
BRANCH   4   6
HETATM    6  C   UNL     1     -10.962   8.212  70.605  1.00  0.00    -0.255 C  
HETATM    7  C   UNL     1     -10.439   8.098  69.162  1.00  0.00    -0.217 C  
HETATM    8  C   UNL     1      -9.480   9.248  68.861  1.00  0.00    -0.154 C  
HETATM    9  C   UNL     1     -10.206  10.587  68.932  1.00  0.00    -0.223 C  
HETATM   10  C   UNL     1     -11.219  10.692  70.048  1.00  0.00    -0.382 A  
HETATM   11  C   UNL     1     -11.868  11.921  70.236  1.00  0.00    -0.368 A  
HETATM   12  C   UNL     1     -12.885  12.052  71.180  1.00  0.00    -0.331 A  
HETATM   13  C   UNL     1     -13.258  10.957  71.954  1.00  0.00    -0.508 A  
HETATM   14  C   UNL     1     -12.613   9.729  71.785  1.00  0.00    -0.506 A  
HETATM   15  C   UNL     1     -11.597   9.578  70.824  1.00  0.00    -0.378 A  
ENDBRANCH   4   6
TORSDOF 1
ENDMDL
MODEL       62
REMARK 921   NORMALIZED FREE ENERGY PREDICTED BY IDOCK:   -3.96 KCAL/MOL
REMARK 922        TOTAL FREE ENERGY PREDICTED BY IDOCK:   -4.44 KCAL/MOL
REMARK 923 INTER-LIGAND FREE ENERGY PREDICTED BY IDOCK:   -4.21 KCAL/MOL
REMARK 924 INTRA-LIGAND FREE ENERGY PREDICTED BY IDOCK:   -0.23 KCAL/MOL
REMARK 927      BINDING AFFINITY PREDICTED BY RF-SCORE:    0.00 PKD
ROOT
HETATM    1  C   UNL     1     -11.888  11.881  67.399  1.00  0.00    -0.168 C  
HETATM    2  C   UNL     1     -11.013  11.735  66.153  1.00  0.00    -0.307 C  
HETATM    3  N   UNL     1      -9.896  10.832  66.547  1.00  0.00    -0.196 NA 
HETATM    4  C   UNL     1     -10.326  10.239  67.637  1.00  0.00    -0.220 C  
HETATM    5  N   UNL     1     -11.544  10.671  68.105  1.00  0.00    -0.456 NA 
ENDROOT
BRANCH   4   6
HETATM    6  C   UNL     1      -9.492   9.141  68.294  1.00  0.00    -0.152 C  
HETATM    7  C   UNL     1      -9.200   8.057  67.241  1.00  0.00    -0.164 C  
HETATM    8  C   UNL     1     -10.473   7.275  66.929  1.00  0.00    -0.369 C  
HETATM    9  C   UNL     1     -10.963   6.528  68.164  1.00  0.00    -0.365 C  
HETATM   10  C   UNL     1     -10.819   7.294  69.458  1.00  0.00    -0.224 A  
HETATM   11  C   UNL     1     -11.325   6.712  70.630  1.00  0.00    -0.401 A  
HETATM   12  C   UNL     1     -11.133   7.321  71.868  1.00  0.00    -0.270 A  
HETATM   13  C   UNL     1     -10.441   8.526  71.947  1.00  0.00    -0.387 A  
HETATM   14  C   UNL     1      -9.940   9.123  70.788  1.00  0.00    -0.334 A  
HETATM   15  C   UNL     1     -10.112   8.511  69.533  1.00  0.00    -0.200 A  
ENDBRANCH   4   6
TORSDOF 1
ENDMDL
MODEL       63
REMARK 921   NORMALIZED FREE ENERGY PREDICTED BY IDOCK:   -3.91 KCAL/MOL
REMARK 922        TOTAL FREE ENERGY PREDICTED BY IDOCK:   -4.40 KCAL/MOL
REMARK 923 INTER-LIGAND FREE ENERGY PREDICTED BY IDOCK:   -4.22 KCAL/MOL
REMARK 924 INTRA-LIGAND FREE ENERGY PREDICTED BY IDOCK:   -0.18 KCAL/MOL
REMARK 927      BINDING AFFINITY PREDICTED BY RF-SCORE:    0.00 PKD
ROOT
HETATM    1  C   UNL     1     -14.284   7.535  71.675  1.00  0.00    -0.458 C  
HETATM    2  C   UNL     1     -13.888   8.952  72.093  1.00  0.00    -0.473 C  
HETATM    3  N   UNL     1     -12.430   8.892  72.392  1.00  0.00    -0.364 NA 
HETATM    4  C   UNL     1     -12.024   7.787  71.812  1.00  0.00    -0.296 C  
HETATM    5  N   UNL     1     -13.010   7.025  71.231  1.00  0.00    -0.355 NA 
ENDROOT
BRANCH   4   6
HETATM    6  C   UNL     1     -10.540   7.424  71.802  1.00  0.00    -0.228 C  
HETATM    7  C   UNL     1      -9.860   8.189  70.654  1.00  0.00    -0.196 C  
HETATM    8  C   UNL     1     -10.287   7.602  69.310  1.00  0.00    -0.218 C  
HETATM    9  C   UNL     1      -9.815   6.159  69.179  1.00  0.00    -0.176 C  
HETATM   10  C   UNL     1      -9.920   5.347  70.450  1.00  0.00    -0.291 A  
HETATM   11  C   UNL     1      -9.587   3.986  70.392  1.00  0.00    -0.265 A  
HETATM   12  C   UNL     1      -9.564   3.209  71.549  1.00  0.00    -0.227 A  
HETATM   13  C   UNL     1      -9.884   3.784  72.776  1.00  0.00    -0.202 A  
HETATM   14  C   UNL     1     -10.227   5.136  72.847  1.00  0.00    -0.220 A  
HETATM   15  C   UNL     1     -10.237   5.936  71.690  1.00  0.00    -0.249 A  
ENDBRANCH   4   6
TORSDOF 1
ENDMDL
MODEL       64
REMARK 921   NORMALIZED FREE ENERGY PREDICTED BY IDOCK:   -3.89 KCAL/MOL
REMARK 922        TOTAL FREE ENERGY PREDICTED BY IDOCK:   -4.37 KCAL/MOL
REMARK 923 INTER-LIGAND FREE ENERGY PREDICTED BY IDOCK:   -4.18 KCAL/MOL
REMARK 924 INTRA-LIGAND FREE ENERGY PREDICTED BY IDOCK:   -0.20 KCAL/MOL
REMARK 927      BINDING AFFINITY PREDICTED BY RF-SCORE:    0.00 PKD
ROOT
HETATM    1  C   UNL     1     -11.721  12.699  63.600  1.00  0.00    -0.522 C  
HETATM    2  C   UNL     1     -12.532  13.673  64.457  1.00  0.00    -0.287 C  
HETATM    3  N   UNL     1     -12.586  13.066  65.816  1.00  0.00    -0.504 NA 
HETATM    4  C   UNL     1     -11.617  12.180  65.816  1.00  0.00    -0.355 C  
HETATM    5  N   UNL     1     -10.958  12.022  64.620  1.00  0.00    -0.305 NA 
ENDROOT
BRANCH   4   6
HETATM    6  C   UNL     1     -11.279  11.410  67.092  1.00  0.00    -0.363 C  
HETATM    7  C   UNL     1     -11.131  12.420  68.243  1.00  0.00    -0.283 C  
HETATM    8  C   UNL     1      -9.845  13.225  68.068  1.00  0.00    -0.230 C  
HETATM    9  C   UNL     1      -8.624  12.317  68.158  1.00  0.00    -0.181 C  
HETATM   10  C   UNL     1      -8.795  10.971  67.491  1.00  0.00    -0.131 A  
HETATM   11  C   UNL     1      -7.689  10.109  67.453  1.00  0.00    -0.095 A  
HETATM   12  C   UNL     1      -7.810   8.817  66.945  1.00  0.00    -0.101 A  
HETATM   13  C   UNL     1      -9.039   8.376  66.460  1.00  0.00    -0.217 A  
HETATM   14  C   UNL     1     -10.146   9.227  66.482  1.00  0.00    -0.343 A  
HETATM   15  C   UNL     1     -10.042  10.528  67.008  1.00  0.00    -0.259 A  
ENDBRANCH   4   6
TORSDOF 1
ENDMDL
MODEL       65
REMARK 921   NORMALIZED FREE ENERGY PREDICTED BY IDOCK:   -3.87 KCAL/MOL
REMARK 922        TOTAL FREE ENERGY PREDICTED BY IDOCK:   -4.35 KCAL/MOL
REMARK 923 INTER-LIGAND FREE ENERGY PREDICTED BY IDOCK:   -4.21 KCAL/MOL
REMARK 924 INTRA-LIGAND FREE ENERGY PREDICTED BY IDOCK:   -0.14 KCAL/MOL
REMARK 927      BINDING AFFINITY PREDICTED BY RF-SCORE:    0.00 PKD
ROOT
HETATM    1  C   UNL     1      -9.390  17.455  68.765  1.00  0.00    -0.244 C  
HETATM    2  C   UNL     1      -8.711  16.176  69.261  1.00  0.00    -0.190 C  
HETATM    3  N   UNL     1      -9.816  15.235  69.595  1.00  0.00    -0.244 NA 
HETATM    4  C   UNL     1     -10.863  15.728  68.974  1.00  0.00    -0.248 C  
HETATM    5  N   UNL     1     -10.660  16.927  68.332  1.00  0.00    -0.347 NA 
ENDROOT
BRANCH   4   6
HETATM    6  C   UNL     1     -12.190  14.973  68.987  1.00  0.00    -0.160 C  
HETATM    7  C   UNL     1     -13.132  15.664  69.989  1.00  0.00     0.345 C  
HETATM    8  C   UNL     1     -12.660  15.399  71.417  1.00  0.00    -0.471 C  
HETATM    9  C   UNL     1     -12.734  13.912  71.741  1.00  0.00    -0.393 C  
HETATM   10  C   UNL     1     -12.324  13.002  70.606  1.00  0.00    -0.391 A  
HETATM   11  C   UNL     1     -12.281  11.621  70.850  1.00  0.00    -0.401 A  
HETATM   12  C   UNL     1     -12.011  10.724  69.818  1.00  0.00    -0.397 A  
HETATM   13  C   UNL     1     -11.771  11.200  68.532  1.00  0.00    -0.368 A  
HETATM   14  C   UNL     1     -11.800  12.573  68.277  1.00  0.00    -0.361 A  
HETATM   15  C   UNL     1     -12.089  13.488  69.304  1.00  0.00    -0.335 A  
ENDBRANCH   4   6
TORSDOF 1
ENDMDL
MODEL       66
REMARK 921   NORMALIZED FREE ENERGY PREDICTED BY IDOCK:   -3.86 KCAL/MOL
REMARK 922        TOTAL FREE ENERGY PREDICTED BY IDOCK:   -4.34 KCAL/MOL
REMARK 923 INTER-LIGAND FREE ENERGY PREDICTED BY IDOCK:   -4.23 KCAL/MOL
REMARK 924 INTRA-LIGAND FREE ENERGY PREDICTED BY IDOCK:   -0.11 KCAL/MOL
REMARK 927      BINDING AFFINITY PREDICTED BY RF-SCORE:    0.00 PKD
ROOT
HETATM    1  C   UNL     1      -7.057  12.297  68.119  1.00  0.00    -0.091 C  
HETATM    2  C   UNL     1      -7.733  13.522  67.500  1.00  0.00    -0.175 C  
HETATM    3  N   UNL     1      -9.125  13.099  67.182  1.00  0.00    -0.222 NA 
HETATM    4  C   UNL     1      -9.308  12.016  67.901  1.00  0.00    -0.190 C  
HETATM    5  N   UNL     1      -8.210  11.577  68.602  1.00  0.00    -0.146 NA 
ENDROOT
BRANCH   4   6
HETATM    6  C   UNL     1     -10.675  11.334  67.929  1.00  0.00    -0.250 C  
HETATM    7  C   UNL     1     -11.761  12.424  67.967  1.00  0.00    -0.414 C  
HETATM    8  C   UNL     1     -11.772  13.102  69.335  1.00  0.00    -0.386 C  
HETATM    9  C   UNL     1     -12.150  12.107  70.426  1.00  0.00    -0.395 C  
HETATM   10  C   UNL     1     -11.558  10.728  70.248  1.00  0.00    -0.427 A  
HETATM   11  C   UNL     1     -11.787   9.777  71.254  1.00  0.00    -0.481 A  
HETATM   12  C   UNL     1     -11.356   8.460  71.101  1.00  0.00    -0.310 A  
HETATM   13  C   UNL     1     -10.683   8.082  69.942  1.00  0.00    -0.242 A  
HETATM   14  C   UNL     1     -10.440   9.021  68.936  1.00  0.00    -0.231 A  
HETATM   15  C   UNL     1     -10.884  10.348  69.070  1.00  0.00    -0.273 A  
ENDBRANCH   4   6
TORSDOF 1
ENDMDL
MODEL       67
REMARK 921   NORMALIZED FREE ENERGY PREDICTED BY IDOCK:   -3.84 KCAL/MOL
REMARK 922        TOTAL FREE ENERGY PREDICTED BY IDOCK:   -4.32 KCAL/MOL
REMARK 923 INTER-LIGAND FREE ENERGY PREDICTED BY IDOCK:   -4.13 KCAL/MOL
REMARK 924 INTRA-LIGAND FREE ENERGY PREDICTED BY IDOCK:   -0.19 KCAL/MOL
REMARK 927      BINDING AFFINITY PREDICTED BY RF-SCORE:    0.00 PKD
ROOT
HETATM    1  C   UNL     1     -12.625  13.629  64.840  1.00  0.00    -0.336 C  
HETATM    2  C   UNL     1     -11.195  14.052  64.498  1.00  0.00    -0.350 C  
HETATM    3  N   UNL     1     -10.504  14.233  65.805  1.00  0.00    -0.302 NA 
HETATM    4  C   UNL     1     -11.262  13.594  66.666  1.00  0.00    -0.313 C  
HETATM    5  N   UNL     1     -12.428  13.073  66.156  1.00  0.00    -0.447 NA 
ENDROOT
BRANCH   4   6
HETATM    6  C   UNL     1     -10.825  13.458  68.123  1.00  0.00    -0.273 C  
HETATM    7  C   UNL     1     -11.870  14.157  69.011  1.00  0.00    -0.384 C  
HETATM    8  C   UNL     1     -11.769  15.671  68.841  1.00  0.00    -0.396 C  
HETATM    9  C   UNL     1     -10.414  16.178  69.323  1.00  0.00    -0.267 C  
HETATM   10  C   UNL     1      -9.250  15.278  68.978  1.00  0.00    -0.223 A  
HETATM   11  C   UNL     1      -7.959  15.714  69.309  1.00  0.00    -0.237 A  
HETATM   12  C   UNL     1      -6.855  14.887  69.110  1.00  0.00    -0.132 A  
HETATM   13  C   UNL     1      -7.030  13.617  68.568  1.00  0.00    -0.104 A  
HETATM   14  C   UNL     1      -8.309  13.173  68.224  1.00  0.00    -0.152 A  
HETATM   15  C   UNL     1      -9.434  13.991  68.435  1.00  0.00    -0.213 A  
ENDBRANCH   4   6
TORSDOF 1
ENDMDL
MODEL       68
REMARK 921   NORMALIZED FREE ENERGY PREDICTED BY IDOCK:   -3.81 KCAL/MOL
REMARK 922        TOTAL FREE ENERGY PREDICTED BY IDOCK:   -4.29 KCAL/MOL
REMARK 923 INTER-LIGAND FREE ENERGY PREDICTED BY IDOCK:   -4.12 KCAL/MOL
REMARK 924 INTRA-LIGAND FREE ENERGY PREDICTED BY IDOCK:   -0.17 KCAL/MOL
REMARK 927      BINDING AFFINITY PREDICTED BY RF-SCORE:    0.00 PKD
ROOT
HETATM    1  C   UNL     1     -13.195  12.661  72.178  1.00  0.00    -0.421 C  
HETATM    2  C   UNL     1     -12.630  13.493  71.025  1.00  0.00    -0.359 C  
HETATM    3  N   UNL     1     -11.928  12.527  70.135  1.00  0.00    -0.343 NA 
HETATM    4  C   UNL     1     -12.407  11.355  70.485  1.00  0.00    -0.349 C  
HETATM    5  N   UNL     1     -13.273  11.363  71.553  1.00  0.00    -0.319 NA 
ENDROOT
BRANCH   4   6
HETATM    6  C   UNL     1     -12.004  10.099  69.715  1.00  0.00    -0.106 C  
HETATM    7  C   UNL     1     -11.547   9.034  70.728  1.00  0.00    -0.313 C  
HETATM    8  C   UNL     1     -10.198   9.427  71.324  1.00  0.00    -0.340 C  
HETATM    9  C   UNL     1      -9.121   9.458  70.246  1.00  0.00    -0.283 C  
HETATM   10  C   UNL     1      -9.578  10.022  68.920  1.00  0.00    -0.181 A  
HETATM   11  C   UNL     1      -8.625  10.166  67.901  1.00  0.00    -0.118 A  
HETATM   12  C   UNL     1      -9.003  10.583  66.626  1.00  0.00    -0.155 A  
HETATM   13  C   UNL     1     -10.339  10.870  66.360  1.00  0.00    -0.306 A  
HETATM   14  C   UNL     1     -11.297  10.741  67.368  1.00  0.00    -0.239 A  
HETATM   15  C   UNL     1     -10.932  10.305  68.654  1.00  0.00    -0.289 A  
ENDBRANCH   4   6
TORSDOF 1
ENDMDL
MODEL       69
REMARK 921   NORMALIZED FREE ENERGY PREDICTED BY IDOCK:   -3.81 KCAL/MOL
REMARK 922        TOTAL FREE ENERGY PREDICTED BY IDOCK:   -4.29 KCAL/MOL
REMARK 923 INTER-LIGAND FREE ENERGY PREDICTED BY IDOCK:   -4.74 KCAL/MOL
REMARK 924 INTRA-LIGAND FREE ENERGY PREDICTED BY IDOCK:    0.45 KCAL/MOL
REMARK 927      BINDING AFFINITY PREDICTED BY RF-SCORE:    0.00 PKD
ROOT
HETATM    1  C   UNL     1      -9.729   9.863  65.461  1.00  0.00    -0.302 C  
HETATM    2  C   UNL     1     -10.029  10.492  64.099  1.00  0.00    -0.318 C  
HETATM    3  N   UNL     1     -10.935  11.641  64.375  1.00  0.00    -0.333 NA 
HETATM    4  C   UNL     1     -10.787  11.872  65.659  1.00  0.00    -0.286 C  
HETATM    5  N   UNL     1      -9.976  10.988  66.330  1.00  0.00    -0.214 NA 
ENDROOT
BRANCH   4   6
HETATM    6  C   UNL     1     -11.485  13.064  66.311  1.00  0.00    -0.379 C  
HETATM    7  C   UNL     1     -12.628  13.522  65.388  1.00  0.00    -0.531 C  
HETATM    8  C   UNL     1     -12.056  14.196  64.143  1.00  0.00    -0.437 C  
HETATM    9  C   UNL     1     -11.296  15.463  64.517  1.00  0.00    -0.321 C  
HETATM   10  C   UNL     1     -10.481  15.354  65.785  1.00  0.00    -0.371 A  
HETATM   11  C   UNL     1      -9.684  16.447  66.154  1.00  0.00    -0.355 A  
HETATM   12  C   UNL     1      -8.990  16.448  67.362  1.00  0.00    -0.200 A  
HETATM   13  C   UNL     1      -9.079  15.349  68.212  1.00  0.00    -0.187 A  
HETATM   14  C   UNL     1      -9.861  14.248  67.853  1.00  0.00    -0.226 A  
HETATM   15  C   UNL     1     -10.580  14.241  66.645  1.00  0.00    -0.278 A  
ENDBRANCH   4   6
TORSDOF 1
ENDMDL
MODEL       70
REMARK 921   NORMALIZED FREE ENERGY PREDICTED BY IDOCK:   -3.79 KCAL/MOL
REMARK 922        TOTAL FREE ENERGY PREDICTED BY IDOCK:   -4.27 KCAL/MOL
REMARK 923 INTER-LIGAND FREE ENERGY PREDICTED BY IDOCK:   -4.23 KCAL/MOL
REMARK 924 INTRA-LIGAND FREE ENERGY PREDICTED BY IDOCK:   -0.04 KCAL/MOL
REMARK 927      BINDING AFFINITY PREDICTED BY RF-SCORE:    0.00 PKD
ROOT
HETATM    1  C   UNL     1     -12.373  16.064  72.527  1.00  0.00    -0.496 C  
HETATM    2  C   UNL     1     -13.576  15.318  71.948  1.00  0.00    -0.475 C  
HETATM    3  N   UNL     1     -13.381  15.320  70.471  1.00  0.00    -0.248 NA 
HETATM    4  C   UNL     1     -12.108  15.601  70.312  1.00  0.00    -0.385 C  
HETATM    5  N   UNL     1     -11.414  15.883  71.465  1.00  0.00    -0.422 NA 
ENDROOT
BRANCH   4   6
HETATM    6  C   UNL     1     -11.488  15.589  68.916  1.00  0.00    -0.362 C  
HETATM    7  C   UNL     1     -12.193  14.506  68.080  1.00  0.00    -0.127 C  
HETATM    8  C   UNL     1     -11.779  13.120  68.567  1.00  0.00    -0.387 C  
HETATM    9  C   UNL     1     -10.286  12.897  68.355  1.00  0.00    -0.249 C  
HETATM   10  C   UNL     1      -9.426  14.107  68.636  1.00  0.00    -0.163 A  
HETATM   11  C   UNL     1      -8.034  13.962  68.548  1.00  0.00    -0.137 A  
HETATM   12  C   UNL     1      -7.192  15.063  68.695  1.00  0.00    -0.115 A  
HETATM   13  C   UNL     1      -7.734  16.321  68.941  1.00  0.00    -0.219 A  
HETATM   14  C   UNL     1      -9.119  16.479  69.041  1.00  0.00    -0.229 A  
HETATM   15  C   UNL     1      -9.981  15.380  68.878  1.00  0.00    -0.219 A  
ENDBRANCH   4   6
TORSDOF 1
ENDMDL
MODEL       71
REMARK 921   NORMALIZED FREE ENERGY PREDICTED BY IDOCK:   -3.77 KCAL/MOL
REMARK 922        TOTAL FREE ENERGY PREDICTED BY IDOCK:   -4.25 KCAL/MOL
REMARK 923 INTER-LIGAND FREE ENERGY PREDICTED BY IDOCK:   -3.99 KCAL/MOL
REMARK 924 INTRA-LIGAND FREE ENERGY PREDICTED BY IDOCK:   -0.25 KCAL/MOL
REMARK 927      BINDING AFFINITY PREDICTED BY RF-SCORE:    0.00 PKD
ROOT
HETATM    1  C   UNL     1      -6.422  10.560  65.622  1.00  0.00    -0.119 C  
HETATM    2  C   UNL     1      -6.704  10.133  64.180  1.00  0.00    -0.107 C  
HETATM    3  N   UNL     1      -8.154   9.795  64.136  1.00  0.00    -0.143 NA 
HETATM    4  C   UNL     1      -8.654  10.362  65.209  1.00  0.00    -0.176 C  
HETATM    5  N   UNL     1      -7.741  10.969  66.039  1.00  0.00    -0.107 NA 
ENDROOT
BRANCH   4   6
HETATM    6  C   UNL     1     -10.160  10.331  65.465  1.00  0.00    -0.351 C  
HETATM    7  C   UNL     1     -10.853  11.189  64.391  1.00  0.00    -0.340 C  
HETATM    8  C   UNL     1     -10.570  12.668  64.643  1.00  0.00    -0.357 C  
HETATM    9  C   UNL     1     -11.167  13.112  65.974  1.00  0.00    -0.316 C  
HETATM   10  C   UNL     1     -11.042  12.096  67.086  1.00  0.00    -0.345 A  
HETATM   11  C   UNL     1     -11.489  12.460  68.365  1.00  0.00    -0.356 A  
HETATM   12  C   UNL     1     -11.495  11.535  69.407  1.00  0.00    -0.376 A  
HETATM   13  C   UNL     1     -11.045  10.237  69.184  1.00  0.00    -0.283 A  
HETATM   14  C   UNL     1     -10.587   9.864  67.918  1.00  0.00    -0.303 A  
HETATM   15  C   UNL     1     -10.591  10.782  66.853  1.00  0.00    -0.312 A  
ENDBRANCH   4   6
TORSDOF 1
ENDMDL
MODEL       72
REMARK 921   NORMALIZED FREE ENERGY PREDICTED BY IDOCK:   -3.77 KCAL/MOL
REMARK 922        TOTAL FREE ENERGY PREDICTED BY IDOCK:   -4.24 KCAL/MOL
REMARK 923 INTER-LIGAND FREE ENERGY PREDICTED BY IDOCK:   -4.59 KCAL/MOL
REMARK 924 INTRA-LIGAND FREE ENERGY PREDICTED BY IDOCK:    0.34 KCAL/MOL
REMARK 927      BINDING AFFINITY PREDICTED BY RF-SCORE:    0.00 PKD
ROOT
HETATM    1  C   UNL     1     -12.319  13.470  70.212  1.00  0.00    -0.300 C  
HETATM    2  C   UNL     1     -11.684  12.082  70.319  1.00  0.00    -0.179 C  
HETATM    3  N   UNL     1     -10.945  11.876  69.044  1.00  0.00    -0.228 NA 
HETATM    4  C   UNL     1     -10.818  13.082  68.542  1.00  0.00    -0.258 C  
HETATM    5  N   UNL     1     -11.444  14.085  69.244  1.00  0.00    -0.278 NA 
ENDROOT
BRANCH   4   6
HETATM    6  C   UNL     1     -10.007  13.303  67.266  1.00  0.00    -0.231 C  
HETATM    7  C   UNL     1      -9.263  14.644  67.390  1.00  0.00    -0.201 C  
HETATM    8  C   UNL     1     -10.252  15.802  67.282  1.00  0.00    -0.268 C  
HETATM    9  C   UNL     1     -10.910  15.822  65.907  1.00  0.00    -0.272 C  
HETATM   10  C   UNL     1     -11.249  14.457  65.355  1.00  0.00    -0.335 A  
HETATM   11  C   UNL     1     -11.935  14.391  64.133  1.00  0.00    -0.373 A  
HETATM   12  C   UNL     1     -12.186  13.164  63.522  1.00  0.00    -0.552 A  
HETATM   13  C   UNL     1     -11.761  11.987  64.133  1.00  0.00    -0.457 A  
HETATM   14  C   UNL     1     -11.085  12.037  65.355  1.00  0.00    -0.369 A  
HETATM   15  C   UNL     1     -10.811  13.269  65.974  1.00  0.00    -0.284 A  
ENDBRANCH   4   6
TORSDOF 1
ENDMDL
MODEL       73
REMARK 921   NORMALIZED FREE ENERGY PREDICTED BY IDOCK:   -3.77 KCAL/MOL
REMARK 922        TOTAL FREE ENERGY PREDICTED BY IDOCK:   -4.24 KCAL/MOL
REMARK 923 INTER-LIGAND FREE ENERGY PREDICTED BY IDOCK:   -4.04 KCAL/MOL
REMARK 924 INTRA-LIGAND FREE ENERGY PREDICTED BY IDOCK:   -0.20 KCAL/MOL
REMARK 927      BINDING AFFINITY PREDICTED BY RF-SCORE:    0.00 PKD
ROOT
HETATM    1  C   UNL     1      -7.590  11.469  68.423  1.00  0.00    -0.125 C  
HETATM    2  C   UNL     1      -7.790  10.888  67.022  1.00  0.00    -0.132 C  
HETATM    3  N   UNL     1      -9.076  11.455  66.529  1.00  0.00    -0.180 NA 
HETATM    4  C   UNL     1      -9.297  12.488  67.309  1.00  0.00    -0.190 C  
HETATM    5  N   UNL     1      -8.393  12.664  68.330  1.00  0.00    -0.170 NA 
ENDROOT
BRANCH   4   6
HETATM    6  C   UNL     1     -10.488  13.408  67.048  1.00  0.00    -0.257 C  
HETATM    7  C   UNL     1     -10.119  14.367  65.903  1.00  0.00    -0.344 C  
HETATM    8  C   UNL     1      -9.094  15.389  66.389  1.00  0.00    -0.350 C  
HETATM    9  C   UNL     1      -9.686  16.266  67.486  1.00  0.00    -0.234 C  
HETATM   10  C   UNL     1     -10.574  15.532  68.464  1.00  0.00    -0.246 A  
HETATM   11  C   UNL     1     -11.089  16.249  69.554  1.00  0.00    -0.330 A  
HETATM   12  C   UNL     1     -11.994  15.657  70.432  1.00  0.00    -0.405 A  
HETATM   13  C   UNL     1     -12.388  14.337  70.234  1.00  0.00    -0.418 A  
HETATM   14  C   UNL     1     -11.876  13.607  69.159  1.00  0.00    -0.394 A  
HETATM   15  C   UNL     1     -10.974  14.197  68.255  1.00  0.00    -0.266 A  
ENDBRANCH   4   6
TORSDOF 1
ENDMDL
MODEL       74
REMARK 921   NORMALIZED FREE ENERGY PREDICTED BY IDOCK:   -3.76 KCAL/MOL
REMARK 922        TOTAL FREE ENERGY PREDICTED BY IDOCK:   -4.23 KCAL/MOL
REMARK 923 INTER-LIGAND FREE ENERGY PREDICTED BY IDOCK:   -4.50 KCAL/MOL
REMARK 924 INTRA-LIGAND FREE ENERGY PREDICTED BY IDOCK:    0.26 KCAL/MOL
REMARK 927      BINDING AFFINITY PREDICTED BY RF-SCORE:    0.00 PKD
ROOT
HETATM    1  C   UNL     1     -13.520  12.719  72.322  1.00  0.00    -0.490 C  
HETATM    2  C   UNL     1     -12.822  13.374  71.128  1.00  0.00    -0.291 C  
HETATM    3  N   UNL     1     -12.003  12.301  70.500  1.00  0.00    -0.292 NA 
HETATM    4  C   UNL     1     -12.510  11.186  70.972  1.00  0.00    -0.403 C  
HETATM    5  N   UNL     1     -13.505  11.337  71.909  1.00  0.00    -0.290 NA 
ENDROOT
BRANCH   4   6
HETATM    6  C   UNL     1     -11.999   9.836  70.471  1.00  0.00    -0.282 C  
HETATM    7  C   UNL     1     -12.765   8.723  71.207  1.00  0.00    -0.267 C  
HETATM    8  C   UNL     1     -12.314   8.655  72.664  1.00  0.00    -0.282 C  
HETATM    9  C   UNL     1     -10.841   8.271  72.754  1.00  0.00    -0.308 C  
HETATM   10  C   UNL     1      -9.964   8.901  71.698  1.00  0.00    -0.397 A  
HETATM   11  C   UNL     1      -8.582   8.667  71.762  1.00  0.00    -0.240 A  
HETATM   12  C   UNL     1      -7.733   9.134  70.761  1.00  0.00    -0.162 A  
HETATM   13  C   UNL     1      -8.256   9.849  69.687  1.00  0.00    -0.178 A  
HETATM   14  C   UNL     1      -9.629  10.098  69.615  1.00  0.00    -0.237 A  
HETATM   15  C   UNL     1     -10.499   9.618  70.610  1.00  0.00    -0.379 A  
ENDBRANCH   4   6
TORSDOF 1
ENDMDL
MODEL       75
REMARK 921   NORMALIZED FREE ENERGY PREDICTED BY IDOCK:   -3.73 KCAL/MOL
REMARK 922        TOTAL FREE ENERGY PREDICTED BY IDOCK:   -4.21 KCAL/MOL
REMARK 923 INTER-LIGAND FREE ENERGY PREDICTED BY IDOCK:   -4.55 KCAL/MOL
REMARK 924 INTRA-LIGAND FREE ENERGY PREDICTED BY IDOCK:    0.35 KCAL/MOL
REMARK 927      BINDING AFFINITY PREDICTED BY RF-SCORE:    0.00 PKD
ROOT
HETATM    1  C   UNL     1     -10.313   8.019  70.515  1.00  0.00    -0.202 C  
HETATM    2  C   UNL     1      -9.259   9.127  70.560  1.00  0.00    -0.241 C  
HETATM    3  N   UNL     1      -9.896  10.316  69.929  1.00  0.00    -0.174 NA 
HETATM    4  C   UNL     1     -11.182  10.050  69.958  1.00  0.00    -0.288 C  
HETATM    5  N   UNL     1     -11.519   8.806  70.435  1.00  0.00    -0.201 NA 
ENDROOT
BRANCH   4   6
HETATM    6  C   UNL     1     -12.193  11.094  69.489  1.00  0.00    -0.347 C  
HETATM    7  C   UNL     1     -11.881  11.451  68.025  1.00  0.00    -0.273 C  
HETATM    8  C   UNL     1     -10.596  12.272  67.952  1.00  0.00    -0.232 C  
HETATM    9  C   UNL     1     -10.766  13.605  68.673  1.00  0.00    -0.272 C  
HETATM   10  C   UNL     1     -11.565  13.526  69.953  1.00  0.00    -0.271 A  
HETATM   11  C   UNL     1     -11.695  14.692  70.722  1.00  0.00    -0.336 A  
HETATM   12  C   UNL     1     -12.503  14.710  71.857  1.00  0.00    -0.412 A  
HETATM   13  C   UNL     1     -13.184  13.558  72.241  1.00  0.00    -0.571 A  
HETATM   14  C   UNL     1     -13.056  12.387  71.491  1.00  0.00    -0.362 A  
HETATM   15  C   UNL     1     -12.257  12.359  70.333  1.00  0.00    -0.370 A  
ENDBRANCH   4   6
TORSDOF 1
ENDMDL
MODEL       76
REMARK 921   NORMALIZED FREE ENERGY PREDICTED BY IDOCK:   -3.72 KCAL/MOL
REMARK 922        TOTAL FREE ENERGY PREDICTED BY IDOCK:   -4.20 KCAL/MOL
REMARK 923 INTER-LIGAND FREE ENERGY PREDICTED BY IDOCK:   -4.02 KCAL/MOL
REMARK 924 INTRA-LIGAND FREE ENERGY PREDICTED BY IDOCK:   -0.17 KCAL/MOL
REMARK 927      BINDING AFFINITY PREDICTED BY RF-SCORE:    0.00 PKD
ROOT
HETATM    1  C   UNL     1     -10.144   9.371  67.941  1.00  0.00    -0.194 C  
HETATM    2  C   UNL     1      -8.871  10.220  67.944  1.00  0.00    -0.122 C  
HETATM    3  N   UNL     1      -9.297  11.588  67.539  1.00  0.00    -0.164 NA 
HETATM    4  C   UNL     1     -10.597  11.594  67.727  1.00  0.00    -0.194 C  
HETATM    5  N   UNL     1     -11.144  10.396  68.119  1.00  0.00    -0.285 NA 
ENDROOT
BRANCH   4   6
HETATM    6  C   UNL     1     -11.397  12.878  67.521  1.00  0.00    -0.354 C  
HETATM    7  C   UNL     1     -12.245  12.723  66.245  1.00  0.00    -0.289 C  
HETATM    8  C   UNL     1     -11.345  12.768  65.012  1.00  0.00    -0.344 C  
HETATM    9  C   UNL     1     -10.665  14.127  64.891  1.00  0.00    -0.444 C  
HETATM   10  C   UNL     1     -10.212  14.720  66.205  1.00  0.00    -0.309 A  
HETATM   11  C   UNL     1      -9.500  15.928  66.173  1.00  0.00    -0.375 A  
HETATM   12  C   UNL     1      -9.145  16.577  67.355  1.00  0.00    -0.210 A  
HETATM   13  C   UNL     1      -9.490  16.019  68.582  1.00  0.00    -0.224 A  
HETATM   14  C   UNL     1     -10.190  14.811  68.629  1.00  0.00    -0.236 A  
HETATM   15  C   UNL     1     -10.570  14.154  67.445  1.00  0.00    -0.279 A  
ENDBRANCH   4   6
TORSDOF 1
ENDMDL
MODEL       77
REMARK 921   NORMALIZED FREE ENERGY PREDICTED BY IDOCK:   -3.63 KCAL/MOL
REMARK 922        TOTAL FREE ENERGY PREDICTED BY IDOCK:   -4.10 KCAL/MOL
REMARK 923 INTER-LIGAND FREE ENERGY PREDICTED BY IDOCK:   -4.04 KCAL/MOL
REMARK 924 INTRA-LIGAND FREE ENERGY PREDICTED BY IDOCK:   -0.06 KCAL/MOL
REMARK 927      BINDING AFFINITY PREDICTED BY RF-SCORE:    0.00 PKD
ROOT
HETATM    1  C   UNL     1     -11.353  14.352  65.932  1.00  0.00    -0.332 C  
HETATM    2  C   UNL     1     -12.387  13.288  66.304  1.00  0.00    -0.317 C  
HETATM    3  N   UNL     1     -11.605  12.065  66.639  1.00  0.00    -0.513 NA 
HETATM    4  C   UNL     1     -10.387  12.505  66.853  1.00  0.00    -0.229 C  
HETATM    5  N   UNL     1     -10.193  13.848  66.626  1.00  0.00    -0.271 NA 
ENDROOT
BRANCH   4   6
HETATM    6  C   UNL     1      -9.297  11.549  67.334  1.00  0.00    -0.168 C  
HETATM    7  C   UNL     1      -8.536  11.023  66.104  1.00  0.00    -0.175 C  
HETATM    8  C   UNL     1      -9.417  10.053  65.321  1.00  0.00    -0.323 C  
HETATM    9  C   UNL     1      -9.742   8.823  66.160  1.00  0.00    -0.320 C  
HETATM   10  C   UNL     1     -10.013   9.113  67.618  1.00  0.00    -0.245 A  
HETATM   11  C   UNL     1     -10.404   8.048  68.442  1.00  0.00    -0.236 A  
HETATM   12  C   UNL     1     -10.568   8.230  69.814  1.00  0.00    -0.228 A  
HETATM   13  C   UNL     1     -10.351   9.486  70.376  1.00  0.00    -0.334 A  
HETATM   14  C   UNL     1      -9.971  10.558  69.566  1.00  0.00    -0.187 A  
HETATM   15  C   UNL     1      -9.785  10.384  68.183  1.00  0.00    -0.165 A  
ENDBRANCH   4   6
TORSDOF 1
ENDMDL
MODEL       78
REMARK 921   NORMALIZED FREE ENERGY PREDICTED BY IDOCK:   -3.62 KCAL/MOL
REMARK 922        TOTAL FREE ENERGY PREDICTED BY IDOCK:   -4.09 KCAL/MOL
REMARK 923 INTER-LIGAND FREE ENERGY PREDICTED BY IDOCK:   -3.83 KCAL/MOL
REMARK 924 INTRA-LIGAND FREE ENERGY PREDICTED BY IDOCK:   -0.25 KCAL/MOL
REMARK 927      BINDING AFFINITY PREDICTED BY RF-SCORE:    0.00 PKD
ROOT
HETATM    1  C   UNL     1      -9.805  20.137  67.845  1.00  0.00    -0.389 C  
HETATM    2  C   UNL     1     -10.728  20.090  66.626  1.00  0.00    -0.244 C  
HETATM    3  N   UNL     1     -10.396  18.822  65.918  1.00  0.00    -0.582 NA 
HETATM    4  C   UNL     1      -9.757  18.106  66.814  1.00  0.00    -0.324 C  
HETATM    5  N   UNL     1      -9.517  18.734  68.013  1.00  0.00    -0.302 NA 
ENDROOT
BRANCH   4   6
HETATM    6  C   UNL     1      -9.338  16.672  66.496  1.00  0.00    -0.290 C  
HETATM    7  C   UNL     1     -10.607  15.806  66.398  1.00  0.00    -0.307 C  
HETATM    8  C   UNL     1     -11.211  15.607  67.785  1.00  0.00    -0.297 C  
HETATM    9  C   UNL     1     -10.253  14.833  68.684  1.00  0.00    -0.236 C  
HETATM   10  C   UNL     1      -8.798  15.205  68.516  1.00  0.00    -0.185 A  
HETATM   11  C   UNL     1      -7.860  14.601  69.367  1.00  0.00    -0.028 A  
HETATM   12  C   UNL     1      -6.495  14.825  69.195  1.00  0.00    -0.109 A  
HETATM   13  C   UNL     1      -6.054  15.664  68.176  1.00  0.00    -0.137 A  
HETATM   14  C   UNL     1      -6.977  16.280  67.328  1.00  0.00    -0.227 A  
HETATM   15  C   UNL     1      -8.356  16.050  67.479  1.00  0.00    -0.177 A  
ENDBRANCH   4   6
TORSDOF 1
ENDMDL
MODEL       79
REMARK 921   NORMALIZED FREE ENERGY PREDICTED BY IDOCK:   -3.61 KCAL/MOL
REMARK 922        TOTAL FREE ENERGY PREDICTED BY IDOCK:   -4.08 KCAL/MOL
REMARK 923 INTER-LIGAND FREE ENERGY PREDICTED BY IDOCK:   -4.12 KCAL/MOL
REMARK 924 INTRA-LIGAND FREE ENERGY PREDICTED BY IDOCK:    0.04 KCAL/MOL
REMARK 927      BINDING AFFINITY PREDICTED BY RF-SCORE:    0.00 PKD
ROOT
HETATM    1  C   UNL     1     -14.000   9.271  71.842  1.00  0.00    -0.295 C  
HETATM    2  C   UNL     1     -14.102   7.757  71.645  1.00  0.00    -0.429 C  
HETATM    3  N   UNL     1     -12.895   7.368  70.866  1.00  0.00    -0.160 NA 
HETATM    4  C   UNL     1     -12.073   8.382  71.010  1.00  0.00    -0.198 C  
HETATM    5  N   UNL     1     -12.576   9.458  71.703  1.00  0.00    -0.349 NA 
ENDROOT
BRANCH   4   6
HETATM    6  C   UNL     1     -10.660   8.315  70.435  1.00  0.00    -0.231 C  
HETATM    7  C   UNL     1     -10.175   9.751  70.168  1.00  0.00    -0.328 C  
HETATM    8  C   UNL     1     -10.922  10.340  68.973  1.00  0.00    -0.274 C  
HETATM    9  C   UNL     1     -10.609   9.558  67.703  1.00  0.00    -0.329 C  
HETATM   10  C   UNL     1     -10.511   8.062  67.897  1.00  0.00    -0.259 A  
HETATM   11  C   UNL     1     -10.311   7.261  66.763  1.00  0.00    -0.311 A  
HETATM   12  C   UNL     1     -10.110   5.888  66.887  1.00  0.00    -0.228 A  
HETATM   13  C   UNL     1     -10.116   5.298  68.148  1.00  0.00    -0.211 A  
HETATM   14  C   UNL     1     -10.324   6.082  69.286  1.00  0.00    -0.294 A  
HETATM   15  C   UNL     1     -10.511   7.471  69.177  1.00  0.00    -0.220 A  
ENDBRANCH   4   6
TORSDOF 1
ENDMDL
MODEL       80
REMARK 921   NORMALIZED FREE ENERGY PREDICTED BY IDOCK:   -3.59 KCAL/MOL
REMARK 922        TOTAL FREE ENERGY PREDICTED BY IDOCK:   -4.05 KCAL/MOL
REMARK 923 INTER-LIGAND FREE ENERGY PREDICTED BY IDOCK:   -3.86 KCAL/MOL
REMARK 924 INTRA-LIGAND FREE ENERGY PREDICTED BY IDOCK:   -0.19 KCAL/MOL
REMARK 927      BINDING AFFINITY PREDICTED BY RF-SCORE:    0.00 PKD
ROOT
HETATM    1  C   UNL     1     -13.406  10.804  72.028  1.00  0.00    -0.298 C  
HETATM    2  C   UNL     1     -12.409  11.242  70.953  1.00  0.00    -0.388 C  
HETATM    3  N   UNL     1     -11.535  10.062  70.708  1.00  0.00    -0.330 NA 
HETATM    4  C   UNL     1     -12.207   9.050  71.206  1.00  0.00    -0.312 C  
HETATM    5  N   UNL     1     -13.381   9.374  71.843  1.00  0.00    -0.405 NA 
ENDROOT
BRANCH   4   6
HETATM    6  C   UNL     1     -11.678   7.625  71.051  1.00  0.00    -0.306 C  
HETATM    7  C   UNL     1     -11.436   7.041  72.454  1.00  0.00    -0.300 C  
HETATM    8  C   UNL     1     -10.222   7.708  73.094  1.00  0.00    -0.401 C  
HETATM    9  C   UNL     1      -8.958   7.403  72.298  1.00  0.00    -0.154 C  
HETATM   10  C   UNL     1      -9.145   7.408  70.799  1.00  0.00    -0.151 A  
HETATM   11  C   UNL     1      -8.014   7.222  69.992  1.00  0.00    -0.117 A  
HETATM   12  C   UNL     1      -8.136   7.114  68.608  1.00  0.00    -0.124 A  
HETATM   13  C   UNL     1      -9.392   7.200  68.014  1.00  0.00    -0.129 A  
HETATM   14  C   UNL     1     -10.527   7.395  68.805  1.00  0.00    -0.215 A  
HETATM   15  C   UNL     1     -10.420   7.489  70.204  1.00  0.00    -0.226 A  
ENDBRANCH   4   6
TORSDOF 1
ENDMDL
MODEL       81
REMARK 921   NORMALIZED FREE ENERGY PREDICTED BY IDOCK:   -3.59 KCAL/MOL
REMARK 922        TOTAL FREE ENERGY PREDICTED BY IDOCK:   -4.05 KCAL/MOL
REMARK 923 INTER-LIGAND FREE ENERGY PREDICTED BY IDOCK:   -3.87 KCAL/MOL
REMARK 924 INTRA-LIGAND FREE ENERGY PREDICTED BY IDOCK:   -0.18 KCAL/MOL
REMARK 927      BINDING AFFINITY PREDICTED BY RF-SCORE:    0.00 PKD
ROOT
HETATM    1  C   UNL     1     -10.173   8.005  70.496  1.00  0.00    -0.198 C  
HETATM    2  C   UNL     1     -10.450   9.433  70.971  1.00  0.00    -0.322 C  
HETATM    3  N   UNL     1     -10.476  10.271  69.741  1.00  0.00    -0.255 NA 
HETATM    4  C   UNL     1     -10.642   9.410  68.763  1.00  0.00    -0.208 C  
HETATM    5  N   UNL     1     -10.643   8.086  69.134  1.00  0.00    -0.203 NA 
ENDROOT
BRANCH   4   6
HETATM    6  C   UNL     1     -10.828   9.901  67.329  1.00  0.00    -0.268 C  
HETATM    7  C   UNL     1      -9.780   9.209  66.439  1.00  0.00    -0.330 C  
HETATM    8  C   UNL     1      -8.392   9.771  66.736  1.00  0.00    -0.124 C  
HETATM    9  C   UNL     1      -8.322  11.252  66.380  1.00  0.00    -0.159 C  
HETATM   10  C   UNL     1      -9.567  12.037  66.721  1.00  0.00    -0.215 A  
HETATM   11  C   UNL     1      -9.553  13.423  66.504  1.00  0.00    -0.277 A  
HETATM   12  C   UNL     1     -10.702  14.187  66.702  1.00  0.00    -0.289 A  
HETATM   13  C   UNL     1     -11.876  13.573  67.129  1.00  0.00    -0.430 A  
HETATM   14  C   UNL     1     -11.902  12.195  67.358  1.00  0.00    -0.297 A  
HETATM   15  C   UNL     1     -10.755  11.410  67.146  1.00  0.00    -0.292 A  
ENDBRANCH   4   6
TORSDOF 1
ENDMDL
MODEL       82
REMARK 921   NORMALIZED FREE ENERGY PREDICTED BY IDOCK:   -3.57 KCAL/MOL
REMARK 922        TOTAL FREE ENERGY PREDICTED BY IDOCK:   -4.03 KCAL/MOL
REMARK 923 INTER-LIGAND FREE ENERGY PREDICTED BY IDOCK:   -4.15 KCAL/MOL
REMARK 924 INTRA-LIGAND FREE ENERGY PREDICTED BY IDOCK:    0.11 KCAL/MOL
REMARK 927      BINDING AFFINITY PREDICTED BY RF-SCORE:    0.00 PKD
ROOT
HETATM    1  C   UNL     1     -10.315  18.831  67.595  1.00  0.00    -0.420 C  
HETATM    2  C   UNL     1     -10.300  17.931  66.358  1.00  0.00    -0.365 C  
HETATM    3  N   UNL     1      -9.774  16.617  66.820  1.00  0.00    -0.250 NA 
HETATM    4  C   UNL     1      -9.912  16.651  68.125  1.00  0.00    -0.259 C  
HETATM    5  N   UNL     1     -10.375  17.839  68.641  1.00  0.00    -0.367 NA 
ENDROOT
BRANCH   4   6
HETATM    6  C   UNL     1      -9.577  15.421  68.966  1.00  0.00    -0.236 C  
HETATM    7  C   UNL     1      -8.049  15.355  69.142  1.00  0.00    -0.233 C  
HETATM    8  C   UNL     1      -7.389  14.964  67.822  1.00  0.00    -0.183 C  
HETATM    9  C   UNL     1      -7.816  13.563  67.400  1.00  0.00    -0.157 C  
HETATM   10  C   UNL     1      -9.269  13.244  67.666  1.00  0.00    -0.209 A  
HETATM   11  C   UNL     1      -9.764  12.007  67.229  1.00  0.00    -0.190 A  
HETATM   12  C   UNL     1     -11.066  11.612  67.533  1.00  0.00    -0.333 A  
HETATM   13  C   UNL     1     -11.891  12.457  68.272  1.00  0.00    -0.364 A  
HETATM   14  C   UNL     1     -11.414  13.697  68.705  1.00  0.00    -0.342 A  
HETATM   15  C   UNL     1     -10.098  14.100  68.419  1.00  0.00    -0.238 A  
ENDBRANCH   4   6
TORSDOF 1
ENDMDL
MODEL       83
REMARK 921   NORMALIZED FREE ENERGY PREDICTED BY IDOCK:   -3.56 KCAL/MOL
REMARK 922        TOTAL FREE ENERGY PREDICTED BY IDOCK:   -4.03 KCAL/MOL
REMARK 923 INTER-LIGAND FREE ENERGY PREDICTED BY IDOCK:   -4.01 KCAL/MOL
REMARK 924 INTRA-LIGAND FREE ENERGY PREDICTED BY IDOCK:   -0.02 KCAL/MOL
REMARK 927      BINDING AFFINITY PREDICTED BY RF-SCORE:    0.00 PKD
ROOT
HETATM    1  C   UNL     1     -14.407   8.314  71.897  1.00  0.00    -0.476 C  
HETATM    2  C   UNL     1     -13.466   9.518  71.970  1.00  0.00    -0.443 C  
HETATM    3  N   UNL     1     -12.091   8.952  72.063  1.00  0.00    -0.360 NA 
HETATM    4  C   UNL     1     -12.223   7.710  71.657  1.00  0.00    -0.317 C  
HETATM    5  N   UNL     1     -13.509   7.309  71.383  1.00  0.00    -0.372 NA 
ENDROOT
BRANCH   4   6
HETATM    6  C   UNL     1     -10.993   6.816  71.506  1.00  0.00    -0.274 C  
HETATM    7  C   UNL     1     -10.758   6.085  72.840  1.00  0.00    -0.277 C  
HETATM    8  C   UNL     1     -10.246   7.069  73.890  1.00  0.00    -0.388 C  
HETATM    9  C   UNL     1      -8.889   7.633  73.484  1.00  0.00    -0.283 C  
HETATM   10  C   UNL     1      -8.750   7.930  72.009  1.00  0.00    -0.180 A  
HETATM   11  C   UNL     1      -7.563   8.532  71.566  1.00  0.00    -0.131 A  
HETATM   12  C   UNL     1      -7.332   8.737  70.207  1.00  0.00    -0.058 A  
HETATM   13  C   UNL     1      -8.292   8.351  69.276  1.00  0.00    -0.121 A  
HETATM   14  C   UNL     1      -9.484   7.759  69.703  1.00  0.00    -0.156 A  
HETATM   15  C   UNL     1      -9.722   7.531  71.070  1.00  0.00    -0.170 A  
ENDBRANCH   4   6
TORSDOF 1
ENDMDL
MODEL       84
REMARK 921   NORMALIZED FREE ENERGY PREDICTED BY IDOCK:   -3.56 KCAL/MOL
REMARK 922        TOTAL FREE ENERGY PREDICTED BY IDOCK:   -4.03 KCAL/MOL
REMARK 923 INTER-LIGAND FREE ENERGY PREDICTED BY IDOCK:   -3.89 KCAL/MOL
REMARK 924 INTRA-LIGAND FREE ENERGY PREDICTED BY IDOCK:   -0.14 KCAL/MOL
REMARK 927      BINDING AFFINITY PREDICTED BY RF-SCORE:    0.00 PKD
ROOT
HETATM    1  C   UNL     1      -9.812  10.285  69.309  1.00  0.00    -0.228 C  
HETATM    2  C   UNL     1      -8.758   9.226  68.981  1.00  0.00    -0.135 C  
HETATM    3  N   UNL     1      -9.233   7.969  69.623  1.00  0.00    -0.152 NA 
HETATM    4  C   UNL     1     -10.507   8.185  69.857  1.00  0.00    -0.226 C  
HETATM    5  N   UNL     1     -10.961   9.446  69.551  1.00  0.00    -0.212 NA 
ENDROOT
BRANCH   4   6
HETATM    6  C   UNL     1     -11.384   7.069  70.421  1.00  0.00    -0.354 C  
HETATM    7  C   UNL     1     -12.243   7.655  71.556  1.00  0.00    -0.351 C  
HETATM    8  C   UNL     1     -11.369   7.949  72.773  1.00  0.00    -0.453 C  
HETATM    9  C   UNL     1     -10.771   6.663  73.331  1.00  0.00    -0.315 C  
HETATM   10  C   UNL     1     -10.331   5.670  72.281  1.00  0.00    -0.250 A  
HETATM   11  C   UNL     1      -9.691   4.497  72.708  1.00  0.00    -0.180 A  
HETATM   12  C   UNL     1      -9.354   3.497  71.798  1.00  0.00    -0.198 A  
HETATM   13  C   UNL     1      -9.644   3.664  70.447  1.00  0.00    -0.254 A  
HETATM   14  C   UNL     1     -10.272   4.831  70.005  1.00  0.00    -0.251 A  
HETATM   15  C   UNL     1     -10.633   5.841  70.915  1.00  0.00    -0.329 A  
ENDBRANCH   4   6
TORSDOF 1
ENDMDL
MODEL       85
REMARK 921   NORMALIZED FREE ENERGY PREDICTED BY IDOCK:   -3.54 KCAL/MOL
REMARK 922        TOTAL FREE ENERGY PREDICTED BY IDOCK:   -4.00 KCAL/MOL
REMARK 923 INTER-LIGAND FREE ENERGY PREDICTED BY IDOCK:   -3.85 KCAL/MOL
REMARK 924 INTRA-LIGAND FREE ENERGY PREDICTED BY IDOCK:   -0.15 KCAL/MOL
REMARK 927      BINDING AFFINITY PREDICTED BY RF-SCORE:    0.00 PKD
ROOT
HETATM    1  C   UNL     1     -12.262  10.816  71.288  1.00  0.00    -0.321 C  
HETATM    2  C   UNL     1     -11.498  11.293  70.051  1.00  0.00    -0.275 C  
HETATM    3  N   UNL     1     -10.285  10.433  69.969  1.00  0.00    -0.167 NA 
HETATM    4  C   UNL     1     -10.565   9.401  70.731  1.00  0.00    -0.303 C  
HETATM    5  N   UNL     1     -11.763   9.467  71.402  1.00  0.00    -0.365 NA 
ENDROOT
BRANCH   4   6
HETATM    6  C   UNL     1      -9.593   8.226  70.821  1.00  0.00    -0.196 C  
HETATM    7  C   UNL     1      -9.885   7.264  69.656  1.00  0.00    -0.163 C  
HETATM    8  C   UNL     1     -11.206   6.537  69.898  1.00  0.00    -0.456 C  
HETATM    9  C   UNL     1     -11.118   5.662  71.143  1.00  0.00    -0.202 C  
HETATM   10  C   UNL     1     -10.349   6.277  72.289  1.00  0.00    -0.216 A  
HETATM   11  C   UNL     1     -10.295   5.574  73.501  1.00  0.00    -0.252 A  
HETATM   12  C   UNL     1      -9.517   6.038  74.561  1.00  0.00    -0.198 A  
HETATM   13  C   UNL     1      -8.792   7.218  74.422  1.00  0.00    -0.234 A  
HETATM   14  C   UNL     1      -8.845   7.935  73.224  1.00  0.00    -0.311 A  
HETATM   15  C   UNL     1      -9.611   7.469  72.141  1.00  0.00    -0.190 A  
ENDBRANCH   4   6
TORSDOF 1
ENDMDL
MODEL       86
REMARK 921   NORMALIZED FREE ENERGY PREDICTED BY IDOCK:   -3.54 KCAL/MOL
REMARK 922        TOTAL FREE ENERGY PREDICTED BY IDOCK:   -4.00 KCAL/MOL
REMARK 923 INTER-LIGAND FREE ENERGY PREDICTED BY IDOCK:   -3.88 KCAL/MOL
REMARK 924 INTRA-LIGAND FREE ENERGY PREDICTED BY IDOCK:   -0.12 KCAL/MOL
REMARK 927      BINDING AFFINITY PREDICTED BY RF-SCORE:    0.00 PKD
ROOT
HETATM    1  C   UNL     1      -7.080  14.762  68.067  1.00  0.00    -0.138 C  
HETATM    2  C   UNL     1      -7.681  16.107  67.651  1.00  0.00    -0.142 C  
HETATM    3  N   UNL     1      -9.026  15.794  67.095  1.00  0.00    -0.205 NA 
HETATM    4  C   UNL     1      -9.291  14.587  67.542  1.00  0.00    -0.193 C  
HETATM    5  N   UNL     1      -8.280  13.984  68.253  1.00  0.00    -0.146 NA 
ENDROOT
BRANCH   4   6
HETATM    6  C   UNL     1     -10.651  13.948  67.270  1.00  0.00    -0.276 C  
HETATM    7  C   UNL     1     -11.737  15.025  67.440  1.00  0.00    -0.255 C  
HETATM    8  C   UNL     1     -11.897  15.377  68.917  1.00  0.00    -0.350 C  
HETATM    9  C   UNL     1     -12.388  14.169  69.708  1.00  0.00    -0.350 C  
HETATM   10  C   UNL     1     -11.779  12.853  69.284  1.00  0.00    -0.378 A  
HETATM   11  C   UNL     1     -12.112  11.705  70.018  1.00  0.00    -0.395 A  
HETATM   12  C   UNL     1     -11.665  10.448  69.616  1.00  0.00    -0.283 A  
HETATM   13  C   UNL     1     -10.871  10.326  68.479  1.00  0.00    -0.281 A  
HETATM   14  C   UNL     1     -10.522  11.462  67.744  1.00  0.00    -0.215 A  
HETATM   15  C   UNL     1     -10.980  12.735  68.129  1.00  0.00    -0.273 A  
ENDBRANCH   4   6
TORSDOF 1
ENDMDL
MODEL       87
REMARK 921   NORMALIZED FREE ENERGY PREDICTED BY IDOCK:   -3.53 KCAL/MOL
REMARK 922        TOTAL FREE ENERGY PREDICTED BY IDOCK:   -3.99 KCAL/MOL
REMARK 923 INTER-LIGAND FREE ENERGY PREDICTED BY IDOCK:   -3.77 KCAL/MOL
REMARK 924 INTRA-LIGAND FREE ENERGY PREDICTED BY IDOCK:   -0.22 KCAL/MOL
REMARK 927      BINDING AFFINITY PREDICTED BY RF-SCORE:    0.00 PKD
ROOT
HETATM    1  C   UNL     1      -7.019  11.127  67.478  1.00  0.00    -0.088 C  
HETATM    2  C   UNL     1      -7.905   9.984  67.976  1.00  0.00    -0.089 C  
HETATM    3  N   UNL     1      -9.230  10.599  68.268  1.00  0.00    -0.147 NA 
HETATM    4  C   UNL     1      -9.208  11.743  67.624  1.00  0.00    -0.180 C  
HETATM    5  N   UNL     1      -8.021  12.050  67.002  1.00  0.00    -0.165 NA 
ENDROOT
BRANCH   4   6
HETATM    6  C   UNL     1     -10.450  12.631  67.591  1.00  0.00    -0.226 C  
HETATM    7  C   UNL     1     -11.448  12.032  66.585  1.00  0.00    -0.411 C  
HETATM    8  C   UNL     1     -10.938  12.234  65.160  1.00  0.00    -0.344 C  
HETATM    9  C   UNL     1     -10.854  13.719  64.824  1.00  0.00    -0.410 C  
HETATM   10  C   UNL     1     -10.363  14.591  65.956  1.00  0.00    -0.320 A  
HETATM   11  C   UNL     1     -10.175  15.958  65.702  1.00  0.00    -0.406 A  
HETATM   12  C   UNL     1      -9.824  16.831  66.730  1.00  0.00    -0.282 A  
HETATM   13  C   UNL     1      -9.647  16.345  68.022  1.00  0.00    -0.226 A  
HETATM   14  C   UNL     1      -9.821  14.985  68.287  1.00  0.00    -0.219 A  
HETATM   15  C   UNL     1     -10.192  14.095  67.264  1.00  0.00    -0.256 A  
ENDBRANCH   4   6
TORSDOF 1
ENDMDL
MODEL       88
REMARK 921   NORMALIZED FREE ENERGY PREDICTED BY IDOCK:   -3.52 KCAL/MOL
REMARK 922        TOTAL FREE ENERGY PREDICTED BY IDOCK:   -3.98 KCAL/MOL
REMARK 923 INTER-LIGAND FREE ENERGY PREDICTED BY IDOCK:   -3.74 KCAL/MOL
REMARK 924 INTRA-LIGAND FREE ENERGY PREDICTED BY IDOCK:   -0.25 KCAL/MOL
REMARK 927      BINDING AFFINITY PREDICTED BY RF-SCORE:    0.00 PKD
ROOT
HETATM    1  C   UNL     1      -9.930  10.981  68.289  1.00  0.00    -0.179 C  
HETATM    2  C   UNL     1     -11.453  11.100  68.381  1.00  0.00    -0.306 C  
HETATM    3  N   UNL     1     -11.727  12.530  68.696  1.00  0.00    -0.311 NA 
HETATM    4  C   UNL     1     -10.615  13.152  68.382  1.00  0.00    -0.251 C  
HETATM    5  N   UNL     1      -9.577  12.345  67.980  1.00  0.00    -0.205 NA 
ENDROOT
BRANCH   4   6
HETATM    6  C   UNL     1     -10.536  14.675  68.465  1.00  0.00    -0.245 C  
HETATM    7  C   UNL     1     -11.619  15.268  67.547  1.00  0.00    -0.223 C  
HETATM    8  C   UNL     1     -11.234  15.061  66.084  1.00  0.00    -0.307 C  
HETATM    9  C   UNL     1      -9.953  15.817  65.752  1.00  0.00    -0.389 C  
HETATM   10  C   UNL     1      -8.907  15.787  66.842  1.00  0.00    -0.273 A  
HETATM   11  C   UNL     1      -7.666  16.387  66.582  1.00  0.00    -0.310 A  
HETATM   12  C   UNL     1      -6.698  16.482  67.580  1.00  0.00    -0.161 A  
HETATM   13  C   UNL     1      -6.958  15.970  68.848  1.00  0.00    -0.148 A  
HETATM   14  C   UNL     1      -8.186  15.362  69.119  1.00  0.00    -0.243 A  
HETATM   15  C   UNL     1      -9.178  15.274  68.126  1.00  0.00    -0.183 A  
ENDBRANCH   4   6
TORSDOF 1
ENDMDL
MODEL       89
REMARK 921   NORMALIZED FREE ENERGY PREDICTED BY IDOCK:   -3.50 KCAL/MOL
REMARK 922        TOTAL FREE ENERGY PREDICTED BY IDOCK:   -3.96 KCAL/MOL
REMARK 923 INTER-LIGAND FREE ENERGY PREDICTED BY IDOCK:   -3.83 KCAL/MOL
REMARK 924 INTRA-LIGAND FREE ENERGY PREDICTED BY IDOCK:   -0.13 KCAL/MOL
REMARK 927      BINDING AFFINITY PREDICTED BY RF-SCORE:    0.00 PKD
ROOT
HETATM    1  C   UNL     1     -13.825   9.196  72.287  1.00  0.00    -0.463 C  
HETATM    2  C   UNL     1     -14.408   7.787  72.165  1.00  0.00    -0.261 C  
HETATM    3  N   UNL     1     -13.450   7.026  71.316  1.00  0.00    -0.270 NA 
HETATM    4  C   UNL     1     -12.346   7.735  71.353  1.00  0.00    -0.323 C  
HETATM    5  N   UNL     1     -12.430   8.927  72.033  1.00  0.00    -0.367 NA 
ENDROOT
BRANCH   4   6
HETATM    6  C   UNL     1     -11.077   7.218  70.679  1.00  0.00    -0.287 C  
HETATM    7  C   UNL     1     -10.314   6.341  71.687  1.00  0.00    -0.248 C  
HETATM    8  C   UNL     1      -9.700   7.215  72.778  1.00  0.00    -0.190 C  
HETATM    9  C   UNL     1      -8.661   8.163  72.189  1.00  0.00    -0.234 C  
HETATM   10  C   UNL     1      -9.037   8.746  70.846  1.00  0.00    -0.256 A  
HETATM   11  C   UNL     1      -8.175   9.694  70.275  1.00  0.00    -0.217 A  
HETATM   12  C   UNL     1      -8.413  10.192  68.995  1.00  0.00    -0.151 A  
HETATM   13  C   UNL     1      -9.521   9.753  68.276  1.00  0.00    -0.148 A  
HETATM   14  C   UNL     1     -10.393   8.817  68.836  1.00  0.00    -0.229 A  
HETATM   15  C   UNL     1     -10.156   8.294  70.120  1.00  0.00    -0.191 A  
ENDBRANCH   4   6
TORSDOF 1
ENDMDL
MODEL       90
REMARK 921   NORMALIZED FREE ENERGY PREDICTED BY IDOCK:   -3.49 KCAL/MOL
REMARK 922        TOTAL FREE ENERGY PREDICTED BY IDOCK:   -3.95 KCAL/MOL
REMARK 923 INTER-LIGAND FREE ENERGY PREDICTED BY IDOCK:   -3.79 KCAL/MOL
REMARK 924 INTRA-LIGAND FREE ENERGY PREDICTED BY IDOCK:   -0.16 KCAL/MOL
REMARK 927      BINDING AFFINITY PREDICTED BY RF-SCORE:    0.00 PKD
ROOT
HETATM    1  C   UNL     1      -6.201  18.070  68.026  1.00  0.00    -0.175 C  
HETATM    2  C   UNL     1      -6.268  18.919  66.755  1.00  0.00    -0.181 C  
HETATM    3  N   UNL     1      -7.313  18.287  65.902  1.00  0.00    -0.469 NA 
HETATM    4  C   UNL     1      -7.995  17.530  66.730  1.00  0.00    -0.241 C  
HETATM    5  N   UNL     1      -7.516  17.477  68.017  1.00  0.00    -0.208 NA 
ENDROOT
BRANCH   4   6
HETATM    6  C   UNL     1      -9.239  16.787  66.245  1.00  0.00    -0.313 C  
HETATM    7  C   UNL     1     -10.441  17.745  66.330  1.00  0.00    -0.297 C  
HETATM    8  C   UNL     1     -10.820  17.976  67.791  1.00  0.00    -0.246 C  
HETATM    9  C   UNL     1     -11.283  16.677  68.440  1.00  0.00    -0.239 C  
HETATM   10  C   UNL     1     -10.495  15.455  68.026  1.00  0.00    -0.257 A  
HETATM   11  C   UNL     1     -10.801  14.233  68.642  1.00  0.00    -0.265 A  
HETATM   12  C   UNL     1     -10.182  13.054  68.232  1.00  0.00    -0.246 A  
HETATM   13  C   UNL     1      -9.242  13.086  67.205  1.00  0.00    -0.213 A  
HETATM   14  C   UNL     1      -8.920  14.297  66.589  1.00  0.00    -0.212 A  
HETATM   15  C   UNL     1      -9.549  15.492  66.982  1.00  0.00    -0.233 A  
ENDBRANCH   4   6
TORSDOF 1
ENDMDL
MODEL       91
REMARK 921   NORMALIZED FREE ENERGY PREDICTED BY IDOCK:   -3.49 KCAL/MOL
REMARK 922        TOTAL FREE ENERGY PREDICTED BY IDOCK:   -3.95 KCAL/MOL
REMARK 923 INTER-LIGAND FREE ENERGY PREDICTED BY IDOCK:   -3.70 KCAL/MOL
REMARK 924 INTRA-LIGAND FREE ENERGY PREDICTED BY IDOCK:   -0.24 KCAL/MOL
REMARK 927      BINDING AFFINITY PREDICTED BY RF-SCORE:    0.00 PKD
ROOT
HETATM    1  C   UNL     1     -10.925   6.450  68.668  1.00  0.00    -0.330 C  
HETATM    2  C   UNL     1     -11.513   6.285  70.071  1.00  0.00    -0.390 C  
HETATM    3  N   UNL     1     -11.070   7.482  70.838  1.00  0.00    -0.258 NA 
HETATM    4  C   UNL     1     -10.708   8.344  69.916  1.00  0.00    -0.227 C  
HETATM    5  N   UNL     1     -10.751   7.881  68.622  1.00  0.00    -0.101 NA 
ENDROOT
BRANCH   4   6
HETATM    6  C   UNL     1     -10.285   9.758  70.309  1.00  0.00    -0.346 C  
HETATM    7  C   UNL     1     -11.541  10.538  70.738  1.00  0.00    -0.432 C  
HETATM    8  C   UNL     1     -12.405  10.847  69.518  1.00  0.00    -0.241 C  
HETATM    9  C   UNL     1     -11.663  11.761  68.549  1.00  0.00    -0.390 C  
HETATM   10  C   UNL     1     -10.191  11.453  68.401  1.00  0.00    -0.206 A  
HETATM   11  C   UNL     1      -9.454  12.193  67.464  1.00  0.00    -0.180 A  
HETATM   12  C   UNL     1      -8.075  12.027  67.352  1.00  0.00    -0.168 A  
HETATM   13  C   UNL     1      -7.418  11.113  68.172  1.00  0.00    -0.093 A  
HETATM   14  C   UNL     1      -8.141  10.362  69.102  1.00  0.00    -0.151 A  
HETATM   15  C   UNL     1      -9.531  10.531  69.237  1.00  0.00    -0.191 A  
ENDBRANCH   4   6
TORSDOF 1
ENDMDL
MODEL       92
REMARK 921   NORMALIZED FREE ENERGY PREDICTED BY IDOCK:   -3.48 KCAL/MOL
REMARK 922        TOTAL FREE ENERGY PREDICTED BY IDOCK:   -3.94 KCAL/MOL
REMARK 923 INTER-LIGAND FREE ENERGY PREDICTED BY IDOCK:   -3.77 KCAL/MOL
REMARK 924 INTRA-LIGAND FREE ENERGY PREDICTED BY IDOCK:   -0.17 KCAL/MOL
REMARK 927      BINDING AFFINITY PREDICTED BY RF-SCORE:    0.00 PKD
ROOT
HETATM    1  C   UNL     1     -11.838  12.550  67.129  1.00  0.00    -0.316 C  
HETATM    2  C   UNL     1     -11.138  11.838  65.970  1.00  0.00    -0.312 C  
HETATM    3  N   UNL     1     -10.492  10.636  66.566  1.00  0.00    -0.239 NA 
HETATM    4  C   UNL     1     -11.100  10.477  67.718  1.00  0.00    -0.317 C  
HETATM    5  N   UNL     1     -12.013  11.451  68.046  1.00  0.00    -0.640 NA 
ENDROOT
BRANCH   4   6
HETATM    6  C   UNL     1     -10.785   9.265  68.593  1.00  0.00    -0.180 C  
HETATM    7  C   UNL     1      -9.977   9.743  69.812  1.00  0.00    -0.265 C  
HETATM    8  C   UNL     1      -8.566  10.136  69.382  1.00  0.00    -0.183 C  
HETATM    9  C   UNL     1      -7.813   8.928  68.837  1.00  0.00    -0.096 C  
HETATM   10  C   UNL     1      -8.651   7.995  67.994  1.00  0.00    -0.129 A  
HETATM   11  C   UNL     1      -8.014   6.905  67.383  1.00  0.00    -0.112 A  
HETATM   12  C   UNL     1      -8.749   5.953  66.678  1.00  0.00    -0.121 A  
HETATM   13  C   UNL     1     -10.130   6.088  66.568  1.00  0.00    -0.191 A  
HETATM   14  C   UNL     1     -10.777   7.174  67.162  1.00  0.00    -0.422 A  
HETATM   15  C   UNL     1     -10.050   8.132  67.891  1.00  0.00    -0.246 A  
ENDBRANCH   4   6
TORSDOF 1
ENDMDL
MODEL       93
REMARK 921   NORMALIZED FREE ENERGY PREDICTED BY IDOCK:   -3.43 KCAL/MOL
REMARK 922        TOTAL FREE ENERGY PREDICTED BY IDOCK:   -3.89 KCAL/MOL
REMARK 923 INTER-LIGAND FREE ENERGY PREDICTED BY IDOCK:   -3.69 KCAL/MOL
REMARK 924 INTRA-LIGAND FREE ENERGY PREDICTED BY IDOCK:   -0.20 KCAL/MOL
REMARK 927      BINDING AFFINITY PREDICTED BY RF-SCORE:    0.00 PKD
ROOT
HETATM    1  C   UNL     1      -6.893  13.351  68.245  1.00  0.00    -0.106 C  
HETATM    2  C   UNL     1      -7.538  14.611  67.664  1.00  0.00    -0.180 C  
HETATM    3  N   UNL     1      -8.730  14.141  66.906  1.00  0.00    -0.200 NA 
HETATM    4  C   UNL     1      -8.952  12.931  67.363  1.00  0.00    -0.199 C  
HETATM    5  N   UNL     1      -8.027  12.460  68.266  1.00  0.00    -0.154 NA 
ENDROOT
BRANCH   4   6
HETATM    6  C   UNL     1     -10.177  12.145  66.899  1.00  0.00    -0.228 C  
HETATM    7  C   UNL     1     -11.401  12.644  67.687  1.00  0.00    -0.362 C  
HETATM    8  C   UNL     1     -11.316  12.173  69.137  1.00  0.00    -0.333 C  
HETATM    9  C   UNL     1     -11.369  10.652  69.213  1.00  0.00    -0.346 C  
HETATM   10  C   UNL     1     -10.605   9.942  68.119  1.00  0.00    -0.270 A  
HETATM   11  C   UNL     1     -10.532   8.543  68.166  1.00  0.00    -0.236 A  
HETATM   12  C   UNL     1      -9.930   7.825  67.134  1.00  0.00    -0.298 A  
HETATM   13  C   UNL     1      -9.385   8.503  66.047  1.00  0.00    -0.266 A  
HETATM   14  C   UNL     1      -9.441   9.897  65.991  1.00  0.00    -0.258 A  
HETATM   15  C   UNL     1     -10.060  10.632  67.018  1.00  0.00    -0.255 A  
ENDBRANCH   4   6
TORSDOF 1
ENDMDL
MODEL       94
REMARK 921   NORMALIZED FREE ENERGY PREDICTED BY IDOCK:   -3.42 KCAL/MOL
REMARK 922        TOTAL FREE ENERGY PREDICTED BY IDOCK:   -3.88 KCAL/MOL
REMARK 923 INTER-LIGAND FREE ENERGY PREDICTED BY IDOCK:   -3.69 KCAL/MOL
REMARK 924 INTRA-LIGAND FREE ENERGY PREDICTED BY IDOCK:   -0.18 KCAL/MOL
REMARK 927      BINDING AFFINITY PREDICTED BY RF-SCORE:    0.00 PKD
ROOT
HETATM    1  C   UNL     1     -10.176   7.470  67.026  1.00  0.00    -0.298 C  
HETATM    2  C   UNL     1      -8.911   7.507  67.885  1.00  0.00    -0.126 C  
HETATM    3  N   UNL     1      -9.360   7.231  69.278  1.00  0.00    -0.154 NA 
HETATM    4  C   UNL     1     -10.552   6.697  69.137  1.00  0.00    -0.244 C  
HETATM    5  N   UNL     1     -11.029   6.647  67.848  1.00  0.00    -0.269 NA 
ENDROOT
BRANCH   4   6
HETATM    6  C   UNL     1     -11.308   6.172  70.355  1.00  0.00    -0.399 C  
HETATM    7  C   UNL     1     -12.533   7.074  70.592  1.00  0.00    -0.173 C  
HETATM    8  C   UNL     1     -12.084   8.434  71.122  1.00  0.00    -0.275 C  
HETATM    9  C   UNL     1     -11.412   8.287  72.482  1.00  0.00    -0.454 C  
HETATM   10  C   UNL     1     -10.525   7.071  72.614  1.00  0.00    -0.254 A  
HETATM   11  C   UNL     1      -9.801   6.908  73.805  1.00  0.00    -0.313 A  
HETATM   12  C   UNL     1      -9.046   5.758  74.028  1.00  0.00    -0.126 A  
HETATM   13  C   UNL     1      -9.000   4.761  73.057  1.00  0.00    -0.118 A  
HETATM   14  C   UNL     1      -9.707   4.914  71.863  1.00  0.00    -0.218 A  
HETATM   15  C   UNL     1     -10.486   6.062  71.631  1.00  0.00    -0.276 A  
ENDBRANCH   4   6
TORSDOF 1
ENDMDL
MODEL       95
REMARK 921   NORMALIZED FREE ENERGY PREDICTED BY IDOCK:   -3.38 KCAL/MOL
REMARK 922        TOTAL FREE ENERGY PREDICTED BY IDOCK:   -3.84 KCAL/MOL
REMARK 923 INTER-LIGAND FREE ENERGY PREDICTED BY IDOCK:   -3.66 KCAL/MOL
REMARK 924 INTRA-LIGAND FREE ENERGY PREDICTED BY IDOCK:   -0.18 KCAL/MOL
REMARK 927      BINDING AFFINITY PREDICTED BY RF-SCORE:    0.00 PKD
ROOT
HETATM    1  C   UNL     1      -9.486   4.962  67.031  1.00  0.00    -0.148 C  
HETATM    2  C   UNL     1     -10.765   5.724  66.675  1.00  0.00    -0.262 C  
HETATM    3  N   UNL     1     -10.792   6.910  67.576  1.00  0.00    -0.286 NA 
HETATM    4  C   UNL     1      -9.557   7.020  68.007  1.00  0.00    -0.128 C  
HETATM    5  N   UNL     1      -8.698   6.025  67.605  1.00  0.00    -0.106 NA 
ENDROOT
BRANCH   4   6
HETATM    6  C   UNL     1      -9.152   8.202  68.886  1.00  0.00    -0.147 C  
HETATM    7  C   UNL     1      -8.483   7.654  70.159  1.00  0.00    -0.138 C  
HETATM    8  C   UNL     1      -9.528   6.998  71.057  1.00  0.00    -0.159 C  
HETATM    9  C   UNL     1     -10.546   8.026  71.538  1.00  0.00    -0.273 C  
HETATM   10  C   UNL     1     -10.946   9.046  70.497  1.00  0.00    -0.295 A  
HETATM   11  C   UNL     1     -11.942   9.975  70.831  1.00  0.00    -0.453 A  
HETATM   12  C   UNL     1     -12.282  11.002  69.953  1.00  0.00    -0.408 A  
HETATM   13  C   UNL     1     -11.635  11.106  68.725  1.00  0.00    -0.389 A  
HETATM   14  C   UNL     1     -10.648  10.182  68.374  1.00  0.00    -0.249 A  
HETATM   15  C   UNL     1     -10.283   9.151  69.258  1.00  0.00    -0.215 A  
ENDBRANCH   4   6
TORSDOF 1
ENDMDL
MODEL       96
REMARK 921   NORMALIZED FREE ENERGY PREDICTED BY IDOCK:   -3.37 KCAL/MOL
REMARK 922        TOTAL FREE ENERGY PREDICTED BY IDOCK:   -3.83 KCAL/MOL
REMARK 923 INTER-LIGAND FREE ENERGY PREDICTED BY IDOCK:   -3.63 KCAL/MOL
REMARK 924 INTRA-LIGAND FREE ENERGY PREDICTED BY IDOCK:   -0.19 KCAL/MOL
REMARK 927      BINDING AFFINITY PREDICTED BY RF-SCORE:    0.00 PKD
ROOT
HETATM    1  C   UNL     1     -10.277  11.158  68.586  1.00  0.00    -0.205 C  
HETATM    2  C   UNL     1     -11.428  12.162  68.498  1.00  0.00    -0.300 C  
HETATM    3  N   UNL     1     -10.808  13.453  68.090  1.00  0.00    -0.247 NA 
HETATM    4  C   UNL     1      -9.635  13.113  67.607  1.00  0.00    -0.210 C  
HETATM    5  N   UNL     1      -9.318  11.779  67.706  1.00  0.00    -0.176 NA 
ENDROOT
BRANCH   4   6
HETATM    6  C   UNL     1      -8.728  14.168  66.977  1.00  0.00    -0.222 C  
HETATM    7  C   UNL     1      -7.413  14.216  67.775  1.00  0.00    -0.174 C  
HETATM    8  C   UNL     1      -7.655  14.853  69.142  1.00  0.00    -0.160 C  
HETATM    9  C   UNL     1      -8.097  16.304  68.989  1.00  0.00    -0.236 C  
HETATM   10  C   UNL     1      -9.044  16.552  67.837  1.00  0.00    -0.206 A  
HETATM   11  C   UNL     1      -9.566  17.844  67.679  1.00  0.00    -0.270 A  
HETATM   12  C   UNL     1     -10.361  18.162  66.579  1.00  0.00    -0.397 A  
HETATM   13  C   UNL     1     -10.651  17.186  65.630  1.00  0.00    -0.187 A  
HETATM   14  C   UNL     1     -10.146  15.892  65.779  1.00  0.00    -0.389 A  
HETATM   15  C   UNL     1      -9.328  15.563  66.875  1.00  0.00    -0.252 A  
ENDBRANCH   4   6
TORSDOF 1
ENDMDL
MODEL       97
REMARK 921   NORMALIZED FREE ENERGY PREDICTED BY IDOCK:   -3.35 KCAL/MOL
REMARK 922        TOTAL FREE ENERGY PREDICTED BY IDOCK:   -3.80 KCAL/MOL
REMARK 923 INTER-LIGAND FREE ENERGY PREDICTED BY IDOCK:   -3.55 KCAL/MOL
REMARK 924 INTRA-LIGAND FREE ENERGY PREDICTED BY IDOCK:   -0.26 KCAL/MOL
REMARK 927      BINDING AFFINITY PREDICTED BY RF-SCORE:    0.00 PKD
ROOT
HETATM    1  C   UNL     1      -9.933  11.150  66.418  1.00  0.00    -0.217 C  
HETATM    2  C   UNL     1      -8.855  10.486  65.560  1.00  0.00    -0.184 C  
HETATM    3  N   UNL     1      -8.204   9.475  66.438  1.00  0.00    -0.114 NA 
HETATM    4  C   UNL     1      -9.057   9.301  67.422  1.00  0.00    -0.126 C  
HETATM    5  N   UNL     1     -10.164  10.115  67.397  1.00  0.00    -0.205 NA 
ENDROOT
BRANCH   4   6
HETATM    6  C   UNL     1      -8.792   8.242  68.490  1.00  0.00    -0.137 C  
HETATM    7  C   UNL     1      -8.761   6.862  67.810  1.00  0.00    -0.120 C  
HETATM    8  C   UNL     1     -10.170   6.461  67.379  1.00  0.00    -0.223 C  
HETATM    9  C   UNL     1     -11.079   6.301  68.592  1.00  0.00    -0.409 C  
HETATM   10  C   UNL     1     -10.862   7.330  69.677  1.00  0.00    -0.238 A  
HETATM   11  C   UNL     1     -11.716   7.306  70.790  1.00  0.00    -0.333 A  
HETATM   12  C   UNL     1     -11.504   8.161  71.870  1.00  0.00    -0.357 A  
HETATM   13  C   UNL     1     -10.439   9.057  71.844  1.00  0.00    -0.373 A  
HETATM   14  C   UNL     1      -9.586   9.099  70.739  1.00  0.00    -0.338 A  
HETATM   15  C   UNL     1      -9.779   8.231  69.650  1.00  0.00    -0.173 A  
ENDBRANCH   4   6
TORSDOF 1
ENDMDL
MODEL       98
REMARK 921   NORMALIZED FREE ENERGY PREDICTED BY IDOCK:   -3.32 KCAL/MOL
REMARK 922        TOTAL FREE ENERGY PREDICTED BY IDOCK:   -3.77 KCAL/MOL
REMARK 923 INTER-LIGAND FREE ENERGY PREDICTED BY IDOCK:   -3.58 KCAL/MOL
REMARK 924 INTRA-LIGAND FREE ENERGY PREDICTED BY IDOCK:   -0.19 KCAL/MOL
REMARK 927      BINDING AFFINITY PREDICTED BY RF-SCORE:    0.00 PKD
ROOT
HETATM    1  C   UNL     1      -9.462   9.808  64.894  1.00  0.00    -0.265 C  
HETATM    2  C   UNL     1      -9.429  11.044  63.993  1.00  0.00    -0.246 C  
HETATM    3  N   UNL     1      -9.634  12.209  64.897  1.00  0.00    -0.059 NA 
HETATM    4  C   UNL     1      -9.369  11.743  66.095  1.00  0.00    -0.225 C  
HETATM    5  N   UNL     1      -9.098  10.396  66.160  1.00  0.00    -0.156 NA 
ENDROOT
BRANCH   4   6
HETATM    6  C   UNL     1      -9.365  12.680  67.302  1.00  0.00    -0.195 C  
HETATM    7  C   UNL     1     -10.533  12.289  68.224  1.00  0.00    -0.236 C  
HETATM    8  C   UNL     1     -11.860  12.686  67.582  1.00  0.00    -0.390 C  
HETATM    9  C   UNL     1     -11.950  14.199  67.423  1.00  0.00    -0.439 C  
HETATM   10  C   UNL     1     -10.657  14.863  67.009  1.00  0.00    -0.289 A  
HETATM   11  C   UNL     1     -10.675  16.243  66.757  1.00  0.00    -0.204 A  
HETATM   12  C   UNL     1      -9.497  16.931  66.471  1.00  0.00    -0.296 A  
HETATM   13  C   UNL     1      -8.288  16.243  66.425  1.00  0.00    -0.365 A  
HETATM   14  C   UNL     1      -8.256  14.867  66.664  1.00  0.00     0.037 A  
HETATM   15  C   UNL     1      -9.435  14.164  66.970  1.00  0.00    -0.256 A  
ENDBRANCH   4   6
TORSDOF 1
ENDMDL
MODEL       99
REMARK 921   NORMALIZED FREE ENERGY PREDICTED BY IDOCK:   -3.31 KCAL/MOL
REMARK 922        TOTAL FREE ENERGY PREDICTED BY IDOCK:   -3.76 KCAL/MOL
REMARK 923 INTER-LIGAND FREE ENERGY PREDICTED BY IDOCK:   -3.61 KCAL/MOL
REMARK 924 INTRA-LIGAND FREE ENERGY PREDICTED BY IDOCK:   -0.15 KCAL/MOL
REMARK 927      BINDING AFFINITY PREDICTED BY RF-SCORE:    0.00 PKD
ROOT
HETATM    1  C   UNL     1      -6.044  15.707  67.859  1.00  0.00    -0.147 C  
HETATM    2  C   UNL     1      -6.264  14.829  69.092  1.00  0.00    -0.105 C  
HETATM    3  N   UNL     1      -7.739  14.776  69.293  1.00  0.00    -0.150 NA 
HETATM    4  C   UNL     1      -8.238  15.161  68.141  1.00  0.00    -0.145 C  
HETATM    5  N   UNL     1      -7.319  15.560  67.200  1.00  0.00    -0.211 NA 
ENDROOT
BRANCH   4   6
HETATM    6  C   UNL     1      -9.748  15.137  67.912  1.00  0.00    -0.208 C  
HETATM    7  C   UNL     1     -10.271  16.584  67.967  1.00  0.00    -0.271 C  
HETATM    8  C   UNL     1     -10.227  17.101  69.403  1.00  0.00    -0.164 C  
HETATM    9  C   UNL     1     -11.161  16.291  70.295  1.00  0.00    -0.343 C  
HETATM   10  C   UNL     1     -11.178  14.809  70.003  1.00  0.00    -0.274 A  
HETATM   11  C   UNL     1     -11.946  13.981  70.835  1.00  0.00    -0.343 A  
HETATM   12  C   UNL     1     -12.084  12.622  70.557  1.00  0.00    -0.360 A  
HETATM   13  C   UNL     1     -11.447  12.075  69.447  1.00  0.00    -0.361 A  
HETATM   14  C   UNL     1     -10.671  12.885  68.615  1.00  0.00    -0.273 A  
HETATM   15  C   UNL     1     -10.536  14.261  68.874  1.00  0.00    -0.252 A  
ENDBRANCH   4   6
TORSDOF 1
ENDMDL
MODEL      100
REMARK 921   NORMALIZED FREE ENERGY PREDICTED BY IDOCK:   -3.29 KCAL/MOL
REMARK 922        TOTAL FREE ENERGY PREDICTED BY IDOCK:   -3.74 KCAL/MOL
REMARK 923 INTER-LIGAND FREE ENERGY PREDICTED BY IDOCK:   -3.62 KCAL/MOL
REMARK 924 INTRA-LIGAND FREE ENERGY PREDICTED BY IDOCK:   -0.12 KCAL/MOL
REMARK 927      BINDING AFFINITY PREDICTED BY RF-SCORE:    0.00 PKD
ROOT
HETATM    1  C   UNL     1     -10.054  10.499  64.366  1.00  0.00    -0.325 C  
HETATM    2  C   UNL     1      -8.628   9.945  64.353  1.00  0.00    -0.185 C  
HETATM    3  N   UNL     1      -7.975  10.479  65.581  1.00  0.00    -0.160 NA 
HETATM    4  C   UNL     1      -8.975  10.863  66.340  1.00  0.00    -0.175 C  
HETATM    5  N   UNL     1     -10.224  10.755  65.776  1.00  0.00    -0.257 NA 
ENDROOT
BRANCH   4   6
HETATM    6  C   UNL     1      -8.713  11.379  67.754  1.00  0.00    -0.136 C  
HETATM    7  C   UNL     1      -7.627  10.498  68.398  1.00  0.00    -0.097 C  
HETATM    8  C   UNL     1      -8.196   9.118  68.718  1.00  0.00    -0.109 C  
HETATM    9  C   UNL     1      -9.309   9.221  69.754  1.00  0.00    -0.199 C  
HETATM   10  C   UNL     1     -10.219  10.415  69.578  1.00  0.00    -0.258 A  
HETATM   11  C   UNL     1     -11.321  10.537  70.437  1.00  0.00    -0.411 A  
HETATM   12  C   UNL     1     -12.138  11.665  70.394  1.00  0.00    -0.462 A  
HETATM   13  C   UNL     1     -11.866  12.681  69.482  1.00  0.00    -0.376 A  
HETATM   14  C   UNL     1     -10.778  12.569  68.613  1.00  0.00    -0.263 A  
HETATM   15  C   UNL     1      -9.936  11.444  68.658  1.00  0.00    -0.209 A  
ENDBRANCH   4   6
TORSDOF 1
ENDMDL
MODEL      101
REMARK 921   NORMALIZED FREE ENERGY PREDICTED BY IDOCK:   -3.27 KCAL/MOL
REMARK 922        TOTAL FREE ENERGY PREDICTED BY IDOCK:   -3.72 KCAL/MOL
REMARK 923 INTER-LIGAND FREE ENERGY PREDICTED BY IDOCK:   -3.53 KCAL/MOL
REMARK 924 INTRA-LIGAND FREE ENERGY PREDICTED BY IDOCK:   -0.19 KCAL/MOL
REMARK 927      BINDING AFFINITY PREDICTED BY RF-SCORE:    0.00 PKD
ROOT
HETATM    1  C   UNL     1     -12.423  13.396  65.249  1.00  0.00    -0.483 C  
HETATM    2  C   UNL     1     -11.158  13.699  64.442  1.00  0.00    -0.364 C  
HETATM    3  N   UNL     1     -10.100  12.812  65.001  1.00  0.00    -0.253 NA 
HETATM    4  C   UNL     1     -10.763  11.889  65.659  1.00  0.00    -0.280 C  
HETATM    5  N   UNL     1     -12.126  12.063  65.713  1.00  0.00    -0.489 NA 
ENDROOT
BRANCH   4   6
HETATM    6  C   UNL     1     -10.020  10.716  66.296  1.00  0.00    -0.274 C  
HETATM    7  C   UNL     1     -10.247  10.766  67.817  1.00  0.00    -0.212 C  
HETATM    8  C   UNL     1      -9.472  11.933  68.423  1.00  0.00    -0.189 C  
HETATM    9  C   UNL     1      -7.971  11.737  68.237  1.00  0.00    -0.147 C  
HETATM   10  C   UNL     1      -7.577  11.153  66.900  1.00  0.00    -0.145 A  
HETATM   11  C   UNL     1      -6.210  11.021  66.615  1.00  0.00    -0.124 A  
HETATM   12  C   UNL     1      -5.783  10.397  65.444  1.00  0.00    -0.123 A  
HETATM   13  C   UNL     1      -6.721   9.905  64.541  1.00  0.00    -0.124 A  
HETATM   14  C   UNL     1      -8.086  10.038  64.807  1.00  0.00    -0.155 A  
HETATM   15  C   UNL     1      -8.530  10.651  65.992  1.00  0.00    -0.165 A  
ENDBRANCH   4   6
TORSDOF 1
ENDMDL
MODEL      102
REMARK 921   NORMALIZED FREE ENERGY PREDICTED BY IDOCK:   -3.27 KCAL/MOL
REMARK 922        TOTAL FREE ENERGY PREDICTED BY IDOCK:   -3.72 KCAL/MOL
REMARK 923 INTER-LIGAND FREE ENERGY PREDICTED BY IDOCK:   -3.98 KCAL/MOL
REMARK 924 INTRA-LIGAND FREE ENERGY PREDICTED BY IDOCK:    0.26 KCAL/MOL
REMARK 927      BINDING AFFINITY PREDICTED BY RF-SCORE:    0.00 PKD
ROOT
HETATM    1  C   UNL     1      -7.903  14.268  67.553  1.00  0.00    -0.194 C  
HETATM    2  C   UNL     1      -6.748  13.436  68.114  1.00  0.00    -0.117 C  
HETATM    3  N   UNL     1      -7.333  12.108  68.449  1.00  0.00    -0.101 NA 
HETATM    4  C   UNL     1      -8.463  12.071  67.780  1.00  0.00    -0.157 C  
HETATM    5  N   UNL     1      -8.787  13.222  67.102  1.00  0.00    -0.216 NA 
ENDROOT
BRANCH   4   6
HETATM    6  C   UNL     1      -9.316  10.805  67.781  1.00  0.00    -0.158 C  
HETATM    7  C   UNL     1     -10.578  11.069  66.940  1.00  0.00    -0.307 C  
HETATM    8  C   UNL     1     -11.511  12.021  67.683  1.00  0.00    -0.392 C  
HETATM    9  C   UNL     1     -12.006  11.387  68.979  1.00  0.00    -0.387 C  
HETATM   10  C   UNL     1     -10.963  10.584  69.722  1.00  0.00    -0.350 A  
HETATM   11  C   UNL     1     -11.313  10.040  70.966  1.00  0.00    -0.434 A  
HETATM   12  C   UNL     1     -10.431   9.206  71.652  1.00  0.00    -0.403 A  
HETATM   13  C   UNL     1      -9.185   8.914  71.103  1.00  0.00    -0.324 A  
HETATM   14  C   UNL     1      -8.820   9.457  69.869  1.00  0.00    -0.212 A  
HETATM   15  C   UNL     1      -9.706  10.287  69.159  1.00  0.00    -0.229 A  
ENDBRANCH   4   6
TORSDOF 1
ENDMDL
MODEL      103
REMARK 921   NORMALIZED FREE ENERGY PREDICTED BY IDOCK:   -3.26 KCAL/MOL
REMARK 922        TOTAL FREE ENERGY PREDICTED BY IDOCK:   -3.71 KCAL/MOL
REMARK 923 INTER-LIGAND FREE ENERGY PREDICTED BY IDOCK:   -3.60 KCAL/MOL
REMARK 924 INTRA-LIGAND FREE ENERGY PREDICTED BY IDOCK:   -0.11 KCAL/MOL
REMARK 927      BINDING AFFINITY PREDICTED BY RF-SCORE:    0.00 PKD
ROOT
HETATM    1  C   UNL     1      -7.818  12.489  67.885  1.00  0.00    -0.144 C  
HETATM    2  C   UNL     1      -7.372  11.350  68.805  1.00  0.00    -0.114 C  
HETATM    3  N   UNL     1      -8.600  10.559  69.094  1.00  0.00    -0.160 NA 
HETATM    4  C   UNL     1      -9.447  10.918  68.157  1.00  0.00    -0.165 C  
HETATM    5  N   UNL     1      -9.011  11.913  67.314  1.00  0.00    -0.171 NA 
ENDROOT
BRANCH   4   6
HETATM    6  C   UNL     1     -10.809  10.236  68.049  1.00  0.00    -0.325 C  
HETATM    7  C   UNL     1     -11.860  11.141  68.714  1.00  0.00    -0.388 C  
HETATM    8  C   UNL     1     -11.675  11.130  70.230  1.00  0.00    -0.431 C  
HETATM    9  C   UNL     1     -11.920   9.734  70.792  1.00  0.00    -0.382 C  
HETATM   10  C   UNL     1     -11.382   8.611  69.935  1.00  0.00     0.043 A  
HETATM   11  C   UNL     1     -11.490   7.300  70.422  1.00  0.00    -0.279 A  
HETATM   12  C   UNL     1     -11.107   6.214  69.636  1.00  0.00    -0.489 A  
HETATM   13  C   UNL     1     -10.603   6.429  68.356  1.00  0.00    -0.311 A  
HETATM   14  C   UNL     1     -10.482   7.730  67.862  1.00  0.00    -0.263 A  
HETATM   15  C   UNL     1     -10.880   8.834  68.637  1.00  0.00    -0.018 A  
ENDBRANCH   4   6
TORSDOF 1
ENDMDL
MODEL      104
REMARK 921   NORMALIZED FREE ENERGY PREDICTED BY IDOCK:   -3.26 KCAL/MOL
REMARK 922        TOTAL FREE ENERGY PREDICTED BY IDOCK:   -3.71 KCAL/MOL
REMARK 923 INTER-LIGAND FREE ENERGY PREDICTED BY IDOCK:   -3.45 KCAL/MOL
REMARK 924 INTRA-LIGAND FREE ENERGY PREDICTED BY IDOCK:   -0.26 KCAL/MOL
REMARK 927      BINDING AFFINITY PREDICTED BY RF-SCORE:    0.00 PKD
ROOT
HETATM    1  C   UNL     1      -9.679  10.900  68.536  1.00  0.00    -0.183 C  
HETATM    2  C   UNL     1     -10.688  10.173  67.645  1.00  0.00    -0.285 C  
HETATM    3  N   UNL     1     -10.650   8.747  68.071  1.00  0.00    -0.197 NA 
HETATM    4  C   UNL     1     -10.082   8.775  69.255  1.00  0.00    -0.204 C  
HETATM    5  N   UNL     1      -9.639  10.009  69.670  1.00  0.00    -0.225 NA 
ENDROOT
BRANCH   4   6
HETATM    6  C   UNL     1      -9.958   7.495  70.079  1.00  0.00    -0.186 C  
HETATM    7  C   UNL     1     -11.371   7.030  70.470  1.00  0.00    -0.355 C  
HETATM    8  C   UNL     1     -11.957   7.969  71.522  1.00  0.00    -0.331 C  
HETATM    9  C   UNL     1     -11.137   7.918  72.806  1.00  0.00    -0.462 C  
HETATM   10  C   UNL     1      -9.644   7.826  72.592  1.00  0.00    -0.261 A  
HETATM   11  C   UNL     1      -8.813   7.862  73.721  1.00  0.00    -0.332 A  
HETATM   12  C   UNL     1      -7.437   7.678  73.599  1.00  0.00    -0.139 A  
HETATM   13  C   UNL     1      -6.875   7.466  72.342  1.00  0.00    -0.059 A  
HETATM   14  C   UNL     1      -7.690   7.439  71.208  1.00  0.00    -0.087 A  
HETATM   15  C   UNL     1      -9.082   7.605  71.319  1.00  0.00    -0.146 A  
ENDBRANCH   4   6
TORSDOF 1
ENDMDL
MODEL      105
REMARK 921   NORMALIZED FREE ENERGY PREDICTED BY IDOCK:   -3.25 KCAL/MOL
REMARK 922        TOTAL FREE ENERGY PREDICTED BY IDOCK:   -3.69 KCAL/MOL
REMARK 923 INTER-LIGAND FREE ENERGY PREDICTED BY IDOCK:   -3.45 KCAL/MOL
REMARK 924 INTRA-LIGAND FREE ENERGY PREDICTED BY IDOCK:   -0.24 KCAL/MOL
REMARK 927      BINDING AFFINITY PREDICTED BY RF-SCORE:    0.00 PKD
ROOT
HETATM    1  C   UNL     1      -9.956   4.047  72.081  1.00  0.00    -0.172 C  
HETATM    2  C   UNL     1     -11.006   4.084  73.193  1.00  0.00    -0.166 C  
HETATM    3  N   UNL     1     -11.007   5.483  73.702  1.00  0.00    -0.248 NA 
HETATM    4  C   UNL     1     -10.415   6.175  72.756  1.00  0.00    -0.216 C  
HETATM    5  N   UNL     1      -9.923   5.439  71.704  1.00  0.00    -0.179 NA 
ENDROOT
BRANCH   4   6
HETATM    6  C   UNL     1     -10.317   7.695  72.861  1.00  0.00    -0.380 C  
HETATM    7  C   UNL     1     -11.718   8.290  72.629  1.00  0.00    -0.406 C  
HETATM    8  C   UNL     1     -12.107   8.148  71.159  1.00  0.00    -0.281 C  
HETATM    9  C   UNL     1     -11.165   8.955  70.273  1.00  0.00    -0.219 C  
HETATM   10  C   UNL     1      -9.716   8.916  70.699  1.00  0.00    -0.260 A  
HETATM   11  C   UNL     1      -8.772   9.562  69.888  1.00  0.00    -0.224 A  
HETATM   12  C   UNL     1      -7.437   9.649  70.279  1.00  0.00    -0.165 A  
HETATM   13  C   UNL     1      -7.030   9.082  71.484  1.00  0.00    -0.045 A  
HETATM   14  C   UNL     1      -7.958   8.428  72.298  1.00  0.00    -0.172 A  
HETATM   15  C   UNL     1      -9.311   8.347  71.923  1.00  0.00    -0.313 A  
ENDBRANCH   4   6
TORSDOF 1
ENDMDL
MODEL      106
REMARK 921   NORMALIZED FREE ENERGY PREDICTED BY IDOCK:   -3.24 KCAL/MOL
REMARK 922        TOTAL FREE ENERGY PREDICTED BY IDOCK:   -3.69 KCAL/MOL
REMARK 923 INTER-LIGAND FREE ENERGY PREDICTED BY IDOCK:   -3.46 KCAL/MOL
REMARK 924 INTRA-LIGAND FREE ENERGY PREDICTED BY IDOCK:   -0.22 KCAL/MOL
REMARK 927      BINDING AFFINITY PREDICTED BY RF-SCORE:    0.00 PKD
ROOT
HETATM    1  C   UNL     1      -8.543   4.730  69.212  1.00  0.00    -0.083 C  
HETATM    2  C   UNL     1      -7.863   4.106  70.432  1.00  0.00    -0.051 C  
HETATM    3  N   UNL     1      -7.638   5.227  71.386  1.00  0.00    -0.095 NA 
HETATM    4  C   UNL     1      -8.445   6.176  70.971  1.00  0.00    -0.128 C  
HETATM    5  N   UNL     1      -9.130   5.904  69.810  1.00  0.00    -0.137 NA 
ENDROOT
BRANCH   4   6
HETATM    6  C   UNL     1      -8.584   7.471  71.768  1.00  0.00    -0.127 C  
HETATM    7  C   UNL     1      -8.945   7.111  73.220  1.00  0.00    -0.174 C  
HETATM    8  C   UNL     1     -10.382   6.599  73.289  1.00  0.00    -0.275 C  
HETATM    9  C   UNL     1     -11.363   7.691  72.880  1.00  0.00    -0.394 C  
HETATM   10  C   UNL     1     -10.899   8.550  71.726  1.00  0.00    -0.374 A  
HETATM   11  C   UNL     1     -11.780   9.523  71.232  1.00  0.00    -0.444 A  
HETATM   12  C   UNL     1     -11.375  10.413  70.239  1.00  0.00    -0.406 A  
HETATM   13  C   UNL     1     -10.084  10.333  69.723  1.00  0.00    -0.244 A  
HETATM   14  C   UNL     1      -9.199   9.363  70.199  1.00  0.00    -0.268 A  
HETATM   15  C   UNL     1      -9.590   8.470  71.212  1.00  0.00    -0.264 A  
ENDBRANCH   4   6
TORSDOF 1
ENDMDL
MODEL      107
REMARK 921   NORMALIZED FREE ENERGY PREDICTED BY IDOCK:   -3.20 KCAL/MOL
REMARK 922        TOTAL FREE ENERGY PREDICTED BY IDOCK:   -3.64 KCAL/MOL
REMARK 923 INTER-LIGAND FREE ENERGY PREDICTED BY IDOCK:   -3.45 KCAL/MOL
REMARK 924 INTRA-LIGAND FREE ENERGY PREDICTED BY IDOCK:   -0.19 KCAL/MOL
REMARK 927      BINDING AFFINITY PREDICTED BY RF-SCORE:    0.00 PKD
ROOT
HETATM    1  C   UNL     1     -11.458  12.117  63.671  1.00  0.00    -0.481 C  
HETATM    2  C   UNL     1     -10.653  13.188  64.409  1.00  0.00    -0.421 C  
HETATM    3  N   UNL     1      -9.804  12.453  65.387  1.00  0.00    -0.226 NA 
HETATM    4  C   UNL     1      -9.804  11.214  64.952  1.00  0.00    -0.266 C  
HETATM    5  N   UNL     1     -10.607  10.968  63.864  1.00  0.00    -0.362 NA 
ENDROOT
BRANCH   4   6
HETATM    6  C   UNL     1      -8.942  10.158  65.641  1.00  0.00    -0.199 C  
HETATM    7  C   UNL     1      -9.872   9.089  66.243  1.00  0.00    -0.361 C  
HETATM    8  C   UNL     1     -10.611   9.661  67.451  1.00  0.00    -0.333 C  
HETATM    9  C   UNL     1      -9.629  10.024  68.559  1.00  0.00    -0.157 C  
HETATM   10  C   UNL     1      -8.337  10.641  68.075  1.00  0.00    -0.118 A  
HETATM   11  C   UNL     1      -7.416  11.083  69.036  1.00  0.00    -0.129 A  
HETATM   12  C   UNL     1      -6.166  11.566  68.655  1.00  0.00    -0.052 A  
HETATM   13  C   UNL     1      -5.826  11.621  67.306  1.00  0.00    -0.111 A  
HETATM   14  C   UNL     1      -6.737  11.193  66.337  1.00  0.00    -0.102 A  
HETATM   15  C   UNL     1      -7.996  10.688  66.709  1.00  0.00    -0.132 A  
ENDBRANCH   4   6
TORSDOF 1
ENDMDL
MODEL      108
REMARK 921   NORMALIZED FREE ENERGY PREDICTED BY IDOCK:   -3.20 KCAL/MOL
REMARK 922        TOTAL FREE ENERGY PREDICTED BY IDOCK:   -3.64 KCAL/MOL
REMARK 923 INTER-LIGAND FREE ENERGY PREDICTED BY IDOCK:   -3.39 KCAL/MOL
REMARK 924 INTRA-LIGAND FREE ENERGY PREDICTED BY IDOCK:   -0.25 KCAL/MOL
REMARK 927      BINDING AFFINITY PREDICTED BY RF-SCORE:    0.00 PKD
ROOT
HETATM    1  C   UNL     1      -9.515  10.861  68.496  1.00  0.00    -0.185 C  
HETATM    2  C   UNL     1      -8.974  10.167  67.245  1.00  0.00    -0.135 C  
HETATM    3  N   UNL     1      -8.461   8.847  67.705  1.00  0.00    -0.120 NA 
HETATM    4  C   UNL     1      -9.025   8.669  68.877  1.00  0.00    -0.142 C  
HETATM    5  N   UNL     1      -9.784   9.719  69.336  1.00  0.00    -0.190 NA 
ENDROOT
BRANCH   4   6
HETATM    6  C   UNL     1      -8.826   7.357  69.634  1.00  0.00    -0.141 C  
HETATM    7  C   UNL     1      -9.558   6.240  68.871  1.00  0.00    -0.135 C  
HETATM    8  C   UNL     1     -11.068   6.408  69.020  1.00  0.00    -0.424 C  
HETATM    9  C   UNL     1     -11.485   6.252  70.478  1.00  0.00    -0.407 C  
HETATM   10  C   UNL     1     -10.532   6.873  71.473  1.00  0.00    -0.231 A  
HETATM   11  C   UNL     1     -10.887   6.849  72.829  1.00  0.00    -0.305 A  
HETATM   12  C   UNL     1     -10.005   7.313  73.804  1.00  0.00    -0.368 A  
HETATM   13  C   UNL     1      -8.762   7.816  73.431  1.00  0.00    -0.283 A  
HETATM   14  C   UNL     1      -8.399   7.855  72.082  1.00  0.00    -0.168 A  
HETATM   15  C   UNL     1      -9.272   7.375  71.090  1.00  0.00    -0.155 A  
ENDBRANCH   4   6
TORSDOF 1
ENDMDL
MODEL      109
REMARK 921   NORMALIZED FREE ENERGY PREDICTED BY IDOCK:   -3.20 KCAL/MOL
REMARK 922        TOTAL FREE ENERGY PREDICTED BY IDOCK:   -3.64 KCAL/MOL
REMARK 923 INTER-LIGAND FREE ENERGY PREDICTED BY IDOCK:   -3.85 KCAL/MOL
REMARK 924 INTRA-LIGAND FREE ENERGY PREDICTED BY IDOCK:    0.21 KCAL/MOL
REMARK 927      BINDING AFFINITY PREDICTED BY RF-SCORE:    0.00 PKD
ROOT
HETATM    1  C   UNL     1     -12.044  13.665  70.516  1.00  0.00    -0.339 C  
HETATM    2  C   UNL     1     -11.812  14.946  71.319  1.00  0.00    -0.339 C  
HETATM    3  N   UNL     1     -10.671  15.637  70.657  1.00  0.00    -0.289 NA 
HETATM    4  C   UNL     1     -10.600  15.082  69.469  1.00  0.00    -0.254 C  
HETATM    5  N   UNL     1     -11.471  14.041  69.248  1.00  0.00    -0.278 NA 
ENDROOT
BRANCH   4   6
HETATM    6  C   UNL     1      -9.604  15.604  68.435  1.00  0.00    -0.199 C  
HETATM    7  C   UNL     1      -9.037  16.942  68.940  1.00  0.00    -0.223 C  
HETATM    8  C   UNL     1     -10.106  18.029  68.853  1.00  0.00    -0.352 C  
HETATM    9  C   UNL     1     -10.509  18.273  67.403  1.00  0.00    -0.430 C  
HETATM   10  C   UNL     1     -10.602  17.023  66.559  1.00  0.00    -0.172 A  
HETATM   11  C   UNL     1     -11.050  17.151  65.236  1.00  0.00     0.168 A  
HETATM   12  C   UNL     1     -11.060  16.054  64.378  1.00  0.00    -0.141 A  
HETATM   13  C   UNL     1     -10.629  14.812  64.837  1.00  0.00    -0.431 A  
HETATM   14  C   UNL     1     -10.190  14.667  66.155  1.00  0.00    -0.313 A  
HETATM   15  C   UNL     1     -10.159  15.769  67.027  1.00  0.00    -0.261 A  
ENDBRANCH   4   6
TORSDOF 1
ENDMDL
MODEL      110
REMARK 921   NORMALIZED FREE ENERGY PREDICTED BY IDOCK:   -3.19 KCAL/MOL
REMARK 922        TOTAL FREE ENERGY PREDICTED BY IDOCK:   -3.63 KCAL/MOL
REMARK 923 INTER-LIGAND FREE ENERGY PREDICTED BY IDOCK:   -3.38 KCAL/MOL
REMARK 924 INTRA-LIGAND FREE ENERGY PREDICTED BY IDOCK:   -0.25 KCAL/MOL
REMARK 927      BINDING AFFINITY PREDICTED BY RF-SCORE:    0.00 PKD
ROOT
HETATM    1  C   UNL     1     -11.441  11.663  63.872  1.00  0.00    -0.343 C  
HETATM    2  C   UNL     1     -10.692  12.920  64.318  1.00  0.00    -0.406 C  
HETATM    3  N   UNL     1      -9.857  12.502  65.479  1.00  0.00    -0.225 NA 
HETATM    4  C   UNL     1      -9.808  11.193  65.390  1.00  0.00    -0.242 C  
HETATM    5  N   UNL     1     -10.566  10.638  64.386  1.00  0.00    -0.206 NA 
ENDROOT
BRANCH   4   6
HETATM    6  C   UNL     1      -8.942  10.389  66.358  1.00  0.00    -0.166 C  
HETATM    7  C   UNL     1      -7.464  10.644  66.013  1.00  0.00    -0.137 C  
HETATM    8  C   UNL     1      -7.108   9.953  64.699  1.00  0.00    -0.137 C  
HETATM    9  C   UNL     1      -7.246   8.440  64.832  1.00  0.00    -0.084 C  
HETATM   10  C   UNL     1      -8.432   7.988  65.650  1.00  0.00    -0.162 A  
HETATM   11  C   UNL     1      -8.680   6.611  65.749  1.00  0.00    -0.126 A  
HETATM   12  C   UNL     1      -9.696   6.127  66.572  1.00  0.00    -0.184 A  
HETATM   13  C   UNL     1     -10.482   7.017  67.298  1.00  0.00    -0.363 A  
HETATM   14  C   UNL     1     -10.254   8.392  67.201  1.00  0.00    -0.362 A  
HETATM   15  C   UNL     1      -9.221   8.893  66.388  1.00  0.00    -0.240 A  
ENDBRANCH   4   6
TORSDOF 1
ENDMDL
MODEL      111
REMARK 921   NORMALIZED FREE ENERGY PREDICTED BY IDOCK:   -3.18 KCAL/MOL
REMARK 922        TOTAL FREE ENERGY PREDICTED BY IDOCK:   -3.62 KCAL/MOL
REMARK 923 INTER-LIGAND FREE ENERGY PREDICTED BY IDOCK:   -3.45 KCAL/MOL
REMARK 924 INTRA-LIGAND FREE ENERGY PREDICTED BY IDOCK:   -0.17 KCAL/MOL
REMARK 927      BINDING AFFINITY PREDICTED BY RF-SCORE:    0.00 PKD
ROOT
HETATM    1  C   UNL     1     -10.748  19.890  66.491  1.00  0.00    -0.333 C  
HETATM    2  C   UNL     1     -10.433  18.625  65.692  1.00  0.00    -0.111 C  
HETATM    3  N   UNL     1      -9.309  17.962  66.410  1.00  0.00    -0.379 NA 
HETATM    4  C   UNL     1      -9.320  18.508  67.604  1.00  0.00    -0.281 C  
HETATM    5  N   UNL     1     -10.233  19.519  67.786  1.00  0.00    -0.402 NA 
ENDROOT
BRANCH   4   6
HETATM    6  C   UNL     1      -8.366  18.006  68.687  1.00  0.00    -0.282 C  
HETATM    7  C   UNL     1      -7.283  19.075  68.913  1.00  0.00    -0.364 C  
HETATM    8  C   UNL     1      -6.333  19.117  67.719  1.00  0.00    -0.226 C  
HETATM    9  C   UNL     1      -5.584  17.797  67.579  1.00  0.00    -0.148 C  
HETATM   10  C   UNL     1      -6.419  16.570  67.864  1.00  0.00    -0.150 A  
HETATM   11  C   UNL     1      -5.830  15.312  67.675  1.00  0.00    -0.094 A  
HETATM   12  C   UNL     1      -6.513  14.146  68.018  1.00  0.00    -0.154 A  
HETATM   13  C   UNL     1      -7.798  14.227  68.546  1.00  0.00    -0.143 A  
HETATM   14  C   UNL     1      -8.401  15.473  68.731  1.00  0.00    -0.187 A  
HETATM   15  C   UNL     1      -7.718  16.657  68.405  1.00  0.00    -0.200 A  
ENDBRANCH   4   6
TORSDOF 1
ENDMDL
MODEL      112
REMARK 921   NORMALIZED FREE ENERGY PREDICTED BY IDOCK:   -3.16 KCAL/MOL
REMARK 922        TOTAL FREE ENERGY PREDICTED BY IDOCK:   -3.60 KCAL/MOL
REMARK 923 INTER-LIGAND FREE ENERGY PREDICTED BY IDOCK:   -3.90 KCAL/MOL
REMARK 924 INTRA-LIGAND FREE ENERGY PREDICTED BY IDOCK:    0.30 KCAL/MOL
REMARK 927      BINDING AFFINITY PREDICTED BY RF-SCORE:    0.00 PKD
ROOT
HETATM    1  C   UNL     1     -12.596  12.157  70.704  1.00  0.00    -0.169 C  
HETATM    2  C   UNL     1     -12.264  12.950  69.438  1.00  0.00    -0.091 C  
HETATM    3  N   UNL     1     -11.016  12.343  68.897  1.00  0.00    -0.233 NA 
HETATM    4  C   UNL     1     -10.942  11.171  69.485  1.00  0.00    -0.220 C  
HETATM    5  N   UNL     1     -11.913  10.917  70.425  1.00  0.00    -0.332 NA 
ENDROOT
BRANCH   4   6
HETATM    6  C   UNL     1      -9.837  10.188  69.103  1.00  0.00    -0.225 C  
HETATM    7  C   UNL     1      -9.012  10.805  67.960  1.00  0.00    -0.139 C  
HETATM    8  C   UNL     1      -9.827  10.806  66.669  1.00  0.00    -0.241 C  
HETATM    9  C   UNL     1     -10.138   9.380  66.228  1.00  0.00    -0.328 C  
HETATM   10  C   UNL     1     -10.473   8.434  67.358  1.00  0.00    -0.354 A  
HETATM   11  C   UNL     1     -10.856   7.125  67.031  1.00  0.00    -0.382 A  
HETATM   12  C   UNL     1     -11.079   6.178  68.029  1.00  0.00    -0.316 A  
HETATM   13  C   UNL     1     -10.929   6.533  69.367  1.00  0.00    -0.395 A  
HETATM   14  C   UNL     1     -10.558   7.836  69.708  1.00  0.00    -0.241 A  
HETATM   15  C   UNL     1     -10.314   8.797  68.711  1.00  0.00    -0.234 A  
ENDBRANCH   4   6
TORSDOF 1
ENDMDL
MODEL      113
REMARK 921   NORMALIZED FREE ENERGY PREDICTED BY IDOCK:   -3.15 KCAL/MOL
REMARK 922        TOTAL FREE ENERGY PREDICTED BY IDOCK:   -3.59 KCAL/MOL
REMARK 923 INTER-LIGAND FREE ENERGY PREDICTED BY IDOCK:   -3.46 KCAL/MOL
REMARK 924 INTRA-LIGAND FREE ENERGY PREDICTED BY IDOCK:   -0.13 KCAL/MOL
REMARK 927      BINDING AFFINITY PREDICTED BY RF-SCORE:    0.00 PKD
ROOT
HETATM    1  C   UNL     1      -7.890   9.066  65.210  1.00  0.00    -0.102 C  
HETATM    2  C   UNL     1      -6.881   9.981  65.906  1.00  0.00    -0.108 C  
HETATM    3  N   UNL     1      -7.648  11.192  66.312  1.00  0.00    -0.116 NA 
HETATM    4  C   UNL     1      -8.904  10.814  66.261  1.00  0.00    -0.173 C  
HETATM    5  N   UNL     1      -9.122   9.541  65.790  1.00  0.00    -0.181 NA 
ENDROOT
BRANCH   4   6
HETATM    6  C   UNL     1     -10.011  11.763  66.718  1.00  0.00    -0.224 C  
HETATM    7  C   UNL     1     -11.149  11.715  65.684  1.00  0.00    -0.308 C  
HETATM    8  C   UNL     1     -10.714  12.412  64.397  1.00  0.00    -0.371 C  
HETATM    9  C   UNL     1     -10.450  13.892  64.649  1.00  0.00    -0.419 C  
HETATM   10  C   UNL     1      -9.766  14.191  65.964  1.00  0.00    -0.297 A  
HETATM   11  C   UNL     1      -9.409  15.520  66.234  1.00  0.00    -0.355 A  
HETATM   12  C   UNL     1      -8.870  15.875  67.470  1.00  0.00    -0.199 A  
HETATM   13  C   UNL     1      -8.674  14.902  68.445  1.00  0.00    -0.172 A  
HETATM   14  C   UNL     1      -9.016  13.572  68.186  1.00  0.00    -0.187 A  
HETATM   15  C   UNL     1      -9.576  13.203  66.950  1.00  0.00    -0.248 A  
ENDBRANCH   4   6
TORSDOF 1
ENDMDL
MODEL      114
REMARK 921   NORMALIZED FREE ENERGY PREDICTED BY IDOCK:   -3.15 KCAL/MOL
REMARK 922        TOTAL FREE ENERGY PREDICTED BY IDOCK:   -3.58 KCAL/MOL
REMARK 923 INTER-LIGAND FREE ENERGY PREDICTED BY IDOCK:   -3.40 KCAL/MOL
REMARK 924 INTRA-LIGAND FREE ENERGY PREDICTED BY IDOCK:   -0.18 KCAL/MOL
REMARK 927      BINDING AFFINITY PREDICTED BY RF-SCORE:    0.00 PKD
ROOT
HETATM    1  C   UNL     1     -10.741   9.445  70.223  1.00  0.00    -0.253 C  
HETATM    2  C   UNL     1     -10.717   8.023  69.658  1.00  0.00    -0.207 C  
HETATM    3  N   UNL     1     -10.288   7.148  70.784  1.00  0.00    -0.206 NA 
HETATM    4  C   UNL     1     -10.486   7.878  71.858  1.00  0.00    -0.228 C  
HETATM    5  N   UNL     1     -10.906   9.167  71.629  1.00  0.00    -0.360 NA 
ENDROOT
BRANCH   4   6
HETATM    6  C   UNL     1     -10.260   7.281  73.246  1.00  0.00    -0.365 C  
HETATM    7  C   UNL     1      -9.028   7.958  73.871  1.00  0.00    -0.287 C  
HETATM    8  C   UNL     1      -7.759   7.484  73.167  1.00  0.00    -0.123 C  
HETATM    9  C   UNL     1      -7.555   5.988  73.373  1.00  0.00    -0.097 C  
HETATM   10  C   UNL     1      -8.825   5.170  73.320  1.00  0.00    -0.118 A  
HETATM   11  C   UNL     1      -8.715   3.775  73.414  1.00  0.00    -0.086 A  
HETATM   12  C   UNL     1      -9.853   2.973  73.474  1.00  0.00    -0.155 A  
HETATM   13  C   UNL     1     -11.116   3.558  73.431  1.00  0.00    -0.291 A  
HETATM   14  C   UNL     1     -11.240   4.946  73.327  1.00  0.00    -0.423 A  
HETATM   15  C   UNL     1     -10.100   5.768  73.282  1.00  0.00    -0.202 A  
ENDBRANCH   4   6
TORSDOF 1
ENDMDL
MODEL      115
REMARK 921   NORMALIZED FREE ENERGY PREDICTED BY IDOCK:   -3.14 KCAL/MOL
REMARK 922        TOTAL FREE ENERGY PREDICTED BY IDOCK:   -3.58 KCAL/MOL
REMARK 923 INTER-LIGAND FREE ENERGY PREDICTED BY IDOCK:   -3.61 KCAL/MOL
REMARK 924 INTRA-LIGAND FREE ENERGY PREDICTED BY IDOCK:    0.04 KCAL/MOL
REMARK 927      BINDING AFFINITY PREDICTED BY RF-SCORE:    0.00 PKD
ROOT
HETATM    1  C   UNL     1      -9.772  15.391  68.446  1.00  0.00    -0.211 C  
HETATM    2  C   UNL     1     -10.461  15.387  69.812  1.00  0.00    -0.293 C  
HETATM    3  N   UNL     1     -11.458  14.281  69.758  1.00  0.00    -0.266 NA 
HETATM    4  C   UNL     1     -11.070  13.542  68.745  1.00  0.00    -0.264 C  
HETATM    5  N   UNL     1      -9.999  14.028  68.032  1.00  0.00    -0.229 NA 
ENDROOT
BRANCH   4   6
HETATM    6  C   UNL     1     -11.789  12.232  68.429  1.00  0.00    -0.358 C  
HETATM    7  C   UNL     1     -12.408  11.692  69.730  1.00  0.00    -0.197 C  
HETATM    8  C   UNL     1     -11.309  11.177  70.657  1.00  0.00     0.142 C  
HETATM    9  C   UNL     1     -10.583   9.995  70.025  1.00  0.00    -0.344 C  
HETATM   10  C   UNL     1     -10.347  10.126  68.538  1.00  0.00    -0.203 A  
HETATM   11  C   UNL     1      -9.609   9.121  67.896  1.00  0.00    -0.168 A  
HETATM   12  C   UNL     1      -9.445   9.132  66.512  1.00  0.00    -0.266 A  
HETATM   13  C   UNL     1     -10.011  10.155  65.755  1.00  0.00    -0.339 A  
HETATM   14  C   UNL     1     -10.740  11.168  66.383  1.00  0.00    -0.303 A  
HETATM   15  C   UNL     1     -10.927  11.160  67.776  1.00  0.00    -0.315 A  
ENDBRANCH   4   6
TORSDOF 1
ENDMDL
MODEL      116
REMARK 921   NORMALIZED FREE ENERGY PREDICTED BY IDOCK:   -3.13 KCAL/MOL
REMARK 922        TOTAL FREE ENERGY PREDICTED BY IDOCK:   -3.57 KCAL/MOL
REMARK 923 INTER-LIGAND FREE ENERGY PREDICTED BY IDOCK:   -3.32 KCAL/MOL
REMARK 924 INTRA-LIGAND FREE ENERGY PREDICTED BY IDOCK:   -0.25 KCAL/MOL
REMARK 927      BINDING AFFINITY PREDICTED BY RF-SCORE:    0.00 PKD
ROOT
HETATM    1  C   UNL     1      -6.063   6.996  71.317  1.00  0.00    -0.037 C  
HETATM    2  C   UNL     1      -6.270   7.834  72.580  1.00  0.00    -0.061 C  
HETATM    3  N   UNL     1      -7.524   8.604  72.353  1.00  0.00    -0.317 NA 
HETATM    4  C   UNL     1      -8.122   7.971  71.370  1.00  0.00    -0.107 C  
HETATM    5  N   UNL     1      -7.416   6.925  70.823  1.00  0.00    -0.081 NA 
ENDROOT
BRANCH   4   6
HETATM    6  C   UNL     1      -9.514   8.402  70.912  1.00  0.00    -0.205 C  
HETATM    7  C   UNL     1     -10.522   8.045  72.018  1.00  0.00    -0.308 C  
HETATM    8  C   UNL     1     -10.717   6.532  72.078  1.00  0.00    -0.253 C  
HETATM    9  C   UNL     1     -11.330   6.016  70.781  1.00  0.00    -0.295 C  
HETATM   10  C   UNL     1     -10.803   6.682  69.531  1.00  0.00    -0.339 A  
HETATM   11  C   UNL     1     -11.252   6.206  68.291  1.00  0.00    -0.192 A  
HETATM   12  C   UNL     1     -10.884   6.844  67.107  1.00  0.00    -0.447 A  
HETATM   13  C   UNL     1     -10.054   7.961  67.152  1.00  0.00    -0.328 A  
HETATM   14  C   UNL     1      -9.591   8.440  68.379  1.00  0.00    -0.157 A  
HETATM   15  C   UNL     1      -9.968   7.817  69.582  1.00  0.00    -0.190 A  
ENDBRANCH   4   6
TORSDOF 1
ENDMDL
MODEL      117
REMARK 921   NORMALIZED FREE ENERGY PREDICTED BY IDOCK:   -3.11 KCAL/MOL
REMARK 922        TOTAL FREE ENERGY PREDICTED BY IDOCK:   -3.54 KCAL/MOL
REMARK 923 INTER-LIGAND FREE ENERGY PREDICTED BY IDOCK:   -3.36 KCAL/MOL
REMARK 924 INTRA-LIGAND FREE ENERGY PREDICTED BY IDOCK:   -0.19 KCAL/MOL
REMARK 927      BINDING AFFINITY PREDICTED BY RF-SCORE:    0.00 PKD
ROOT
HETATM    1  C   UNL     1     -11.510  12.530  65.686  1.00  0.00    -0.359 C  
HETATM    2  C   UNL     1     -10.695  13.265  64.620  1.00  0.00    -0.400 C  
HETATM    3  N   UNL     1     -10.704  14.699  65.022  1.00  0.00    -0.404 NA 
HETATM    4  C   UNL     1     -11.057  14.681  66.287  1.00  0.00    -0.336 C  
HETATM    5  N   UNL     1     -11.382  13.445  66.794  1.00  0.00    -0.314 NA 
ENDROOT
BRANCH   4   6
HETATM    6  C   UNL     1     -11.078  15.975  67.098  1.00  0.00    -0.104 C  
HETATM    7  C   UNL     1      -9.750  16.716  66.864  1.00  0.00    -0.261 C  
HETATM    8  C   UNL     1      -8.610  15.980  67.564  1.00  0.00    -0.190 C  
HETATM    9  C   UNL     1      -8.819  15.977  69.074  1.00  0.00    -0.244 C  
HETATM   10  C   UNL     1     -10.253  15.781  69.508  1.00  0.00    -0.271 A  
HETATM   11  C   UNL     1     -10.519  15.679  70.881  1.00  0.00     0.206 A  
HETATM   12  C   UNL     1     -11.830  15.601  71.349  1.00  0.00    -0.482 A  
HETATM   13  C   UNL     1     -12.889  15.613  70.447  1.00  0.00    -0.252 A  
HETATM   14  C   UNL     1     -12.639  15.704  69.075  1.00  0.00     0.422 A  
HETATM   15  C   UNL     1     -11.323  15.801  68.590  1.00  0.00    -0.369 A  
ENDBRANCH   4   6
TORSDOF 1
ENDMDL
MODEL      118
REMARK 921   NORMALIZED FREE ENERGY PREDICTED BY IDOCK:   -3.08 KCAL/MOL
REMARK 922        TOTAL FREE ENERGY PREDICTED BY IDOCK:   -3.52 KCAL/MOL
REMARK 923 INTER-LIGAND FREE ENERGY PREDICTED BY IDOCK:   -3.34 KCAL/MOL
REMARK 924 INTRA-LIGAND FREE ENERGY PREDICTED BY IDOCK:   -0.18 KCAL/MOL
REMARK 927      BINDING AFFINITY PREDICTED BY RF-SCORE:    0.00 PKD
ROOT
HETATM    1  C   UNL     1      -7.315  11.816  66.971  1.00  0.00    -0.133 C  
HETATM    2  C   UNL     1      -8.386  10.923  67.599  1.00  0.00    -0.116 C  
HETATM    3  N   UNL     1      -9.344  11.849  68.265  1.00  0.00    -0.191 NA 
HETATM    4  C   UNL     1      -9.101  13.018  67.720  1.00  0.00    -0.200 C  
HETATM    5  N   UNL     1      -8.048  13.052  66.836  1.00  0.00    -0.021 NA 
ENDROOT
BRANCH   4   6
HETATM    6  C   UNL     1      -9.967  14.226  68.070  1.00  0.00    -0.220 C  
HETATM    7  C   UNL     1     -11.246  14.170  67.216  1.00  0.00    -0.330 C  
HETATM    8  C   UNL     1     -10.916  14.491  65.761  1.00  0.00    -0.319 C  
HETATM    9  C   UNL     1     -10.396  15.918  65.629  1.00  0.00    -0.413 C  
HETATM   10  C   UNL     1      -9.479  16.356  66.748  1.00  0.00    -0.265 A  
HETATM   11  C   UNL     1      -8.888  17.625  66.658  1.00  0.00    -0.283 A  
HETATM   12  C   UNL     1      -8.117  18.127  67.705  1.00  0.00    -0.234 A  
HETATM   13  C   UNL     1      -7.921  17.361  68.850  1.00  0.00    -0.187 A  
HETATM   14  C   UNL     1      -8.495  16.091  68.949  1.00  0.00    -0.232 A  
HETATM   15  C   UNL     1      -9.290  15.579  67.908  1.00  0.00    -0.192 A  
ENDBRANCH   4   6
TORSDOF 1
ENDMDL
MODEL      119
REMARK 921   NORMALIZED FREE ENERGY PREDICTED BY IDOCK:   -3.07 KCAL/MOL
REMARK 922        TOTAL FREE ENERGY PREDICTED BY IDOCK:   -3.51 KCAL/MOL
REMARK 923 INTER-LIGAND FREE ENERGY PREDICTED BY IDOCK:   -3.46 KCAL/MOL
REMARK 924 INTRA-LIGAND FREE ENERGY PREDICTED BY IDOCK:   -0.05 KCAL/MOL
REMARK 927      BINDING AFFINITY PREDICTED BY RF-SCORE:    0.00 PKD
ROOT
HETATM    1  C   UNL     1      -9.831   7.841  66.479  1.00  0.00    -0.185 C  
HETATM    2  C   UNL     1      -8.684   7.287  67.326  1.00  0.00    -0.121 C  
HETATM    3  N   UNL     1      -8.346   8.361  68.301  1.00  0.00    -0.130 NA 
HETATM    4  C   UNL     1      -9.395   9.150  68.292  1.00  0.00    -0.135 C  
HETATM    5  N   UNL     1     -10.374   8.826  67.382  1.00  0.00    -0.260 NA 
ENDROOT
BRANCH   4   6
HETATM    6  C   UNL     1      -9.477  10.331  69.258  1.00  0.00    -0.230 C  
HETATM    7  C   UNL     1     -10.272   9.888  70.499  1.00  0.00    -0.257 C  
HETATM    8  C   UNL     1     -11.748   9.730  70.145  1.00  0.00    -0.190 C  
HETATM    9  C   UNL     1     -12.348  11.068  69.728  1.00  0.00    -0.331 C  
HETATM   10  C   UNL     1     -11.436  11.928  68.885  1.00  0.00    -0.358 A  
HETATM   11  C   UNL     1     -11.943  13.138  68.388  1.00  0.00    -0.324 A  
HETATM   12  C   UNL     1     -11.121  14.022  67.692  1.00  0.00    -0.298 A  
HETATM   13  C   UNL     1      -9.783  13.702  67.478  1.00  0.00    -0.227 A  
HETATM   14  C   UNL     1      -9.267  12.497  67.959  1.00  0.00    -0.204 A  
HETATM   15  C   UNL     1     -10.080  11.602  68.678  1.00  0.00    -0.206 A  
ENDBRANCH   4   6
TORSDOF 1
ENDMDL
MODEL      120
REMARK 921   NORMALIZED FREE ENERGY PREDICTED BY IDOCK:   -3.05 KCAL/MOL
REMARK 922        TOTAL FREE ENERGY PREDICTED BY IDOCK:   -3.48 KCAL/MOL
REMARK 923 INTER-LIGAND FREE ENERGY PREDICTED BY IDOCK:   -3.29 KCAL/MOL
REMARK 924 INTRA-LIGAND FREE ENERGY PREDICTED BY IDOCK:   -0.19 KCAL/MOL
REMARK 927      BINDING AFFINITY PREDICTED BY RF-SCORE:    0.00 PKD
ROOT
HETATM    1  C   UNL     1      -8.648  11.185  68.558  1.00  0.00    -0.157 C  
HETATM    2  C   UNL     1      -7.695   9.995  68.684  1.00  0.00    -0.086 C  
HETATM    3  N   UNL     1      -8.488   8.907  69.319  1.00  0.00    -0.119 NA 
HETATM    4  C   UNL     1      -9.738   9.273  69.149  1.00  0.00    -0.164 C  
HETATM    5  N   UNL     1      -9.921  10.505  68.567  1.00  0.00    -0.163 NA 
ENDROOT
BRANCH   4   6
HETATM    6  C   UNL     1     -10.875   8.348  69.578  1.00  0.00    -0.126 C  
HETATM    7  C   UNL     1     -11.620   9.007  70.753  1.00  0.00    -0.313 C  
HETATM    8  C   UNL     1     -10.754   8.966  72.009  1.00  0.00    -0.389 C  
HETATM    9  C   UNL     1     -10.498   7.526  72.440  1.00  0.00    -0.291 C  
HETATM   10  C   UNL     1     -10.258   6.564  71.300  1.00  0.00    -0.223 A  
HETATM   11  C   UNL     1      -9.930   5.238  71.614  1.00  0.00    -0.236 A  
HETATM   12  C   UNL     1      -9.797   4.280  70.610  1.00  0.00    -0.265 A  
HETATM   13  C   UNL     1      -9.983   4.641  69.279  1.00  0.00    -0.231 A  
HETATM   14  C   UNL     1     -10.301   5.961  68.950  1.00  0.00    -0.290 A  
HETATM   15  C   UNL     1     -10.454   6.934  69.954  1.00  0.00    -0.239 A  
ENDBRANCH   4   6
TORSDOF 1
ENDMDL
MODEL      121
REMARK 921   NORMALIZED FREE ENERGY PREDICTED BY IDOCK:   -3.04 KCAL/MOL
REMARK 922        TOTAL FREE ENERGY PREDICTED BY IDOCK:   -3.47 KCAL/MOL
REMARK 923 INTER-LIGAND FREE ENERGY PREDICTED BY IDOCK:   -3.30 KCAL/MOL
REMARK 924 INTRA-LIGAND FREE ENERGY PREDICTED BY IDOCK:   -0.17 KCAL/MOL
REMARK 927      BINDING AFFINITY PREDICTED BY RF-SCORE:    0.00 PKD
ROOT
HETATM    1  C   UNL     1     -10.679  11.307  66.298  1.00  0.00    -0.257 C  
HETATM    2  C   UNL     1     -10.032  10.036  65.745  1.00  0.00    -0.276 C  
HETATM    3  N   UNL     1      -9.795   9.157  66.924  1.00  0.00    -0.198 NA 
HETATM    4  C   UNL     1     -10.572   9.652  67.860  1.00  0.00    -0.255 C  
HETATM    5  N   UNL     1     -11.245  10.802  67.524  1.00  0.00    -0.384 NA 
ENDROOT
BRANCH   4   6
HETATM    6  C   UNL     1     -10.692   8.948  69.210  1.00  0.00    -0.177 C  
HETATM    7  C   UNL     1      -9.970   9.802  70.268  1.00  0.00    -0.309 C  
HETATM    8  C   UNL     1      -8.459   9.723  70.059  1.00  0.00    -0.229 C  
HETATM    9  C   UNL     1      -7.960   8.298  70.269  1.00  0.00    -0.102 C  
HETATM   10  C   UNL     1      -8.876   7.227  69.724  1.00  0.00    -0.142 A  
HETATM   11  C   UNL     1      -8.448   5.893  69.799  1.00  0.00    -0.125 A  
HETATM   12  C   UNL     1      -9.290   4.853  69.409  1.00  0.00    -0.186 A  
HETATM   13  C   UNL     1     -10.565   5.137  68.929  1.00  0.00    -0.047 A  
HETATM   14  C   UNL     1     -11.000   6.461  68.839  1.00  0.00    -0.412 A  
HETATM   15  C   UNL     1     -10.168   7.519  69.246  1.00  0.00    -0.201 A  
ENDBRANCH   4   6
TORSDOF 1
ENDMDL
MODEL      122
REMARK 921   NORMALIZED FREE ENERGY PREDICTED BY IDOCK:   -3.03 KCAL/MOL
REMARK 922        TOTAL FREE ENERGY PREDICTED BY IDOCK:   -3.46 KCAL/MOL
REMARK 923 INTER-LIGAND FREE ENERGY PREDICTED BY IDOCK:   -3.32 KCAL/MOL
REMARK 924 INTRA-LIGAND FREE ENERGY PREDICTED BY IDOCK:   -0.14 KCAL/MOL
REMARK 927      BINDING AFFINITY PREDICTED BY RF-SCORE:    0.00 PKD
ROOT
HETATM    1  C   UNL     1     -11.059  16.075  70.217  1.00  0.00    -0.374 C  
HETATM    2  C   UNL     1     -12.164  15.347  69.449  1.00  0.00    -0.219 C  
HETATM    3  N   UNL     1     -11.619  15.112  68.083  1.00  0.00    -0.343 NA 
HETATM    4  C   UNL     1     -10.322  15.266  68.219  1.00  0.00    -0.234 C  
HETATM    5  N   UNL     1      -9.899  15.662  69.465  1.00  0.00    -0.277 NA 
ENDROOT
BRANCH   4   6
HETATM    6  C   UNL     1      -9.389  14.997  67.040  1.00  0.00    -0.237 C  
HETATM    7  C   UNL     1      -9.843  13.701  66.346  1.00  0.00    -0.302 C  
HETATM    8  C   UNL     1      -9.517  12.496  67.226  1.00  0.00    -0.193 C  
HETATM    9  C   UNL     1      -8.010  12.357  67.411  1.00  0.00    -0.178 C  
HETATM   10  C   UNL     1      -7.277  13.666  67.585  1.00  0.00    -0.179 A  
HETATM   11  C   UNL     1      -5.900  13.622  67.847  1.00  0.00    -0.131 A  
HETATM   12  C   UNL     1      -5.149  14.794  67.915  1.00  0.00    -0.065 A  
HETATM   13  C   UNL     1      -5.771  16.026  67.731  1.00  0.00    -0.161 A  
HETATM   14  C   UNL     1      -7.143  16.086  67.479  1.00  0.00    -0.199 A  
HETATM   15  C   UNL     1      -7.910  14.911  67.391  1.00  0.00    -0.224 A  
ENDBRANCH   4   6
TORSDOF 1
ENDMDL
MODEL      123
REMARK 921   NORMALIZED FREE ENERGY PREDICTED BY IDOCK:   -3.02 KCAL/MOL
REMARK 922        TOTAL FREE ENERGY PREDICTED BY IDOCK:   -3.45 KCAL/MOL
REMARK 923 INTER-LIGAND FREE ENERGY PREDICTED BY IDOCK:   -3.20 KCAL/MOL
REMARK 924 INTRA-LIGAND FREE ENERGY PREDICTED BY IDOCK:   -0.25 KCAL/MOL
REMARK 927      BINDING AFFINITY PREDICTED BY RF-SCORE:    0.00 PKD
ROOT
HETATM    1  C   UNL     1     -11.959   6.783  71.812  1.00  0.00    -0.339 C  
HETATM    2  C   UNL     1     -11.470   7.834  72.810  1.00  0.00    -0.359 C  
HETATM    3  N   UNL     1     -10.157   8.306  72.289  1.00  0.00    -0.271 NA 
HETATM    4  C   UNL     1     -10.151   7.930  71.031  1.00  0.00    -0.192 C  
HETATM    5  N   UNL     1     -11.235   7.184  70.631  1.00  0.00    -0.270 NA 
ENDROOT
BRANCH   4   6
HETATM    6  C   UNL     1      -8.997   8.331  70.114  1.00  0.00    -0.142 C  
HETATM    7  C   UNL     1      -8.928   9.868  70.064  1.00  0.00    -0.206 C  
HETATM    8  C   UNL     1     -10.107  10.418  69.266  1.00  0.00    -0.248 C  
HETATM    9  C   UNL     1     -10.038   9.956  67.815  1.00  0.00    -0.221 C  
HETATM   10  C   UNL     1      -9.576   8.529  67.634  1.00  0.00    -0.187 A  
HETATM   11  C   UNL     1      -9.567   7.998  66.335  1.00  0.00    -0.267 A  
HETATM   12  C   UNL     1      -9.056   6.725  66.089  1.00  0.00    -0.138 A  
HETATM   13  C   UNL     1      -8.556   5.964  67.143  1.00  0.00    -0.106 A  
HETATM   14  C   UNL     1      -8.567   6.476  68.442  1.00  0.00    -0.119 A  
HETATM   15  C   UNL     1      -9.065   7.765  68.702  1.00  0.00    -0.136 A  
ENDBRANCH   4   6
TORSDOF 1
ENDMDL
MODEL      124
REMARK 921   NORMALIZED FREE ENERGY PREDICTED BY IDOCK:   -2.93 KCAL/MOL
REMARK 922        TOTAL FREE ENERGY PREDICTED BY IDOCK:   -3.36 KCAL/MOL
REMARK 923 INTER-LIGAND FREE ENERGY PREDICTED BY IDOCK:   -3.10 KCAL/MOL
REMARK 924 INTRA-LIGAND FREE ENERGY PREDICTED BY IDOCK:   -0.26 KCAL/MOL
REMARK 927      BINDING AFFINITY PREDICTED BY RF-SCORE:    0.00 PKD
ROOT
HETATM    1  C   UNL     1     -12.020   8.898  71.002  1.00  0.00    -0.261 C  
HETATM    2  C   UNL     1     -12.179   7.434  71.420  1.00  0.00    -0.342 C  
HETATM    3  N   UNL     1     -11.634   6.630  70.291  1.00  0.00    -0.393 NA 
HETATM    4  C   UNL     1     -10.908   7.482  69.605  1.00  0.00    -0.202 C  
HETATM    5  N   UNL     1     -10.945   8.784  70.048  1.00  0.00    -0.236 NA 
ENDROOT
BRANCH   4   6
HETATM    6  C   UNL     1     -10.085   7.004  68.410  1.00  0.00    -0.176 C  
HETATM    7  C   UNL     1      -8.997   6.043  68.923  1.00  0.00    -0.123 C  
HETATM    8  C   UNL     1      -7.930   6.824  69.686  1.00  0.00    -0.124 C  
HETATM    9  C   UNL     1      -7.214   7.802  68.762  1.00  0.00    -0.081 C  
HETATM   10  C   UNL     1      -8.112   8.491  67.761  1.00  0.00    -0.115 A  
HETATM   11  C   UNL     1      -7.547   9.470  66.931  1.00  0.00    -0.095 A  
HETATM   12  C   UNL     1      -8.298  10.067  65.920  1.00  0.00    -0.129 A  
HETATM   13  C   UNL     1      -9.627   9.697  65.735  1.00  0.00    -0.329 A  
HETATM   14  C   UNL     1     -10.206   8.731  66.560  1.00  0.00    -0.314 A  
HETATM   15  C   UNL     1      -9.455   8.108  67.573  1.00  0.00    -0.184 A  
ENDBRANCH   4   6
TORSDOF 1
ENDMDL
MODEL      125
REMARK 921   NORMALIZED FREE ENERGY PREDICTED BY IDOCK:   -2.91 KCAL/MOL
REMARK 922        TOTAL FREE ENERGY PREDICTED BY IDOCK:   -3.34 KCAL/MOL
REMARK 923 INTER-LIGAND FREE ENERGY PREDICTED BY IDOCK:   -3.09 KCAL/MOL
REMARK 924 INTRA-LIGAND FREE ENERGY PREDICTED BY IDOCK:   -0.25 KCAL/MOL
REMARK 927      BINDING AFFINITY PREDICTED BY RF-SCORE:    0.00 PKD
ROOT
HETATM    1  C   UNL     1      -9.268   3.445  66.107  1.00  0.00    -0.163 C  
HETATM    2  C   UNL     1     -10.222   4.002  65.048  1.00  0.00    -0.181 C  
HETATM    3  N   UNL     1     -11.083   4.988  65.759  1.00  0.00     0.003 NA 
HETATM    4  C   UNL     1     -10.430   5.252  66.867  1.00  0.00    -0.254 C  
HETATM    5  N   UNL     1      -9.283   4.521  67.067  1.00  0.00    -0.126 NA 
ENDROOT
BRANCH   4   6
HETATM    6  C   UNL     1     -10.948   6.319  67.829  1.00  0.00    -0.427 C  
HETATM    7  C   UNL     1     -10.778   7.696  67.165  1.00  0.00    -0.361 C  
HETATM    8  C   UNL     1      -9.300   8.074  67.118  1.00  0.00    -0.186 C  
HETATM    9  C   UNL     1      -8.738   8.225  68.527  1.00  0.00    -0.133 C  
HETATM   10  C   UNL     1      -9.248   7.204  69.517  1.00  0.00    -0.149 A  
HETATM   11  C   UNL     1      -8.714   7.219  70.815  1.00  0.00    -0.146 A  
HETATM   12  C   UNL     1      -9.216   6.371  71.801  1.00  0.00    -0.143 A  
HETATM   13  C   UNL     1     -10.251   5.491  71.497  1.00  0.00    -0.270 A  
HETATM   14  C   UNL     1     -10.785   5.458  70.207  1.00  0.00    -0.286 A  
HETATM   15  C   UNL     1     -10.300   6.320  69.206  1.00  0.00    -0.266 A  
ENDBRANCH   4   6
TORSDOF 1
ENDMDL
MODEL      126
REMARK 921   NORMALIZED FREE ENERGY PREDICTED BY IDOCK:   -2.90 KCAL/MOL
REMARK 922        TOTAL FREE ENERGY PREDICTED BY IDOCK:   -3.33 KCAL/MOL
REMARK 923 INTER-LIGAND FREE ENERGY PREDICTED BY IDOCK:   -3.18 KCAL/MOL
REMARK 924 INTRA-LIGAND FREE ENERGY PREDICTED BY IDOCK:   -0.15 KCAL/MOL
REMARK 927      BINDING AFFINITY PREDICTED BY RF-SCORE:    0.00 PKD
ROOT
HETATM    1  C   UNL     1     -11.511  13.254  67.901  1.00  0.00    -0.306 C  
HETATM    2  C   UNL     1     -11.734  14.768  67.929  1.00  0.00    -0.341 C  
HETATM    3  N   UNL     1     -10.384  15.378  67.778  1.00  0.00    -0.249 NA 
HETATM    4  C   UNL     1      -9.639  14.408  67.302  1.00  0.00    -0.227 C  
HETATM    5  N   UNL     1     -10.260  13.186  67.187  1.00  0.00    -0.243 NA 
ENDROOT
BRANCH   4   6
HETATM    6  C   UNL     1      -8.188  14.675  66.906  1.00  0.00    -0.110 C  
HETATM    7  C   UNL     1      -7.308  13.565  67.508  1.00  0.00    -0.174 C  
HETATM    8  C   UNL     1      -7.209  13.741  69.021  1.00  0.00    -0.063 C  
HETATM    9  C   UNL     1      -6.512  15.052  69.367  1.00  0.00    -0.135 C  
HETATM   10  C   UNL     1      -6.882  16.213  68.473  1.00  0.00    -0.135 A  
HETATM   11  C   UNL     1      -6.351  17.475  68.777  1.00  0.00    -0.197 A  
HETATM   12  C   UNL     1      -6.571  18.562  67.934  1.00  0.00    -0.212 A  
HETATM   13  C   UNL     1      -7.334  18.401  66.781  1.00  0.00    -0.234 A  
HETATM   14  C   UNL     1      -7.878  17.152  66.471  1.00  0.00    -0.325 A  
HETATM   15  C   UNL     1      -7.650  16.042  67.304  1.00  0.00    -0.227 A  
ENDBRANCH   4   6
TORSDOF 1
ENDMDL
MODEL      127
REMARK 921   NORMALIZED FREE ENERGY PREDICTED BY IDOCK:   -2.90 KCAL/MOL
REMARK 922        TOTAL FREE ENERGY PREDICTED BY IDOCK:   -3.32 KCAL/MOL
REMARK 923 INTER-LIGAND FREE ENERGY PREDICTED BY IDOCK:   -3.66 KCAL/MOL
REMARK 924 INTRA-LIGAND FREE ENERGY PREDICTED BY IDOCK:    0.34 KCAL/MOL
REMARK 927      BINDING AFFINITY PREDICTED BY RF-SCORE:    0.00 PKD
ROOT
HETATM    1  C   UNL     1     -10.568  10.751  64.977  1.00  0.00    -0.173 C  
HETATM    2  C   UNL     1     -11.262  12.096  65.201  1.00  0.00    -0.329 C  
HETATM    3  N   UNL     1     -11.155  12.368  66.661  1.00  0.00    -0.275 NA 
HETATM    4  C   UNL     1     -10.199  11.567  67.072  1.00  0.00    -0.214 C  
HETATM    5  N   UNL     1      -9.692  10.713  66.122  1.00  0.00    -0.197 NA 
ENDROOT
BRANCH   4   6
HETATM    6  C   UNL     1      -9.714  11.629  68.519  1.00  0.00    -0.187 C  
HETATM    7  C   UNL     1      -8.185  11.450  68.527  1.00  0.00    -0.153 C  
HETATM    8  C   UNL     1      -7.828  10.005  68.186  1.00  0.00    -0.089 C  
HETATM    9  C   UNL     1      -8.359   9.053  69.252  1.00  0.00    -0.122 C  
HETATM   10  C   UNL     1      -9.727   9.410  69.784  1.00  0.00    -0.215 A  
HETATM   11  C   UNL     1     -10.325   8.537  70.705  1.00  0.00    -0.238 A  
HETATM   12  C   UNL     1     -11.539   8.860  71.309  1.00  0.00    -0.371 A  
HETATM   13  C   UNL     1     -12.173  10.058  70.991  1.00  0.00    -0.462 A  
HETATM   14  C   UNL     1     -11.594  10.932  70.068  1.00  0.00    -0.424 A  
HETATM   15  C   UNL     1     -10.362  10.626  69.464  1.00  0.00    -0.214 A  
ENDBRANCH   4   6
TORSDOF 1
ENDMDL
MODEL      128
REMARK 921   NORMALIZED FREE ENERGY PREDICTED BY IDOCK:   -2.90 KCAL/MOL
REMARK 922        TOTAL FREE ENERGY PREDICTED BY IDOCK:   -3.32 KCAL/MOL
REMARK 923 INTER-LIGAND FREE ENERGY PREDICTED BY IDOCK:   -3.80 KCAL/MOL
REMARK 924 INTRA-LIGAND FREE ENERGY PREDICTED BY IDOCK:    0.48 KCAL/MOL
REMARK 927      BINDING AFFINITY PREDICTED BY RF-SCORE:    0.00 PKD
ROOT
HETATM    1  C   UNL     1      -8.740  16.812  66.265  1.00  0.00    -0.307 C  
HETATM    2  C   UNL     1      -9.354  16.903  67.663  1.00  0.00    -0.233 C  
HETATM    3  N   UNL     1     -10.353  15.801  67.738  1.00  0.00    -0.268 NA 
HETATM    4  C   UNL     1     -10.022  14.994  66.758  1.00  0.00    -0.248 C  
HETATM    5  N   UNL     1      -8.991  15.426  65.957  1.00  0.00    -0.266 NA 
ENDROOT
BRANCH   4   6
HETATM    6  C   UNL     1     -10.759  13.669  66.570  1.00  0.00    -0.284 C  
HETATM    7  C   UNL     1     -12.186  13.825  67.124  1.00  0.00    -0.352 C  
HETATM    8  C   UNL     1     -12.149  13.897  68.649  1.00  0.00    -0.337 C  
HETATM    9  C   UNL     1     -11.619  12.594  69.237  1.00  0.00    -0.376 C  
HETATM   10  C   UNL     1     -10.481  11.974  68.461  1.00  0.00    -0.244 A  
HETATM   11  C   UNL     1      -9.879  10.819  68.982  1.00  0.00    -0.208 A  
HETATM   12  C   UNL     1      -8.894  10.143  68.264  1.00  0.00    -0.124 A  
HETATM   13  C   UNL     1      -8.494  10.620  67.019  1.00  0.00    -0.129 A  
HETATM   14  C   UNL     1      -9.078  11.775  66.492  1.00  0.00    -0.203 A  
HETATM   15  C   UNL     1     -10.084  12.458  67.198  1.00  0.00    -0.221 A  
ENDBRANCH   4   6
TORSDOF 1
ENDMDL
MODEL      129
REMARK 921   NORMALIZED FREE ENERGY PREDICTED BY IDOCK:   -2.87 KCAL/MOL
REMARK 922        TOTAL FREE ENERGY PREDICTED BY IDOCK:   -3.30 KCAL/MOL
REMARK 923 INTER-LIGAND FREE ENERGY PREDICTED BY IDOCK:   -3.07 KCAL/MOL
REMARK 924 INTRA-LIGAND FREE ENERGY PREDICTED BY IDOCK:   -0.23 KCAL/MOL
REMARK 927      BINDING AFFINITY PREDICTED BY RF-SCORE:    0.00 PKD
ROOT
HETATM    1  C   UNL     1     -12.245   7.320  71.934  1.00  0.00    -0.313 C  
HETATM    2  C   UNL     1     -11.570   6.039  72.430  1.00  0.00    -0.300 C  
HETATM    3  N   UNL     1     -10.491   5.745  71.447  1.00  0.00    -0.229 NA 
HETATM    4  C   UNL     1     -10.314   6.878  70.808  1.00  0.00    -0.203 C  
HETATM    5  N   UNL     1     -11.180   7.891  71.146  1.00  0.00    -0.256 NA 
ENDROOT
BRANCH   4   6
HETATM    6  C   UNL     1      -9.198   7.012  69.774  1.00  0.00    -0.147 C  
HETATM    7  C   UNL     1      -7.858   7.146  70.520  1.00  0.00    -0.100 C  
HETATM    8  C   UNL     1      -7.768   8.515  71.190  1.00  0.00    -0.115 C  
HETATM    9  C   UNL     1      -7.770   9.626  70.146  1.00  0.00    -0.179 C  
HETATM   10  C   UNL     1      -8.705   9.390  68.982  1.00  0.00    -0.136 A  
HETATM   11  C   UNL     1      -8.831  10.404  68.021  1.00  0.00    -0.130 A  
HETATM   12  C   UNL     1      -9.597  10.207  66.873  1.00  0.00    -0.219 A  
HETATM   13  C   UNL     1     -10.254   8.994  66.679  1.00  0.00    -0.333 A  
HETATM   14  C   UNL     1     -10.145   7.979  67.633  1.00  0.00    -0.269 A  
HETATM   15  C   UNL     1      -9.362   8.159  68.787  1.00  0.00    -0.143 A  
ENDBRANCH   4   6
TORSDOF 1
ENDMDL
MODEL      130
REMARK 921   NORMALIZED FREE ENERGY PREDICTED BY IDOCK:   -2.87 KCAL/MOL
REMARK 922        TOTAL FREE ENERGY PREDICTED BY IDOCK:   -3.29 KCAL/MOL
REMARK 923 INTER-LIGAND FREE ENERGY PREDICTED BY IDOCK:   -3.04 KCAL/MOL
REMARK 924 INTRA-LIGAND FREE ENERGY PREDICTED BY IDOCK:   -0.25 KCAL/MOL
REMARK 927      BINDING AFFINITY PREDICTED BY RF-SCORE:    0.00 PKD
ROOT
HETATM    1  C   UNL     1      -8.395   3.799  73.166  1.00  0.00    -0.091 C  
HETATM    2  C   UNL     1      -8.752   4.602  74.419  1.00  0.00    -0.109 C  
HETATM    3  N   UNL     1      -8.998   5.994  73.950  1.00  0.00    -0.126 NA 
HETATM    4  C   UNL     1      -9.191   5.873  72.657  1.00  0.00    -0.137 C  
HETATM    5  N   UNL     1      -9.023   4.606  72.149  1.00  0.00    -0.125 NA 
ENDROOT
BRANCH   4   6
HETATM    6  C   UNL     1      -9.586   7.089  71.821  1.00  0.00    -0.161 C  
HETATM    7  C   UNL     1     -10.913   7.643  72.367  1.00  0.00    -0.353 C  
HETATM    8  C   UNL     1     -12.058   6.695  72.017  1.00  0.00    -0.353 C  
HETATM    9  C   UNL     1     -12.240   6.605  70.506  1.00  0.00    -0.209 C  
HETATM   10  C   UNL     1     -10.949   6.589  69.719  1.00  0.00    -0.396 A  
HETATM   11  C   UNL     1     -11.026   6.421  68.329  1.00  0.00    -0.396 A  
HETATM   12  C   UNL     1      -9.881   6.499  67.538  1.00  0.00    -0.150 A  
HETATM   13  C   UNL     1      -8.644   6.737  68.131  1.00  0.00    -0.120 A  
HETATM   14  C   UNL     1      -8.552   6.896  69.516  1.00  0.00    -0.134 A  
HETATM   15  C   UNL     1      -9.701   6.837  70.324  1.00  0.00    -0.179 A  
ENDBRANCH   4   6
TORSDOF 1
ENDMDL
MODEL      131
REMARK 921   NORMALIZED FREE ENERGY PREDICTED BY IDOCK:   -2.83 KCAL/MOL
REMARK 922        TOTAL FREE ENERGY PREDICTED BY IDOCK:   -3.24 KCAL/MOL
REMARK 923 INTER-LIGAND FREE ENERGY PREDICTED BY IDOCK:   -3.67 KCAL/MOL
REMARK 924 INTRA-LIGAND FREE ENERGY PREDICTED BY IDOCK:    0.42 KCAL/MOL
REMARK 927      BINDING AFFINITY PREDICTED BY RF-SCORE:    0.00 PKD
ROOT
HETATM    1  C   UNL     1     -12.168   9.893  71.335  1.00  0.00    -0.408 C  
HETATM    2  C   UNL     1     -13.245  10.591  70.502  1.00  0.00    -0.016 C  
HETATM    3  N   UNL     1     -12.513  11.487  69.564  1.00  0.00    -0.101 NA 
HETATM    4  C   UNL     1     -11.283  11.028  69.568  1.00  0.00    -0.279 C  
HETATM    5  N   UNL     1     -11.038   9.998  70.445  1.00  0.00    -0.305 NA 
ENDROOT
BRANCH   4   6
HETATM    6  C   UNL     1     -10.235  11.628  68.632  1.00  0.00    -0.215 C  
HETATM    7  C   UNL     1     -10.800  12.933  68.044  1.00  0.00    -0.261 C  
HETATM    8  C   UNL     1     -11.906  12.617  67.040  1.00  0.00    -0.415 C  
HETATM    9  C   UNL     1     -11.349  11.837  65.853  1.00  0.00    -0.324 C  
HETATM   10  C   UNL     1     -10.310  10.802  66.216  1.00  0.00    -0.303 A  
HETATM   11  C   UNL     1      -9.811   9.982  65.194  1.00  0.00    -0.388 A  
HETATM   12  C   UNL     1      -8.779   9.079  65.444  1.00  0.00    -0.221 A  
HETATM   13  C   UNL     1      -8.241   8.980  66.725  1.00  0.00    -0.115 A  
HETATM   14  C   UNL     1      -8.736   9.783  67.755  1.00  0.00    -0.129 A  
HETATM   15  C   UNL     1      -9.765  10.710  67.513  1.00  0.00    -0.189 A  
ENDBRANCH   4   6
TORSDOF 1
ENDMDL
MODEL      132
REMARK 921   NORMALIZED FREE ENERGY PREDICTED BY IDOCK:   -2.81 KCAL/MOL
REMARK 922        TOTAL FREE ENERGY PREDICTED BY IDOCK:   -3.23 KCAL/MOL
REMARK 923 INTER-LIGAND FREE ENERGY PREDICTED BY IDOCK:   -3.04 KCAL/MOL
REMARK 924 INTRA-LIGAND FREE ENERGY PREDICTED BY IDOCK:   -0.19 KCAL/MOL
REMARK 927      BINDING AFFINITY PREDICTED BY RF-SCORE:    0.00 PKD
ROOT
HETATM    1  C   UNL     1     -11.980   9.498  71.050  1.00  0.00    -0.328 C  
HETATM    2  C   UNL     1     -11.023   9.493  69.856  1.00  0.00    -0.238 C  
HETATM    3  N   UNL     1     -10.471   8.111  69.787  1.00  0.00    -0.224 NA 
HETATM    4  C   UNL     1     -11.302   7.392  70.505  1.00  0.00    -0.271 C  
HETATM    5  N   UNL     1     -12.301   8.094  71.136  1.00  0.00    -0.262 NA 
ENDROOT
BRANCH   4   6
HETATM    6  C   UNL     1     -11.132   5.876  70.590  1.00  0.00    -0.335 C  
HETATM    7  C   UNL     1     -10.808   5.505  72.048  1.00  0.00    -0.287 C  
HETATM    8  C   UNL     1      -9.391   5.953  72.398  1.00  0.00    -0.149 C  
HETATM    9  C   UNL     1      -8.366   5.212  71.547  1.00  0.00    -0.120 C  
HETATM   10  C   UNL     1      -8.781   5.001  70.109  1.00  0.00    -0.130 A  
HETATM   11  C   UNL     1      -7.858   4.404  69.238  1.00  0.00    -0.058 A  
HETATM   12  C   UNL     1      -8.216   4.089  67.928  1.00  0.00    -0.094 A  
HETATM   13  C   UNL     1      -9.500   4.377  67.473  1.00  0.00    -0.201 A  
HETATM   14  C   UNL     1     -10.426   4.981  68.327  1.00  0.00    -0.015 A  
HETATM   15  C   UNL     1     -10.083   5.289  69.656  1.00  0.00    -0.327 A  
ENDBRANCH   4   6
TORSDOF 1
ENDMDL
MODEL      133
REMARK 921   NORMALIZED FREE ENERGY PREDICTED BY IDOCK:   -2.80 KCAL/MOL
REMARK 922        TOTAL FREE ENERGY PREDICTED BY IDOCK:   -3.21 KCAL/MOL
REMARK 923 INTER-LIGAND FREE ENERGY PREDICTED BY IDOCK:   -3.56 KCAL/MOL
REMARK 924 INTRA-LIGAND FREE ENERGY PREDICTED BY IDOCK:    0.35 KCAL/MOL
REMARK 927      BINDING AFFINITY PREDICTED BY RF-SCORE:    0.00 PKD
ROOT
HETATM    1  C   UNL     1     -10.810  13.622  64.572  1.00  0.00    -0.406 C  
HETATM    2  C   UNL     1     -11.607  12.832  63.532  1.00  0.00    -0.501 C  
HETATM    3  N   UNL     1     -11.012  11.467  63.519  1.00  0.00    -0.404 NA 
HETATM    4  C   UNL     1     -10.340  11.393  64.644  1.00  0.00    -0.307 C  
HETATM    5  N   UNL     1     -10.309  12.546  65.392  1.00  0.00    -0.278 NA 
ENDROOT
BRANCH   4   6
HETATM    6  C   UNL     1      -9.664  10.086  65.051  1.00  0.00    -0.386 C  
HETATM    7  C   UNL     1      -9.389  10.132  66.565  1.00  0.00    -0.200 C  
HETATM    8  C   UNL     1      -8.262  11.119  66.861  1.00  0.00    -0.149 C  
HETATM    9  C   UNL     1      -6.959  10.655  66.220  1.00  0.00    -0.133 C  
HETATM   10  C   UNL     1      -7.118  10.047  64.846  1.00  0.00    -0.136 A  
HETATM   11  C   UNL     1      -5.958   9.673  64.151  1.00  0.00    -0.099 A  
HETATM   12  C   UNL     1      -6.043   9.015  62.926  1.00  0.00    -0.090 A  
HETATM   13  C   UNL     1      -7.290   8.730  62.377  1.00  0.00    -0.100 A  
HETATM   14  C   UNL     1      -8.454   9.105  63.053  1.00  0.00    -0.206 A  
HETATM   15  C   UNL     1      -8.383   9.755  64.298  1.00  0.00    -0.168 A  
ENDBRANCH   4   6
TORSDOF 1
ENDMDL
MODEL      134
REMARK 921   NORMALIZED FREE ENERGY PREDICTED BY IDOCK:   -2.78 KCAL/MOL
REMARK 922        TOTAL FREE ENERGY PREDICTED BY IDOCK:   -3.20 KCAL/MOL
REMARK 923 INTER-LIGAND FREE ENERGY PREDICTED BY IDOCK:   -3.54 KCAL/MOL
REMARK 924 INTRA-LIGAND FREE ENERGY PREDICTED BY IDOCK:    0.35 KCAL/MOL
REMARK 927      BINDING AFFINITY PREDICTED BY RF-SCORE:    0.00 PKD
ROOT
HETATM    1  C   UNL     1     -12.615  13.195  71.688  1.00  0.00    -0.128 C  
HETATM    2  C   UNL     1     -13.109  14.517  71.098  1.00  0.00    -0.359 C  
HETATM    3  N   UNL     1     -12.423  14.654  69.783  1.00  0.00    -0.255 NA 
HETATM    4  C   UNL     1     -12.004  13.440  69.507  1.00  0.00    -0.319 C  
HETATM    5  N   UNL     1     -12.222  12.501  70.487  1.00  0.00    -0.352 NA 
ENDROOT
BRANCH   4   6
HETATM    6  C   UNL     1     -11.334  13.145  68.167  1.00  0.00    -0.328 C  
HETATM    7  C   UNL     1     -11.710  11.715  67.740  1.00  0.00    -0.315 C  
HETATM    8  C   UNL     1     -10.992  10.700  68.627  1.00  0.00    -0.291 C  
HETATM    9  C   UNL     1      -9.482  10.800  68.446  1.00  0.00    -0.174 C  
HETATM   10  C   UNL     1      -8.960  12.211  68.300  1.00  0.00    -0.186 A  
HETATM   11  C   UNL     1      -7.572  12.395  68.216  1.00  0.00    -0.131 A  
HETATM   12  C   UNL     1      -7.035  13.659  67.978  1.00  0.00    -0.135 A  
HETATM   13  C   UNL     1      -7.881  14.755  67.832  1.00  0.00    -0.145 A  
HETATM   14  C   UNL     1      -9.265  14.588  67.924  1.00  0.00    -0.196 A  
HETATM   15  C   UNL     1      -9.821  13.315  68.146  1.00  0.00    -0.231 A  
ENDBRANCH   4   6
TORSDOF 1
ENDMDL
MODEL      135
REMARK 921   NORMALIZED FREE ENERGY PREDICTED BY IDOCK:   -2.73 KCAL/MOL
REMARK 922        TOTAL FREE ENERGY PREDICTED BY IDOCK:   -3.15 KCAL/MOL
REMARK 923 INTER-LIGAND FREE ENERGY PREDICTED BY IDOCK:   -2.96 KCAL/MOL
REMARK 924 INTRA-LIGAND FREE ENERGY PREDICTED BY IDOCK:   -0.19 KCAL/MOL
REMARK 927      BINDING AFFINITY PREDICTED BY RF-SCORE:    0.00 PKD
ROOT
HETATM    1  C   UNL     1     -12.659  11.075  71.153  1.00  0.00    -0.418 C  
HETATM    2  C   UNL     1     -12.075  12.003  70.086  1.00  0.00    -0.298 C  
HETATM    3  N   UNL     1     -10.971  11.237  69.445  1.00  0.00    -0.243 NA 
HETATM    4  C   UNL     1     -11.207   9.988  69.774  1.00  0.00    -0.258 C  
HETATM    5  N   UNL     1     -12.266   9.790  70.628  1.00  0.00    -0.242 NA 
ENDROOT
BRANCH   4   6
HETATM    6  C   UNL     1     -10.338   8.866  69.208  1.00  0.00    -0.221 C  
HETATM    7  C   UNL     1      -9.740   8.074  70.384  1.00  0.00    -0.178 C  
HETATM    8  C   UNL     1      -8.673   8.910  71.087  1.00  0.00    -0.280 C  
HETATM    9  C   UNL     1      -7.507   9.195  70.147  1.00  0.00    -0.082 C  
HETATM   10  C   UNL     1      -7.909   9.489  68.721  1.00  0.00    -0.084 A  
HETATM   11  C   UNL     1      -6.903   9.846  67.811  1.00  0.00    -0.080 A  
HETATM   12  C   UNL     1      -7.195  10.030  66.461  1.00  0.00    -0.101 A  
HETATM   13  C   UNL     1      -8.501   9.867  66.007  1.00  0.00    -0.135 A  
HETATM   14  C   UNL     1      -9.515   9.521  66.903  1.00  0.00    -0.204 A  
HETATM   15  C   UNL     1      -9.232   9.316  68.265  1.00  0.00    -0.134 A  
ENDBRANCH   4   6
TORSDOF 1
ENDMDL
MODEL      136
REMARK 921   NORMALIZED FREE ENERGY PREDICTED BY IDOCK:   -2.73 KCAL/MOL
REMARK 922        TOTAL FREE ENERGY PREDICTED BY IDOCK:   -3.14 KCAL/MOL
REMARK 923 INTER-LIGAND FREE ENERGY PREDICTED BY IDOCK:   -3.61 KCAL/MOL
REMARK 924 INTRA-LIGAND FREE ENERGY PREDICTED BY IDOCK:    0.47 KCAL/MOL
REMARK 927      BINDING AFFINITY PREDICTED BY RF-SCORE:    0.00 PKD
ROOT
HETATM    1  C   UNL     1     -10.312  11.001  65.569  1.00  0.00    -0.260 C  
HETATM    2  C   UNL     1     -11.245  12.157  65.202  1.00  0.00    -0.329 C  
HETATM    3  N   UNL     1     -11.411  12.953  66.450  1.00  0.00    -0.323 NA 
HETATM    4  C   UNL     1     -10.412  12.576  67.213  1.00  0.00    -0.220 C  
HETATM    5  N   UNL     1      -9.629  11.565  66.708  1.00  0.00    -0.184 NA 
ENDROOT
BRANCH   4   6
HETATM    6  C   UNL     1     -10.173  13.256  68.560  1.00  0.00    -0.222 C  
HETATM    7  C   UNL     1     -11.539  13.524  69.217  1.00  0.00    -0.369 C  
HETATM    8  C   UNL     1     -12.263  14.646  68.476  1.00  0.00    -0.135 C  
HETATM    9  C   UNL     1     -11.488  15.954  68.588  1.00  0.00    -0.391 C  
HETATM   10  C   UNL     1      -9.987  15.803  68.493  1.00  0.00    -0.208 A  
HETATM   11  C   UNL     1      -9.205  16.967  68.501  1.00  0.00    -0.266 A  
HETATM   12  C   UNL     1      -7.814  16.891  68.520  1.00  0.00    -0.240 A  
HETATM   13  C   UNL     1      -7.189  15.647  68.522  1.00  0.00    -0.120 A  
HETATM   14  C   UNL     1      -7.955  14.479  68.504  1.00  0.00    -0.142 A  
HETATM   15  C   UNL     1      -9.360  14.541  68.502  1.00  0.00    -0.203 A  
ENDBRANCH   4   6
TORSDOF 1
ENDMDL
MODEL      137
REMARK 921   NORMALIZED FREE ENERGY PREDICTED BY IDOCK:   -2.68 KCAL/MOL
REMARK 922        TOTAL FREE ENERGY PREDICTED BY IDOCK:   -3.09 KCAL/MOL
REMARK 923 INTER-LIGAND FREE ENERGY PREDICTED BY IDOCK:   -3.42 KCAL/MOL
REMARK 924 INTRA-LIGAND FREE ENERGY PREDICTED BY IDOCK:    0.32 KCAL/MOL
REMARK 927      BINDING AFFINITY PREDICTED BY RF-SCORE:    0.00 PKD
ROOT
HETATM    1  C   UNL     1     -12.351   7.255  71.941  1.00  0.00    -0.312 C  
HETATM    2  C   UNL     1     -11.689   5.990  72.491  1.00  0.00    -0.232 C  
HETATM    3  N   UNL     1     -10.670   5.596  71.479  1.00  0.00    -0.248 NA 
HETATM    4  C   UNL     1     -10.493   6.677  70.755  1.00  0.00    -0.216 C  
HETATM    5  N   UNL     1     -11.312   7.737  71.065  1.00  0.00    -0.268 NA 
ENDROOT
BRANCH   4   6
HETATM    6  C   UNL     1      -9.427   6.705  69.662  1.00  0.00    -0.144 C  
HETATM    7  C   UNL     1      -9.280   8.154  69.165  1.00  0.00    -0.151 C  
HETATM    8  C   UNL     1     -10.508   8.554  68.351  1.00  0.00    -0.215 C  
HETATM    9  C   UNL     1     -10.624   7.698  67.095  1.00  0.00    -0.410 C  
HETATM   10  C   UNL     1     -10.263   6.244  67.293  1.00  0.00    -0.237 A  
HETATM   11  C   UNL     1     -10.426   5.371  66.207  1.00  0.00    -0.277 A  
HETATM   12  C   UNL     1     -10.015   4.042  66.295  1.00  0.00    -0.125 A  
HETATM   13  C   UNL     1      -9.445   3.569  67.474  1.00  0.00    -0.233 A  
HETATM   14  C   UNL     1      -9.286   4.425  68.566  1.00  0.00    -0.186 A  
HETATM   15  C   UNL     1      -9.680   5.773  68.486  1.00  0.00    -0.161 A  
ENDBRANCH   4   6
TORSDOF 1
ENDMDL
MODEL      138
REMARK 921   NORMALIZED FREE ENERGY PREDICTED BY IDOCK:   -2.68 KCAL/MOL
REMARK 922        TOTAL FREE ENERGY PREDICTED BY IDOCK:   -3.09 KCAL/MOL
REMARK 923 INTER-LIGAND FREE ENERGY PREDICTED BY IDOCK:   -3.39 KCAL/MOL
REMARK 924 INTRA-LIGAND FREE ENERGY PREDICTED BY IDOCK:    0.30 KCAL/MOL
REMARK 927      BINDING AFFINITY PREDICTED BY RF-SCORE:    0.00 PKD
ROOT
HETATM    1  C   UNL     1     -11.199   9.234  69.975  1.00  0.00    -0.168 C  
HETATM    2  C   UNL     1      -9.797   8.911  69.455  1.00  0.00    -0.180 C  
HETATM    3  N   UNL     1      -9.634   9.707  68.208  1.00  0.00    -0.140 NA 
HETATM    4  C   UNL     1     -10.570  10.625  68.283  1.00  0.00    -0.194 C  
HETATM    5  N   UNL     1     -11.416  10.522  69.362  1.00  0.00    -0.260 NA 
ENDROOT
BRANCH   4   6
HETATM    6  C   UNL     1     -10.660  11.720  67.221  1.00  0.00    -0.259 C  
HETATM    7  C   UNL     1      -9.484  11.547  66.244  1.00  0.00    -0.235 C  
HETATM    8  C   UNL     1      -8.177  11.943  66.926  1.00  0.00    -0.157 C  
HETATM    9  C   UNL     1      -8.189  13.422  67.297  1.00  0.00    -0.162 C  
HETATM   10  C   UNL     1      -9.518  13.927  67.811  1.00  0.00    -0.214 A  
HETATM   11  C   UNL     1      -9.591  15.255  68.255  1.00  0.00    -0.206 A  
HETATM   12  C   UNL     1     -10.809  15.810  68.644  1.00  0.00    -0.278 A  
HETATM   13  C   UNL     1     -11.967  15.038  68.601  1.00  0.00    -0.278 A  
HETATM   14  C   UNL     1     -11.907  13.711  68.170  1.00  0.00    -0.407 A  
HETATM   15  C   UNL     1     -10.688  13.144  67.759  1.00  0.00    -0.252 A  
ENDBRANCH   4   6
TORSDOF 1
ENDMDL
MODEL      139
REMARK 921   NORMALIZED FREE ENERGY PREDICTED BY IDOCK:   -2.67 KCAL/MOL
REMARK 922        TOTAL FREE ENERGY PREDICTED BY IDOCK:   -3.08 KCAL/MOL
REMARK 923 INTER-LIGAND FREE ENERGY PREDICTED BY IDOCK:   -3.25 KCAL/MOL
REMARK 924 INTRA-LIGAND FREE ENERGY PREDICTED BY IDOCK:    0.16 KCAL/MOL
REMARK 927      BINDING AFFINITY PREDICTED BY RF-SCORE:    0.00 PKD
ROOT
HETATM    1  C   UNL     1     -10.449  20.273  68.626  1.00  0.00     0.022 C  
HETATM    2  C   UNL     1     -11.009  19.868  67.261  1.00  0.00    -0.127 C  
HETATM    3  N   UNL     1     -10.474  18.503  66.994  1.00  0.00    -0.395 NA 
HETATM    4  C   UNL     1     -10.085  18.070  68.171  1.00  0.00    -0.372 C  
HETATM    5  N   UNL     1     -10.190  18.976  69.200  1.00  0.00    -0.207 NA 
ENDROOT
BRANCH   4   6
HETATM    6  C   UNL     1      -9.568  16.642  68.332  1.00  0.00    -0.233 C  
HETATM    7  C   UNL     1      -8.146  16.571  67.749  1.00  0.00    -0.170 C  
HETATM    8  C   UNL     1      -8.201  16.665  66.227  1.00  0.00    -0.365 C  
HETATM    9  C   UNL     1      -8.946  15.472  65.640  1.00  0.00     0.260 C  
HETATM   10  C   UNL     1     -10.154  15.035  66.435  1.00  0.00    -0.289 A  
HETATM   11  C   UNL     1     -10.945  13.998  65.918  1.00  0.00    -0.286 A  
HETATM   12  C   UNL     1     -12.011  13.482  66.652  1.00  0.00    -0.452 A  
HETATM   13  C   UNL     1     -12.304  14.004  67.909  1.00  0.00    -0.018 A  
HETATM   14  C   UNL     1     -11.531  15.043  68.432  1.00  0.00    -0.340 A  
HETATM   15  C   UNL     1     -10.442  15.562  67.710  1.00  0.00    -0.273 A  
ENDBRANCH   4   6
TORSDOF 1
ENDMDL
MODEL      140
REMARK 921   NORMALIZED FREE ENERGY PREDICTED BY IDOCK:   -2.64 KCAL/MOL
REMARK 922        TOTAL FREE ENERGY PREDICTED BY IDOCK:   -3.05 KCAL/MOL
REMARK 923 INTER-LIGAND FREE ENERGY PREDICTED BY IDOCK:   -2.79 KCAL/MOL
REMARK 924 INTRA-LIGAND FREE ENERGY PREDICTED BY IDOCK:   -0.26 KCAL/MOL
REMARK 927      BINDING AFFINITY PREDICTED BY RF-SCORE:    0.00 PKD
ROOT
HETATM    1  C   UNL     1      -8.111   7.480  66.894  1.00  0.00    -0.116 C  
HETATM    2  C   UNL     1      -6.650   7.418  67.343  1.00  0.00    -0.061 C  
HETATM    3  N   UNL     1      -6.662   7.723  68.801  1.00  0.00    -0.052 NA 
HETATM    4  C   UNL     1      -7.910   7.532  69.164  1.00  0.00    -0.119 C  
HETATM    5  N   UNL     1      -8.782   7.227  68.146  1.00  0.00    -0.128 NA 
ENDROOT
BRANCH   4   6
HETATM    6  C   UNL     1      -8.309   7.643  70.634  1.00  0.00    -0.125 C  
HETATM    7  C   UNL     1      -7.577   6.542  71.420  1.00  0.00    -0.094 C  
HETATM    8  C   UNL     1      -8.172   5.177  71.084  1.00  0.00    -0.116 C  
HETATM    9  C   UNL     1      -9.629   5.100  71.528  1.00  0.00    -0.208 C  
HETATM   10  C   UNL     1     -10.419   6.369  71.305  1.00  0.00    -0.258 A  
HETATM   11  C   UNL     1     -11.789   6.355  71.606  1.00  0.00    -0.361 A  
HETATM   12  C   UNL     1     -12.549   7.519  71.519  1.00  0.00    -0.385 A  
HETATM   13  C   UNL     1     -11.949   8.710  71.119  1.00  0.00    -0.320 A  
HETATM   14  C   UNL     1     -10.588   8.737  70.806  1.00  0.00    -0.269 A  
HETATM   15  C   UNL     1      -9.805   7.573  70.906  1.00  0.00    -0.177 A  
ENDBRANCH   4   6
TORSDOF 1
ENDMDL
MODEL      141
REMARK 921   NORMALIZED FREE ENERGY PREDICTED BY IDOCK:   -2.62 KCAL/MOL
REMARK 922        TOTAL FREE ENERGY PREDICTED BY IDOCK:   -3.03 KCAL/MOL
REMARK 923 INTER-LIGAND FREE ENERGY PREDICTED BY IDOCK:   -3.27 KCAL/MOL
REMARK 924 INTRA-LIGAND FREE ENERGY PREDICTED BY IDOCK:    0.24 KCAL/MOL
REMARK 927      BINDING AFFINITY PREDICTED BY RF-SCORE:    0.00 PKD
ROOT
HETATM    1  C   UNL     1      -5.893  19.274  66.742  1.00  0.00    -0.165 C  
HETATM    2  C   UNL     1      -7.302  19.870  66.748  1.00  0.00    -0.245 C  
HETATM    3  N   UNL     1      -8.173  18.844  67.385  1.00  0.00    -0.268 NA 
HETATM    4  C   UNL     1      -7.336  18.051  68.013  1.00  0.00    -0.232 C  
HETATM    5  N   UNL     1      -6.003  18.329  67.827  1.00  0.00    -0.161 NA 
ENDROOT
BRANCH   4   6
HETATM    6  C   UNL     1      -7.863  16.915  68.889  1.00  0.00    -0.233 C  
HETATM    7  C   UNL     1      -6.662  16.105  69.408  1.00  0.00    -0.205 C  
HETATM    8  C   UNL     1      -6.044  15.299  68.269  1.00  0.00    -0.122 C  
HETATM    9  C   UNL     1      -7.036  14.270  67.738  1.00  0.00    -0.191 C  
HETATM   10  C   UNL     1      -8.464  14.759  67.658  1.00  0.00    -0.185 A  
HETATM   11  C   UNL     1      -9.424  13.903  67.099  1.00  0.00    -0.246 A  
HETATM   12  C   UNL     1     -10.773  14.254  67.091  1.00  0.00    -0.282 A  
HETATM   13  C   UNL     1     -11.175  15.471  67.634  1.00  0.00    -0.291 A  
HETATM   14  C   UNL     1     -10.228  16.338  68.185  1.00  0.00    -0.258 A  
HETATM   15  C   UNL     1      -8.866  15.989  68.215  1.00  0.00    -0.182 A  
ENDBRANCH   4   6
TORSDOF 1
ENDMDL
MODEL      142
REMARK 921   NORMALIZED FREE ENERGY PREDICTED BY IDOCK:   -2.59 KCAL/MOL
REMARK 922        TOTAL FREE ENERGY PREDICTED BY IDOCK:   -3.00 KCAL/MOL
REMARK 923 INTER-LIGAND FREE ENERGY PREDICTED BY IDOCK:   -2.92 KCAL/MOL
REMARK 924 INTRA-LIGAND FREE ENERGY PREDICTED BY IDOCK:   -0.08 KCAL/MOL
REMARK 927      BINDING AFFINITY PREDICTED BY RF-SCORE:    0.00 PKD
ROOT
HETATM    1  C   UNL     1     -10.977   7.816  70.902  1.00  0.00    -0.250 C  
HETATM    2  C   UNL     1     -10.158   8.478  72.012  1.00  0.00    -0.316 C  
HETATM    3  N   UNL     1      -9.179   9.361  71.319  1.00  0.00    -0.257 NA 
HETATM    4  C   UNL     1      -9.669   9.505  70.110  1.00  0.00    -0.246 C  
HETATM    5  N   UNL     1     -10.801   8.773  69.838  1.00  0.00    -0.226 NA 
ENDROOT
BRANCH   4   6
HETATM    6  C   UNL     1      -8.993  10.445  69.113  1.00  0.00    -0.188 C  
HETATM    7  C   UNL     1      -9.664  11.826  69.217  1.00  0.00     0.400 C  
HETATM    8  C   UNL     1     -11.069  11.770  68.620  1.00  0.00    -0.289 C  
HETATM    9  C   UNL     1     -11.009  11.452  67.131  1.00  0.00    -0.340 C  
HETATM   10  C   UNL     1      -9.962  10.431  66.750  1.00  0.00    -0.256 A  
HETATM   11  C   UNL     1      -9.899  10.018  65.411  1.00  0.00    -0.384 A  
HETATM   12  C   UNL     1      -8.892   9.158  64.977  1.00  0.00    -0.230 A  
HETATM   13  C   UNL     1      -7.940   8.694  65.881  1.00  0.00    -0.105 A  
HETATM   14  C   UNL     1      -7.996   9.089  67.220  1.00  0.00    -0.099 A  
HETATM   15  C   UNL     1      -8.997   9.969  67.668  1.00  0.00    -0.135 A  
ENDBRANCH   4   6
TORSDOF 1
ENDMDL
MODEL      143
REMARK 921   NORMALIZED FREE ENERGY PREDICTED BY IDOCK:   -2.59 KCAL/MOL
REMARK 922        TOTAL FREE ENERGY PREDICTED BY IDOCK:   -3.00 KCAL/MOL
REMARK 923 INTER-LIGAND FREE ENERGY PREDICTED BY IDOCK:   -2.83 KCAL/MOL
REMARK 924 INTRA-LIGAND FREE ENERGY PREDICTED BY IDOCK:   -0.17 KCAL/MOL
REMARK 927      BINDING AFFINITY PREDICTED BY RF-SCORE:    0.00 PKD
ROOT
HETATM    1  C   UNL     1     -12.240  10.881  70.088  1.00  0.00    -0.343 C  
HETATM    2  C   UNL     1     -11.175  10.179  70.934  1.00  0.00    -0.307 C  
HETATM    3  N   UNL     1     -10.215   9.585  69.964  1.00  0.00    -0.226 NA 
HETATM    4  C   UNL     1     -10.450  10.222  68.840  1.00  0.00    -0.211 C  
HETATM    5  N   UNL     1     -11.500  11.110  68.871  1.00  0.00    -0.267 NA 
ENDROOT
BRANCH   4   6
HETATM    6  C   UNL     1      -9.579   9.964  67.613  1.00  0.00    -0.172 C  
HETATM    7  C   UNL     1     -10.404   9.162  66.591  1.00  0.00    -0.289 C  
HETATM    8  C   UNL     1     -10.599   7.731  67.085  1.00  0.00    -0.401 C  
HETATM    9  C   UNL     1      -9.260   7.010  67.189  1.00  0.00    -0.153 C  
HETATM   10  C   UNL     1      -8.127   7.864  67.710  1.00  0.00    -0.128 A  
HETATM   11  C   UNL     1      -6.882   7.254  67.918  1.00  0.00    -0.070 A  
HETATM   12  C   UNL     1      -5.773   8.008  68.298  1.00  0.00    -0.033 A  
HETATM   13  C   UNL     1      -5.901   9.382  68.484  1.00  0.00    -0.041 A  
HETATM   14  C   UNL     1      -7.138  10.002  68.291  1.00  0.00    -0.072 A  
HETATM   15  C   UNL     1      -8.261   9.256  67.891  1.00  0.00    -0.115 A  
ENDBRANCH   4   6
TORSDOF 1
ENDMDL
MODEL      144
REMARK 921   NORMALIZED FREE ENERGY PREDICTED BY IDOCK:   -2.59 KCAL/MOL
REMARK 922        TOTAL FREE ENERGY PREDICTED BY IDOCK:   -2.99 KCAL/MOL
REMARK 923 INTER-LIGAND FREE ENERGY PREDICTED BY IDOCK:   -3.32 KCAL/MOL
REMARK 924 INTRA-LIGAND FREE ENERGY PREDICTED BY IDOCK:    0.33 KCAL/MOL
REMARK 927      BINDING AFFINITY PREDICTED BY RF-SCORE:    0.00 PKD
ROOT
HETATM    1  C   UNL     1     -11.524   5.107  72.787  1.00  0.00    -0.210 C  
HETATM    2  C   UNL     1     -10.172   4.399  72.891  1.00  0.00    -0.172 C  
HETATM    3  N   UNL     1      -9.240   5.177  72.029  1.00  0.00    -0.136 NA 
HETATM    4  C   UNL     1      -9.841   6.333  71.860  1.00  0.00    -0.155 C  
HETATM    5  N   UNL     1     -11.098   6.432  72.408  1.00  0.00    -0.255 NA 
ENDROOT
BRANCH   4   6
HETATM    6  C   UNL     1      -9.140   7.461  71.107  1.00  0.00    -0.148 C  
HETATM    7  C   UNL     1      -9.418   8.783  71.843  1.00  0.00    -0.362 C  
HETATM    8  C   UNL     1     -10.875   9.194  71.645  1.00  0.00    -0.442 C  
HETATM    9  C   UNL     1     -11.160   9.475  70.173  1.00  0.00    -0.294 C  
HETATM   10  C   UNL     1     -10.483   8.526  69.212  1.00  0.00    -0.224 A  
HETATM   11  C   UNL     1     -10.762   8.661  67.844  1.00  0.00    -0.158 A  
HETATM   12  C   UNL     1     -10.092   7.885  66.900  1.00  0.00    -0.362 A  
HETATM   13  C   UNL     1      -9.141   6.957  67.316  1.00  0.00    -0.127 A  
HETATM   14  C   UNL     1      -8.861   6.803  68.676  1.00  0.00    -0.123 A  
HETATM   15  C   UNL     1      -9.517   7.592  69.638  1.00  0.00    -0.156 A  
ENDBRANCH   4   6
TORSDOF 1
ENDMDL
MODEL      145
REMARK 921   NORMALIZED FREE ENERGY PREDICTED BY IDOCK:   -2.58 KCAL/MOL
REMARK 922        TOTAL FREE ENERGY PREDICTED BY IDOCK:   -2.99 KCAL/MOL
REMARK 923 INTER-LIGAND FREE ENERGY PREDICTED BY IDOCK:   -3.13 KCAL/MOL
REMARK 924 INTRA-LIGAND FREE ENERGY PREDICTED BY IDOCK:    0.15 KCAL/MOL
REMARK 927      BINDING AFFINITY PREDICTED BY RF-SCORE:    0.00 PKD
ROOT
HETATM    1  C   UNL     1     -10.202   6.929  66.778  1.00  0.00    -0.206 C  
HETATM    2  C   UNL     1     -10.872   6.301  68.002  1.00  0.00    -0.326 C  
HETATM    3  N   UNL     1     -10.769   7.318  69.085  1.00  0.00    -0.211 NA 
HETATM    4  C   UNL     1     -10.513   8.441  68.455  1.00  0.00    -0.164 C  
HETATM    5  N   UNL     1     -10.333   8.330  67.096  1.00  0.00    -0.293 NA 
ENDROOT
BRANCH   4   6
HETATM    6  C   UNL     1     -10.442   9.757  69.226  1.00  0.00    -0.236 C  
HETATM    7  C   UNL     1     -11.608  10.651  68.770  1.00  0.00    -0.309 C  
HETATM    8  C   UNL     1     -11.354  11.158  67.353  1.00  0.00    -0.329 C  
HETATM    9  C   UNL     1     -10.115  12.046  67.313  1.00  0.00    -0.208 C  
HETATM   10  C   UNL     1      -8.975  11.570  68.184  1.00  0.00    -0.172 A  
HETATM   11  C   UNL     1      -7.768  12.283  68.138  1.00  0.00    -0.138 A  
HETATM   12  C   UNL     1      -6.716  11.957  68.992  1.00  0.00    -0.099 A  
HETATM   13  C   UNL     1      -6.857  10.907  69.896  1.00  0.00    -0.126 A  
HETATM   14  C   UNL     1      -8.050  10.182  69.945  1.00  0.00    -0.139 A  
HETATM   15  C   UNL     1      -9.126  10.511  69.102  1.00  0.00    -0.177 A  
ENDBRANCH   4   6
TORSDOF 1
ENDMDL
MODEL      146
REMARK 921   NORMALIZED FREE ENERGY PREDICTED BY IDOCK:   -2.58 KCAL/MOL
REMARK 922        TOTAL FREE ENERGY PREDICTED BY IDOCK:   -2.98 KCAL/MOL
REMARK 923 INTER-LIGAND FREE ENERGY PREDICTED BY IDOCK:   -2.96 KCAL/MOL
REMARK 924 INTRA-LIGAND FREE ENERGY PREDICTED BY IDOCK:   -0.03 KCAL/MOL
REMARK 927      BINDING AFFINITY PREDICTED BY RF-SCORE:    0.00 PKD
ROOT
HETATM    1  C   UNL     1      -5.967  13.189  70.171  1.00  0.00    -0.138 C  
HETATM    2  C   UNL     1      -6.454  14.637  70.257  1.00  0.00    -0.149 C  
HETATM    3  N   UNL     1      -7.257  14.867  69.024  1.00  0.00    -0.127 NA 
HETATM    4  C   UNL     1      -7.535  13.661  68.586  1.00  0.00    -0.113 C  
HETATM    5  N   UNL     1      -6.962  12.628  69.290  1.00  0.00    -0.019 NA 
ENDROOT
BRANCH   4   6
HETATM    6  C   UNL     1      -8.449  13.474  67.377  1.00  0.00    -0.203 C  
HETATM    7  C   UNL     1      -9.487  14.611  67.372  1.00  0.00    -0.201 C  
HETATM    8  C   UNL     1     -10.493  14.404  68.502  1.00  0.00    -0.254 C  
HETATM    9  C   UNL     1     -11.287  13.121  68.288  1.00  0.00    -0.333 C  
HETATM   10  C   UNL     1     -10.477  11.965  67.748  1.00  0.00    -0.224 A  
HETATM   11  C   UNL     1     -11.113  10.723  67.604  1.00  0.00    -0.384 A  
HETATM   12  C   UNL     1     -10.450   9.647  67.017  1.00  0.00    -0.302 A  
HETATM   13  C   UNL     1      -9.138   9.799  66.576  1.00  0.00    -0.182 A  
HETATM   14  C   UNL     1      -8.489  11.027  66.722  1.00  0.00    -0.148 A  
HETATM   15  C   UNL     1      -9.151  12.126  67.297  1.00  0.00    -0.181 A  
ENDBRANCH   4   6
TORSDOF 1
ENDMDL
MODEL      147
REMARK 921   NORMALIZED FREE ENERGY PREDICTED BY IDOCK:   -2.58 KCAL/MOL
REMARK 922        TOTAL FREE ENERGY PREDICTED BY IDOCK:   -2.98 KCAL/MOL
REMARK 923 INTER-LIGAND FREE ENERGY PREDICTED BY IDOCK:   -2.81 KCAL/MOL
REMARK 924 INTRA-LIGAND FREE ENERGY PREDICTED BY IDOCK:   -0.18 KCAL/MOL
REMARK 927      BINDING AFFINITY PREDICTED BY RF-SCORE:    0.00 PKD
ROOT
HETATM    1  C   UNL     1     -12.210  13.317  66.464  1.00  0.00    -0.327 C  
HETATM    2  C   UNL     1     -11.584  13.910  67.727  1.00  0.00    -0.347 C  
HETATM    3  N   UNL     1     -10.343  13.123  67.972  1.00  0.00    -0.231 NA 
HETATM    4  C   UNL     1     -10.101  12.533  66.824  1.00  0.00    -0.223 C  
HETATM    5  N   UNL     1     -11.047  12.727  65.846  1.00  0.00    -0.280 NA 
ENDROOT
BRANCH   4   6
HETATM    6  C   UNL     1      -8.830  11.707  66.638  1.00  0.00    -0.187 C  
HETATM    7  C   UNL     1      -9.224  10.222  66.556  1.00  0.00    -0.179 C  
HETATM    8  C   UNL     1      -9.668   9.723  67.929  1.00  0.00    -0.168 C  
HETATM    9  C   UNL     1      -8.516   9.789  68.925  1.00  0.00    -0.129 C  
HETATM   10  C   UNL     1      -7.639  11.013  68.789  1.00  0.00    -0.127 A  
HETATM   11  C   UNL     1      -6.608  11.193  69.722  1.00  0.00    -0.138 A  
HETATM   12  C   UNL     1      -5.703  12.245  69.590  1.00  0.00    -0.101 A  
HETATM   13  C   UNL     1      -5.827  13.135  68.527  1.00  0.00    -0.081 A  
HETATM   14  C   UNL     1      -6.855  12.973  67.595  1.00  0.00    -0.155 A  
HETATM   15  C   UNL     1      -7.764  11.907  67.707  1.00  0.00    -0.136 A  
ENDBRANCH   4   6
TORSDOF 1
ENDMDL
MODEL      148
REMARK 921   NORMALIZED FREE ENERGY PREDICTED BY IDOCK:   -2.57 KCAL/MOL
REMARK 922        TOTAL FREE ENERGY PREDICTED BY IDOCK:   -2.97 KCAL/MOL
REMARK 923 INTER-LIGAND FREE ENERGY PREDICTED BY IDOCK:   -2.87 KCAL/MOL
REMARK 924 INTRA-LIGAND FREE ENERGY PREDICTED BY IDOCK:   -0.10 KCAL/MOL
REMARK 927      BINDING AFFINITY PREDICTED BY RF-SCORE:    0.00 PKD
ROOT
HETATM    1  C   UNL     1     -11.580  14.064  69.886  1.00  0.00    -0.254 C  
HETATM    2  C   UNL     1     -11.972  12.646  69.468  1.00  0.00    -0.270 C  
HETATM    3  N   UNL     1     -11.258  12.390  68.187  1.00  0.00    -0.244 NA 
HETATM    4  C   UNL     1     -10.312  13.300  68.153  1.00  0.00    -0.244 C  
HETATM    5  N   UNL     1     -10.327  14.208  69.186  1.00  0.00    -0.151 NA 
ENDROOT
BRANCH   4   6
HETATM    6  C   UNL     1      -9.283  13.298  67.025  1.00  0.00    -0.237 C  
HETATM    7  C   UNL     1      -8.909  11.839  66.711  1.00  0.00    -0.191 C  
HETATM    8  C   UNL     1      -8.065  11.261  67.844  1.00  0.00    -0.121 C  
HETATM    9  C   UNL     1      -6.741  12.008  67.964  1.00  0.00    -0.070 C  
HETATM   10  C   UNL     1      -6.843  13.501  67.755  1.00  0.00    -0.168 A  
HETATM   11  C   UNL     1      -5.686  14.273  67.934  1.00  0.00    -0.118 A  
HETATM   12  C   UNL     1      -5.691  15.639  67.657  1.00  0.00    -0.133 A  
HETATM   13  C   UNL     1      -6.858  16.250  67.207  1.00  0.00    -0.230 A  
HETATM   14  C   UNL     1      -8.021  15.495  67.034  1.00  0.00    -0.268 A  
HETATM   15  C   UNL     1      -8.025  14.113  67.293  1.00  0.00    -0.171 A  
ENDBRANCH   4   6
TORSDOF 1
ENDMDL
MODEL      149
REMARK 921   NORMALIZED FREE ENERGY PREDICTED BY IDOCK:   -2.55 KCAL/MOL
REMARK 922        TOTAL FREE ENERGY PREDICTED BY IDOCK:   -2.96 KCAL/MOL
REMARK 923 INTER-LIGAND FREE ENERGY PREDICTED BY IDOCK:   -3.41 KCAL/MOL
REMARK 924 INTRA-LIGAND FREE ENERGY PREDICTED BY IDOCK:    0.46 KCAL/MOL
REMARK 927      BINDING AFFINITY PREDICTED BY RF-SCORE:    0.00 PKD
ROOT
HETATM    1  C   UNL     1     -10.548   5.724  66.648  1.00  0.00    -0.280 C  
HETATM    2  C   UNL     1      -9.130   6.291  66.727  1.00  0.00    -0.135 C  
HETATM    3  N   UNL     1      -9.229   7.514  67.570  1.00  0.00    -0.127 NA 
HETATM    4  C   UNL     1     -10.373   7.383  68.201  1.00  0.00    -0.192 C  
HETATM    5  N   UNL     1     -11.123   6.287  67.846  1.00  0.00    -0.327 NA 
ENDROOT
BRANCH   4   6
HETATM    6  C   UNL     1     -10.789   8.403  69.259  1.00  0.00    -0.069 C  
HETATM    7  C   UNL     1      -9.981   9.693  69.034  1.00  0.00    -0.189 C  
HETATM    8  C   UNL     1      -8.524   9.472  69.435  1.00  0.00    -0.146 C  
HETATM    9  C   UNL     1      -8.415   9.173  70.926  1.00  0.00    -0.251 C  
HETATM   10  C   UNL     1      -9.513   8.287  71.469  1.00  0.00    -0.244 A  
HETATM   11  C   UNL     1      -9.439   7.893  72.813  1.00  0.00    -0.304 A  
HETATM   12  C   UNL     1     -10.471   7.163  73.399  1.00  0.00    -0.410 A  
HETATM   13  C   UNL     1     -11.586   6.811  72.643  1.00  0.00    -0.176 A  
HETATM   14  C   UNL     1     -11.669   7.188  71.301  1.00  0.00    -0.342 A  
HETATM   15  C   UNL     1     -10.642   7.939  70.701  1.00  0.00    -0.221 A  
ENDBRANCH   4   6
TORSDOF 1
ENDMDL
MODEL      150
REMARK 921   NORMALIZED FREE ENERGY PREDICTED BY IDOCK:   -2.55 KCAL/MOL
REMARK 922        TOTAL FREE ENERGY PREDICTED BY IDOCK:   -2.95 KCAL/MOL
REMARK 923 INTER-LIGAND FREE ENERGY PREDICTED BY IDOCK:   -2.77 KCAL/MOL
REMARK 924 INTRA-LIGAND FREE ENERGY PREDICTED BY IDOCK:   -0.18 KCAL/MOL
REMARK 927      BINDING AFFINITY PREDICTED BY RF-SCORE:    0.00 PKD
ROOT
HETATM    1  C   UNL     1      -8.649   3.672  69.862  1.00  0.00    -0.062 C  
HETATM    2  C   UNL     1      -8.700   2.372  69.056  1.00  0.00    -0.083 C  
HETATM    3  N   UNL     1      -9.501   2.683  67.839  1.00  0.00    -0.192 NA 
HETATM    4  C   UNL     1      -9.494   3.994  67.770  1.00  0.00    -0.178 C  
HETATM    5  N   UNL     1      -8.879   4.639  68.817  1.00  0.00    -0.097 NA 
ENDROOT
BRANCH   4   6
HETATM    6  C   UNL     1     -10.133   4.704  66.578  1.00  0.00    -0.279 C  
HETATM    7  C   UNL     1      -9.633   4.032  65.287  1.00  0.00    -0.185 C  
HETATM    8  C   UNL     1      -8.165   4.381  65.052  1.00  0.00    -0.104 C  
HETATM    9  C   UNL     1      -7.998   5.880  64.827  1.00  0.00    -0.126 C  
HETATM   10  C   UNL     1      -8.871   6.746  65.704  1.00  0.00    -0.043 A  
HETATM   11  C   UNL     1      -8.716   8.138  65.621  1.00  0.00    -0.176 A  
HETATM   12  C   UNL     1      -9.561   8.992  66.327  1.00  0.00    -0.327 A  
HETATM   13  C   UNL     1     -10.566   8.463  67.132  1.00  0.00    -0.326 A  
HETATM   14  C   UNL     1     -10.726   7.079  67.233  1.00  0.00    -0.412 A  
HETATM   15  C   UNL     1      -9.891   6.205  66.513  1.00  0.00    -0.179 A  
ENDBRANCH   4   6
TORSDOF 1
ENDMDL
MODEL      151
REMARK 921   NORMALIZED FREE ENERGY PREDICTED BY IDOCK:   -2.54 KCAL/MOL
REMARK 922        TOTAL FREE ENERGY PREDICTED BY IDOCK:   -2.94 KCAL/MOL
REMARK 923 INTER-LIGAND FREE ENERGY PREDICTED BY IDOCK:   -2.71 KCAL/MOL
REMARK 924 INTRA-LIGAND FREE ENERGY PREDICTED BY IDOCK:   -0.24 KCAL/MOL
REMARK 927      BINDING AFFINITY PREDICTED BY RF-SCORE:    0.00 PKD
ROOT
HETATM    1  C   UNL     1     -12.667   6.867  70.720  1.00  0.00    -0.044 C  
HETATM    2  C   UNL     1     -12.057   7.497  71.973  1.00  0.00    -0.291 C  
HETATM    3  N   UNL     1     -10.731   6.844  72.150  1.00  0.00    -0.215 NA 
HETATM    4  C   UNL     1     -10.473   6.308  70.979  1.00  0.00    -0.225 C  
HETATM    5  N   UNL     1     -11.474   6.420  70.043  1.00  0.00    -0.430 NA 
ENDROOT
BRANCH   4   6
HETATM    6  C   UNL     1      -9.130   5.628  70.723  1.00  0.00    -0.164 C  
HETATM    7  C   UNL     1      -8.051   6.717  70.592  1.00  0.00    -0.119 C  
HETATM    8  C   UNL     1      -8.225   7.469  69.275  1.00  0.00    -0.130 C  
HETATM    9  C   UNL     1      -8.011   6.534  68.089  1.00  0.00    -0.110 C  
HETATM   10  C   UNL     1      -8.583   5.147  68.275  1.00  0.00    -0.098 A  
HETATM   11  C   UNL     1      -8.505   4.252  67.197  1.00  0.00    -0.100 A  
HETATM   12  C   UNL     1      -8.921   2.929  67.339  1.00  0.00    -0.189 A  
HETATM   13  C   UNL     1      -9.429   2.490  68.558  1.00  0.00    -0.207 A  
HETATM   14  C   UNL     1      -9.521   3.373  69.637  1.00  0.00    -0.223 A  
HETATM   15  C   UNL     1      -9.090   4.705  69.513  1.00  0.00    -0.163 A  
ENDBRANCH   4   6
TORSDOF 1
ENDMDL
MODEL      152
REMARK 921   NORMALIZED FREE ENERGY PREDICTED BY IDOCK:   -2.52 KCAL/MOL
REMARK 922        TOTAL FREE ENERGY PREDICTED BY IDOCK:   -2.92 KCAL/MOL
REMARK 923 INTER-LIGAND FREE ENERGY PREDICTED BY IDOCK:   -3.27 KCAL/MOL
REMARK 924 INTRA-LIGAND FREE ENERGY PREDICTED BY IDOCK:    0.35 KCAL/MOL
REMARK 927      BINDING AFFINITY PREDICTED BY RF-SCORE:    0.00 PKD
ROOT
HETATM    1  C   UNL     1     -11.521   2.929  73.630  1.00  0.00    -0.077 C  
HETATM    2  C   UNL     1     -10.248   2.140  73.315  1.00  0.00    -0.116 C  
HETATM    3  N   UNL     1      -9.502   2.957  72.319  1.00  0.00    -0.110 NA 
HETATM    4  C   UNL     1     -10.030   4.156  72.419  1.00  0.00    -0.166 C  
HETATM    5  N   UNL     1     -11.098   4.263  73.279  1.00  0.00    -0.250 NA 
ENDROOT
BRANCH   4   6
HETATM    6  C   UNL     1      -9.451   5.320  71.619  1.00  0.00    -0.187 C  
HETATM    7  C   UNL     1      -9.792   6.630  72.351  1.00  0.00    -0.169 C  
HETATM    8  C   UNL     1     -11.283   6.930  72.218  1.00  0.00    -0.299 C  
HETATM    9  C   UNL     1     -11.657   7.165  70.759  1.00  0.00    -0.358 C  
HETATM   10  C   UNL     1     -10.957   6.253  69.778  1.00  0.00    -0.444 A  
HETATM   11  C   UNL     1     -11.309   6.346  68.423  1.00  0.00    -0.145 A  
HETATM   12  C   UNL     1     -10.628   5.607  67.458  1.00  0.00    -0.296 A  
HETATM   13  C   UNL     1      -9.593   4.757  67.839  1.00  0.00    -0.198 A  
HETATM   14  C   UNL     1      -9.238   4.647  69.185  1.00  0.00    -0.184 A  
HETATM   15  C   UNL     1      -9.905   5.400  70.168  1.00  0.00    -0.273 A  
ENDBRANCH   4   6
TORSDOF 1
ENDMDL
MODEL      153
REMARK 921   NORMALIZED FREE ENERGY PREDICTED BY IDOCK:   -2.50 KCAL/MOL
REMARK 922        TOTAL FREE ENERGY PREDICTED BY IDOCK:   -2.90 KCAL/MOL
REMARK 923 INTER-LIGAND FREE ENERGY PREDICTED BY IDOCK:   -2.70 KCAL/MOL
REMARK 924 INTRA-LIGAND FREE ENERGY PREDICTED BY IDOCK:   -0.19 KCAL/MOL
REMARK 927      BINDING AFFINITY PREDICTED BY RF-SCORE:    0.00 PKD
ROOT
HETATM    1  C   UNL     1      -9.438   3.587  63.061  1.00  0.00    -0.103 C  
HETATM    2  C   UNL     1     -10.758   3.583  63.833  1.00  0.00    -0.241 C  
HETATM    3  N   UNL     1     -10.445   4.150  65.174  1.00  0.00    -0.208 NA 
HETATM    4  C   UNL     1      -9.296   4.764  65.007  1.00  0.00    -0.107 C  
HETATM    5  N   UNL     1      -8.725   4.626  63.764  1.00  0.00    -0.139 NA 
ENDROOT
BRANCH   4   6
HETATM    6  C   UNL     1      -8.685   5.574  66.149  1.00  0.00    -0.133 C  
HETATM    7  C   UNL     1      -7.304   4.981  66.480  1.00  0.00    -0.086 C  
HETATM    8  C   UNL     1      -7.470   3.629  67.171  1.00  0.00    -0.071 C  
HETATM    9  C   UNL     1      -8.180   3.791  68.510  1.00  0.00    -0.083 C  
HETATM   10  C   UNL     1      -9.303   4.802  68.505  1.00  0.00    -0.181 A  
HETATM   11  C   UNL     1     -10.064   4.949  69.674  1.00  0.00    -0.300 A  
HETATM   12  C   UNL     1     -11.044   5.935  69.766  1.00  0.00    -0.422 A  
HETATM   13  C   UNL     1     -11.281   6.780  68.685  1.00  0.00    -0.166 A  
HETATM   14  C   UNL     1     -10.538   6.639  67.511  1.00  0.00    -0.347 A  
HETATM   15  C   UNL     1      -9.534   5.659  67.410  1.00  0.00    -0.116 A  
ENDBRANCH   4   6
TORSDOF 1
ENDMDL
MODEL      154
REMARK 921   NORMALIZED FREE ENERGY PREDICTED BY IDOCK:   -2.44 KCAL/MOL
REMARK 922        TOTAL FREE ENERGY PREDICTED BY IDOCK:   -2.84 KCAL/MOL
REMARK 923 INTER-LIGAND FREE ENERGY PREDICTED BY IDOCK:   -2.61 KCAL/MOL
REMARK 924 INTRA-LIGAND FREE ENERGY PREDICTED BY IDOCK:   -0.22 KCAL/MOL
REMARK 927      BINDING AFFINITY PREDICTED BY RF-SCORE:    0.00 PKD
ROOT
HETATM    1  C   UNL     1      -6.035  15.733  67.881  1.00  0.00    -0.140 C  
HETATM    2  C   UNL     1      -6.231  14.931  69.169  1.00  0.00    -0.105 C  
HETATM    3  N   UNL     1      -7.683  15.024  69.486  1.00  0.00    -0.193 NA 
HETATM    4  C   UNL     1      -8.238  15.405  68.359  1.00  0.00    -0.142 C  
HETATM    5  N   UNL     1      -7.367  15.678  67.331  1.00  0.00    -0.185 NA 
ENDROOT
BRANCH   4   6
HETATM    6  C   UNL     1      -9.758  15.512  68.249  1.00  0.00    -0.201 C  
HETATM    7  C   UNL     1     -10.372  14.170  68.687  1.00  0.00    -0.243 C  
HETATM    8  C   UNL     1     -10.101  13.103  67.629  1.00  0.00    -0.221 C  
HETATM    9  C   UNL     1     -10.787  13.460  66.316  1.00  0.00    -0.294 C  
HETATM   10  C   UNL     1     -10.743  14.929  65.965  1.00  0.00    -0.326 A  
HETATM   11  C   UNL     1     -11.276  15.329  64.731  1.00  0.00    -0.405 A  
HETATM   12  C   UNL     1     -11.357  16.679  64.394  1.00  0.00     0.232 A  
HETATM   13  C   UNL     1     -10.898  17.644  65.286  1.00  0.00     0.193 A  
HETATM   14  C   UNL     1     -10.355  17.260  66.515  1.00  0.00    -0.308 A  
HETATM   15  C   UNL     1     -10.282  15.902  66.874  1.00  0.00    -0.277 A  
ENDBRANCH   4   6
TORSDOF 1
ENDMDL
MODEL      155
REMARK 921   NORMALIZED FREE ENERGY PREDICTED BY IDOCK:   -2.43 KCAL/MOL
REMARK 922        TOTAL FREE ENERGY PREDICTED BY IDOCK:   -2.82 KCAL/MOL
REMARK 923 INTER-LIGAND FREE ENERGY PREDICTED BY IDOCK:   -3.17 KCAL/MOL
REMARK 924 INTRA-LIGAND FREE ENERGY PREDICTED BY IDOCK:    0.35 KCAL/MOL
REMARK 927      BINDING AFFINITY PREDICTED BY RF-SCORE:    0.00 PKD
ROOT
HETATM    1  C   UNL     1      -9.925  15.174  65.442  1.00  0.00    -0.330 C  
HETATM    2  C   UNL     1     -11.239  15.060  66.218  1.00  0.00    -0.309 C  
HETATM    3  N   UNL     1     -11.128  13.811  67.020  1.00  0.00    -0.297 NA 
HETATM    4  C   UNL     1      -9.842  13.546  67.035  1.00  0.00    -0.251 C  
HETATM    5  N   UNL     1      -9.056  14.385  66.280  1.00  0.00    -0.165 NA 
ENDROOT
BRANCH   4   6
HETATM    6  C   UNL     1      -9.306  12.379  67.861  1.00  0.00    -0.195 C  
HETATM    7  C   UNL     1      -7.939  12.783  68.443  1.00  0.00    -0.137 C  
HETATM    8  C   UNL     1      -6.892  12.827  67.333  1.00  0.00    -0.137 C  
HETATM    9  C   UNL     1      -6.689  11.442  66.729  1.00  0.00    -0.137 C  
HETATM   10  C   UNL     1      -7.958  10.637  66.568  1.00  0.00    -0.138 A  
HETATM   11  C   UNL     1      -7.870   9.386  65.940  1.00  0.00    -0.099 A  
HETATM   12  C   UNL     1      -8.984   8.552  65.854  1.00  0.00    -0.235 A  
HETATM   13  C   UNL     1     -10.201   8.966  66.387  1.00  0.00    -0.273 A  
HETATM   14  C   UNL     1     -10.306  10.213  67.007  1.00  0.00    -0.303 A  
HETATM   15  C   UNL     1      -9.186  11.057  67.116  1.00  0.00    -0.162 A  
ENDBRANCH   4   6
TORSDOF 1
ENDMDL
MODEL      156
REMARK 921   NORMALIZED FREE ENERGY PREDICTED BY IDOCK:   -2.42 KCAL/MOL
REMARK 922        TOTAL FREE ENERGY PREDICTED BY IDOCK:   -2.81 KCAL/MOL
REMARK 923 INTER-LIGAND FREE ENERGY PREDICTED BY IDOCK:   -2.62 KCAL/MOL
REMARK 924 INTRA-LIGAND FREE ENERGY PREDICTED BY IDOCK:   -0.19 KCAL/MOL
REMARK 927      BINDING AFFINITY PREDICTED BY RF-SCORE:    0.00 PKD
ROOT
HETATM    1  C   UNL     1      -7.266   4.597  72.669  1.00  0.00    -0.082 C  
HETATM    2  C   UNL     1      -6.719   4.860  71.264  1.00  0.00    -0.039 C  
HETATM    3  N   UNL     1      -7.673   5.812  70.631  1.00  0.00    -0.091 NA 
HETATM    4  C   UNL     1      -8.342   6.322  71.640  1.00  0.00    -0.129 C  
HETATM    5  N   UNL     1      -8.051   5.790  72.874  1.00  0.00    -0.114 NA 
ENDROOT
BRANCH   4   6
HETATM    6  C   UNL     1      -9.358   7.437  71.403  1.00  0.00    -0.149 C  
HETATM    7  C   UNL     1     -10.753   6.914  71.791  1.00  0.00    -0.247 C  
HETATM    8  C   UNL     1     -11.232   5.893  70.762  1.00  0.00    -0.281 C  
HETATM    9  C   UNL     1     -11.403   6.545  69.395  1.00  0.00    -0.395 C  
HETATM   10  C   UNL     1     -10.337   7.558  69.046  1.00  0.00    -0.217 A  
HETATM   11  C   UNL     1     -10.373   8.141  67.771  1.00  0.00    -0.295 A  
HETATM   12  C   UNL     1      -9.480   9.154  67.426  1.00  0.00    -0.177 A  
HETATM   13  C   UNL     1      -8.535   9.589  68.351  1.00  0.00    -0.119 A  
HETATM   14  C   UNL     1      -8.481   9.010  69.621  1.00  0.00    -0.128 A  
HETATM   15  C   UNL     1      -9.387   7.999  69.988  1.00  0.00    -0.156 A  
ENDBRANCH   4   6
TORSDOF 1
ENDMDL
MODEL      157
REMARK 921   NORMALIZED FREE ENERGY PREDICTED BY IDOCK:   -2.41 KCAL/MOL
REMARK 922        TOTAL FREE ENERGY PREDICTED BY IDOCK:   -2.80 KCAL/MOL
REMARK 923 INTER-LIGAND FREE ENERGY PREDICTED BY IDOCK:   -2.56 KCAL/MOL
REMARK 924 INTRA-LIGAND FREE ENERGY PREDICTED BY IDOCK:   -0.24 KCAL/MOL
REMARK 927      BINDING AFFINITY PREDICTED BY RF-SCORE:    0.00 PKD
ROOT
HETATM    1  C   UNL     1      -8.299   9.945  67.746  1.00  0.00    -0.114 C  
HETATM    2  C   UNL     1      -9.678  10.301  67.187  1.00  0.00    -0.173 C  
HETATM    3  N   UNL     1     -10.243   9.027  66.662  1.00  0.00    -0.275 NA 
HETATM    4  C   UNL     1      -9.521   8.091  67.233  1.00  0.00    -0.155 C  
HETATM    5  N   UNL     1      -8.477   8.538  68.008  1.00  0.00    -0.130 NA 
ENDROOT
BRANCH   4   6
HETATM    6  C   UNL     1      -9.868   6.618  67.025  1.00  0.00    -0.207 C  
HETATM    7  C   UNL     1     -11.152   6.306  67.813  1.00  0.00    -0.361 C  
HETATM    8  C   UNL     1     -10.858   6.302  69.311  1.00  0.00    -0.406 C  
HETATM    9  C   UNL     1      -9.878   5.189  69.665  1.00  0.00    -0.286 C  
HETATM   10  C   UNL     1      -8.772   4.985  68.656  1.00  0.00    -0.101 A  
HETATM   11  C   UNL     1      -7.779   4.038  68.948  1.00  0.00    -0.054 A  
HETATM   12  C   UNL     1      -6.791   3.730  68.014  1.00  0.00    -0.047 A  
HETATM   13  C   UNL     1      -6.781   4.373  66.779  1.00  0.00    -0.051 A  
HETATM   14  C   UNL     1      -7.758   5.325  66.478  1.00  0.00    -0.096 A  
HETATM   15  C   UNL     1      -8.770   5.634  67.405  1.00  0.00    -0.107 A  
ENDBRANCH   4   6
TORSDOF 1
ENDMDL
MODEL      158
REMARK 921   NORMALIZED FREE ENERGY PREDICTED BY IDOCK:   -2.40 KCAL/MOL
REMARK 922        TOTAL FREE ENERGY PREDICTED BY IDOCK:   -2.79 KCAL/MOL
REMARK 923 INTER-LIGAND FREE ENERGY PREDICTED BY IDOCK:   -2.60 KCAL/MOL
REMARK 924 INTRA-LIGAND FREE ENERGY PREDICTED BY IDOCK:   -0.19 KCAL/MOL
REMARK 927      BINDING AFFINITY PREDICTED BY RF-SCORE:    0.00 PKD
ROOT
HETATM    1  C   UNL     1     -10.718   5.822  68.499  1.00  0.00    -0.217 C  
HETATM    2  C   UNL     1      -9.723   5.078  69.392  1.00  0.00    -0.184 C  
HETATM    3  N   UNL     1      -9.057   6.126  70.215  1.00  0.00    -0.152 NA 
HETATM    4  C   UNL     1      -9.852   7.167  70.122  1.00  0.00    -0.179 C  
HETATM    5  N   UNL     1     -10.926   7.019  69.277  1.00  0.00    -0.209 NA 
ENDROOT
BRANCH   4   6
HETATM    6  C   UNL     1      -9.561   8.430  70.929  1.00  0.00    -0.212 C  
HETATM    7  C   UNL     1      -9.180   9.555  69.951  1.00  0.00    -0.242 C  
HETATM    8  C   UNL     1      -7.797   9.290  69.362  1.00  0.00    -0.083 C  
HETATM    9  C   UNL     1      -6.733   9.317  70.454  1.00  0.00    -0.073 C  
HETATM   10  C   UNL     1      -7.157   8.683  71.758  1.00  0.00    -0.102 A  
HETATM   11  C   UNL     1      -6.208   8.589  72.786  1.00  0.00    -0.088 A  
HETATM   12  C   UNL     1      -6.566   8.109  74.045  1.00  0.00    -0.142 A  
HETATM   13  C   UNL     1      -7.877   7.707  74.286  1.00  0.00    -0.217 A  
HETATM   14  C   UNL     1      -8.830   7.785  73.268  1.00  0.00    -0.277 A  
HETATM   15  C   UNL     1      -8.487   8.284  71.999  1.00  0.00    -0.227 A  
ENDBRANCH   4   6
TORSDOF 1
ENDMDL
MODEL      159
REMARK 921   NORMALIZED FREE ENERGY PREDICTED BY IDOCK:   -2.39 KCAL/MOL
REMARK 922        TOTAL FREE ENERGY PREDICTED BY IDOCK:   -2.79 KCAL/MOL
REMARK 923 INTER-LIGAND FREE ENERGY PREDICTED BY IDOCK:   -2.60 KCAL/MOL
REMARK 924 INTRA-LIGAND FREE ENERGY PREDICTED BY IDOCK:   -0.19 KCAL/MOL
REMARK 927      BINDING AFFINITY PREDICTED BY RF-SCORE:    0.00 PKD
ROOT
HETATM    1  C   UNL     1      -9.230   2.574  64.656  1.00  0.00    -0.136 C  
HETATM    2  C   UNL     1      -9.194   3.663  63.582  1.00  0.00    -0.113 C  
HETATM    3  N   UNL     1      -9.060   4.951  64.318  1.00  0.00    -0.079 NA 
HETATM    4  C   UNL     1      -8.643   4.602  65.513  1.00  0.00    -0.127 C  
HETATM    5  N   UNL     1      -8.557   3.249  65.739  1.00  0.00    -0.111 NA 
ENDROOT
BRANCH   4   6
HETATM    6  C   UNL     1      -8.282   5.670  66.544  1.00  0.00    -0.106 C  
HETATM    7  C   UNL     1      -9.136   5.439  67.803  1.00  0.00    -0.111 C  
HETATM    8  C   UNL     1     -10.588   5.817  67.525  1.00  0.00    -0.327 C  
HETATM    9  C   UNL     1     -10.708   7.305  67.214  1.00  0.00    -0.391 C  
HETATM   10  C   UNL     1      -9.585   7.860  66.368  1.00  0.00    -0.251 A  
HETATM   11  C   UNL     1      -9.664   9.201  65.965  1.00  0.00    -0.358 A  
HETATM   12  C   UNL     1      -8.613   9.800  65.272  1.00  0.00    -0.168 A  
HETATM   13  C   UNL     1      -7.475   9.059  64.966  1.00  0.00    -0.097 A  
HETATM   14  C   UNL     1      -7.387   7.720  65.353  1.00  0.00    -0.077 A  
HETATM   15  C   UNL     1      -8.432   7.108  66.067  1.00  0.00    -0.148 A  
ENDBRANCH   4   6
TORSDOF 1
ENDMDL
MODEL      160
REMARK 921   NORMALIZED FREE ENERGY PREDICTED BY IDOCK:   -2.39 KCAL/MOL
REMARK 922        TOTAL FREE ENERGY PREDICTED BY IDOCK:   -2.78 KCAL/MOL
REMARK 923 INTER-LIGAND FREE ENERGY PREDICTED BY IDOCK:   -2.77 KCAL/MOL
REMARK 924 INTRA-LIGAND FREE ENERGY PREDICTED BY IDOCK:   -0.01 KCAL/MOL
REMARK 927      BINDING AFFINITY PREDICTED BY RF-SCORE:    0.00 PKD
ROOT
HETATM    1  C   UNL     1      -8.480  14.646  67.439  1.00  0.00    -0.204 C  
HETATM    2  C   UNL     1      -6.953  14.634  67.345  1.00  0.00    -0.093 C  
HETATM    3  N   UNL     1      -6.545  13.222  67.585  1.00  0.00    -0.160 NA 
HETATM    4  C   UNL     1      -7.642  12.528  67.388  1.00  0.00    -0.156 C  
HETATM    5  N   UNL     1      -8.773  13.267  67.136  1.00  0.00    -0.214 NA 
ENDROOT
BRANCH   4   6
HETATM    6  C   UNL     1      -7.605  11.002  67.437  1.00  0.00    -0.110 C  
HETATM    7  C   UNL     1      -7.539  10.471  65.994  1.00  0.00    -0.140 C  
HETATM    8  C   UNL     1      -8.881  10.684  65.298  1.00  0.00    -0.204 C  
HETATM    9  C   UNL     1      -9.977   9.876  65.984  1.00  0.00    -0.338 C  
HETATM   10  C   UNL     1      -9.881   9.843  67.492  1.00  0.00    -0.209 A  
HETATM   11  C   UNL     1     -10.900   9.194  68.204  1.00  0.00    -0.118 A  
HETATM   12  C   UNL     1     -10.816   9.040  69.587  1.00  0.00    -0.196 A  
HETATM   13  C   UNL     1      -9.714   9.544  70.274  1.00  0.00    -0.314 A  
HETATM   14  C   UNL     1      -8.697  10.202  69.579  1.00  0.00    -0.189 A  
HETATM   15  C   UNL     1      -8.761  10.349  68.182  1.00  0.00    -0.125 A  
ENDBRANCH   4   6
TORSDOF 1
ENDMDL
MODEL      161
REMARK 921   NORMALIZED FREE ENERGY PREDICTED BY IDOCK:   -2.38 KCAL/MOL
REMARK 922        TOTAL FREE ENERGY PREDICTED BY IDOCK:   -2.78 KCAL/MOL
REMARK 923 INTER-LIGAND FREE ENERGY PREDICTED BY IDOCK:   -2.52 KCAL/MOL
REMARK 924 INTRA-LIGAND FREE ENERGY PREDICTED BY IDOCK:   -0.26 KCAL/MOL
REMARK 927      BINDING AFFINITY PREDICTED BY RF-SCORE:    0.00 PKD
ROOT
HETATM    1  C   UNL     1     -11.278   8.670  70.454  1.00  0.00    -0.218 C  
HETATM    2  C   UNL     1     -10.495   9.098  69.212  1.00  0.00    -0.221 C  
HETATM    3  N   UNL     1      -9.223   8.324  69.249  1.00  0.00    -0.151 NA 
HETATM    4  C   UNL     1      -9.465   7.340  70.084  1.00  0.00    -0.165 C  
HETATM    5  N   UNL     1     -10.694   7.374  70.700  1.00  0.00    -0.225 NA 
ENDROOT
BRANCH   4   6
HETATM    6  C   UNL     1      -8.421   6.249  70.310  1.00  0.00    -0.134 C  
HETATM    7  C   UNL     1      -8.212   5.494  68.986  1.00  0.00    -0.099 C  
HETATM    8  C   UNL     1      -9.434   4.634  68.677  1.00  0.00    -0.213 C  
HETATM    9  C   UNL     1      -9.617   3.556  69.740  1.00  0.00    -0.206 C  
HETATM   10  C   UNL     1      -9.324   4.012  71.150  1.00  0.00    -0.216 A  
HETATM   11  C   UNL     1      -9.551   3.106  72.197  1.00  0.00    -0.209 A  
HETATM   12  C   UNL     1      -9.204   3.430  73.507  1.00  0.00    -0.106 A  
HETATM   13  C   UNL     1      -8.635   4.670  73.787  1.00  0.00    -0.103 A  
HETATM   14  C   UNL     1      -8.413   5.586  72.756  1.00  0.00    -0.120 A  
HETATM   15  C   UNL     1      -8.742   5.265  71.427  1.00  0.00    -0.137 A  
ENDBRANCH   4   6
TORSDOF 1
ENDMDL
MODEL      162
REMARK 921   NORMALIZED FREE ENERGY PREDICTED BY IDOCK:   -2.38 KCAL/MOL
REMARK 922        TOTAL FREE ENERGY PREDICTED BY IDOCK:   -2.77 KCAL/MOL
REMARK 923 INTER-LIGAND FREE ENERGY PREDICTED BY IDOCK:   -2.51 KCAL/MOL
REMARK 924 INTRA-LIGAND FREE ENERGY PREDICTED BY IDOCK:   -0.25 KCAL/MOL
REMARK 927      BINDING AFFINITY PREDICTED BY RF-SCORE:    0.00 PKD
ROOT
HETATM    1  C   UNL     1      -8.889   2.338  67.240  1.00  0.00    -0.134 C  
HETATM    2  C   UNL     1      -7.673   2.844  66.461  1.00  0.00    -0.076 C  
HETATM    3  N   UNL     1      -7.595   4.305  66.737  1.00  0.00    -0.084 NA 
HETATM    4  C   UNL     1      -8.335   4.474  67.809  1.00  0.00    -0.099 C  
HETATM    5  N   UNL     1      -8.987   3.351  68.262  1.00  0.00    -0.122 NA 
ENDROOT
BRANCH   4   6
HETATM    6  C   UNL     1      -8.420   5.845  68.476  1.00  0.00    -0.111 C  
HETATM    7  C   UNL     1      -7.045   6.176  69.083  1.00  0.00    -0.070 C  
HETATM    8  C   UNL     1      -6.790   5.299  70.307  1.00  0.00    -0.048 C  
HETATM    9  C   UNL     1      -7.806   5.596  71.404  1.00  0.00    -0.111 C  
HETATM   10  C   UNL     1      -9.211   5.844  70.905  1.00  0.00    -0.167 A  
HETATM   11  C   UNL     1     -10.224   6.039  71.856  1.00  0.00    -0.237 A  
HETATM   12  C   UNL     1     -11.518   6.374  71.461  1.00  0.00    -0.360 A  
HETATM   13  C   UNL     1     -11.815   6.507  70.107  1.00  0.00    -0.331 A  
HETATM   14  C   UNL     1     -10.819   6.306  69.149  1.00  0.00    -0.403 A  
HETATM   15  C   UNL     1      -9.506   5.985  69.534  1.00  0.00    -0.161 A  
ENDBRANCH   4   6
TORSDOF 1
ENDMDL
MODEL      163
REMARK 921   NORMALIZED FREE ENERGY PREDICTED BY IDOCK:   -2.36 KCAL/MOL
REMARK 922        TOTAL FREE ENERGY PREDICTED BY IDOCK:   -2.76 KCAL/MOL
REMARK 923 INTER-LIGAND FREE ENERGY PREDICTED BY IDOCK:   -2.51 KCAL/MOL
REMARK 924 INTRA-LIGAND FREE ENERGY PREDICTED BY IDOCK:   -0.25 KCAL/MOL
REMARK 927      BINDING AFFINITY PREDICTED BY RF-SCORE:    0.00 PKD
ROOT
HETATM    1  C   UNL     1      -5.128  19.703  71.163  1.00  0.00    -0.259 C  
HETATM    2  C   UNL     1      -6.447  19.887  71.917  1.00  0.00     0.262 C  
HETATM    3  N   UNL     1      -7.456  20.250  70.883  1.00  0.00     0.594 NA 
HETATM    4  C   UNL     1      -6.905  19.885  69.748  1.00  0.00    -0.216 C  
HETATM    5  N   UNL     1      -5.621  19.404  69.840  1.00  0.00    -0.222 NA 
ENDROOT
BRANCH   4   6
HETATM    6  C   UNL     1      -7.689  19.998  68.442  1.00  0.00    -0.214 C  
HETATM    7  C   UNL     1      -8.793  18.926  68.444  1.00  0.00    -0.379 C  
HETATM    8  C   UNL     1      -8.176  17.541  68.266  1.00  0.00    -0.263 C  
HETATM    9  C   UNL     1      -7.493  17.426  66.908  1.00  0.00    -0.244 C  
HETATM   10  C   UNL     1      -6.752  18.669  66.473  1.00  0.00    -0.227 A  
HETATM   11  C   UNL     1      -6.024  18.618  65.275  1.00  0.00    -0.296 A  
HETATM   12  C   UNL     1      -5.405  19.758  64.768  1.00  0.00    -0.207 A  
HETATM   13  C   UNL     1      -5.498  20.963  65.460  1.00  0.00    -0.254 A  
HETATM   14  C   UNL     1      -6.211  21.026  66.660  1.00  0.00    -0.348 A  
HETATM   15  C   UNL     1      -6.855  19.887  67.174  1.00  0.00    -0.240 A  
ENDBRANCH   4   6
TORSDOF 1
ENDMDL
MODEL      164
REMARK 921   NORMALIZED FREE ENERGY PREDICTED BY IDOCK:   -2.34 KCAL/MOL
REMARK 922        TOTAL FREE ENERGY PREDICTED BY IDOCK:   -2.73 KCAL/MOL
REMARK 923 INTER-LIGAND FREE ENERGY PREDICTED BY IDOCK:   -3.19 KCAL/MOL
REMARK 924 INTRA-LIGAND FREE ENERGY PREDICTED BY IDOCK:    0.47 KCAL/MOL
REMARK 927      BINDING AFFINITY PREDICTED BY RF-SCORE:    0.00 PKD
ROOT
HETATM    1  C   UNL     1      -5.408  19.453  70.820  1.00  0.00    -0.235 C  
HETATM    2  C   UNL     1      -6.527  20.032  69.953  1.00  0.00    -0.327 C  
HETATM    3  N   UNL     1      -6.464  19.291  68.663  1.00  0.00    -0.246 NA 
HETATM    4  C   UNL     1      -5.762  18.216  68.939  1.00  0.00    -0.202 C  
HETATM    5  N   UNL     1      -5.252  18.153  70.214  1.00  0.00    -0.228 NA 
ENDROOT
BRANCH   4   6
HETATM    6  C   UNL     1      -5.564  17.134  67.879  1.00  0.00    -0.124 C  
HETATM    7  C   UNL     1      -5.756  17.772  66.492  1.00  0.00    -0.216 C  
HETATM    8  C   UNL     1      -7.231  18.099  66.268  1.00  0.00    -0.301 C  
HETATM    9  C   UNL     1      -8.069  16.826  66.255  1.00  0.00    -0.365 C  
HETATM   10  C   UNL     1      -7.650  15.790  67.272  1.00  0.00    -0.244 A  
HETATM   11  C   UNL     1      -8.423  14.625  67.384  1.00  0.00    -0.219 A  
HETATM   12  C   UNL     1      -8.031  13.588  68.229  1.00  0.00    -0.147 A  
HETATM   13  C   UNL     1      -6.863  13.709  68.978  1.00  0.00    -0.110 A  
HETATM   14  C   UNL     1      -6.089  14.868  68.883  1.00  0.00    -0.085 A  
HETATM   15  C   UNL     1      -6.464  15.915  68.023  1.00  0.00    -0.146 A  
ENDBRANCH   4   6
TORSDOF 1
ENDMDL
MODEL      165
REMARK 921   NORMALIZED FREE ENERGY PREDICTED BY IDOCK:   -2.33 KCAL/MOL
REMARK 922        TOTAL FREE ENERGY PREDICTED BY IDOCK:   -2.72 KCAL/MOL
REMARK 923 INTER-LIGAND FREE ENERGY PREDICTED BY IDOCK:   -2.47 KCAL/MOL
REMARK 924 INTRA-LIGAND FREE ENERGY PREDICTED BY IDOCK:   -0.26 KCAL/MOL
REMARK 927      BINDING AFFINITY PREDICTED BY RF-SCORE:    0.00 PKD
ROOT
HETATM    1  C   UNL     1      -8.559   5.013  65.009  1.00  0.00    -0.149 C  
HETATM    2  C   UNL     1      -8.024   6.224  64.243  1.00  0.00    -0.108 C  
HETATM    3  N   UNL     1      -8.386   7.413  65.064  1.00  0.00    -0.096 NA 
HETATM    4  C   UNL     1      -8.650   6.920  66.252  1.00  0.00    -0.136 C  
HETATM    5  N   UNL     1      -8.612   5.549  66.347  1.00  0.00    -0.118 NA 
ENDROOT
BRANCH   4   6
HETATM    6  C   UNL     1      -8.964   7.854  67.419  1.00  0.00    -0.133 C  
HETATM    7  C   UNL     1      -7.692   8.653  67.756  1.00  0.00    -0.102 C  
HETATM    8  C   UNL     1      -6.661   7.739  68.414  1.00  0.00    -0.054 C  
HETATM    9  C   UNL     1      -7.181   7.212  69.747  1.00  0.00    -0.079 C  
HETATM   10  C   UNL     1      -8.649   6.854  69.749  1.00  0.00    -0.141 A  
HETATM   11  C   UNL     1      -9.187   6.281  70.910  1.00  0.00    -0.163 A  
HETATM   12  C   UNL     1     -10.553   6.024  71.011  1.00  0.00    -0.305 A  
HETATM   13  C   UNL     1     -11.396   6.329  69.946  1.00  0.00    -0.504 A  
HETATM   14  C   UNL     1     -10.872   6.891  68.779  1.00  0.00    -0.238 A  
HETATM   15  C   UNL     1      -9.499   7.172  68.670  1.00  0.00    -0.140 A  
ENDBRANCH   4   6
TORSDOF 1
ENDMDL
MODEL      166
REMARK 921   NORMALIZED FREE ENERGY PREDICTED BY IDOCK:   -2.31 KCAL/MOL
REMARK 922        TOTAL FREE ENERGY PREDICTED BY IDOCK:   -2.69 KCAL/MOL
REMARK 923 INTER-LIGAND FREE ENERGY PREDICTED BY IDOCK:   -2.51 KCAL/MOL
REMARK 924 INTRA-LIGAND FREE ENERGY PREDICTED BY IDOCK:   -0.18 KCAL/MOL
REMARK 927      BINDING AFFINITY PREDICTED BY RF-SCORE:    0.00 PKD
ROOT
HETATM    1  C   UNL     1      -8.744   2.415  67.677  1.00  0.00    -0.115 C  
HETATM    2  C   UNL     1      -7.699   3.271  66.958  1.00  0.00    -0.079 C  
HETATM    3  N   UNL     1      -8.057   4.685  67.260  1.00  0.00    -0.101 NA 
HETATM    4  C   UNL     1      -8.851   4.604  68.302  1.00  0.00    -0.105 C  
HETATM    5  N   UNL     1      -9.167   3.329  68.709  1.00  0.00    -0.153 NA 
ENDROOT
BRANCH   4   6
HETATM    6  C   UNL     1      -9.353   5.874  68.987  1.00  0.00    -0.138 C  
HETATM    7  C   UNL     1     -10.863   6.005  68.718  1.00  0.00    -0.391 C  
HETATM    8  C   UNL     1     -11.103   6.376  67.257  1.00  0.00    -0.416 C  
HETATM    9  C   UNL     1     -10.509   7.745  66.944  1.00  0.00    -0.388 C  
HETATM   10  C   UNL     1      -9.178   8.016  67.606  1.00  0.00    -0.145 A  
HETATM   11  C   UNL     1      -8.522   9.217  67.301  1.00  0.00    -0.125 A  
HETATM   12  C   UNL     1      -7.343   9.571  67.955  1.00  0.00    -0.082 A  
HETATM   13  C   UNL     1      -6.802   8.721  68.916  1.00  0.00    -0.061 A  
HETATM   14  C   UNL     1      -7.439   7.516  69.222  1.00  0.00    -0.091 A  
HETATM   15  C   UNL     1      -8.638   7.155  68.582  1.00  0.00    -0.124 A  
ENDBRANCH   4   6
TORSDOF 1
ENDMDL
MODEL      167
REMARK 921   NORMALIZED FREE ENERGY PREDICTED BY IDOCK:   -2.30 KCAL/MOL
REMARK 922        TOTAL FREE ENERGY PREDICTED BY IDOCK:   -2.69 KCAL/MOL
REMARK 923 INTER-LIGAND FREE ENERGY PREDICTED BY IDOCK:   -2.44 KCAL/MOL
REMARK 924 INTRA-LIGAND FREE ENERGY PREDICTED BY IDOCK:   -0.25 KCAL/MOL
REMARK 927      BINDING AFFINITY PREDICTED BY RF-SCORE:    0.00 PKD
ROOT
HETATM    1  C   UNL     1     -11.832   6.651  70.252  1.00  0.00    -0.316 C  
HETATM    2  C   UNL     1     -10.951   6.828  71.490  1.00  0.00    -0.240 C  
HETATM    3  N   UNL     1      -9.657   6.168  71.162  1.00  0.00    -0.174 NA 
HETATM    4  C   UNL     1      -9.667   6.063  69.854  1.00  0.00    -0.163 C  
HETATM    5  N   UNL     1     -10.825   6.473  69.235  1.00  0.00    -0.276 NA 
ENDROOT
BRANCH   4   6
HETATM    6  C   UNL     1      -8.443   5.524  69.116  1.00  0.00    -0.104 C  
HETATM    7  C   UNL     1      -7.324   6.577  69.198  1.00  0.00    -0.093 C  
HETATM    8  C   UNL     1      -7.666   7.772  68.311  1.00  0.00    -0.119 C  
HETATM    9  C   UNL     1      -7.731   7.354  66.846  1.00  0.00    -0.110 C  
HETATM   10  C   UNL     1      -8.365   6.003  66.608  1.00  0.00    -0.111 A  
HETATM   11  C   UNL     1      -8.542   5.582  65.282  1.00  0.00    -0.149 A  
HETATM   12  C   UNL     1      -9.026   4.306  64.998  1.00  0.00    -0.141 A  
HETATM   13  C   UNL     1      -9.347   3.440  66.040  1.00  0.00    -0.148 A  
HETATM   14  C   UNL     1      -9.185   3.849  67.365  1.00  0.00    -0.199 A  
HETATM   15  C   UNL     1      -8.682   5.128  67.666  1.00  0.00    -0.103 A  
ENDBRANCH   4   6
TORSDOF 1
ENDMDL
MODEL      168
REMARK 921   NORMALIZED FREE ENERGY PREDICTED BY IDOCK:   -2.27 KCAL/MOL
REMARK 922        TOTAL FREE ENERGY PREDICTED BY IDOCK:   -2.66 KCAL/MOL
REMARK 923 INTER-LIGAND FREE ENERGY PREDICTED BY IDOCK:   -2.42 KCAL/MOL
REMARK 924 INTRA-LIGAND FREE ENERGY PREDICTED BY IDOCK:   -0.24 KCAL/MOL
REMARK 927      BINDING AFFINITY PREDICTED BY RF-SCORE:    0.00 PKD
ROOT
HETATM    1  C   UNL     1      -8.155   2.093  71.759  1.00  0.00    -0.048 C  
HETATM    2  C   UNL     1      -8.602   1.761  73.184  1.00  0.00    -0.062 C  
HETATM    3  N   UNL     1      -8.763   3.071  73.872  1.00  0.00    -0.076 NA 
HETATM    4  C   UNL     1      -8.839   3.945  72.895  1.00  0.00    -0.098 C  
HETATM    5  N   UNL     1      -8.662   3.437  71.630  1.00  0.00    -0.083 NA 
ENDROOT
BRANCH   4   6
HETATM    6  C   UNL     1      -9.119   5.416  73.199  1.00  0.00    -0.126 C  
HETATM    7  C   UNL     1     -10.436   5.506  73.991  1.00  0.00    -0.308 C  
HETATM    8  C   UNL     1     -11.618   5.192  73.076  1.00  0.00    -0.301 C  
HETATM    9  C   UNL     1     -11.732   6.233  71.968  1.00  0.00    -0.374 C  
HETATM   10  C   UNL     1     -10.408   6.689  71.399  1.00  0.00    -0.225 A  
HETATM   11  C   UNL     1     -10.428   7.581  70.317  1.00  0.00    -0.227 A  
HETATM   12  C   UNL     1      -9.244   8.118  69.814  1.00  0.00    -0.151 A  
HETATM   13  C   UNL     1      -8.025   7.761  70.383  1.00  0.00    -0.095 A  
HETATM   14  C   UNL     1      -7.990   6.865  71.455  1.00  0.00    -0.104 A  
HETATM   15  C   UNL     1      -9.178   6.329  71.983  1.00  0.00    -0.145 A  
ENDBRANCH   4   6
TORSDOF 1
ENDMDL
MODEL      169
REMARK 921   NORMALIZED FREE ENERGY PREDICTED BY IDOCK:   -2.24 KCAL/MOL
REMARK 922        TOTAL FREE ENERGY PREDICTED BY IDOCK:   -2.63 KCAL/MOL
REMARK 923 INTER-LIGAND FREE ENERGY PREDICTED BY IDOCK:   -2.48 KCAL/MOL
REMARK 924 INTRA-LIGAND FREE ENERGY PREDICTED BY IDOCK:   -0.15 KCAL/MOL
REMARK 927      BINDING AFFINITY PREDICTED BY RF-SCORE:    0.00 PKD
ROOT
HETATM    1  C   UNL     1      -7.571   9.011  67.740  1.00  0.00    -0.093 C  
HETATM    2  C   UNL     1      -7.959   9.791  68.998  1.00  0.00    -0.096 C  
HETATM    3  N   UNL     1      -8.284   8.764  70.026  1.00  0.00    -0.114 NA 
HETATM    4  C   UNL     1      -7.740   7.660  69.567  1.00  0.00    -0.103 C  
HETATM    5  N   UNL     1      -7.162   7.757  68.323  1.00  0.00    -0.087 NA 
ENDROOT
BRANCH   4   6
HETATM    6  C   UNL     1      -7.765   6.384  70.406  1.00  0.00    -0.098 C  
HETATM    7  C   UNL     1      -8.242   5.225  69.513  1.00  0.00    -0.095 C  
HETATM    8  C   UNL     1      -9.731   5.377  69.212  1.00  0.00    -0.224 C  
HETATM    9  C   UNL     1     -10.552   5.274  70.492  1.00  0.00    -0.272 C  
HETATM   10  C   UNL     1      -9.930   5.950  71.691  1.00  0.00    -0.213 A  
HETATM   11  C   UNL     1     -10.661   5.977  72.888  1.00  0.00    -0.277 A  
HETATM   12  C   UNL     1     -10.101   6.494  74.054  1.00  0.00    -0.348 A  
HETATM   13  C   UNL     1      -8.804   6.999  74.035  1.00  0.00    -0.210 A  
HETATM   14  C   UNL     1      -8.067   6.988  72.848  1.00  0.00    -0.117 A  
HETATM   15  C   UNL     1      -8.614   6.454  71.668  1.00  0.00    -0.129 A  
ENDBRANCH   4   6
TORSDOF 1
ENDMDL
MODEL      170
REMARK 921   NORMALIZED FREE ENERGY PREDICTED BY IDOCK:   -2.24 KCAL/MOL
REMARK 922        TOTAL FREE ENERGY PREDICTED BY IDOCK:   -2.62 KCAL/MOL
REMARK 923 INTER-LIGAND FREE ENERGY PREDICTED BY IDOCK:   -2.65 KCAL/MOL
REMARK 924 INTRA-LIGAND FREE ENERGY PREDICTED BY IDOCK:    0.03 KCAL/MOL
REMARK 927      BINDING AFFINITY PREDICTED BY RF-SCORE:    0.00 PKD
ROOT
HETATM    1  C   UNL     1      -9.376  12.705  68.006  1.00  0.00    -0.209 C  
HETATM    2  C   UNL     1      -8.300  12.765  66.920  1.00  0.00    -0.058 C  
HETATM    3  N   UNL     1      -7.533  11.494  67.039  1.00  0.00    -0.144 NA 
HETATM    4  C   UNL     1      -8.318  10.705  67.737  1.00  0.00    -0.115 C  
HETATM    5  N   UNL     1      -9.480  11.279  68.195  1.00  0.00    -0.177 NA 
ENDROOT
BRANCH   4   6
HETATM    6  C   UNL     1      -7.922   9.251  67.984  1.00  0.00    -0.100 C  
HETATM    7  C   UNL     1      -7.017   8.790  66.827  1.00  0.00    -0.080 C  
HETATM    8  C   UNL     1      -7.842   8.630  65.552  1.00  0.00    -0.099 C  
HETATM    9  C   UNL     1      -8.886   7.532  65.720  1.00  0.00    -0.122 C  
HETATM   10  C   UNL     1      -9.544   7.496  67.080  1.00  0.00    -0.221 A  
HETATM   11  C   UNL     1     -10.577   6.571  67.288  1.00  0.00    -0.383 A  
HETATM   12  C   UNL     1     -11.153   6.418  68.548  1.00  0.00    -0.385 A  
HETATM   13  C   UNL     1     -10.707   7.198  69.612  1.00  0.00    -0.256 A  
HETATM   14  C   UNL     1      -9.686   8.130  69.417  1.00  0.00    -0.170 A  
HETATM   15  C   UNL     1      -9.084   8.283  68.155  1.00  0.00    -0.134 A  
ENDBRANCH   4   6
TORSDOF 1
ENDMDL
MODEL      171
REMARK 921   NORMALIZED FREE ENERGY PREDICTED BY IDOCK:   -2.24 KCAL/MOL
REMARK 922        TOTAL FREE ENERGY PREDICTED BY IDOCK:   -2.62 KCAL/MOL
REMARK 923 INTER-LIGAND FREE ENERGY PREDICTED BY IDOCK:   -2.96 KCAL/MOL
REMARK 924 INTRA-LIGAND FREE ENERGY PREDICTED BY IDOCK:    0.33 KCAL/MOL
REMARK 927      BINDING AFFINITY PREDICTED BY RF-SCORE:    0.00 PKD
ROOT
HETATM    1  C   UNL     1     -10.443   8.899  67.618  1.00  0.00    -0.255 C  
HETATM    2  C   UNL     1      -9.225   8.939  68.544  1.00  0.00    -0.137 C  
HETATM    3  N   UNL     1      -8.371  10.049  68.040  1.00  0.00    -0.116 NA 
HETATM    4  C   UNL     1      -9.174  10.762  67.285  1.00  0.00    -0.147 C  
HETATM    5  N   UNL     1     -10.441  10.253  67.122  1.00  0.00    -0.241 NA 
ENDROOT
BRANCH   4   6
HETATM    6  C   UNL     1      -8.687  12.069  66.663  1.00  0.00    -0.171 C  
HETATM    7  C   UNL     1      -7.222  12.289  67.081  1.00  0.00    -0.100 C  
HETATM    8  C   UNL     1      -7.150  12.655  68.561  1.00  0.00    -0.101 C  
HETATM    9  C   UNL     1      -7.856  13.981  68.823  1.00  0.00    -0.097 C  
HETATM   10  C   UNL     1      -9.130  14.178  68.035  1.00  0.00    -0.191 A  
HETATM   11  C   UNL     1      -9.886  15.334  68.281  1.00  0.00    -0.218 A  
HETATM   12  C   UNL     1     -11.014  15.624  67.516  1.00  0.00    -0.309 A  
HETATM   13  C   UNL     1     -11.404  14.755  66.501  1.00  0.00    -0.344 A  
HETATM   14  C   UNL     1     -10.667  13.595  66.251  1.00  0.00    -0.285 A  
HETATM   15  C   UNL     1      -9.517  13.299  67.004  1.00  0.00    -0.243 A  
ENDBRANCH   4   6
TORSDOF 1
ENDMDL
MODEL      172
REMARK 921   NORMALIZED FREE ENERGY PREDICTED BY IDOCK:   -2.23 KCAL/MOL
REMARK 922        TOTAL FREE ENERGY PREDICTED BY IDOCK:   -2.61 KCAL/MOL
REMARK 923 INTER-LIGAND FREE ENERGY PREDICTED BY IDOCK:   -2.76 KCAL/MOL
REMARK 924 INTRA-LIGAND FREE ENERGY PREDICTED BY IDOCK:    0.14 KCAL/MOL
REMARK 927      BINDING AFFINITY PREDICTED BY RF-SCORE:    0.00 PKD
ROOT
HETATM    1  C   UNL     1      -8.239   5.136  69.933  1.00  0.00    -0.086 C  
HETATM    2  C   UNL     1      -7.520   5.040  71.280  1.00  0.00    -0.082 C  
HETATM    3  N   UNL     1      -7.464   6.432  71.809  1.00  0.00    -0.092 NA 
HETATM    4  C   UNL     1      -8.372   7.080  71.116  1.00  0.00    -0.118 C  
HETATM    5  N   UNL     1      -8.984   6.357  70.119  1.00  0.00    -0.153 NA 
ENDROOT
BRANCH   4   6
HETATM    6  C   UNL     1      -8.695   8.536  71.444  1.00  0.00    -0.237 C  
HETATM    7  C   UNL     1     -10.138   8.606  71.973  1.00  0.00    -0.401 C  
HETATM    8  C   UNL     1     -11.124   8.364  70.833  1.00  0.00    -0.289 C  
HETATM    9  C   UNL     1     -11.016   9.466  69.785  1.00  0.00    -0.234 C  
HETATM   10  C   UNL     1      -9.605   9.929  69.506  1.00  0.00    -0.242 A  
HETATM   11  C   UNL     1      -9.411  10.880  68.493  1.00  0.00    -0.181 A  
HETATM   12  C   UNL     1      -8.148  11.422  68.258  1.00  0.00    -0.143 A  
HETATM   13  C   UNL     1      -7.064  11.012  69.028  1.00  0.00    -0.106 A  
HETATM   14  C   UNL     1      -7.241  10.059  70.034  1.00  0.00    -0.158 A  
HETATM   15  C   UNL     1      -8.512   9.516  70.293  1.00  0.00    -0.237 A  
ENDBRANCH   4   6
TORSDOF 1
ENDMDL
MODEL      173
REMARK 921   NORMALIZED FREE ENERGY PREDICTED BY IDOCK:   -2.22 KCAL/MOL
REMARK 922        TOTAL FREE ENERGY PREDICTED BY IDOCK:   -2.60 KCAL/MOL
REMARK 923 INTER-LIGAND FREE ENERGY PREDICTED BY IDOCK:   -2.43 KCAL/MOL
REMARK 924 INTRA-LIGAND FREE ENERGY PREDICTED BY IDOCK:   -0.17 KCAL/MOL
REMARK 927      BINDING AFFINITY PREDICTED BY RF-SCORE:    0.00 PKD
ROOT
HETATM    1  C   UNL     1     -10.170  12.056  66.363  1.00  0.00    -0.216 C  
HETATM    2  C   UNL     1      -8.761  11.957  66.950  1.00  0.00    -0.191 C  
HETATM    3  N   UNL     1      -8.515  10.505  67.170  1.00  0.00    -0.126 NA 
HETATM    4  C   UNL     1      -9.417   9.906  66.428  1.00  0.00    -0.183 C  
HETATM    5  N   UNL     1     -10.312  10.737  65.796  1.00  0.00    -0.248 NA 
ENDROOT
BRANCH   4   6
HETATM    6  C   UNL     1      -9.421   8.384  66.301  1.00  0.00    -0.292 C  
HETATM    7  C   UNL     1     -10.624   7.834  67.089  1.00  0.00    -0.401 C  
HETATM    8  C   UNL     1     -10.375   7.977  68.589  1.00  0.00    -0.224 C  
HETATM    9  C   UNL     1      -9.180   7.133  69.019  1.00  0.00    -0.135 C  
HETATM   10  C   UNL     1      -8.031   7.128  68.038  1.00  0.00    -0.119 A  
HETATM   11  C   UNL     1      -6.859   6.445  68.398  1.00  0.00    -0.071 A  
HETATM   12  C   UNL     1      -5.804   6.317  67.496  1.00  0.00    -0.016 A  
HETATM   13  C   UNL     1      -5.906   6.879  66.227  1.00  0.00    -0.030 A  
HETATM   14  C   UNL     1      -7.063   7.570  65.858  1.00  0.00    -0.065 A  
HETATM   15  C   UNL     1      -8.142   7.693  66.752  1.00  0.00    -0.115 A  
ENDBRANCH   4   6
TORSDOF 1
ENDMDL
MODEL      174
REMARK 921   NORMALIZED FREE ENERGY PREDICTED BY IDOCK:   -2.21 KCAL/MOL
REMARK 922        TOTAL FREE ENERGY PREDICTED BY IDOCK:   -2.60 KCAL/MOL
REMARK 923 INTER-LIGAND FREE ENERGY PREDICTED BY IDOCK:   -3.01 KCAL/MOL
REMARK 924 INTRA-LIGAND FREE ENERGY PREDICTED BY IDOCK:    0.41 KCAL/MOL
REMARK 927      BINDING AFFINITY PREDICTED BY RF-SCORE:    0.00 PKD
ROOT
HETATM    1  C   UNL     1      -8.667   7.351  74.439  1.00  0.00    -0.195 C  
HETATM    2  C   UNL     1      -8.818   5.946  73.852  1.00  0.00    -0.126 C  
HETATM    3  N   UNL     1      -9.751   6.087  72.700  1.00  0.00    -0.156 NA 
HETATM    4  C   UNL     1      -9.744   7.372  72.431  1.00  0.00    -0.155 C  
HETATM    5  N   UNL     1      -9.009   8.154  73.290  1.00  0.00    -0.266 NA 
ENDROOT
BRANCH   4   6
HETATM    6  C   UNL     1     -10.509   7.909  71.223  1.00  0.00    -0.233 C  
HETATM    7  C   UNL     1     -11.392   6.778  70.666  1.00  0.00    -0.384 C  
HETATM    8  C   UNL     1     -10.522   5.725  69.984  1.00  0.00    -0.353 C  
HETATM    9  C   UNL     1      -9.804   6.318  68.778  1.00  0.00    -0.156 C  
HETATM   10  C   UNL     1      -9.300   7.729  68.980  1.00  0.00    -0.150 A  
HETATM   11  C   UNL     1      -8.553   8.317  67.949  1.00  0.00    -0.132 A  
HETATM   12  C   UNL     1      -8.148   9.648  68.032  1.00  0.00    -0.105 A  
HETATM   13  C   UNL     1      -8.480  10.404  69.153  1.00  0.00    -0.168 A  
HETATM   14  C   UNL     1      -9.216   9.828  70.192  1.00  0.00    -0.253 A  
HETATM   15  C   UNL     1      -9.644   8.491  70.114  1.00  0.00    -0.174 A  
ENDBRANCH   4   6
TORSDOF 1
ENDMDL
MODEL      175
REMARK 921   NORMALIZED FREE ENERGY PREDICTED BY IDOCK:   -2.21 KCAL/MOL
REMARK 922        TOTAL FREE ENERGY PREDICTED BY IDOCK:   -2.59 KCAL/MOL
REMARK 923 INTER-LIGAND FREE ENERGY PREDICTED BY IDOCK:   -2.42 KCAL/MOL
REMARK 924 INTRA-LIGAND FREE ENERGY PREDICTED BY IDOCK:   -0.18 KCAL/MOL
REMARK 927      BINDING AFFINITY PREDICTED BY RF-SCORE:    0.00 PKD
ROOT
HETATM    1  C   UNL     1     -10.060   5.205  66.094  1.00  0.00    -0.207 C  
HETATM    2  C   UNL     1      -8.691   5.206  66.777  1.00  0.00    -0.108 C  
HETATM    3  N   UNL     1      -8.544   6.556  67.388  1.00  0.00    -0.118 NA 
HETATM    4  C   UNL     1      -9.768   7.030  67.427  1.00  0.00    -0.141 C  
HETATM    5  N   UNL     1     -10.730   6.238  66.847  1.00  0.00    -0.322 NA 
ENDROOT
BRANCH   4   6
HETATM    6  C   UNL     1     -10.050   8.375  68.096  1.00  0.00    -0.239 C  
HETATM    7  C   UNL     1     -10.830   9.256  67.104  1.00  0.00    -0.113 C  
HETATM    8  C   UNL     1      -9.911   9.708  65.973  1.00  0.00    -0.345 C  
HETATM    9  C   UNL     1      -8.788  10.588  66.510  1.00  0.00    -0.155 C  
HETATM   10  C   UNL     1      -8.223  10.141  67.838  1.00  0.00    -0.109 A  
HETATM   11  C   UNL     1      -7.129  10.846  68.361  1.00  0.00    -0.073 A  
HETATM   12  C   UNL     1      -6.628  10.549  69.627  1.00  0.00    -0.098 A  
HETATM   13  C   UNL     1      -7.212   9.534  70.381  1.00  0.00    -0.130 A  
HETATM   14  C   UNL     1      -8.295   8.817  69.869  1.00  0.00    -0.125 A  
HETATM   15  C   UNL     1      -8.821   9.118  68.601  1.00  0.00    -0.133 A  
ENDBRANCH   4   6
TORSDOF 1
ENDMDL
MODEL      176
REMARK 921   NORMALIZED FREE ENERGY PREDICTED BY IDOCK:   -2.21 KCAL/MOL
REMARK 922        TOTAL FREE ENERGY PREDICTED BY IDOCK:   -2.59 KCAL/MOL
REMARK 923 INTER-LIGAND FREE ENERGY PREDICTED BY IDOCK:   -2.41 KCAL/MOL
REMARK 924 INTRA-LIGAND FREE ENERGY PREDICTED BY IDOCK:   -0.18 KCAL/MOL
REMARK 927      BINDING AFFINITY PREDICTED BY RF-SCORE:    0.00 PKD
ROOT
HETATM    1  C   UNL     1      -6.167  13.053  69.504  1.00  0.00    -0.117 C  
HETATM    2  C   UNL     1      -5.699  11.920  70.420  1.00  0.00    -0.163 C  
HETATM    3  N   UNL     1      -6.676  10.813  70.224  1.00  0.00    -0.265 NA 
HETATM    4  C   UNL     1      -7.280  11.107  69.096  1.00  0.00    -0.123 C  
HETATM    5  N   UNL     1      -6.924  12.307  68.528  1.00  0.00    -0.085 NA 
ENDROOT
BRANCH   4   6
HETATM    6  C   UNL     1      -8.295  10.138  68.492  1.00  0.00    -0.116 C  
HETATM    7  C   UNL     1      -7.690   8.723  68.517  1.00  0.00    -0.099 C  
HETATM    8  C   UNL     1      -6.571   8.616  67.485  1.00  0.00    -0.058 C  
HETATM    9  C   UNL     1      -7.119   8.804  66.075  1.00  0.00    -0.084 C  
HETATM   10  C   UNL     1      -8.187   9.866  65.954  1.00  0.00    -0.124 A  
HETATM   11  C   UNL     1      -8.682  10.161  64.676  1.00  0.00    -0.205 A  
HETATM   12  C   UNL     1      -9.738  11.056  64.510  1.00  0.00    -0.323 A  
HETATM   13  C   UNL     1     -10.305  11.672  65.623  1.00  0.00    -0.306 A  
HETATM   14  C   UNL     1      -9.815  11.395  66.901  1.00  0.00    -0.218 A  
HETATM   15  C   UNL     1      -8.761  10.482  67.084  1.00  0.00    -0.130 A  
ENDBRANCH   4   6
TORSDOF 1
ENDMDL
MODEL      177
REMARK 921   NORMALIZED FREE ENERGY PREDICTED BY IDOCK:   -2.20 KCAL/MOL
REMARK 922        TOTAL FREE ENERGY PREDICTED BY IDOCK:   -2.59 KCAL/MOL
REMARK 923 INTER-LIGAND FREE ENERGY PREDICTED BY IDOCK:   -2.40 KCAL/MOL
REMARK 924 INTRA-LIGAND FREE ENERGY PREDICTED BY IDOCK:   -0.19 KCAL/MOL
REMARK 927      BINDING AFFINITY PREDICTED BY RF-SCORE:    0.00 PKD
ROOT
HETATM    1  C   UNL     1     -10.797   7.924  70.980  1.00  0.00    -0.235 C  
HETATM    2  C   UNL     1      -9.996   9.127  71.481  1.00  0.00    -0.287 C  
HETATM    3  N   UNL     1      -9.269   9.652  70.291  1.00  0.00    -0.254 NA 
HETATM    4  C   UNL     1      -9.903   9.131  69.266  1.00  0.00    -0.175 C  
HETATM    5  N   UNL     1     -10.909   8.247  69.578  1.00  0.00    -0.171 NA 
ENDROOT
BRANCH   4   6
HETATM    6  C   UNL     1      -9.516   9.525  67.842  1.00  0.00    -0.149 C  
HETATM    7  C   UNL     1      -8.922   8.289  67.142  1.00  0.00    -0.154 C  
HETATM    8  C   UNL     1      -7.543   7.976  67.717  1.00  0.00    -0.102 C  
HETATM    9  C   UNL     1      -6.571   9.115  67.435  1.00  0.00    -0.065 C  
HETATM   10  C   UNL     1      -7.170  10.496  67.564  1.00  0.00    -0.090 A  
HETATM   11  C   UNL     1      -6.320  11.601  67.406  1.00  0.00    -0.100 A  
HETATM   12  C   UNL     1      -6.830  12.898  67.411  1.00  0.00    -0.133 A  
HETATM   13  C   UNL     1      -8.196  13.105  67.584  1.00  0.00    -0.175 A  
HETATM   14  C   UNL     1      -9.053  12.014  67.752  1.00  0.00    -0.187 A  
HETATM   15  C   UNL     1      -8.554  10.699  67.733  1.00  0.00    -0.123 A  
ENDBRANCH   4   6
TORSDOF 1
ENDMDL
MODEL      178
REMARK 921   NORMALIZED FREE ENERGY PREDICTED BY IDOCK:   -2.19 KCAL/MOL
REMARK 922        TOTAL FREE ENERGY PREDICTED BY IDOCK:   -2.58 KCAL/MOL
REMARK 923 INTER-LIGAND FREE ENERGY PREDICTED BY IDOCK:   -2.50 KCAL/MOL
REMARK 924 INTRA-LIGAND FREE ENERGY PREDICTED BY IDOCK:   -0.08 KCAL/MOL
REMARK 927      BINDING AFFINITY PREDICTED BY RF-SCORE:    0.00 PKD
ROOT
HETATM    1  C   UNL     1      -9.571   4.258  73.310  1.00  0.00    -0.118 C  
HETATM    2  C   UNL     1      -8.739   5.369  73.954  1.00  0.00    -0.118 C  
HETATM    3  N   UNL     1      -8.159   6.147  72.824  1.00  0.00    -0.106 NA 
HETATM    4  C   UNL     1      -8.895   5.814  71.788  1.00  0.00    -0.136 C  
HETATM    5  N   UNL     1      -9.844   4.847  72.021  1.00  0.00    -0.170 NA 
ENDROOT
BRANCH   4   6
HETATM    6  C   UNL     1      -8.676   6.495  70.439  1.00  0.00    -0.147 C  
HETATM    7  C   UNL     1      -9.629   7.700  70.343  1.00  0.00    -0.168 C  
HETATM    8  C   UNL     1     -11.066   7.215  70.168  1.00  0.00    -0.301 C  
HETATM    9  C   UNL     1     -11.224   6.461  68.853  1.00  0.00    -0.385 C  
HETATM   10  C   UNL     1     -10.055   5.570  68.498  1.00  0.00    -0.240 A  
HETATM   11  C   UNL     1     -10.158   4.775  67.347  1.00  0.00    -0.177 A  
HETATM   12  C   UNL     1      -9.077   4.011  66.910  1.00  0.00    -0.157 A  
HETATM   13  C   UNL     1      -7.883   4.028  67.627  1.00  0.00    -0.090 A  
HETATM   14  C   UNL     1      -7.770   4.807  68.780  1.00  0.00    -0.072 A  
HETATM   15  C   UNL     1      -8.847   5.596  69.223  1.00  0.00    -0.112 A  
ENDBRANCH   4   6
TORSDOF 1
ENDMDL
MODEL      179
REMARK 921   NORMALIZED FREE ENERGY PREDICTED BY IDOCK:   -2.19 KCAL/MOL
REMARK 922        TOTAL FREE ENERGY PREDICTED BY IDOCK:   -2.57 KCAL/MOL
REMARK 923 INTER-LIGAND FREE ENERGY PREDICTED BY IDOCK:   -2.55 KCAL/MOL
REMARK 924 INTRA-LIGAND FREE ENERGY PREDICTED BY IDOCK:   -0.02 KCAL/MOL
REMARK 927      BINDING AFFINITY PREDICTED BY RF-SCORE:    0.00 PKD
ROOT
HETATM    1  C   UNL     1      -8.769   8.935  66.544  1.00  0.00    -0.130 C  
HETATM    2  C   UNL     1      -9.904   9.861  66.986  1.00  0.00    -0.191 C  
HETATM    3  N   UNL     1     -10.615   9.137  68.076  1.00  0.00    -0.222 NA 
HETATM    4  C   UNL     1      -9.765   8.214  68.463  1.00  0.00    -0.162 C  
HETATM    5  N   UNL     1      -8.601   8.138  67.735  1.00  0.00    -0.131 NA 
ENDROOT
BRANCH   4   6
HETATM    6  C   UNL     1     -10.092   7.320  69.657  1.00  0.00    -0.195 C  
HETATM    7  C   UNL     1     -10.942   8.129  70.652  1.00  0.00    -0.255 C  
HETATM    8  C   UNL     1     -10.078   9.185  71.338  1.00  0.00    -0.392 C  
HETATM    9  C   UNL     1      -8.984   8.527  72.171  1.00  0.00    -0.300 C  
HETATM   10  C   UNL     1      -8.360   7.307  71.535  1.00  0.00    -0.109 A  
HETATM   11  C   UNL     1      -7.286   6.693  72.197  1.00  0.00    -0.089 A  
HETATM   12  C   UNL     1      -6.736   5.507  71.714  1.00  0.00    -0.061 A  
HETATM   13  C   UNL     1      -7.248   4.926  70.557  1.00  0.00    -0.053 A  
HETATM   14  C   UNL     1      -8.310   5.532  69.882  1.00  0.00    -0.105 A  
HETATM   15  C   UNL     1      -8.886   6.719  70.367  1.00  0.00    -0.152 A  
ENDBRANCH   4   6
TORSDOF 1
ENDMDL
MODEL      180
REMARK 921   NORMALIZED FREE ENERGY PREDICTED BY IDOCK:   -2.17 KCAL/MOL
REMARK 922        TOTAL FREE ENERGY PREDICTED BY IDOCK:   -2.55 KCAL/MOL
REMARK 923 INTER-LIGAND FREE ENERGY PREDICTED BY IDOCK:   -2.35 KCAL/MOL
REMARK 924 INTRA-LIGAND FREE ENERGY PREDICTED BY IDOCK:   -0.20 KCAL/MOL
REMARK 927      BINDING AFFINITY PREDICTED BY RF-SCORE:    0.00 PKD
ROOT
HETATM    1  C   UNL     1     -10.624  10.704  64.958  1.00  0.00    -0.117 C  
HETATM    2  C   UNL     1     -11.483  11.952  64.747  1.00  0.00    -0.260 C  
HETATM    3  N   UNL     1     -11.378  12.734  66.011  1.00  0.00    -0.306 NA 
HETATM    4  C   UNL     1     -10.315  12.246  66.608  1.00  0.00    -0.215 C  
HETATM    5  N   UNL     1      -9.722  11.175  65.981  1.00  0.00    -0.216 NA 
ENDROOT
BRANCH   4   6
HETATM    6  C   UNL     1      -9.807  12.871  67.906  1.00  0.00    -0.227 C  
HETATM    7  C   UNL     1      -9.699  14.393  67.702  1.00  0.00    -0.219 C  
HETATM    8  C   UNL     1      -8.529  14.713  66.775  1.00  0.00    -0.145 C  
HETATM    9  C   UNL     1      -7.208  14.288  67.408  1.00  0.00    -0.137 C  
HETATM   10  C   UNL     1      -7.267  12.978  68.160  1.00  0.00    -0.116 A  
HETATM   11  C   UNL     1      -6.075  12.473  68.698  1.00  0.00    -0.066 A  
HETATM   12  C   UNL     1      -6.081  11.325  69.489  1.00  0.00    -0.085 A  
HETATM   13  C   UNL     1      -7.280  10.664  69.741  1.00  0.00    -0.135 A  
HETATM   14  C   UNL     1      -8.474  11.150  69.203  1.00  0.00     0.029 A  
HETATM   15  C   UNL     1      -8.485  12.317  68.418  1.00  0.00    -0.138 A  
ENDBRANCH   4   6
TORSDOF 1
ENDMDL
MODEL      181
REMARK 921   NORMALIZED FREE ENERGY PREDICTED BY IDOCK:   -2.12 KCAL/MOL
REMARK 922        TOTAL FREE ENERGY PREDICTED BY IDOCK:   -2.50 KCAL/MOL
REMARK 923 INTER-LIGAND FREE ENERGY PREDICTED BY IDOCK:   -2.65 KCAL/MOL
REMARK 924 INTRA-LIGAND FREE ENERGY PREDICTED BY IDOCK:    0.15 KCAL/MOL
REMARK 927      BINDING AFFINITY PREDICTED BY RF-SCORE:    0.00 PKD
ROOT
HETATM    1  C   UNL     1      -9.413   5.477  66.619  1.00  0.00    -0.146 C  
HETATM    2  C   UNL     1      -8.001   5.065  67.042  1.00  0.00    -0.103 C  
HETATM    3  N   UNL     1      -7.410   6.263  67.701  1.00  0.00    -0.082 NA 
HETATM    4  C   UNL     1      -8.444   7.018  67.990  1.00  0.00    -0.125 C  
HETATM    5  N   UNL     1      -9.660   6.556  67.544  1.00  0.00    -0.123 NA 
ENDROOT
BRANCH   4   6
HETATM    6  C   UNL     1      -8.254   8.311  68.782  1.00  0.00    -0.117 C  
HETATM    7  C   UNL     1      -6.876   8.263  69.466  1.00  0.00    -0.042 C  
HETATM    8  C   UNL     1      -6.895   7.250  70.608  1.00  0.00    -0.053 C  
HETATM    9  C   UNL     1      -7.877   7.678  71.692  1.00  0.00    -0.089 C  
HETATM   10  C   UNL     1      -9.160   8.285  71.171  1.00  0.00    -0.198 A  
HETATM   11  C   UNL     1     -10.153   8.627  72.100  1.00  0.00    -0.388 A  
HETATM   12  C   UNL     1     -11.314   9.283  71.694  1.00  0.00    -0.467 A  
HETATM   13  C   UNL     1     -11.497   9.596  70.349  1.00  0.00    -0.325 A  
HETATM   14  C   UNL     1     -10.521   9.253  69.411  1.00  0.00    -0.229 A  
HETATM   15  C   UNL     1      -9.337   8.606  69.810  1.00  0.00    -0.165 A  
ENDBRANCH   4   6
TORSDOF 1
ENDMDL
MODEL      182
REMARK 921   NORMALIZED FREE ENERGY PREDICTED BY IDOCK:   -2.10 KCAL/MOL
REMARK 922        TOTAL FREE ENERGY PREDICTED BY IDOCK:   -2.48 KCAL/MOL
REMARK 923 INTER-LIGAND FREE ENERGY PREDICTED BY IDOCK:   -2.27 KCAL/MOL
REMARK 924 INTRA-LIGAND FREE ENERGY PREDICTED BY IDOCK:   -0.21 KCAL/MOL
REMARK 927      BINDING AFFINITY PREDICTED BY RF-SCORE:    0.00 PKD
ROOT
HETATM    1  C   UNL     1     -11.531   6.440  69.111  1.00  0.00    -0.190 C  
HETATM    2  C   UNL     1     -11.472   7.341  70.346  1.00  0.00    -0.248 C  
HETATM    3  N   UNL     1     -10.195   8.099  70.232  1.00  0.00    -0.197 NA 
HETATM    4  C   UNL     1      -9.856   7.978  68.969  1.00  0.00    -0.178 C  
HETATM    5  N   UNL     1     -10.668   7.167  68.212  1.00  0.00    -0.184 NA 
ENDROOT
BRANCH   4   6
HETATM    6  C   UNL     1      -8.635   8.719  68.427  1.00  0.00    -0.134 C  
HETATM    7  C   UNL     1      -9.021  10.191  68.201  1.00  0.00    -0.122 C  
HETATM    8  C   UNL     1      -9.959  10.306  67.002  1.00  0.00    -0.249 C  
HETATM    9  C   UNL     1      -9.255   9.865  65.724  1.00  0.00    -0.228 C  
HETATM   10  C   UNL     1      -8.349   8.667  65.889  1.00  0.00    -0.140 A  
HETATM   11  C   UNL     1      -7.731   8.144  64.744  1.00  0.00    -0.123 A  
HETATM   12  C   UNL     1      -6.807   7.106  64.844  1.00  0.00    -0.047 A  
HETATM   13  C   UNL     1      -6.497   6.573  66.093  1.00  0.00    -0.043 A  
HETATM   14  C   UNL     1      -7.113   7.077  67.241  1.00  0.00    -0.084 A  
HETATM   15  C   UNL     1      -8.035   8.135  67.156  1.00  0.00    -0.105 A  
ENDBRANCH   4   6
TORSDOF 1
ENDMDL
MODEL      183
REMARK 921   NORMALIZED FREE ENERGY PREDICTED BY IDOCK:   -2.10 KCAL/MOL
REMARK 922        TOTAL FREE ENERGY PREDICTED BY IDOCK:   -2.48 KCAL/MOL
REMARK 923 INTER-LIGAND FREE ENERGY PREDICTED BY IDOCK:   -2.23 KCAL/MOL
REMARK 924 INTRA-LIGAND FREE ENERGY PREDICTED BY IDOCK:   -0.26 KCAL/MOL
REMARK 927      BINDING AFFINITY PREDICTED BY RF-SCORE:    0.00 PKD
ROOT
HETATM    1  C   UNL     1      -9.315   3.568  69.891  1.00  0.00    -0.177 C  
HETATM    2  C   UNL     1      -8.244   3.966  68.873  1.00  0.00    -0.073 C  
HETATM    3  N   UNL     1      -8.465   5.413  68.598  1.00  0.00    -0.093 NA 
HETATM    4  C   UNL     1      -9.204   5.825  69.602  1.00  0.00    -0.138 C  
HETATM    5  N   UNL     1      -9.602   4.850  70.486  1.00  0.00    -0.169 NA 
ENDROOT
BRANCH   4   6
HETATM    6  C   UNL     1      -9.559   7.305  69.738  1.00  0.00    -0.162 C  
HETATM    7  C   UNL     1      -8.264   8.092  70.005  1.00  0.00    -0.120 C  
HETATM    8  C   UNL     1      -7.762   7.807  71.419  1.00  0.00    -0.082 C  
HETATM    9  C   UNL     1      -8.764   8.300  72.456  1.00  0.00    -0.284 C  
HETATM   10  C   UNL     1     -10.212   8.073  72.086  1.00  0.00    -0.308 A  
HETATM   11  C   UNL     1     -11.195   8.419  73.024  1.00  0.00     0.172 A  
HETATM   12  C   UNL     1     -12.548   8.330  72.703  1.00  0.00    -0.178 A  
HETATM   13  C   UNL     1     -12.933   7.884  71.442  1.00  0.00    -0.301 A  
HETATM   14  C   UNL     1     -11.965   7.526  70.501  1.00  0.00    -0.088 A  
HETATM   15  C   UNL     1     -10.596   7.627  70.805  1.00  0.00    -0.224 A  
ENDBRANCH   4   6
TORSDOF 1
ENDMDL
MODEL      184
REMARK 921   NORMALIZED FREE ENERGY PREDICTED BY IDOCK:   -2.06 KCAL/MOL
REMARK 922        TOTAL FREE ENERGY PREDICTED BY IDOCK:   -2.43 KCAL/MOL
REMARK 923 INTER-LIGAND FREE ENERGY PREDICTED BY IDOCK:   -2.28 KCAL/MOL
REMARK 924 INTRA-LIGAND FREE ENERGY PREDICTED BY IDOCK:   -0.15 KCAL/MOL
REMARK 927      BINDING AFFINITY PREDICTED BY RF-SCORE:    0.00 PKD
ROOT
HETATM    1  C   UNL     1      -8.625   2.673  64.445  1.00  0.00    -0.092 C  
HETATM    2  C   UNL     1      -9.988   3.367  64.488  1.00  0.00    -0.145 C  
HETATM    3  N   UNL     1      -9.880   4.403  65.551  1.00  0.00    -0.202 NA 
HETATM    4  C   UNL     1      -8.588   4.555  65.730  1.00  0.00    -0.116 C  
HETATM    5  N   UNL     1      -7.786   3.705  65.005  1.00  0.00    -0.085 NA 
ENDROOT
BRANCH   4   6
HETATM    6  C   UNL     1      -8.064   5.627  66.682  1.00  0.00    -0.105 C  
HETATM    7  C   UNL     1      -7.590   4.939  67.975  1.00  0.00    -0.082 C  
HETATM    8  C   UNL     1      -8.793   4.439  68.771  1.00  0.00    -0.133 C  
HETATM    9  C   UNL     1      -9.663   5.607  69.222  1.00  0.00    -0.205 C  
HETATM   10  C   UNL     1      -9.813   6.708  68.198  1.00  0.00    -0.135 A  
HETATM   11  C   UNL     1     -10.667   7.779  68.501  1.00  0.00    -0.080 A  
HETATM   12  C   UNL     1     -10.769   8.874  67.645  1.00  0.00    -0.221 A  
HETATM   13  C   UNL     1     -10.022   8.905  66.470  1.00  0.00    -0.358 A  
HETATM   14  C   UNL     1      -9.175   7.841  66.150  1.00  0.00    -0.182 A  
HETATM   15  C   UNL     1      -9.050   6.738  67.014  1.00  0.00    -0.139 A  
ENDBRANCH   4   6
TORSDOF 1
ENDMDL
MODEL      185
REMARK 921   NORMALIZED FREE ENERGY PREDICTED BY IDOCK:   -2.05 KCAL/MOL
REMARK 922        TOTAL FREE ENERGY PREDICTED BY IDOCK:   -2.42 KCAL/MOL
REMARK 923 INTER-LIGAND FREE ENERGY PREDICTED BY IDOCK:   -2.19 KCAL/MOL
REMARK 924 INTRA-LIGAND FREE ENERGY PREDICTED BY IDOCK:   -0.23 KCAL/MOL
REMARK 927      BINDING AFFINITY PREDICTED BY RF-SCORE:    0.00 PKD
ROOT
HETATM    1  C   UNL     1      -9.317   2.841  63.311  1.00  0.00    -0.094 C  
HETATM    2  C   UNL     1     -10.632   3.578  63.050  1.00  0.00    -0.223 C  
HETATM    3  N   UNL     1     -11.104   4.046  64.383  1.00  0.00    -0.270 NA 
HETATM    4  C   UNL     1     -10.039   3.981  65.147  1.00  0.00    -0.182 C  
HETATM    5  N   UNL     1      -8.917   3.448  64.557  1.00  0.00    -0.120 NA 
ENDROOT
BRANCH   4   6
HETATM    6  C   UNL     1     -10.094   4.488  66.587  1.00  0.00    -0.238 C  
HETATM    7  C   UNL     1     -10.108   6.026  66.560  1.00  0.00    -0.191 C  
HETATM    8  C   UNL     1      -8.736   6.553  66.144  1.00  0.00    -0.153 C  
HETATM    9  C   UNL     1      -7.677   6.169  67.171  1.00  0.00    -0.101 C  
HETATM   10  C   UNL     1      -7.835   4.779  67.743  1.00  0.00    -0.086 A  
HETATM   11  C   UNL     1      -6.852   4.315  68.630  1.00  0.00    -0.047 A  
HETATM   12  C   UNL     1      -6.993   3.085  69.270  1.00  0.00    -0.041 A  
HETATM   13  C   UNL     1      -8.116   2.300  69.021  1.00  0.00    -0.067 A  
HETATM   14  C   UNL     1      -9.097   2.744  68.132  1.00  0.00    -0.228 A  
HETATM   15  C   UNL     1      -8.976   3.991  67.493  1.00  0.00    -0.148 A  
ENDBRANCH   4   6
TORSDOF 1
ENDMDL
MODEL      186
REMARK 921   NORMALIZED FREE ENERGY PREDICTED BY IDOCK:   -2.04 KCAL/MOL
REMARK 922        TOTAL FREE ENERGY PREDICTED BY IDOCK:   -2.41 KCAL/MOL
REMARK 923 INTER-LIGAND FREE ENERGY PREDICTED BY IDOCK:   -2.74 KCAL/MOL
REMARK 924 INTRA-LIGAND FREE ENERGY PREDICTED BY IDOCK:    0.33 KCAL/MOL
REMARK 927      BINDING AFFINITY PREDICTED BY RF-SCORE:    0.00 PKD
ROOT
HETATM    1  C   UNL     1      -5.736  13.339  70.583  1.00  0.00    -0.176 C  
HETATM    2  C   UNL     1      -5.630  11.832  70.346  1.00  0.00    -0.152 C  
HETATM    3  N   UNL     1      -6.798  11.473  69.494  1.00  0.00    -0.106 NA 
HETATM    4  C   UNL     1      -7.197  12.618  68.990  1.00  0.00     0.009 C  
HETATM    5  N   UNL     1      -6.527  13.730  69.442  1.00  0.00    -0.110 NA 
ENDROOT
BRANCH   4   6
HETATM    6  C   UNL     1      -8.327  12.653  67.963  1.00  0.00    -0.175 C  
HETATM    7  C   UNL     1      -8.383  14.064  67.350  1.00  0.00    -0.207 C  
HETATM    8  C   UNL     1      -8.923  15.057  68.377  1.00  0.00    -0.179 C  
HETATM    9  C   UNL     1     -10.360  14.715  68.753  1.00  0.00    -0.248 C  
HETATM   10  C   UNL     1     -10.638  13.235  68.883  1.00  0.00    -0.167 A  
HETATM   11  C   UNL     1     -11.913  12.838  69.310  1.00  0.00    -0.300 A  
HETATM   12  C   UNL     1     -12.263  11.490  69.352  1.00  0.00    -0.273 A  
HETATM   13  C   UNL     1     -11.336  10.522  68.975  1.00  0.00    -0.319 A  
HETATM   14  C   UNL     1     -10.059  10.902  68.557  1.00  0.00    -0.193 A  
HETATM   15  C   UNL     1      -9.698  12.260  68.494  1.00  0.00    -0.142 A  
ENDBRANCH   4   6
TORSDOF 1
ENDMDL
MODEL      187
REMARK 921   NORMALIZED FREE ENERGY PREDICTED BY IDOCK:   -2.03 KCAL/MOL
REMARK 922        TOTAL FREE ENERGY PREDICTED BY IDOCK:   -2.40 KCAL/MOL
REMARK 923 INTER-LIGAND FREE ENERGY PREDICTED BY IDOCK:   -2.22 KCAL/MOL
REMARK 924 INTRA-LIGAND FREE ENERGY PREDICTED BY IDOCK:   -0.18 KCAL/MOL
REMARK 927      BINDING AFFINITY PREDICTED BY RF-SCORE:    0.00 PKD
ROOT
HETATM    1  C   UNL     1      -9.178   5.293  70.272  1.00  0.00    -0.143 C  
HETATM    2  C   UNL     1      -8.018   5.197  69.279  1.00  0.00    -0.080 C  
HETATM    3  N   UNL     1      -8.024   6.481  68.524  1.00  0.00    -0.109 NA 
HETATM    4  C   UNL     1      -8.743   7.292  69.267  1.00  0.00    -0.137 C  
HETATM    5  N   UNL     1      -9.311   6.725  70.384  1.00  0.00    -0.163 NA 
ENDROOT
BRANCH   4   6
HETATM    6  C   UNL     1      -8.896   8.760  68.876  1.00  0.00    -0.137 C  
HETATM    7  C   UNL     1     -10.348   8.993  68.422  1.00  0.00    -0.242 C  
HETATM    8  C   UNL     1     -10.584   8.330  67.067  1.00  0.00    -0.328 C  
HETATM    9  C   UNL     1      -9.710   8.969  65.995  1.00  0.00    -0.339 C  
HETATM   10  C   UNL     1      -8.314   9.324  66.453  1.00  0.00    -0.120 A  
HETATM   11  C   UNL     1      -7.418   9.837  65.504  1.00  0.00    -0.115 A  
HETATM   12  C   UNL     1      -6.152  10.278  65.884  1.00  0.00    -0.103 A  
HETATM   13  C   UNL     1      -5.765  10.201  67.219  1.00  0.00    -0.045 A  
HETATM   14  C   UNL     1      -6.643   9.683  68.174  1.00  0.00    -0.061 A  
HETATM   15  C   UNL     1      -7.929   9.250  67.807  1.00  0.00    -0.100 A  
ENDBRANCH   4   6
TORSDOF 1
ENDMDL
MODEL      188
REMARK 921   NORMALIZED FREE ENERGY PREDICTED BY IDOCK:   -2.01 KCAL/MOL
REMARK 922        TOTAL FREE ENERGY PREDICTED BY IDOCK:   -2.39 KCAL/MOL
REMARK 923 INTER-LIGAND FREE ENERGY PREDICTED BY IDOCK:   -2.21 KCAL/MOL
REMARK 924 INTRA-LIGAND FREE ENERGY PREDICTED BY IDOCK:   -0.17 KCAL/MOL
REMARK 927      BINDING AFFINITY PREDICTED BY RF-SCORE:    0.00 PKD
ROOT
HETATM    1  C   UNL     1     -10.898   7.656  67.439  1.00  0.00    -0.170 C  
HETATM    2  C   UNL     1     -10.928   6.131  67.315  1.00  0.00    -0.326 C  
HETATM    3  N   UNL     1     -10.095   5.618  68.437  1.00  0.00    -0.160 NA 
HETATM    4  C   UNL     1     -10.010   6.629  69.270  1.00  0.00    -0.158 C  
HETATM    5  N   UNL     1     -10.590   7.800  68.841  1.00  0.00    -0.188 NA 
ENDROOT
BRANCH   4   6
HETATM    6  C   UNL     1      -9.311   6.460  70.617  1.00  0.00    -0.169 C  
HETATM    7  C   UNL     1      -7.978   7.227  70.573  1.00  0.00    -0.104 C  
HETATM    8  C   UNL     1      -6.988   6.500  69.665  1.00  0.00    -0.067 C  
HETATM    9  C   UNL     1      -6.652   5.124  70.228  1.00  0.00    -0.039 C  
HETATM   10  C   UNL     1      -7.826   4.393  70.839  1.00  0.00    -0.067 A  
HETATM   11  C   UNL     1      -7.620   3.085  71.301  1.00  0.00    -0.044 A  
HETATM   12  C   UNL     1      -8.634   2.398  71.967  1.00  0.00    -0.089 A  
HETATM   13  C   UNL     1      -9.868   3.009  72.169  1.00  0.00    -0.239 A  
HETATM   14  C   UNL     1     -10.090   4.308  71.704  1.00  0.00    -0.216 A  
HETATM   15  C   UNL     1      -9.071   5.019  71.047  1.00  0.00    -0.178 A  
ENDBRANCH   4   6
TORSDOF 1
ENDMDL
MODEL      189
REMARK 921   NORMALIZED FREE ENERGY PREDICTED BY IDOCK:   -2.01 KCAL/MOL
REMARK 922        TOTAL FREE ENERGY PREDICTED BY IDOCK:   -2.38 KCAL/MOL
REMARK 923 INTER-LIGAND FREE ENERGY PREDICTED BY IDOCK:   -2.63 KCAL/MOL
REMARK 924 INTRA-LIGAND FREE ENERGY PREDICTED BY IDOCK:    0.25 KCAL/MOL
REMARK 927      BINDING AFFINITY PREDICTED BY RF-SCORE:    0.00 PKD
ROOT
HETATM    1  C   UNL     1     -12.986   6.234  72.444  1.00  0.00     0.352 C  
HETATM    2  C   UNL     1     -11.599   5.695  72.798  1.00  0.00    -0.232 C  
HETATM    3  N   UNL     1     -10.774   5.864  71.570  1.00  0.00    -0.248 NA 
HETATM    4  C   UNL     1     -11.439   6.736  70.848  1.00  0.00    -0.334 C  
HETATM    5  N   UNL     1     -12.653   7.127  71.361  1.00  0.00    -0.379 NA 
ENDROOT
BRANCH   4   6
HETATM    6  C   UNL     1     -10.851   7.258  69.539  1.00  0.00    -0.224 C  
HETATM    7  C   UNL     1     -10.824   6.101  68.523  1.00  0.00    -0.389 C  
HETATM    8  C   UNL     1      -9.751   5.088  68.914  1.00  0.00    -0.234 C  
HETATM    9  C   UNL     1      -8.365   5.721  68.852  1.00  0.00    -0.101 C  
HETATM   10  C   UNL     1      -8.305   7.147  69.349  1.00  0.00    -0.133 A  
HETATM   11  C   UNL     1      -7.052   7.774  69.407  1.00  0.00    -0.071 A  
HETATM   12  C   UNL     1      -6.943   9.118  69.758  1.00  0.00    -0.056 A  
HETATM   13  C   UNL     1      -8.088   9.849  70.065  1.00  0.00    -0.193 A  
HETATM   14  C   UNL     1      -9.342   9.235  70.022  1.00  0.00    -0.232 A  
HETATM   15  C   UNL     1      -9.468   7.884  69.653  1.00  0.00    -0.160 A  
ENDBRANCH   4   6
TORSDOF 1
ENDMDL
MODEL      190
REMARK 921   NORMALIZED FREE ENERGY PREDICTED BY IDOCK:   -2.01 KCAL/MOL
REMARK 922        TOTAL FREE ENERGY PREDICTED BY IDOCK:   -2.38 KCAL/MOL
REMARK 923 INTER-LIGAND FREE ENERGY PREDICTED BY IDOCK:   -2.50 KCAL/MOL
REMARK 924 INTRA-LIGAND FREE ENERGY PREDICTED BY IDOCK:    0.12 KCAL/MOL
REMARK 927      BINDING AFFINITY PREDICTED BY RF-SCORE:    0.00 PKD
ROOT
HETATM    1  C   UNL     1     -10.521  11.455  66.819  1.00  0.00    -0.244 C  
HETATM    2  C   UNL     1      -9.082  11.229  66.351  1.00  0.00    -0.192 C  
HETATM    3  N   UNL     1      -8.546  10.133  67.206  1.00  0.00    -0.125 NA 
HETATM    4  C   UNL     1      -9.615   9.566  67.716  1.00  0.00    -0.133 C  
HETATM    5  N   UNL     1     -10.811  10.170  67.407  1.00  0.00    -0.280 NA 
ENDROOT
BRANCH   4   6
HETATM    6  C   UNL     1      -9.483   8.312  68.579  1.00  0.00    -0.149 C  
HETATM    7  C   UNL     1     -10.785   8.134  69.379  1.00  0.00    -0.164 C  
HETATM    8  C   UNL     1     -10.878   9.200  70.469  1.00  0.00    -0.306 C  
HETATM    9  C   UNL     1      -9.748   9.037  71.479  1.00  0.00    -0.365 C  
HETATM   10  C   UNL     1      -8.416   8.659  70.874  1.00  0.00    -0.195 A  
HETATM   11  C   UNL     1      -7.305   8.574  71.725  1.00  0.00    -0.118 A  
HETATM   12  C   UNL     1      -6.073   8.131  71.247  1.00  0.00    -0.035 A  
HETATM   13  C   UNL     1      -5.937   7.777  69.907  1.00  0.00    -0.023 A  
HETATM   14  C   UNL     1      -7.032   7.867  69.045  1.00  0.00    -0.058 A  
HETATM   15  C   UNL     1      -8.285   8.296  69.518  1.00  0.00    -0.119 A  
ENDBRANCH   4   6
TORSDOF 1
ENDMDL
MODEL      191
REMARK 921   NORMALIZED FREE ENERGY PREDICTED BY IDOCK:   -1.98 KCAL/MOL
REMARK 922        TOTAL FREE ENERGY PREDICTED BY IDOCK:   -2.35 KCAL/MOL
REMARK 923 INTER-LIGAND FREE ENERGY PREDICTED BY IDOCK:   -2.10 KCAL/MOL
REMARK 924 INTRA-LIGAND FREE ENERGY PREDICTED BY IDOCK:   -0.26 KCAL/MOL
REMARK 927      BINDING AFFINITY PREDICTED BY RF-SCORE:    0.00 PKD
ROOT
HETATM    1  C   UNL     1     -11.783   7.779  70.991  1.00  0.00    -0.281 C  
HETATM    2  C   UNL     1     -11.510   8.387  72.368  1.00  0.00    -0.380 C  
HETATM    3  N   UNL     1     -10.105   8.023  72.700  1.00  0.00    -0.275 NA 
HETATM    4  C   UNL     1      -9.575   7.687  71.547  1.00  0.00    -0.154 C  
HETATM    5  N   UNL     1     -10.439   7.679  70.477  1.00  0.00    -0.217 NA 
ENDROOT
BRANCH   4   6
HETATM    6  C   UNL     1      -8.088   7.347  71.454  1.00  0.00    -0.097 C  
HETATM    7  C   UNL     1      -7.279   8.610  71.796  1.00  0.00    -0.103 C  
HETATM    8  C   UNL     1      -7.392   9.625  70.661  1.00  0.00    -0.112 C  
HETATM    9  C   UNL     1      -6.774   9.074  69.381  1.00  0.00    -0.048 C  
HETATM   10  C   UNL     1      -7.039   7.606  69.139  1.00  0.00    -0.077 A  
HETATM   11  C   UNL     1      -6.578   7.042  67.941  1.00  0.00    -0.052 A  
HETATM   12  C   UNL     1      -6.700   5.674  67.705  1.00  0.00    -0.059 A  
HETATM   13  C   UNL     1      -7.294   4.856  68.662  1.00  0.00    -0.062 A  
HETATM   14  C   UNL     1      -7.767   5.406  69.856  1.00  0.00    -0.080 A  
HETATM   15  C   UNL     1      -7.635   6.782  70.115  1.00  0.00    -0.099 A  
ENDBRANCH   4   6
TORSDOF 1
ENDMDL
MODEL      192
REMARK 921   NORMALIZED FREE ENERGY PREDICTED BY IDOCK:   -1.98 KCAL/MOL
REMARK 922        TOTAL FREE ENERGY PREDICTED BY IDOCK:   -2.35 KCAL/MOL
REMARK 923 INTER-LIGAND FREE ENERGY PREDICTED BY IDOCK:   -2.09 KCAL/MOL
REMARK 924 INTRA-LIGAND FREE ENERGY PREDICTED BY IDOCK:   -0.26 KCAL/MOL
REMARK 927      BINDING AFFINITY PREDICTED BY RF-SCORE:    0.00 PKD
ROOT
HETATM    1  C   UNL     1     -10.068   5.144  69.362  1.00  0.00    -0.234 C  
HETATM    2  C   UNL     1      -9.414   5.081  70.744  1.00  0.00    -0.169 C  
HETATM    3  N   UNL     1      -8.262   6.024  70.689  1.00  0.00    -0.119 NA 
HETATM    4  C   UNL     1      -8.515   6.786  69.649  1.00  0.00    -0.133 C  
HETATM    5  N   UNL     1      -9.631   6.446  68.923  1.00  0.00    -0.127 NA 
ENDROOT
BRANCH   4   6
HETATM    6  C   UNL     1      -7.601   7.966  69.321  1.00  0.00    -0.097 C  
HETATM    7  C   UNL     1      -7.747   9.017  70.436  1.00  0.00    -0.110 C  
HETATM    8  C   UNL     1      -9.110   9.698  70.336  1.00  0.00    -0.245 C  
HETATM    9  C   UNL     1      -9.232  10.468  69.026  1.00  0.00    -0.193 C  
HETATM   10  C   UNL     1      -8.623   9.772  67.831  1.00  0.00    -0.125 A  
HETATM   11  C   UNL     1      -8.768  10.372  66.572  1.00  0.00    -0.143 A  
HETATM   12  C   UNL     1      -8.143   9.834  65.449  1.00  0.00    -0.127 A  
HETATM   13  C   UNL     1      -7.370   8.682  65.572  1.00  0.00    -0.084 A  
HETATM   14  C   UNL     1      -7.225   8.067  66.818  1.00  0.00    -0.082 A  
HETATM   15  C   UNL     1      -7.837   8.609  67.962  1.00  0.00    -0.103 A  
ENDBRANCH   4   6
TORSDOF 1
ENDMDL
MODEL      193
REMARK 921   NORMALIZED FREE ENERGY PREDICTED BY IDOCK:   -1.94 KCAL/MOL
REMARK 922        TOTAL FREE ENERGY PREDICTED BY IDOCK:   -2.31 KCAL/MOL
REMARK 923 INTER-LIGAND FREE ENERGY PREDICTED BY IDOCK:   -2.12 KCAL/MOL
REMARK 924 INTRA-LIGAND FREE ENERGY PREDICTED BY IDOCK:   -0.19 KCAL/MOL
REMARK 927      BINDING AFFINITY PREDICTED BY RF-SCORE:    0.00 PKD
ROOT
HETATM    1  C   UNL     1      -9.617   1.630  73.435  1.00  0.00    -0.072 C  
HETATM    2  C   UNL     1     -10.563   2.762  73.839  1.00  0.00    -0.172 C  
HETATM    3  N   UNL     1      -9.978   4.003  73.260  1.00  0.00    -0.132 NA 
HETATM    4  C   UNL     1      -9.142   3.573  72.344  1.00  0.00    -0.097 C  
HETATM    5  N   UNL     1      -8.998   2.208  72.268  1.00  0.00    -0.069 NA 
ENDROOT
BRANCH   4   6
HETATM    6  C   UNL     1      -8.413   4.566  71.441  1.00  0.00    -0.112 C  
HETATM    7  C   UNL     1      -6.906   4.477  71.738  1.00  0.00    -0.038 C  
HETATM    8  C   UNL     1      -6.606   5.088  73.105  1.00  0.00    -0.066 C  
HETATM    9  C   UNL     1      -6.940   6.576  73.114  1.00  0.00    -0.077 C  
HETATM   10  C   UNL     1      -8.197   6.940  72.358  1.00  0.00    -0.105 A  
HETATM   11  C   UNL     1      -8.622   8.277  72.390  1.00  0.00    -0.270 A  
HETATM   12  C   UNL     1      -9.713   8.695  71.632  1.00  0.00    -0.348 A  
HETATM   13  C   UNL     1     -10.399   7.779  70.839  1.00  0.00    -0.208 A  
HETATM   14  C   UNL     1      -9.993   6.442  70.805  1.00  0.00    -0.212 A  
HETATM   15  C   UNL     1      -8.883   6.010  71.552  1.00  0.00    -0.139 A  
ENDBRANCH   4   6
TORSDOF 1
ENDMDL
MODEL      194
REMARK 921   NORMALIZED FREE ENERGY PREDICTED BY IDOCK:   -1.93 KCAL/MOL
REMARK 922        TOTAL FREE ENERGY PREDICTED BY IDOCK:   -2.30 KCAL/MOL
REMARK 923 INTER-LIGAND FREE ENERGY PREDICTED BY IDOCK:   -2.17 KCAL/MOL
REMARK 924 INTRA-LIGAND FREE ENERGY PREDICTED BY IDOCK:   -0.13 KCAL/MOL
REMARK 927      BINDING AFFINITY PREDICTED BY RF-SCORE:    0.00 PKD
ROOT
HETATM    1  C   UNL     1      -8.190   5.357  68.092  1.00  0.00    -0.099 C  
HETATM    2  C   UNL     1      -6.782   5.202  68.670  1.00  0.00    -0.050 C  
HETATM    3  N   UNL     1      -6.296   6.586  68.928  1.00  0.00    -0.033 NA 
HETATM    4  C   UNL     1      -7.385   7.319  68.926  1.00  0.00    -0.095 C  
HETATM    5  N   UNL     1      -8.547   6.654  68.613  1.00  0.00    -0.125 NA 
ENDROOT
BRANCH   4   6
HETATM    6  C   UNL     1      -7.311   8.806  69.267  1.00  0.00    -0.070 C  
HETATM    7  C   UNL     1      -7.431   8.961  70.794  1.00  0.00    -0.101 C  
HETATM    8  C   UNL     1      -8.859   8.655  71.239  1.00  0.00    -0.263 C  
HETATM    9  C   UNL     1      -9.836   9.664  70.645  1.00  0.00    -0.268 C  
HETATM   10  C   UNL     1      -9.535  10.062  69.219  1.00  0.00    -0.227 A  
HETATM   11  C   UNL     1     -10.435  10.921  68.569  1.00  0.00    -0.209 A  
HETATM   12  C   UNL     1     -10.161  11.405  67.292  1.00  0.00    -0.218 A  
HETATM   13  C   UNL     1      -8.987  11.029  66.645  1.00  0.00    -0.176 A  
HETATM   14  C   UNL     1      -8.087  10.166  67.275  1.00  0.00    -0.114 A  
HETATM   15  C   UNL     1      -8.342   9.683  68.571  1.00  0.00    -0.117 A  
ENDBRANCH   4   6
TORSDOF 1
ENDMDL
MODEL      195
REMARK 921   NORMALIZED FREE ENERGY PREDICTED BY IDOCK:   -1.92 KCAL/MOL
REMARK 922        TOTAL FREE ENERGY PREDICTED BY IDOCK:   -2.29 KCAL/MOL
REMARK 923 INTER-LIGAND FREE ENERGY PREDICTED BY IDOCK:   -2.26 KCAL/MOL
REMARK 924 INTRA-LIGAND FREE ENERGY PREDICTED BY IDOCK:   -0.02 KCAL/MOL
REMARK 927      BINDING AFFINITY PREDICTED BY RF-SCORE:    0.00 PKD
ROOT
HETATM    1  C   UNL     1     -10.044   8.742  69.254  1.00  0.00    -0.204 C  
HETATM    2  C   UNL     1      -9.300   9.598  70.280  1.00  0.00    -0.242 C  
HETATM    3  N   UNL     1      -8.576  10.635  69.493  1.00  0.00    -0.041 NA 
HETATM    4  C   UNL     1      -9.171  10.630  68.323  1.00  0.00    -0.153 C  
HETATM    5  N   UNL     1     -10.145   9.674  68.157  1.00  0.00    -0.167 NA 
ENDROOT
BRANCH   4   6
HETATM    6  C   UNL     1      -8.777  11.649  67.255  1.00  0.00    -0.159 C  
HETATM    7  C   UNL     1      -7.656  11.040  66.394  1.00  0.00    -0.135 C  
HETATM    8  C   UNL     1      -6.358  10.977  67.195  1.00  0.00    -0.076 C  
HETATM    9  C   UNL     1      -5.882  12.378  67.561  1.00  0.00    -0.142 C  
HETATM   10  C   UNL     1      -6.986  13.335  67.946  1.00  0.00    -0.137 A  
HETATM   11  C   UNL     1      -6.626  14.619  68.379  1.00  0.00    -0.102 A  
HETATM   12  C   UNL     1      -7.599  15.579  68.650  1.00  0.00    -0.141 A  
HETATM   13  C   UNL     1      -8.946  15.261  68.499  1.00  0.00    -0.187 A  
HETATM   14  C   UNL     1      -9.320  13.983  68.078  1.00  0.00    -0.205 A  
HETATM   15  C   UNL     1      -8.348  13.010  67.785  1.00  0.00    -0.175 A  
ENDBRANCH   4   6
TORSDOF 1
ENDMDL
MODEL      196
REMARK 921   NORMALIZED FREE ENERGY PREDICTED BY IDOCK:   -1.88 KCAL/MOL
REMARK 922        TOTAL FREE ENERGY PREDICTED BY IDOCK:   -2.25 KCAL/MOL
REMARK 923 INTER-LIGAND FREE ENERGY PREDICTED BY IDOCK:   -2.13 KCAL/MOL
REMARK 924 INTRA-LIGAND FREE ENERGY PREDICTED BY IDOCK:   -0.12 KCAL/MOL
REMARK 927      BINDING AFFINITY PREDICTED BY RF-SCORE:    0.00 PKD
ROOT
HETATM    1  C   UNL     1     -12.694  15.396  70.518  1.00  0.00    -0.405 C  
HETATM    2  C   UNL     1     -12.634  13.903  70.846  1.00  0.00    -0.361 C  
HETATM    3  N   UNL     1     -11.923  13.267  69.703  1.00  0.00    -0.320 NA 
HETATM    4  C   UNL     1     -11.315  14.263  69.102  1.00  0.00    -0.276 C  
HETATM    5  N   UNL     1     -11.577  15.513  69.613  1.00  0.00    -0.323 NA 
ENDROOT
BRANCH   4   6
HETATM    6  C   UNL     1     -10.379  13.996  67.924  1.00  0.00    -0.239 C  
HETATM    7  C   UNL     1      -8.962  13.757  68.475  1.00  0.00    -0.120 C  
HETATM    8  C   UNL     1      -8.375  15.069  68.990  1.00  0.00    -0.194 C  
HETATM    9  C   UNL     1      -8.211  16.070  67.851  1.00  0.00    -0.154 C  
HETATM   10  C   UNL     1      -9.340  16.065  66.847  1.00  0.00    -0.246 A  
HETATM   11  C   UNL     1      -9.309  17.016  65.815  1.00  0.00     0.041 A  
HETATM   12  C   UNL     1     -10.265  16.997  64.801  1.00  0.00     1.351 A  
HETATM   13  C   UNL     1     -11.268  16.033  64.813  1.00  0.00    -0.348 A  
HETATM   14  C   UNL     1     -11.317  15.086  65.839  1.00  0.00    -0.273 A  
HETATM   15  C   UNL     1     -10.350  15.083  66.859  1.00  0.00    -0.266 A  
ENDBRANCH   4   6
TORSDOF 1
ENDMDL
MODEL      197
REMARK 921   NORMALIZED FREE ENERGY PREDICTED BY IDOCK:   -1.79 KCAL/MOL
REMARK 922        TOTAL FREE ENERGY PREDICTED BY IDOCK:   -2.15 KCAL/MOL
REMARK 923 INTER-LIGAND FREE ENERGY PREDICTED BY IDOCK:   -2.64 KCAL/MOL
REMARK 924 INTRA-LIGAND FREE ENERGY PREDICTED BY IDOCK:    0.48 KCAL/MOL
REMARK 927      BINDING AFFINITY PREDICTED BY RF-SCORE:    0.00 PKD
ROOT
HETATM    1  C   UNL     1      -9.511   3.519  69.239  1.00  0.00    -0.163 C  
HETATM    2  C   UNL     1      -9.793   4.977  68.868  1.00  0.00    -0.175 C  
HETATM    3  N   UNL     1     -10.134   5.660  70.146  1.00  0.00    -0.208 NA 
HETATM    4  C   UNL     1      -9.681   4.854  71.078  1.00  0.00    -0.185 C  
HETATM    5  N   UNL     1      -9.156   3.666  70.629  1.00  0.00    -0.101 NA 
ENDROOT
BRANCH   4   6
HETATM    6  C   UNL     1      -9.748   5.264  72.548  1.00  0.00    -0.176 C  
HETATM    7  C   UNL     1     -10.999   6.136  72.753  1.00  0.00    -0.294 C  
HETATM    8  C   UNL     1     -10.794   7.503  72.104  1.00  0.00    -0.282 C  
HETATM    9  C   UNL     1      -9.653   8.254  72.780  1.00  0.00    -0.338 C  
HETATM   10  C   UNL     1      -8.473   7.391  73.161  1.00  0.00    -0.164 A  
HETATM   11  C   UNL     1      -7.345   8.019  73.710  1.00  0.00    -0.188 A  
HETATM   12  C   UNL     1      -6.268   7.268  74.176  1.00  0.00    -0.077 A  
HETATM   13  C   UNL     1      -6.303   5.879  74.089  1.00  0.00    -0.070 A  
HETATM   14  C   UNL     1      -7.415   5.240  73.536  1.00  0.00    -0.095 A  
HETATM   15  C   UNL     1      -8.516   5.985  73.077  1.00  0.00    -0.119 A  
ENDBRANCH   4   6
TORSDOF 1
ENDMDL
MODEL      198
REMARK 921   NORMALIZED FREE ENERGY PREDICTED BY IDOCK:   -1.69 KCAL/MOL
REMARK 922        TOTAL FREE ENERGY PREDICTED BY IDOCK:   -2.05 KCAL/MOL
REMARK 923 INTER-LIGAND FREE ENERGY PREDICTED BY IDOCK:   -1.80 KCAL/MOL
REMARK 924 INTRA-LIGAND FREE ENERGY PREDICTED BY IDOCK:   -0.25 KCAL/MOL
REMARK 927      BINDING AFFINITY PREDICTED BY RF-SCORE:    0.00 PKD
ROOT
HETATM    1  C   UNL     1     -10.516   8.875  70.686  1.00  0.00    -0.221 C  
HETATM    2  C   UNL     1     -11.342   7.855  69.900  1.00  0.00     0.042 C  
HETATM    3  N   UNL     1     -10.520   6.613  69.861  1.00  0.00    -0.199 NA 
HETATM    4  C   UNL     1      -9.638   6.776  70.821  1.00  0.00    -0.168 C  
HETATM    5  N   UNL     1      -9.675   7.994  71.459  1.00  0.00    -0.161 NA 
ENDROOT
BRANCH   4   6
HETATM    6  C   UNL     1      -8.667   5.651  71.171  1.00  0.00    -0.137 C  
HETATM    7  C   UNL     1      -9.484   4.411  71.572  1.00  0.00    -0.215 C  
HETATM    8  C   UNL     1     -10.137   4.634  72.934  1.00  0.00    -0.205 C  
HETATM    9  C   UNL     1      -9.079   4.797  74.018  1.00  0.00    -0.111 C  
HETATM   10  C   UNL     1      -7.868   5.597  73.597  1.00  0.00    -0.105 A  
HETATM   11  C   UNL     1      -6.887   5.867  74.562  1.00  0.00    -0.076 A  
HETATM   12  C   UNL     1      -5.702   6.510  74.213  1.00  0.00    -0.055 A  
HETATM   13  C   UNL     1      -5.489   6.900  72.893  1.00  0.00    -0.038 A  
HETATM   14  C   UNL     1      -6.461   6.647  71.923  1.00  0.00    -0.050 A  
HETATM   15  C   UNL     1      -7.655   5.984  72.259  1.00  0.00    -0.100 A  
ENDBRANCH   4   6
TORSDOF 1
ENDMDL
MODEL      199
REMARK 921   NORMALIZED FREE ENERGY PREDICTED BY IDOCK:   -1.67 KCAL/MOL
REMARK 922        TOTAL FREE ENERGY PREDICTED BY IDOCK:   -2.03 KCAL/MOL
REMARK 923 INTER-LIGAND FREE ENERGY PREDICTED BY IDOCK:   -1.95 KCAL/MOL
REMARK 924 INTRA-LIGAND FREE ENERGY PREDICTED BY IDOCK:   -0.08 KCAL/MOL
REMARK 927      BINDING AFFINITY PREDICTED BY RF-SCORE:    0.00 PKD
ROOT
HETATM    1  C   UNL     1     -10.492   8.252  70.755  1.00  0.00    -0.196 C  
HETATM    2  C   UNL     1     -11.321   7.130  70.127  1.00  0.00    -0.241 C  
HETATM    3  N   UNL     1     -10.508   5.892  70.280  1.00  0.00    -0.239 NA 
HETATM    4  C   UNL     1      -9.630   6.191  71.209  1.00  0.00    -0.171 C  
HETATM    5  N   UNL     1      -9.661   7.491  71.657  1.00  0.00    -0.150 NA 
ENDROOT
BRANCH   4   6
HETATM    6  C   UNL     1      -8.668   5.126  71.731  1.00  0.00    -0.136 C  
HETATM    7  C   UNL     1      -7.300   5.785  71.979  1.00  0.00    -0.094 C  
HETATM    8  C   UNL     1      -6.633   6.118  70.646  1.00  0.00    -0.048 C  
HETATM    9  C   UNL     1      -6.340   4.847  69.858  1.00  0.00    -0.030 C  
HETATM   10  C   UNL     1      -7.421   3.794  69.943  1.00  0.00    -0.048 A  
HETATM   11  C   UNL     1      -7.269   2.629  69.178  1.00  0.00    -0.044 A  
HETATM   12  C   UNL     1      -8.178   1.578  69.291  1.00  0.00    -0.063 A  
HETATM   13  C   UNL     1      -9.255   1.686  70.166  1.00  0.00    -0.165 A  
HETATM   14  C   UNL     1      -9.424   2.845  70.928  1.00  0.00    -0.227 A  
HETATM   15  C   UNL     1      -8.506   3.905  70.836  1.00  0.00    -0.098 A  
ENDBRANCH   4   6
TORSDOF 1
ENDMDL
MODEL      200
REMARK 921   NORMALIZED FREE ENERGY PREDICTED BY IDOCK:   -1.65 KCAL/MOL
REMARK 922        TOTAL FREE ENERGY PREDICTED BY IDOCK:   -2.00 KCAL/MOL
REMARK 923 INTER-LIGAND FREE ENERGY PREDICTED BY IDOCK:   -1.84 KCAL/MOL
REMARK 924 INTRA-LIGAND FREE ENERGY PREDICTED BY IDOCK:   -0.16 KCAL/MOL
REMARK 927      BINDING AFFINITY PREDICTED BY RF-SCORE:    0.00 PKD
ROOT
HETATM    1  C   UNL     1      -8.325   7.514  73.807  1.00  0.00    -0.177 C  
HETATM    2  C   UNL     1      -7.063   6.775  73.358  1.00  0.00    -0.075 C  
HETATM    3  N   UNL     1      -7.476   5.937  72.198  1.00  0.00    -0.094 NA 
HETATM    4  C   UNL     1      -8.614   6.462  71.807  1.00  0.00    -0.128 C  
HETATM    5  N   UNL     1      -9.093   7.488  72.587  1.00  0.00    -0.141 NA 
ENDROOT
BRANCH   4   6
HETATM    6  C   UNL     1      -9.312   5.938  70.553  1.00  0.00    -0.185 C  
HETATM    7  C   UNL     1     -10.527   5.099  70.989  1.00  0.00    -0.241 C  
HETATM    8  C   UNL     1     -10.059   3.783  71.605  1.00  0.00    -0.149 C  
HETATM    9  C   UNL     1      -9.324   2.937  70.572  1.00  0.00    -0.220 C  
HETATM   10  C   UNL     1      -8.427   3.722  69.642  1.00  0.00    -0.092 A  
HETATM   11  C   UNL     1      -7.649   3.009  68.718  1.00  0.00    -0.048 A  
HETATM   12  C   UNL     1      -6.881   3.678  67.767  1.00  0.00    -0.050 A  
HETATM   13  C   UNL     1      -6.876   5.070  67.736  1.00  0.00    -0.060 A  
HETATM   14  C   UNL     1      -7.639   5.793  68.656  1.00  0.00    -0.089 A  
HETATM   15  C   UNL     1      -8.431   5.130  69.611  1.00  0.00    -0.093 A  
ENDBRANCH   4   6
TORSDOF 1
ENDMDL
MODEL      201
REMARK 921   NORMALIZED FREE ENERGY PREDICTED BY IDOCK:   -1.63 KCAL/MOL
REMARK 922        TOTAL FREE ENERGY PREDICTED BY IDOCK:   -1.98 KCAL/MOL
REMARK 923 INTER-LIGAND FREE ENERGY PREDICTED BY IDOCK:   -1.81 KCAL/MOL
REMARK 924 INTRA-LIGAND FREE ENERGY PREDICTED BY IDOCK:   -0.17 KCAL/MOL
REMARK 927      BINDING AFFINITY PREDICTED BY RF-SCORE:    0.00 PKD
ROOT
HETATM    1  C   UNL     1      -9.933   2.818  73.258  1.00  0.00    -0.107 C  
HETATM    2  C   UNL     1      -9.265   4.168  73.523  1.00  0.00    -0.101 C  
HETATM    3  N   UNL     1      -9.162   4.836  72.196  1.00  0.00    -0.127 NA 
HETATM    4  C   UNL     1     -10.014   4.186  71.437  1.00  0.00    -0.153 C  
HETATM    5  N   UNL     1     -10.626   3.104  72.025  1.00  0.00     0.192 NA 
ENDROOT
BRANCH   4   6
HETATM    6  C   UNL     1     -10.278   4.650  70.006  1.00  0.00    -0.171 C  
HETATM    7  C   UNL     1      -9.658   3.624  69.041  1.00  0.00    -0.165 C  
HETATM    8  C   UNL     1      -8.135   3.725  69.078  1.00  0.00    -0.065 C  
HETATM    9  C   UNL     1      -7.674   5.090  68.579  1.00  0.00    -0.079 C  
HETATM   10  C   UNL     1      -8.541   6.245  69.024  1.00  0.00    -0.123 A  
HETATM   11  C   UNL     1      -8.137   7.544  68.680  1.00  0.00    -0.124 A  
HETATM   12  C   UNL     1      -8.945   8.642  68.972  1.00  0.00    -0.142 A  
HETATM   13  C   UNL     1     -10.162   8.453  69.620  1.00  0.00    -0.209 A  
HETATM   14  C   UNL     1     -10.572   7.166  69.978  1.00  0.00    -0.248 A  
HETATM   15  C   UNL     1      -9.775   6.048  69.675  1.00  0.00    -0.188 A  
ENDBRANCH   4   6
TORSDOF 1
ENDMDL
MODEL      202
REMARK 921   NORMALIZED FREE ENERGY PREDICTED BY IDOCK:   -1.60 KCAL/MOL
REMARK 922        TOTAL FREE ENERGY PREDICTED BY IDOCK:   -1.95 KCAL/MOL
REMARK 923 INTER-LIGAND FREE ENERGY PREDICTED BY IDOCK:   -2.30 KCAL/MOL
REMARK 924 INTRA-LIGAND FREE ENERGY PREDICTED BY IDOCK:    0.35 KCAL/MOL
REMARK 927      BINDING AFFINITY PREDICTED BY RF-SCORE:    0.00 PKD
ROOT
HETATM    1  C   UNL     1     -10.190   8.566  68.393  1.00  0.00    -0.203 C  
HETATM    2  C   UNL     1      -8.885   8.617  69.190  1.00  0.00    -0.137 C  
HETATM    3  N   UNL     1      -7.935   9.408  68.359  1.00  0.00    -0.094 NA 
HETATM    4  C   UNL     1      -8.702  10.047  67.506  1.00  0.00    -0.125 C  
HETATM    5  N   UNL     1     -10.041   9.740  67.568  1.00  0.00    -0.184 NA 
ENDROOT
BRANCH   4   6
HETATM    6  C   UNL     1      -8.097  11.061  66.537  1.00  0.00    -0.161 C  
HETATM    7  C   UNL     1      -9.128  12.179  66.298  1.00  0.00    -0.141 C  
HETATM    8  C   UNL     1     -10.281  11.652  65.447  1.00  0.00    -0.306 C  
HETATM    9  C   UNL     1      -9.787  11.244  64.064  1.00  0.00    -0.334 C  
HETATM   10  C   UNL     1      -8.440  10.559  64.056  1.00  0.00    -0.118 A  
HETATM   11  C   UNL     1      -7.953  10.075  62.833  1.00  0.00    -0.139 A  
HETATM   12  C   UNL     1      -6.675   9.527  62.742  1.00  0.00    -0.099 A  
HETATM   13  C   UNL     1      -5.873   9.448  63.878  1.00  0.00    -0.081 A  
HETATM   14  C   UNL     1      -6.349   9.917  65.104  1.00  0.00    -0.102 A  
HETATM   15  C   UNL     1      -7.630  10.488  65.207  1.00  0.00    -0.074 A  
ENDBRANCH   4   6
TORSDOF 1
ENDMDL
MODEL      203
REMARK 921   NORMALIZED FREE ENERGY PREDICTED BY IDOCK:   -1.52 KCAL/MOL
REMARK 922        TOTAL FREE ENERGY PREDICTED BY IDOCK:   -1.87 KCAL/MOL
REMARK 923 INTER-LIGAND FREE ENERGY PREDICTED BY IDOCK:   -1.77 KCAL/MOL
REMARK 924 INTRA-LIGAND FREE ENERGY PREDICTED BY IDOCK:   -0.10 KCAL/MOL
REMARK 927      BINDING AFFINITY PREDICTED BY RF-SCORE:    0.00 PKD
ROOT
HETATM    1  C   UNL     1      -9.908   1.619  63.763  1.00  0.00    -0.130 C  
HETATM    2  C   UNL     1     -10.596   2.522  62.737  1.00  0.00    -0.160 C  
HETATM    3  N   UNL     1     -10.643   3.875  63.357  1.00  0.00    -0.212 NA 
HETATM    4  C   UNL     1      -9.753   3.823  64.321  1.00  0.00    -0.177 C  
HETATM    5  N   UNL     1      -9.161   2.597  64.516  1.00  0.00    -0.130 NA 
ENDROOT
BRANCH   4   6
HETATM    6  C   UNL     1      -9.426   5.074  65.134  1.00  0.00    -0.017 C  
HETATM    7  C   UNL     1      -8.258   5.806  64.451  1.00  0.00    -0.114 C  
HETATM    8  C   UNL     1      -6.965   5.018  64.641  1.00  0.00    -0.050 C  
HETATM    9  C   UNL     1      -6.594   4.941  66.118  1.00  0.00    -0.049 C  
HETATM   10  C   UNL     1      -7.768   4.744  67.049  1.00  0.00    -0.091 A  
HETATM   11  C   UNL     1      -7.504   4.577  68.417  1.00  0.00    -0.065 A  
HETATM   12  C   UNL     1      -8.547   4.494  69.338  1.00  0.00    -0.105 A  
HETATM   13  C   UNL     1      -9.866   4.568  68.899  1.00  0.00    -0.190 A  
HETATM   14  C   UNL     1     -10.143   4.725  67.539  1.00  0.00    -0.161 A  
HETATM   15  C   UNL     1      -9.101   4.827  66.601  1.00  0.00    -0.117 A  
ENDBRANCH   4   6
TORSDOF 1
ENDMDL
MODEL      204
REMARK 921   NORMALIZED FREE ENERGY PREDICTED BY IDOCK:   -1.43 KCAL/MOL
REMARK 922        TOTAL FREE ENERGY PREDICTED BY IDOCK:   -1.77 KCAL/MOL
REMARK 923 INTER-LIGAND FREE ENERGY PREDICTED BY IDOCK:   -1.88 KCAL/MOL
REMARK 924 INTRA-LIGAND FREE ENERGY PREDICTED BY IDOCK:    0.11 KCAL/MOL
REMARK 927      BINDING AFFINITY PREDICTED BY RF-SCORE:    0.00 PKD
ROOT
HETATM    1  C   UNL     1      -6.775  12.049  67.671  1.00  0.00    -0.109 C  
HETATM    2  C   UNL     1      -6.719  13.550  67.965  1.00  0.00    -0.138 C  
HETATM    3  N   UNL     1      -8.055  14.086  67.585  1.00  0.00    -0.159 NA 
HETATM    4  C   UNL     1      -8.829  13.027  67.533  1.00  0.00    -0.195 C  
HETATM    5  N   UNL     1      -8.198  11.822  67.734  1.00  0.00    -0.136 NA 
ENDROOT
BRANCH   4   6
HETATM    6  C   UNL     1     -10.326  13.180  67.274  1.00  0.00    -0.243 C  
HETATM    7  C   UNL     1     -10.540  13.385  65.764  1.00  0.00    -0.286 C  
HETATM    8  C   UNL     1     -10.054  14.773  65.352  1.00  0.00    -0.406 C  
HETATM    9  C   UNL     1     -10.879  15.857  66.035  1.00  0.00    -0.226 C  
HETATM   10  C   UNL     1     -11.243  15.556  67.471  1.00  0.00    -0.272 A  
HETATM   11  C   UNL     1     -11.928  16.541  68.198  1.00  0.00     0.688 A  
HETATM   12  C   UNL     1     -12.381  16.285  69.491  1.00  0.00     0.590 A  
HETATM   13  C   UNL     1     -12.146  15.043  70.075  1.00  0.00    -0.382 A  
HETATM   14  C   UNL     1     -11.456  14.057  69.366  1.00  0.00    -0.343 A  
HETATM   15  C   UNL     1     -11.008  14.295  68.054  1.00  0.00    -0.261 A  
ENDBRANCH   4   6
TORSDOF 1
ENDMDL
MODEL      205
REMARK 921   NORMALIZED FREE ENERGY PREDICTED BY IDOCK:   -1.19 KCAL/MOL
REMARK 922        TOTAL FREE ENERGY PREDICTED BY IDOCK:   -1.52 KCAL/MOL
REMARK 923 INTER-LIGAND FREE ENERGY PREDICTED BY IDOCK:   -1.89 KCAL/MOL
REMARK 924 INTRA-LIGAND FREE ENERGY PREDICTED BY IDOCK:    0.38 KCAL/MOL
REMARK 927      BINDING AFFINITY PREDICTED BY RF-SCORE:    0.00 PKD
ROOT
HETATM    1  C   UNL     1      -8.192  10.877  68.566  1.00  0.00    -0.140 C  
HETATM    2  C   UNL     1      -7.292   9.819  67.924  1.00  0.00    -0.085 C  
HETATM    3  N   UNL     1      -7.059   8.793  68.978  1.00  0.00    -0.064 NA 
HETATM    4  C   UNL     1      -8.009   9.008  69.858  1.00  0.00    -0.103 C  
HETATM    5  N   UNL     1      -8.812  10.096  69.609  1.00  0.00    -0.190 NA 
ENDROOT
BRANCH   4   6
HETATM    6  C   UNL     1      -8.174   8.074  71.055  1.00  0.00    -0.106 C  
HETATM    7  C   UNL     1      -6.834   8.012  71.810  1.00  0.00    -0.067 C  
HETATM    8  C   UNL     1      -5.812   7.223  70.995  1.00  0.00    -0.035 C  
HETATM    9  C   UNL     1      -6.258   5.775  70.828  1.00  0.00    -0.031 C  
HETATM   10  C   UNL     1      -7.741   5.600  70.593  1.00  0.00    -0.092 A  
HETATM   11  C   UNL     1      -8.221   4.305  70.344  1.00  0.00    -0.073 A  
HETATM   12  C   UNL     1      -9.588   4.064  70.222  1.00  0.00    -0.271 A  
HETATM   13  C   UNL     1     -10.491   5.117  70.339  1.00  0.00    -0.287 A  
HETATM   14  C   UNL     1     -10.026   6.413  70.578  1.00  0.00    -0.214 A  
HETATM   15  C   UNL     1      -8.651   6.668  70.720  1.00  0.00    -0.135 A  
ENDBRANCH   4   6
TORSDOF 1
ENDMDL
MODEL      206
REMARK 921   NORMALIZED FREE ENERGY PREDICTED BY IDOCK:   -1.14 KCAL/MOL
REMARK 922        TOTAL FREE ENERGY PREDICTED BY IDOCK:   -1.46 KCAL/MOL
REMARK 923 INTER-LIGAND FREE ENERGY PREDICTED BY IDOCK:   -1.25 KCAL/MOL
REMARK 924 INTRA-LIGAND FREE ENERGY PREDICTED BY IDOCK:   -0.22 KCAL/MOL
REMARK 927      BINDING AFFINITY PREDICTED BY RF-SCORE:    0.00 PKD
ROOT
HETATM    1  C   UNL     1      -6.351   7.288  71.605  1.00  0.00    -0.036 C  
HETATM    2  C   UNL     1      -7.717   7.873  71.968  1.00  0.00    -0.092 C  
HETATM    3  N   UNL     1      -8.533   7.798  70.724  1.00  0.00    -0.120 NA 
HETATM    4  C   UNL     1      -7.898   6.930  69.971  1.00  0.00    -0.110 C  
HETATM    5  N   UNL     1      -6.710   6.461  70.479  1.00  0.00    -0.052 NA 
ENDROOT
BRANCH   4   6
HETATM    6  C   UNL     1      -8.491   6.495  68.632  1.00  0.00    -0.121 C  
HETATM    7  C   UNL     1      -9.622   5.488  68.906  1.00  0.00    -0.178 C  
HETATM    8  C   UNL     1      -9.035   4.161  69.381  1.00  0.00    -0.161 C  
HETATM    9  C   UNL     1      -8.178   3.530  68.290  1.00  0.00    -0.091 C  
HETATM   10  C   UNL     1      -7.340   4.513  67.505  1.00  0.00    -0.073 A  
HETATM   11  C   UNL     1      -6.458   4.004  66.541  1.00  0.00    -0.037 A  
HETATM   12  C   UNL     1      -5.735   4.863  65.714  1.00  0.00    -0.018 A  
HETATM   13  C   UNL     1      -5.880   6.241  65.850  1.00  0.00    -0.025 A  
HETATM   14  C   UNL     1      -6.748   6.761  66.813  1.00  0.00    -0.056 A  
HETATM   15  C   UNL     1      -7.496   5.907  67.642  1.00  0.00    -0.078 A  
ENDBRANCH   4   6
TORSDOF 1
ENDMDL
MODEL      207
REMARK 921   NORMALIZED FREE ENERGY PREDICTED BY IDOCK:   -1.03 KCAL/MOL
REMARK 922        TOTAL FREE ENERGY PREDICTED BY IDOCK:   -1.34 KCAL/MOL
REMARK 923 INTER-LIGAND FREE ENERGY PREDICTED BY IDOCK:   -1.16 KCAL/MOL
REMARK 924 INTRA-LIGAND FREE ENERGY PREDICTED BY IDOCK:   -0.19 KCAL/MOL
REMARK 927      BINDING AFFINITY PREDICTED BY RF-SCORE:    0.00 PKD
ROOT
HETATM    1  C   UNL     1      -7.156   4.523  72.565  1.00  0.00    -0.074 C  
HETATM    2  C   UNL     1      -6.405   3.694  71.522  1.00  0.00    -0.015 C  
HETATM    3  N   UNL     1      -6.660   4.361  70.215  1.00  0.00    -0.031 NA 
HETATM    4  C   UNL     1      -7.078   5.563  70.539  1.00  0.00    -0.062 C  
HETATM    5  N   UNL     1      -7.235   5.793  71.886  1.00  0.00    -0.089 NA 
ENDROOT
BRANCH   4   6
HETATM    6  C   UNL     1      -7.347   6.603  69.453  1.00  0.00    -0.092 C  
HETATM    7  C   UNL     1      -8.791   7.111  69.613  1.00  0.00    -0.141 C  
HETATM    8  C   UNL     1      -9.776   6.023  69.192  1.00  0.00    -0.168 C  
HETATM    9  C   UNL     1      -9.617   5.696  67.712  1.00  0.00    -0.128 C  
HETATM   10  C   UNL     1      -8.187   5.679  67.224  1.00  0.00    -0.101 A  
HETATM   11  C   UNL     1      -7.948   5.302  65.895  1.00  0.00    -0.105 A  
HETATM   12  C   UNL     1      -6.663   5.365  65.356  1.00  0.00    -0.041 A  
HETATM   13  C   UNL     1      -5.602   5.797  66.147  1.00  0.00    -0.013 A  
HETATM   14  C   UNL     1      -5.824   6.166  67.476  1.00  0.00    -0.017 A  
HETATM   15  C   UNL     1      -7.117   6.124  68.026  1.00  0.00    -0.078 A  
ENDBRANCH   4   6
TORSDOF 1
ENDMDL
MODEL      208
REMARK 921   NORMALIZED FREE ENERGY PREDICTED BY IDOCK:   -0.78 KCAL/MOL
REMARK 922        TOTAL FREE ENERGY PREDICTED BY IDOCK:   -1.08 KCAL/MOL
REMARK 923 INTER-LIGAND FREE ENERGY PREDICTED BY IDOCK:   -1.56 KCAL/MOL
REMARK 924 INTRA-LIGAND FREE ENERGY PREDICTED BY IDOCK:    0.48 KCAL/MOL
REMARK 927      BINDING AFFINITY PREDICTED BY RF-SCORE:    0.00 PKD
ROOT
HETATM    1  C   UNL     1     -10.439  11.500  66.807  1.00  0.00    -0.239 C  
HETATM    2  C   UNL     1      -9.078  11.982  66.300  1.00  0.00    -0.165 C  
HETATM    3  N   UNL     1      -8.064  11.211  67.071  1.00  0.00    -0.141 NA 
HETATM    4  C   UNL     1      -8.732  10.192  67.561  1.00  0.00    -0.125 C  
HETATM    5  N   UNL     1     -10.085  10.197  67.315  1.00  0.00    -0.195 NA 
ENDROOT
BRANCH   4   6
HETATM    6  C   UNL     1      -8.004   9.097  68.337  1.00  0.00    -0.103 C  
HETATM    7  C   UNL     1      -6.764   9.717  69.005  1.00  0.00    -0.050 C  
HETATM    8  C   UNL     1      -5.710  10.042  67.950  1.00  0.00    -0.038 C  
HETATM    9  C   UNL     1      -5.218   8.770  67.270  1.00  0.00    -0.033 C  
HETATM   10  C   UNL     1      -6.296   7.746  67.001  1.00  0.00    -0.054 A  
HETATM   11  C   UNL     1      -5.942   6.584  66.300  1.00  0.00    -0.025 A  
HETATM   12  C   UNL     1      -6.866   5.557  66.111  1.00  0.00    -0.058 A  
HETATM   13  C   UNL     1      -8.158   5.687  66.612  1.00  0.00    -0.105 A  
HETATM   14  C   UNL     1      -8.528   6.844  67.303  1.00  0.00    -0.121 A  
HETATM   15  C   UNL     1      -7.601   7.880  67.516  1.00  0.00    -0.105 A  
ENDBRANCH   4   6
TORSDOF 1
ENDMDL
MODEL      209
REMARK 921   NORMALIZED FREE ENERGY PREDICTED BY IDOCK:   -0.20 KCAL/MOL
REMARK 922        TOTAL FREE ENERGY PREDICTED BY IDOCK:   -0.47 KCAL/MOL
REMARK 923 INTER-LIGAND FREE ENERGY PREDICTED BY IDOCK:   -0.82 KCAL/MOL
REMARK 924 INTRA-LIGAND FREE ENERGY PREDICTED BY IDOCK:    0.36 KCAL/MOL
REMARK 927      BINDING AFFINITY PREDICTED BY RF-SCORE:    0.00 PKD
ROOT
HETATM    1  C   UNL     1     -10.440  20.276  69.615  1.00  0.00     0.440 C  
HETATM    2  C   UNL     1     -10.699  19.411  68.380  1.00  0.00     0.074 C  
HETATM    3  N   UNL     1      -9.419  19.402  67.618  1.00  0.00    -0.305 NA 
HETATM    4  C   UNL     1      -8.519  19.795  68.489  1.00  0.00    -0.228 C  
HETATM    5  N   UNL     1      -9.006  20.162  69.721  1.00  0.00     0.694 NA 
ENDROOT
BRANCH   4   6
HETATM    6  C   UNL     1      -7.039  19.813  68.110  1.00  0.00    -0.327 C  
HETATM    7  C   UNL     1      -6.865  20.713  66.874  1.00  0.00    -0.353 C  
HETATM    8  C   UNL     1      -7.449  20.025  65.642  1.00  0.00    -0.275 C  
HETATM    9  C   UNL     1      -6.685  18.744  65.328  1.00  0.00    -0.180 C  
HETATM   10  C   UNL     1      -6.277  17.944  66.544  1.00  0.00    -0.216 A  
HETATM   11  C   UNL     1      -5.647  16.708  66.340  1.00  0.00     0.411 A  
HETATM   12  C   UNL     1      -5.156  15.972  67.417  1.00  0.00    -0.054 A  
HETATM   13  C   UNL     1      -5.299  16.461  68.712  1.00  0.00    -0.112 A  
HETATM   14  C   UNL     1      -5.934  17.686  68.931  1.00  0.00    -0.191 A  
HETATM   15  C   UNL     1      -6.419  18.447  67.853  1.00  0.00    -0.200 A  
ENDBRANCH   4   6
TORSDOF 1
ENDMDL
MODEL      210
REMARK 921   NORMALIZED FREE ENERGY PREDICTED BY IDOCK:    0.17 KCAL/MOL
REMARK 922        TOTAL FREE ENERGY PREDICTED BY IDOCK:   -0.07 KCAL/MOL
REMARK 923 INTER-LIGAND FREE ENERGY PREDICTED BY IDOCK:   -0.32 KCAL/MOL
REMARK 924 INTRA-LIGAND FREE ENERGY PREDICTED BY IDOCK:    0.25 KCAL/MOL
REMARK 927      BINDING AFFINITY PREDICTED BY RF-SCORE:    0.00 PKD
ROOT
HETATM    1  C   UNL     1      -5.317  19.976  70.968  1.00  0.00    -0.272 C  
HETATM    2  C   UNL     1      -6.547  20.188  71.854  1.00  0.00     0.358 C  
HETATM    3  N   UNL     1      -7.675  20.461  70.920  1.00  0.00     0.912 NA 
HETATM    4  C   UNL     1      -7.247  20.029  69.757  1.00  0.00     0.087 C  
HETATM    5  N   UNL     1      -5.948  19.579  69.733  1.00  0.00    -0.262 NA 
ENDROOT
BRANCH   4   6
HETATM    6  C   UNL     1      -8.176  20.038  68.544  1.00  0.00    -0.092 C  
HETATM    7  C   UNL     1      -9.594  20.399  69.022  1.00  0.00     0.316 C  
HETATM    8  C   UNL     1     -10.192  19.235  69.808  1.00  0.00     0.447 C  
HETATM    9  C   UNL     1     -10.358  18.010  68.916  1.00  0.00    -0.244 C  
HETATM   10  C   UNL     1      -9.225  17.788  67.941  1.00  0.00    -0.265 A  
HETATM   11  C   UNL     1      -9.258  16.635  67.143  1.00  0.00    -0.233 A  
HETATM   12  C   UNL     1      -8.298  16.425  66.154  1.00  0.00    -0.291 A  
HETATM   13  C   UNL     1      -7.288  17.363  65.959  1.00  0.00    -0.265 A  
HETATM   14  C   UNL     1      -7.237  18.511  66.754  1.00  0.00    -0.231 A  
HETATM   15  C   UNL     1      -8.208  18.744  67.743  1.00  0.00    -0.285 A  
ENDBRANCH   4   6
TORSDOF 1
ENDMDL
MODEL      211
REMARK 921   NORMALIZED FREE ENERGY PREDICTED BY IDOCK:    0.43 KCAL/MOL
REMARK 922        TOTAL FREE ENERGY PREDICTED BY IDOCK:    0.20 KCAL/MOL
REMARK 923 INTER-LIGAND FREE ENERGY PREDICTED BY IDOCK:   -0.25 KCAL/MOL
REMARK 924 INTRA-LIGAND FREE ENERGY PREDICTED BY IDOCK:    0.45 KCAL/MOL
REMARK 927      BINDING AFFINITY PREDICTED BY RF-SCORE:    0.00 PKD
ROOT
HETATM    1  C   UNL     1      -5.699  20.391  72.385  1.00  0.00     0.557 C  
HETATM    2  C   UNL     1      -6.892  20.642  71.460  1.00  0.00     1.194 C  
HETATM    3  N   UNL     1      -6.657  19.793  70.259  1.00  0.00    -0.221 NA 
HETATM    4  C   UNL     1      -5.763  18.915  70.650  1.00  0.00    -0.141 C  
HETATM    5  N   UNL     1      -5.277  19.091  71.924  1.00  0.00    -0.712 NA 
ENDROOT
BRANCH   4   6
HETATM    6  C   UNL     1      -5.334  17.786  69.715  1.00  0.00    -0.211 C  
HETATM    7  C   UNL     1      -5.742  18.163  68.280  1.00  0.00    -0.166 C  
HETATM    8  C   UNL     1      -7.258  18.074  68.128  1.00  0.00    -0.236 C  
HETATM    9  C   UNL     1      -7.737  16.640  68.329  1.00  0.00    -0.183 C  
HETATM   10  C   UNL     1      -7.020  15.889  69.428  1.00  0.00    -0.211 A  
HETATM   11  C   UNL     1      -7.459  14.593  69.735  1.00  0.00     0.032 A  
HETATM   12  C   UNL     1      -6.776  13.811  70.665  1.00  0.00     0.561 A  
HETATM   13  C   UNL     1      -5.651  14.323  71.306  1.00  0.00    -0.205 A  
HETATM   14  C   UNL     1      -5.209  15.616  71.017  1.00  0.00    -0.120 A  
HETATM   15  C   UNL     1      -5.878  16.409  70.069  1.00  0.00    -0.190 A  
ENDBRANCH   4   6
TORSDOF 1
ENDMDL
MODEL      212
REMARK 921   NORMALIZED FREE ENERGY PREDICTED BY IDOCK:    1.55 KCAL/MOL
REMARK 922        TOTAL FREE ENERGY PREDICTED BY IDOCK:    1.38 KCAL/MOL
REMARK 923 INTER-LIGAND FREE ENERGY PREDICTED BY IDOCK:    1.36 KCAL/MOL
REMARK 924 INTRA-LIGAND FREE ENERGY PREDICTED BY IDOCK:    0.03 KCAL/MOL
REMARK 927      BINDING AFFINITY PREDICTED BY RF-SCORE:    0.00 PKD
ROOT
HETATM    1  C   UNL     1      -8.942  20.140  69.186  1.00  0.00     0.410 C  
HETATM    2  C   UNL     1     -10.148  19.214  69.019  1.00  0.00    -0.298 C  
HETATM    3  N   UNL     1      -9.619  17.969  68.397  1.00  0.00    -0.319 NA 
HETATM    4  C   UNL     1      -8.324  18.025  68.608  1.00  0.00    -0.272 C  
HETATM    5  N   UNL     1      -7.870  19.176  69.208  1.00  0.00    -0.168 NA 
ENDROOT
BRANCH   4   6
HETATM    6  C   UNL     1      -7.428  16.856  68.204  1.00  0.00    -0.178 C  
HETATM    7  C   UNL     1      -7.028  17.037  66.729  1.00  0.00    -0.268 C  
HETATM    8  C   UNL     1      -8.232  16.776  65.826  1.00  0.00     0.332 C  
HETATM    9  C   UNL     1      -8.695  15.330  65.951  1.00  0.00     0.347 C  
HETATM   10  C   UNL     1      -8.643  14.775  67.356  1.00  0.00    -0.210 A  
HETATM   11  C   UNL     1      -9.134  13.479  67.572  1.00  0.00    -0.214 A  
HETATM   12  C   UNL     1      -9.020  12.873  68.822  1.00  0.00     0.175 A  
HETATM   13  C   UNL     1      -8.422  13.562  69.873  1.00  0.00     2.157 A  
HETATM   14  C   UNL     1      -7.937  14.857  69.676  1.00  0.00    -0.010 A  
HETATM   15  C   UNL     1      -8.031  15.474  68.415  1.00  0.00    -0.127 A  
ENDBRANCH   4   6
TORSDOF 1
ENDMDL
MODEL      213
REMARK 921   NORMALIZED FREE ENERGY PREDICTED BY IDOCK:    2.30 KCAL/MOL
REMARK 922        TOTAL FREE ENERGY PREDICTED BY IDOCK:    2.18 KCAL/MOL
REMARK 923 INTER-LIGAND FREE ENERGY PREDICTED BY IDOCK:    1.86 KCAL/MOL
REMARK 924 INTRA-LIGAND FREE ENERGY PREDICTED BY IDOCK:    0.32 KCAL/MOL
REMARK 927      BINDING AFFINITY PREDICTED BY RF-SCORE:    0.00 PKD
ROOT
HETATM    1  C   UNL     1      -6.923  11.704  67.735  1.00  0.00    -0.084 C  
HETATM    2  C   UNL     1      -6.274  12.841  66.944  1.00  0.00     0.571 C  
HETATM    3  N   UNL     1      -6.928  14.091  67.424  1.00  0.00    -0.194 NA 
HETATM    4  C   UNL     1      -7.483  13.751  68.564  1.00  0.00    -0.119 C  
HETATM    5  N   UNL     1      -7.384  12.421  68.898  1.00  0.00    -0.074 NA 
ENDROOT
BRANCH   4   6
HETATM    6  C   UNL     1      -8.170  14.806  69.429  1.00  0.00    -0.012 C  
HETATM    7  C   UNL     1      -9.339  15.405  68.627  1.00  0.00    -0.202 C  
HETATM    8  C   UNL     1      -8.801  16.289  67.504  1.00  0.00    -0.194 C  
HETATM    9  C   UNL     1      -8.039  17.480  68.074  1.00  0.00    -0.237 C  
HETATM   10  C   UNL     1      -7.192  17.161  69.284  1.00  0.00    -0.135 A  
HETATM   11  C   UNL     1      -6.392  18.183  69.817  1.00  0.00    -0.123 A  
HETATM   12  C   UNL     1      -5.669  17.981  70.991  1.00  0.00     0.244 A  
HETATM   13  C   UNL     1      -5.730  16.751  71.640  1.00  0.00     0.991 A  
HETATM   14  C   UNL     1      -6.514  15.721  71.115  1.00  0.00     1.287 A  
HETATM   15  C   UNL     1      -7.263  15.916  69.940  1.00  0.00     0.142 A  
ENDBRANCH   4   6
TORSDOF 1
ENDMDL
MODEL      214
REMARK 921   NORMALIZED FREE ENERGY PREDICTED BY IDOCK:    3.36 KCAL/MOL
REMARK 922        TOTAL FREE ENERGY PREDICTED BY IDOCK:    3.31 KCAL/MOL
REMARK 923 INTER-LIGAND FREE ENERGY PREDICTED BY IDOCK:    3.07 KCAL/MOL
REMARK 924 INTRA-LIGAND FREE ENERGY PREDICTED BY IDOCK:    0.23 KCAL/MOL
REMARK 927      BINDING AFFINITY PREDICTED BY RF-SCORE:    0.00 PKD
ROOT
HETATM    1  C   UNL     1      -5.128  19.430  66.148  1.00  0.00    -0.152 C  
HETATM    2  C   UNL     1      -5.990  20.694  66.113  1.00  0.00    -0.215 C  
HETATM    3  N   UNL     1      -7.372  20.248  66.443  1.00  0.00    -0.274 NA 
HETATM    4  C   UNL     1      -7.211  19.069  66.997  1.00  0.00    -0.208 C  
HETATM    5  N   UNL     1      -5.921  18.593  67.014  1.00  0.00    -0.158 NA 
ENDROOT
BRANCH   4   6
HETATM    6  C   UNL     1      -8.410  18.321  67.577  1.00  0.00    -0.247 C  
HETATM    7  C   UNL     1      -7.939  16.931  68.040  1.00  0.00    -0.185 C  
HETATM    8  C   UNL     1      -7.637  16.053  66.828  1.00  0.00    -0.247 C  
HETATM    9  C   UNL     1      -8.902  15.808  66.012  1.00  0.00    -0.260 C  
HETATM   10  C   UNL     1      -9.813  17.008  65.894  1.00  0.00    -0.202 A  
HETATM   11  C   UNL     1     -10.955  16.892  65.088  1.00  0.00    -0.060 A  
HETATM   12  C   UNL     1     -11.887  17.926  65.020  1.00  0.00     3.669 A  
HETATM   13  C   UNL     1     -11.681  19.093  65.751  1.00  0.00     2.456 A  
HETATM   14  C   UNL     1     -10.543  19.226  66.550  1.00  0.00    -0.538 A  
HETATM   15  C   UNL     1      -9.603  18.184  66.641  1.00  0.00    -0.306 A  
ENDBRANCH   4   6
TORSDOF 1
ENDMDL
MODEL      215
REMARK 921   NORMALIZED FREE ENERGY PREDICTED BY IDOCK:    3.61 KCAL/MOL
REMARK 922        TOTAL FREE ENERGY PREDICTED BY IDOCK:    3.57 KCAL/MOL
REMARK 923 INTER-LIGAND FREE ENERGY PREDICTED BY IDOCK:    3.33 KCAL/MOL
REMARK 924 INTRA-LIGAND FREE ENERGY PREDICTED BY IDOCK:    0.24 KCAL/MOL
REMARK 927      BINDING AFFINITY PREDICTED BY RF-SCORE:    0.00 PKD
ROOT
HETATM    1  C   UNL     1      -5.128  19.430  66.148  1.00  0.00    -0.152 C  
HETATM    2  C   UNL     1      -6.005  20.682  66.101  1.00  0.00    -0.215 C  
HETATM    3  N   UNL     1      -7.380  20.225  66.445  1.00  0.00    -0.274 NA 
HETATM    4  C   UNL     1      -7.202  19.055  67.013  1.00  0.00    -0.208 C  
HETATM    5  N   UNL     1      -5.906  18.596  67.030  1.00  0.00    -0.151 NA 
ENDROOT
BRANCH   4   6
HETATM    6  C   UNL     1      -8.389  18.301  67.610  1.00  0.00    -0.252 C  
HETATM    7  C   UNL     1      -9.295  17.832  66.457  1.00  0.00    -0.291 C  
HETATM    8  C   UNL     1     -10.020  19.028  65.844  1.00  0.00    -0.204 C  
HETATM    9  C   UNL     1     -10.951  19.675  66.863  1.00  0.00    -0.389 C  
HETATM   10  C   UNL     1     -10.394  19.740  68.267  1.00  0.00    -0.536 A  
HETATM   11  C   UNL     1     -11.152  20.398  69.247  1.00  0.00     1.446 A  
HETATM   12  C   UNL     1     -10.743  20.404  70.579  1.00  0.00     2.004 A  
HETATM   13  C   UNL     1      -9.564  19.758  70.944  1.00  0.00     1.790 A  
HETATM   14  C   UNL     1      -8.794  19.108  69.977  1.00  0.00     1.177 A  
HETATM   15  C   UNL     1      -9.204  19.080  68.632  1.00  0.00    -0.414 A  
ENDBRANCH   4   6
TORSDOF 1
ENDMDL
MODEL      216
REMARK 921   NORMALIZED FREE ENERGY PREDICTED BY IDOCK:    5.36 KCAL/MOL
REMARK 922        TOTAL FREE ENERGY PREDICTED BY IDOCK:    5.42 KCAL/MOL
REMARK 923 INTER-LIGAND FREE ENERGY PREDICTED BY IDOCK:    5.53 KCAL/MOL
REMARK 924 INTRA-LIGAND FREE ENERGY PREDICTED BY IDOCK:   -0.10 KCAL/MOL
REMARK 927      BINDING AFFINITY PREDICTED BY RF-SCORE:    0.00 PKD
ROOT
HETATM    1  C   UNL     1     -12.214  15.743  69.329  1.00  0.00    -0.098 C  
HETATM    2  C   UNL     1     -13.387  14.866  69.770  1.00  0.00     0.903 C  
HETATM    3  N   UNL     1     -12.942  13.460  69.562  1.00  0.00     0.751 NA 
HETATM    4  C   UNL     1     -11.635  13.543  69.467  1.00  0.00    -0.294 C  
HETATM    5  N   UNL     1     -11.119  14.817  69.489  1.00  0.00    -0.270 NA 
ENDROOT
BRANCH   4   6
HETATM    6  C   UNL     1     -10.790  12.276  69.354  1.00  0.00    -0.012 C  
HETATM    7  C   UNL     1     -10.446  12.053  67.870  1.00  0.00    -0.221 C  
HETATM    8  C   UNL     1     -11.693  11.613  67.106  1.00  0.00    -0.215 C  
HETATM    9  C   UNL     1     -12.192  10.267  67.620  1.00  0.00     2.853 C  
HETATM   10  C   UNL     1     -12.098  10.094  69.118  1.00  0.00     0.302 A  
HETATM   11  C   UNL     1     -12.616   8.918  69.680  1.00  0.00     2.104 A  
HETATM   12  C   UNL     1     -12.468   8.654  71.041  1.00  0.00    -0.123 A  
HETATM   13  C   UNL     1     -11.808   9.569  71.856  1.00  0.00    -0.349 A  
HETATM   14  C   UNL     1     -11.296  10.749  71.312  1.00  0.00     0.594 A  
HETATM   15  C   UNL     1     -11.423  11.020  69.938  1.00  0.00    -0.400 A  
ENDBRANCH   4   6
TORSDOF 1
ENDMDL
