MODEL        1
REMARK 921   NORMALIZED FREE ENERGY PREDICTED BY IDOCK:   -4.60 KCAL/MOL
REMARK 922        TOTAL FREE ENERGY PREDICTED BY IDOCK:  -10.97 KCAL/MOL
REMARK 923 INTER-LIGAND FREE ENERGY PREDICTED BY IDOCK:   -9.72 KCAL/MOL
REMARK 924 INTRA-LIGAND FREE ENERGY PREDICTED BY IDOCK:   -1.25 KCAL/MOL
REMARK 927      BINDING AFFINITY PREDICTED BY RF-SCORE:    0.00 PKD
ROOT
HETATM    1  C   UNL     1     -11.830   9.178  71.770  1.00  0.00    -0.453 C  
HETATM    2  C   UNL     1     -13.030  10.065  71.512  1.00  0.00    -0.434 C  
ENDROOT
BRANCH   2   3
HETATM    3  O   UNL     1     -12.593  11.345  71.047  1.00  0.00    -0.389 OA 
BRANCH   3   4
HETATM    4  C   UNL     1     -12.008  11.220  69.748  1.00  0.00    -0.360 C  
BRANCH   4   5
HETATM    5  C   UNL     1     -11.875  12.588  69.082  1.00  0.00    -0.296 C  
BRANCH   5   6
HETATM    6  P   UNL     1     -11.382  12.453  67.300  1.00  0.00    -0.360 P  
BRANCH   6   7
HETATM    7  C   UNL     1     -12.402  13.800  66.522  1.00  0.00    -0.386 C  
BRANCH   7   8
HETATM    8  C   UNL     1     -12.385  13.689  64.998  1.00  0.00    -0.427 C  
BRANCH   8   9
HETATM    9  O   UNL     1     -13.190  12.584  64.576  1.00  0.00    -0.832 OA 
BRANCH   9  10
HETATM   10  C   UNL     1     -12.618  11.969  63.420  1.00  0.00    -0.469 C  
HETATM   11  C   UNL     1     -11.127  12.237  63.389  1.00  0.00    -0.487 C  
ENDBRANCH   9  10
ENDBRANCH   8   9
ENDBRANCH   7   8
ENDBRANCH   6   7
BRANCH   6  12
HETATM   12  C   UNL     1      -9.747  13.333  67.320  1.00  0.00    -0.231 C  
BRANCH  12  13
HETATM   13  C   UNL     1      -9.439  13.981  68.662  1.00  0.00    -0.142 C  
BRANCH  13  14
HETATM   14  P   UNL     1      -9.447  15.833  68.591  1.00  0.00    -0.233 P  
BRANCH  14  15
HETATM   15  C   UNL     1      -9.533  16.152  66.765  1.00  0.00    -0.238 C  
BRANCH  15  16
HETATM   16  C   UNL     1      -9.282  17.630  66.453  1.00  0.00    -0.244 C  
BRANCH  16  17
HETATM   17  O   UNL     1     -10.504  18.276  66.087  1.00  0.00    -0.420 OA 
BRANCH  17  18
HETATM   18  C   UNL     1     -10.500  19.633  66.537  1.00  0.00    -0.503 C  
HETATM   19  C   UNL     1     -10.309  19.672  68.039  1.00  0.00    -0.579 C  
ENDBRANCH  17  18
ENDBRANCH  16  17
ENDBRANCH  15  16
ENDBRANCH  14  15
BRANCH  14  20
HETATM   20  C   UNL     1     -11.221  16.146  69.048  1.00  0.00    -0.347 C  
BRANCH  20  21
HETATM   21  C   UNL     1     -11.475  15.955  70.542  1.00  0.00    -0.392 C  
BRANCH  21  22
HETATM   22  O   UNL     1     -12.840  15.594  70.754  1.00  0.00    -0.469 OA 
BRANCH  22  23
HETATM   23  C   UNL     1     -12.988  14.871  71.979  1.00  0.00    -0.333 C  
HETATM   24  C   UNL     1     -13.268  15.849  73.102  1.00  0.00    -0.692 C  
ENDBRANCH  22  23
ENDBRANCH  21  22
ENDBRANCH  20  21
ENDBRANCH  14  20
ENDBRANCH  13  14
ENDBRANCH  12  13
ENDBRANCH   6  12
ENDBRANCH   5   6
ENDBRANCH   4   5
ENDBRANCH   3   4
ENDBRANCH   2   3
TORSDOF 19
ENDMDL
MODEL        2
REMARK 921   NORMALIZED FREE ENERGY PREDICTED BY IDOCK:   -4.35 KCAL/MOL
REMARK 922        TOTAL FREE ENERGY PREDICTED BY IDOCK:  -10.44 KCAL/MOL
REMARK 923 INTER-LIGAND FREE ENERGY PREDICTED BY IDOCK:   -9.51 KCAL/MOL
REMARK 924 INTRA-LIGAND FREE ENERGY PREDICTED BY IDOCK:   -0.93 KCAL/MOL
REMARK 927      BINDING AFFINITY PREDICTED BY RF-SCORE:    0.00 PKD
ROOT
HETATM    1  C   UNL     1     -12.620  11.843  63.791  1.00  0.00    -0.509 C  
HETATM    2  C   UNL     1     -11.921  13.111  63.347  1.00  0.00    -0.483 C  
ENDROOT
BRANCH   2   3
HETATM    3  O   UNL     1     -12.641  14.251  63.821  1.00  0.00    -0.821 OA 
BRANCH   3   4
HETATM    4  C   UNL     1     -11.732  15.218  64.354  1.00  0.00    -0.285 C  
BRANCH   4   5
HETATM    5  C   UNL     1     -11.477  14.961  65.837  1.00  0.00    -0.276 C  
BRANCH   5   6
HETATM    6  P   UNL     1      -9.669  14.816  66.222  1.00  0.00    -0.315 P  
BRANCH   6   7
HETATM    7  C   UNL     1      -9.481  16.032  67.616  1.00  0.00    -0.216 C  
BRANCH   7   8
HETATM    8  C   UNL     1      -9.690  17.465  67.126  1.00  0.00    -0.267 C  
BRANCH   8   9
HETATM    9  O   UNL     1     -10.208  18.276  68.183  1.00  0.00    -0.353 OA 
BRANCH   9  10
HETATM   10  C   UNL     1     -10.663  19.529  67.667  1.00  0.00    -0.401 C  
HETATM   11  C   UNL     1     -10.096  19.741  66.278  1.00  0.00    -0.601 C  
ENDBRANCH   9  10
ENDBRANCH   8   9
ENDBRANCH   7   8
ENDBRANCH   6   7
BRANCH   6  12
HETATM   12  C   UNL     1      -9.648  13.254  67.226  1.00  0.00    -0.234 C  
BRANCH  12  13
HETATM   13  C   UNL     1     -10.070  13.471  68.671  1.00  0.00    -0.166 C  
BRANCH  13  14
HETATM   14  P   UNL     1     -11.825  12.974  68.997  1.00  0.00    -0.240 P  
BRANCH  14  15
HETATM   15  C   UNL     1     -11.616  11.307  69.786  1.00  0.00    -0.333 C  
BRANCH  15  16
HETATM   16  C   UNL     1     -12.504  11.172  71.026  1.00  0.00    -0.403 C  
BRANCH  16  17
HETATM   17  O   UNL     1     -13.395  10.062  70.882  1.00  0.00    -0.382 OA 
BRANCH  17  18
HETATM   18  C   UNL     1     -13.434   9.300  72.090  1.00  0.00    -0.473 C  
HETATM   19  C   UNL     1     -12.157   8.498  72.230  1.00  0.00    -0.455 C  
ENDBRANCH  17  18
ENDBRANCH  16  17
ENDBRANCH  15  16
ENDBRANCH  14  15
BRANCH  14  20
HETATM   20  C   UNL     1     -12.153  14.000  70.513  1.00  0.00    -0.353 C  
BRANCH  20  21
HETATM   21  C   UNL     1     -12.145  15.496  70.209  1.00  0.00    -0.386 C  
BRANCH  21  22
HETATM   22  O   UNL     1     -11.815  16.223  71.393  1.00  0.00    -0.438 OA 
BRANCH  22  23
HETATM   23  C   UNL     1     -11.674  15.337  72.507  1.00  0.00    -0.434 C  
HETATM   24  C   UNL     1     -12.396  15.925  73.703  1.00  0.00    -0.682 C  
ENDBRANCH  22  23
ENDBRANCH  21  22
ENDBRANCH  20  21
ENDBRANCH  14  20
ENDBRANCH  13  14
ENDBRANCH  12  13
ENDBRANCH   6  12
ENDBRANCH   5   6
ENDBRANCH   4   5
ENDBRANCH   3   4
ENDBRANCH   2   3
TORSDOF 19
ENDMDL
MODEL        3
REMARK 921   NORMALIZED FREE ENERGY PREDICTED BY IDOCK:   -4.32 KCAL/MOL
REMARK 922        TOTAL FREE ENERGY PREDICTED BY IDOCK:  -10.37 KCAL/MOL
REMARK 923 INTER-LIGAND FREE ENERGY PREDICTED BY IDOCK:   -9.09 KCAL/MOL
REMARK 924 INTRA-LIGAND FREE ENERGY PREDICTED BY IDOCK:   -1.28 KCAL/MOL
REMARK 927      BINDING AFFINITY PREDICTED BY RF-SCORE:    0.00 PKD
ROOT
HETATM    1  C   UNL     1      -9.779  20.559  67.112  1.00  0.00    -0.581 C  
HETATM    2  C   UNL     1     -10.793  19.559  66.596  1.00  0.00    -0.370 C  
ENDROOT
BRANCH   2   3
HETATM    3  O   UNL     1     -10.362  18.231  66.903  1.00  0.00    -0.355 OA 
BRANCH   3   4
HETATM    4  C   UNL     1     -10.158  18.097  68.312  1.00  0.00    -0.386 C  
BRANCH   4   5
HETATM    5  C   UNL     1      -9.110  17.026  68.606  1.00  0.00    -0.271 C  
BRANCH   5   6
HETATM    6  P   UNL     1      -9.879  15.420  69.126  1.00  0.00    -0.271 P  
BRANCH   6   7
HETATM    7  C   UNL     1     -11.649  15.919  69.400  1.00  0.00    -0.349 C  
BRANCH   7   8
HETATM    8  C   UNL     1     -12.028  15.805  70.877  1.00  0.00    -0.413 C  
BRANCH   8   9
HETATM    9  O   UNL     1     -13.447  15.702  71.014  1.00  0.00    -0.575 OA 
BRANCH   9  10
HETATM   10  C   UNL     1     -13.790  15.347  72.355  1.00  0.00    -0.562 C  
HETATM   11  C   UNL     1     -12.539  15.324  73.208  1.00  0.00    -0.617 C  
ENDBRANCH   9  10
ENDBRANCH   8   9
ENDBRANCH   7   8
ENDBRANCH   6   7
BRANCH   6  12
HETATM   12  C   UNL     1     -10.089  14.583  67.482  1.00  0.00    -0.228 C  
BRANCH  12  13
HETATM   13  C   UNL     1     -11.477  14.779  66.889  1.00  0.00    -0.347 C  
BRANCH  13  14
HETATM   14  P   UNL     1     -12.122  13.265  66.037  1.00  0.00    -0.408 P  
BRANCH  14  15
HETATM   15  C   UNL     1     -11.566  13.538  64.287  1.00  0.00    -0.397 C  
BRANCH  15  16
HETATM   16  C   UNL     1     -11.289  12.205  63.585  1.00  0.00    -0.464 C  
BRANCH  16  17
HETATM   17  O   UNL     1      -9.910  12.114  63.217  1.00  0.00    -0.385 OA 
BRANCH  17  18
HETATM   18  C   UNL     1      -9.582  10.769  62.858  1.00  0.00    -0.338 C  
HETATM   19  C   UNL     1      -9.112  10.014  64.083  1.00  0.00    -0.295 C  
ENDBRANCH  17  18
ENDBRANCH  16  17
ENDBRANCH  15  16
ENDBRANCH  14  15
BRANCH  14  20
HETATM   20  C   UNL     1     -10.837  12.038  66.587  1.00  0.00    -0.272 C  
BRANCH  20  21
HETATM   21  C   UNL     1     -11.369  11.086  67.655  1.00  0.00    -0.281 C  
BRANCH  21  22
HETATM   22  O   UNL     1     -10.759  11.386  68.910  1.00  0.00    -0.196 OA 
BRANCH  22  23
HETATM   23  C   UNL     1     -11.627  11.035  69.991  1.00  0.00    -0.344 C  
HETATM   24  C   UNL     1     -12.267  12.294  70.543  1.00  0.00    -0.387 C  
ENDBRANCH  22  23
ENDBRANCH  21  22
ENDBRANCH  20  21
ENDBRANCH  14  20
ENDBRANCH  13  14
ENDBRANCH  12  13
ENDBRANCH   6  12
ENDBRANCH   5   6
ENDBRANCH   4   5
ENDBRANCH   3   4
ENDBRANCH   2   3
TORSDOF 19
ENDMDL
MODEL        4
REMARK 921   NORMALIZED FREE ENERGY PREDICTED BY IDOCK:   -4.30 KCAL/MOL
REMARK 922        TOTAL FREE ENERGY PREDICTED BY IDOCK:  -10.33 KCAL/MOL
REMARK 923 INTER-LIGAND FREE ENERGY PREDICTED BY IDOCK:   -9.40 KCAL/MOL
REMARK 924 INTRA-LIGAND FREE ENERGY PREDICTED BY IDOCK:   -0.93 KCAL/MOL
REMARK 927      BINDING AFFINITY PREDICTED BY RF-SCORE:    0.00 PKD
ROOT
HETATM    1  C   UNL     1     -10.510  19.798  65.988  1.00  0.00    -0.609 C  
HETATM    2  C   UNL     1      -9.680  20.081  67.223  1.00  0.00    -0.412 C  
ENDROOT
BRANCH   2   3
HETATM    3  O   UNL     1     -10.121  19.251  68.301  1.00  0.00    -0.379 OA 
BRANCH   3   4
HETATM    4  C   UNL     1     -10.445  17.947  67.814  1.00  0.00    -0.400 C  
BRANCH   4   5
HETATM    5  C   UNL     1      -9.485  16.904  68.381  1.00  0.00    -0.258 C  
BRANCH   5   6
HETATM    6  P   UNL     1     -10.369  15.387  68.974  1.00  0.00    -0.271 P  
BRANCH   6   7
HETATM    7  C   UNL     1     -11.633  16.113  70.129  1.00  0.00    -0.243 C  
BRANCH   7   8
HETATM    8  C   UNL     1     -12.539  15.024  70.703  1.00  0.00    -0.374 C  
BRANCH   8   9
HETATM    9  O   UNL     1     -13.459  15.593  71.639  1.00  0.00    -0.490 OA 
BRANCH   9  10
HETATM   10  C   UNL     1     -13.534  14.783  72.814  1.00  0.00    -0.474 C  
HETATM   11  C   UNL     1     -12.631  15.359  73.885  1.00  0.00    -0.750 C  
ENDBRANCH   9  10
ENDBRANCH   8   9
ENDBRANCH   7   8
ENDBRANCH   6   7
BRANCH   6  12
HETATM   12  C   UNL     1     -11.489  15.047  67.532  1.00  0.00    -0.328 C  
BRANCH  12  13
HETATM   13  C   UNL     1     -11.885  13.583  67.420  1.00  0.00    -0.384 C  
BRANCH  13  14
HETATM   14  P   UNL     1     -10.735  12.449  68.328  1.00  0.00    -0.248 P  
BRANCH  14  15
HETATM   15  C   UNL     1     -11.875  11.083  68.860  1.00  0.00    -0.308 C  
BRANCH  15  16
HETATM   16  C   UNL     1     -12.147  11.150  70.365  1.00  0.00    -0.385 C  
BRANCH  16  17
HETATM   17  O   UNL     1     -11.257  10.279  71.070  1.00  0.00    -0.315 OA 
BRANCH  17  18
HETATM   18  C   UNL     1     -11.978   9.166  71.606  1.00  0.00    -0.367 C  
HETATM   19  C   UNL     1     -13.344   9.621  72.075  1.00  0.00    -0.547 C  
ENDBRANCH  17  18
ENDBRANCH  16  17
ENDBRANCH  15  16
ENDBRANCH  14  15
BRANCH  14  20
HETATM   20  C   UNL     1      -9.914  11.626  66.878  1.00  0.00    -0.202 C  
BRANCH  20  21
HETATM   21  C   UNL     1     -10.802  11.626  65.636  1.00  0.00    -0.276 C  
BRANCH  21  22
HETATM   22  O   UNL     1     -10.239  12.485  64.645  1.00  0.00    -0.302 OA 
BRANCH  22  23
HETATM   23  C   UNL     1     -10.802  12.213  63.359  1.00  0.00    -0.414 C  
HETATM   24  C   UNL     1     -12.303  12.055  63.498  1.00  0.00    -0.661 C  
ENDBRANCH  22  23
ENDBRANCH  21  22
ENDBRANCH  20  21
ENDBRANCH  14  20
ENDBRANCH  13  14
ENDBRANCH  12  13
ENDBRANCH   6  12
ENDBRANCH   5   6
ENDBRANCH   4   5
ENDBRANCH   3   4
ENDBRANCH   2   3
TORSDOF 19
ENDMDL
MODEL        5
REMARK 921   NORMALIZED FREE ENERGY PREDICTED BY IDOCK:   -4.23 KCAL/MOL
REMARK 922        TOTAL FREE ENERGY PREDICTED BY IDOCK:  -10.18 KCAL/MOL
REMARK 923 INTER-LIGAND FREE ENERGY PREDICTED BY IDOCK:   -9.12 KCAL/MOL
REMARK 924 INTRA-LIGAND FREE ENERGY PREDICTED BY IDOCK:   -1.06 KCAL/MOL
REMARK 927      BINDING AFFINITY PREDICTED BY RF-SCORE:    0.00 PKD
ROOT
HETATM    1  C   UNL     1     -12.110  11.948  63.521  1.00  0.00    -0.575 C  
HETATM    2  C   UNL     1     -10.608  11.806  63.654  1.00  0.00    -0.439 C  
ENDROOT
BRANCH   2   3
HETATM    3  O   UNL     1     -10.248  11.758  65.037  1.00  0.00    -0.252 OA 
BRANCH   3   4
HETATM    4  C   UNL     1      -9.982  10.408  65.428  1.00  0.00    -0.295 C  
BRANCH   4   5
HETATM    5  C   UNL     1     -10.476  10.151  66.849  1.00  0.00    -0.222 C  
BRANCH   5   6
HETATM    6  P   UNL     1     -11.244  11.659  67.607  1.00  0.00    -0.298 P  
BRANCH   6   7
HETATM    7  C   UNL     1     -11.871  10.991  69.225  1.00  0.00    -0.340 C  
BRANCH   7   8
HETATM    8  C   UNL     1     -10.852  10.047  69.861  1.00  0.00    -0.285 C  
BRANCH   8   9
HETATM    9  O   UNL     1     -11.166   9.838  71.240  1.00  0.00    -0.361 OA 
BRANCH   9  10
HETATM   10  C   UNL     1     -12.236   8.900  71.368  1.00  0.00    -0.318 C  
HETATM   11  C   UNL     1     -13.351   9.513  72.190  1.00  0.00    -0.545 C  
ENDBRANCH   9  10
ENDBRANCH   8   9
ENDBRANCH   7   8
ENDBRANCH   6   7
BRANCH   6  12
HETATM   12  C   UNL     1      -9.737  12.536  68.246  1.00  0.00    -0.220 C  
BRANCH  12  13
HETATM   13  C   UNL     1      -9.709  14.012  67.879  1.00  0.00    -0.229 C  
BRANCH  13  14
HETATM   14  P   UNL     1     -11.375  14.675  67.413  1.00  0.00    -0.373 P  
BRANCH  14  15
HETATM   15  C   UNL     1     -11.785  15.754  68.867  1.00  0.00    -0.394 C  
BRANCH  15  16
HETATM   16  C   UNL     1     -12.411  14.934  69.999  1.00  0.00    -0.312 C  
BRANCH  16  17
HETATM   17  O   UNL     1     -12.952  15.801  71.000  1.00  0.00    -0.483 OA 
BRANCH  17  18
HETATM   18  C   UNL     1     -14.089  15.192  71.618  1.00  0.00    -0.549 C  
HETATM   19  C   UNL     1     -13.665  13.924  72.329  1.00  0.00    -0.660 C  
ENDBRANCH  17  18
ENDBRANCH  16  17
ENDBRANCH  15  16
ENDBRANCH  14  15
BRANCH  14  20
HETATM   20  C   UNL     1     -10.853  15.977  66.194  1.00  0.00    -0.179 C  
BRANCH  20  21
HETATM   21  C   UNL     1      -9.400  16.404  66.393  1.00  0.00    -0.292 C  
BRANCH  21  22
HETATM   22  O   UNL     1      -9.249  17.774  66.020  1.00  0.00    -0.503 OA 
BRANCH  22  23
HETATM   23  C   UNL     1     -10.488  18.475  66.156  1.00  0.00    -0.413 C  
HETATM   24  C   UNL     1     -10.316  19.596  67.161  1.00  0.00    -0.581 C  
ENDBRANCH  22  23
ENDBRANCH  21  22
ENDBRANCH  20  21
ENDBRANCH  14  20
ENDBRANCH  13  14
ENDBRANCH  12  13
ENDBRANCH   6  12
ENDBRANCH   5   6
ENDBRANCH   4   5
ENDBRANCH   3   4
ENDBRANCH   2   3
TORSDOF 19
ENDMDL
MODEL        6
REMARK 921   NORMALIZED FREE ENERGY PREDICTED BY IDOCK:   -4.23 KCAL/MOL
REMARK 922        TOTAL FREE ENERGY PREDICTED BY IDOCK:  -10.17 KCAL/MOL
REMARK 923 INTER-LIGAND FREE ENERGY PREDICTED BY IDOCK:   -9.11 KCAL/MOL
REMARK 924 INTRA-LIGAND FREE ENERGY PREDICTED BY IDOCK:   -1.06 KCAL/MOL
REMARK 927      BINDING AFFINITY PREDICTED BY RF-SCORE:    0.00 PKD
ROOT
HETATM    1  C   UNL     1     -11.074  12.165  63.621  1.00  0.00    -0.528 C  
HETATM    2  C   UNL     1     -12.585  12.090  63.692  1.00  0.00    -0.490 C  
ENDROOT
BRANCH   2   3
HETATM    3  O   UNL     1     -13.044  12.724  64.889  1.00  0.00    -0.833 OA 
BRANCH   3   4
HETATM    4  C   UNL     1     -11.948  13.345  65.565  1.00  0.00    -0.398 C  
BRANCH   4   5
HETATM    5  C   UNL     1     -12.028  13.095  67.069  1.00  0.00    -0.355 C  
BRANCH   5   6
HETATM    6  P   UNL     1     -11.477  14.566  68.053  1.00  0.00    -0.347 P  
BRANCH   6   7
HETATM    7  C   UNL     1     -12.090  14.134  69.755  1.00  0.00    -0.354 C  
BRANCH   7   8
HETATM    8  C   UNL     1     -12.659  15.365  70.461  1.00  0.00    -0.423 C  
BRANCH   8   9
HETATM    9  O   UNL     1     -11.642  16.000  71.240  1.00  0.00    -0.408 OA 
BRANCH   9  10
HETATM   10  C   UNL     1     -11.765  15.626  72.613  1.00  0.00    -0.451 C  
HETATM   11  C   UNL     1     -13.219  15.705  73.032  1.00  0.00    -0.664 C  
ENDBRANCH   9  10
ENDBRANCH   8   9
ENDBRANCH   7   8
ENDBRANCH   6   7
BRANCH   6  12
HETATM   12  C   UNL     1      -9.681  14.166  68.307  1.00  0.00    -0.227 C  
BRANCH  12  13
HETATM   13  C   UNL     1      -8.945  15.225  69.115  1.00  0.00    -0.233 C  
BRANCH  13  14
HETATM   14  P   UNL     1      -7.552  16.012  68.181  1.00  0.00    -0.146 P  
BRANCH  14  15
HETATM   15  C   UNL     1      -8.246  17.688  67.787  1.00  0.00    -0.225 C  
BRANCH  15  16
HETATM   16  C   UNL     1      -9.527  17.952  68.581  1.00  0.00    -0.298 C  
BRANCH  16  17
HETATM   17  O   UNL     1     -10.623  18.191  67.693  1.00  0.00    -0.406 OA 
BRANCH  17  18
HETATM   18  C   UNL     1     -10.694  19.580  67.359  1.00  0.00    -0.467 C  
HETATM   19  C   UNL     1     -10.580  19.750  65.858  1.00  0.00    -0.557 C  
ENDBRANCH  17  18
ENDBRANCH  16  17
ENDBRANCH  15  16
ENDBRANCH  14  15
BRANCH  14  20
HETATM   20  C   UNL     1      -6.446  16.457  69.606  1.00  0.00    -0.201 C  
BRANCH  20  21
HETATM   21  C   UNL     1      -5.746  17.798  69.396  1.00  0.00    -0.221 C  
BRANCH  21  22
HETATM   22  O   UNL     1      -5.367  18.343  70.660  1.00  0.00    -0.240 OA 
BRANCH  22  23
HETATM   23  C   UNL     1      -5.739  19.721  70.748  1.00  0.00    -0.267 C  
HETATM   24  C   UNL     1      -6.037  20.245  69.357  1.00  0.00    -0.374 C  
ENDBRANCH  22  23
ENDBRANCH  21  22
ENDBRANCH  20  21
ENDBRANCH  14  20
ENDBRANCH  13  14
ENDBRANCH  12  13
ENDBRANCH   6  12
ENDBRANCH   5   6
ENDBRANCH   4   5
ENDBRANCH   3   4
ENDBRANCH   2   3
TORSDOF 19
ENDMDL
MODEL        7
REMARK 921   NORMALIZED FREE ENERGY PREDICTED BY IDOCK:   -4.21 KCAL/MOL
REMARK 922        TOTAL FREE ENERGY PREDICTED BY IDOCK:  -10.14 KCAL/MOL
REMARK 923 INTER-LIGAND FREE ENERGY PREDICTED BY IDOCK:   -9.15 KCAL/MOL
REMARK 924 INTRA-LIGAND FREE ENERGY PREDICTED BY IDOCK:   -0.99 KCAL/MOL
REMARK 927      BINDING AFFINITY PREDICTED BY RF-SCORE:    0.00 PKD
ROOT
HETATM    1  C   UNL     1     -12.230  13.011  63.496  1.00  0.00    -0.580 C  
HETATM    2  C   UNL     1     -11.160  11.947  63.364  1.00  0.00    -0.383 C  
ENDROOT
BRANCH   2   3
HETATM    3  O   UNL     1     -10.982  11.283  64.618  1.00  0.00    -0.294 OA 
BRANCH   3   4
HETATM    4  C   UNL     1      -9.643  11.469  65.083  1.00  0.00    -0.210 C  
BRANCH   4   5
HETATM    5  C   UNL     1      -9.633  11.836  66.565  1.00  0.00    -0.210 C  
BRANCH   5   6
HETATM    6  P   UNL     1     -11.337  12.169  67.215  1.00  0.00    -0.346 P  
BRANCH   6   7
HETATM    7  C   UNL     1     -11.514  10.847  68.509  1.00  0.00    -0.310 C  
BRANCH   7   8
HETATM    8  C   UNL     1     -11.843  11.454  69.873  1.00  0.00    -0.359 C  
BRANCH   8   9
HETATM    9  O   UNL     1     -12.907  10.727  70.493  1.00  0.00    -0.326 OA 
BRANCH   9  10
HETATM   10  C   UNL     1     -12.391   9.867  71.510  1.00  0.00    -0.412 C  
HETATM   11  C   UNL     1     -13.539   9.221  72.257  1.00  0.00    -0.544 C  
ENDBRANCH   9  10
ENDBRANCH   8   9
ENDBRANCH   7   8
ENDBRANCH   6   7
BRANCH   6  12
HETATM   12  C   UNL     1     -11.007  13.606  68.344  1.00  0.00    -0.262 C  
BRANCH  12  13
HETATM   13  C   UNL     1     -10.905  14.932  67.605  1.00  0.00    -0.286 C  
BRANCH  13  14
HETATM   14  P   UNL     1     -10.852  16.394  68.741  1.00  0.00    -0.342 P  
BRANCH  14  15
HETATM   15  C   UNL     1     -10.758  15.586  70.410  1.00  0.00    -0.320 C  
BRANCH  15  16
HETATM   16  C   UNL     1     -11.905  16.053  71.310  1.00  0.00    -0.449 C  
BRANCH  16  17
HETATM   17  O   UNL     1     -13.149  15.515  70.852  1.00  0.00    -0.482 OA 
BRANCH  17  18
HETATM   18  C   UNL     1     -13.975  15.165  71.965  1.00  0.00    -0.526 C  
HETATM   19  C   UNL     1     -13.812  13.692  72.280  1.00  0.00    -0.689 C  
ENDBRANCH  17  18
ENDBRANCH  16  17
ENDBRANCH  15  16
ENDBRANCH  14  15
BRANCH  14  20
HETATM   20  C   UNL     1      -9.070  16.879  68.527  1.00  0.00    -0.257 C  
BRANCH  20  21
HETATM   21  C   UNL     1      -8.915  18.343  68.121  1.00  0.00    -0.309 C  
BRANCH  21  22
HETATM   22  O   UNL     1      -9.946  19.120  68.732  1.00  0.00    -0.401 OA 
BRANCH  22  23
HETATM   23  C   UNL     1     -10.376  20.166  67.857  1.00  0.00    -0.319 C  
HETATM   24  C   UNL     1      -9.592  20.085  66.563  1.00  0.00    -0.539 C  
ENDBRANCH  22  23
ENDBRANCH  21  22
ENDBRANCH  20  21
ENDBRANCH  14  20
ENDBRANCH  13  14
ENDBRANCH  12  13
ENDBRANCH   6  12
ENDBRANCH   5   6
ENDBRANCH   4   5
ENDBRANCH   3   4
ENDBRANCH   2   3
TORSDOF 19
ENDMDL
MODEL        8
REMARK 921   NORMALIZED FREE ENERGY PREDICTED BY IDOCK:   -4.19 KCAL/MOL
REMARK 922        TOTAL FREE ENERGY PREDICTED BY IDOCK:  -10.10 KCAL/MOL
REMARK 923 INTER-LIGAND FREE ENERGY PREDICTED BY IDOCK:   -9.36 KCAL/MOL
REMARK 924 INTRA-LIGAND FREE ENERGY PREDICTED BY IDOCK:   -0.73 KCAL/MOL
REMARK 927      BINDING AFFINITY PREDICTED BY RF-SCORE:    0.00 PKD
ROOT
HETATM    1  C   UNL     1     -11.012  11.987  63.512  1.00  0.00    -0.514 C  
HETATM    2  C   UNL     1     -12.523  12.004  63.406  1.00  0.00    -0.509 C  
ENDROOT
BRANCH   2   3
HETATM    3  O   UNL     1     -13.074  12.773  64.478  1.00  0.00    -0.743 OA 
BRANCH   3   4
HETATM    4  C   UNL     1     -12.188  13.843  64.818  1.00  0.00    -0.415 C  
BRANCH   4   5
HETATM    5  C   UNL     1     -12.281  14.168  66.307  1.00  0.00    -0.449 C  
BRANCH   5   6
HETATM    6  P   UNL     1     -10.609  14.349  67.088  1.00  0.00    -0.282 P  
BRANCH   6   7
HETATM    7  C   UNL     1     -10.728  16.042  67.848  1.00  0.00    -0.316 C  
BRANCH   7   8
HETATM    8  C   UNL     1      -9.367  16.737  67.852  1.00  0.00    -0.229 C  
BRANCH   8   9
HETATM    9  O   UNL     1      -9.339  17.772  66.866  1.00  0.00    -0.255 OA 
BRANCH   9  10
HETATM   10  C   UNL     1     -10.415  18.688  67.080  1.00  0.00    -0.407 C  
HETATM   11  C   UNL     1     -10.483  19.667  65.926  1.00  0.00    -0.591 C  
ENDBRANCH   9  10
ENDBRANCH   8   9
ENDBRANCH   7   8
ENDBRANCH   6   7
BRANCH   6  12
HETATM   12  C   UNL     1     -10.835  13.345  68.635  1.00  0.00    -0.263 C  
BRANCH  12  13
HETATM   13  C   UNL     1     -11.008  11.859  68.358  1.00  0.00    -0.232 C  
BRANCH  13  14
HETATM   14  P   UNL     1     -12.104  11.016  69.590  1.00  0.00    -0.243 P  
BRANCH  14  15
HETATM   15  C   UNL     1     -10.886  10.026  70.582  1.00  0.00    -0.297 C  
BRANCH  15  16
HETATM   16  C   UNL     1     -10.839   8.573  70.101  1.00  0.00    -0.233 C  
BRANCH  16  17
HETATM   17  O   UNL     1     -10.981   7.678  71.209  1.00  0.00    -0.235 OA 
BRANCH  17  18
HETATM   18  C   UNL     1     -11.374   6.383  70.749  1.00  0.00    -0.350 C  
HETATM   19  C   UNL     1     -10.702   6.084  69.425  1.00  0.00    -0.403 C  
ENDBRANCH  17  18
ENDBRANCH  16  17
ENDBRANCH  15  16
ENDBRANCH  14  15
BRANCH  14  20
HETATM   20  C   UNL     1     -12.387  12.430  70.762  1.00  0.00    -0.286 C  
BRANCH  20  21
HETATM   21  C   UNL     1     -13.356  12.064  71.885  1.00  0.00    -0.304 C  
BRANCH  21  22
HETATM   22  O   UNL     1     -13.571  13.201  72.721  1.00  0.00    -0.598 OA 
BRANCH  22  23
HETATM   23  C   UNL     1     -14.266  14.229  72.009  1.00  0.00    -0.542 C  
HETATM   24  C   UNL     1     -13.858  15.579  72.564  1.00  0.00    -0.669 C  
ENDBRANCH  22  23
ENDBRANCH  21  22
ENDBRANCH  20  21
ENDBRANCH  14  20
ENDBRANCH  13  14
ENDBRANCH  12  13
ENDBRANCH   6  12
ENDBRANCH   5   6
ENDBRANCH   4   5
ENDBRANCH   3   4
ENDBRANCH   2   3
TORSDOF 19
ENDMDL
MODEL        9
REMARK 921   NORMALIZED FREE ENERGY PREDICTED BY IDOCK:   -4.17 KCAL/MOL
REMARK 922        TOTAL FREE ENERGY PREDICTED BY IDOCK:  -10.05 KCAL/MOL
REMARK 923 INTER-LIGAND FREE ENERGY PREDICTED BY IDOCK:   -9.03 KCAL/MOL
REMARK 924 INTRA-LIGAND FREE ENERGY PREDICTED BY IDOCK:   -1.02 KCAL/MOL
REMARK 927      BINDING AFFINITY PREDICTED BY RF-SCORE:    0.00 PKD
ROOT
HETATM    1  C   UNL     1     -10.583  19.461  65.975  1.00  0.00    -0.573 C  
HETATM    2  C   UNL     1     -10.504  17.956  65.820  1.00  0.00    -0.196 C  
ENDROOT
BRANCH   2   3
HETATM    3  O   UNL     1     -11.173  17.559  64.620  1.00  0.00    -0.934 OA 
BRANCH   3   4
HETATM    4  C   UNL     1     -11.318  16.136  64.589  1.00  0.00    -0.282 C  
BRANCH   4   5
HETATM    5  C   UNL     1     -10.524  15.488  65.720  1.00  0.00    -0.361 C  
BRANCH   5   6
HETATM    6  P   UNL     1     -11.546  14.284  66.692  1.00  0.00    -0.402 P  
BRANCH   6   7
HETATM    7  C   UNL     1     -12.533  13.457  65.351  1.00  0.00    -0.494 C  
BRANCH   7   8
HETATM    8  C   UNL     1     -11.797  12.234  64.804  1.00  0.00    -0.364 C  
BRANCH   8   9
HETATM    9  O   UNL     1     -11.250  12.523  63.515  1.00  0.00    -0.446 OA 
BRANCH   9  10
HETATM   10  C   UNL     1     -10.082  11.734  63.285  1.00  0.00    -0.420 C  
HETATM   11  C   UNL     1     -10.017  10.615  64.305  1.00  0.00    -0.413 C  
ENDBRANCH   9  10
ENDBRANCH   8   9
ENDBRANCH   7   8
ENDBRANCH   6   7
BRANCH   6  12
HETATM   12  C   UNL     1     -10.309  12.931  66.987  1.00  0.00    -0.242 C  
BRANCH  12  13
HETATM   13  C   UNL     1     -10.306  12.433  68.425  1.00  0.00    -0.229 C  
BRANCH  13  14
HETATM   14  P   UNL     1     -11.805  11.430  68.848  1.00  0.00    -0.251 P  
BRANCH  14  15
HETATM   15  C   UNL     1     -11.053   9.868  69.513  1.00  0.00    -0.217 C  
BRANCH  15  16
HETATM   16  C   UNL     1     -11.724   9.451  70.823  1.00  0.00    -0.282 C  
BRANCH  16  17
HETATM   17  O   UNL     1     -10.742   9.253  71.845  1.00  0.00    -0.339 OA 
BRANCH  17  18
HETATM   18  C   UNL     1      -9.582   8.620  71.299  1.00  0.00    -0.225 C  
HETATM   19  C   UNL     1      -8.605   8.298  72.411  1.00  0.00    -0.270 C  
ENDBRANCH  17  18
ENDBRANCH  16  17
ENDBRANCH  15  16
ENDBRANCH  14  15
BRANCH  14  20
HETATM   20  C   UNL     1     -12.279  12.254  70.445  1.00  0.00    -0.288 C  
BRANCH  20  21
HETATM   21  C   UNL     1     -12.498  13.756  70.276  1.00  0.00    -0.289 C  
BRANCH  21  22
HETATM   22  O   UNL     1     -13.446  14.213  71.241  1.00  0.00    -0.333 OA 
BRANCH  22  23
HETATM   23  C   UNL     1     -13.228  15.592  71.551  1.00  0.00    -0.509 C  
HETATM   24  C   UNL     1     -13.230  15.769  73.056  1.00  0.00    -0.671 C  
ENDBRANCH  22  23
ENDBRANCH  21  22
ENDBRANCH  20  21
ENDBRANCH  14  20
ENDBRANCH  13  14
ENDBRANCH  12  13
ENDBRANCH   6  12
ENDBRANCH   5   6
ENDBRANCH   4   5
ENDBRANCH   3   4
ENDBRANCH   2   3
TORSDOF 19
ENDMDL
MODEL       10
REMARK 921   NORMALIZED FREE ENERGY PREDICTED BY IDOCK:   -4.16 KCAL/MOL
REMARK 922        TOTAL FREE ENERGY PREDICTED BY IDOCK:  -10.02 KCAL/MOL
REMARK 923 INTER-LIGAND FREE ENERGY PREDICTED BY IDOCK:   -9.06 KCAL/MOL
REMARK 924 INTRA-LIGAND FREE ENERGY PREDICTED BY IDOCK:   -0.96 KCAL/MOL
REMARK 927      BINDING AFFINITY PREDICTED BY RF-SCORE:    0.00 PKD
ROOT
HETATM    1  C   UNL     1     -10.625  19.384  67.464  1.00  0.00    -0.591 C  
HETATM    2  C   UNL     1     -10.243  19.306  66.001  1.00  0.00    -0.435 C  
ENDROOT
BRANCH   2   3
HETATM    3  O   UNL     1     -10.494  17.989  65.505  1.00  0.00    -0.636 OA 
BRANCH   3   4
HETATM    4  C   UNL     1     -10.274  17.026  66.540  1.00  0.00    -0.320 C  
BRANCH   4   5
HETATM    5  C   UNL     1     -10.282  15.610  65.970  1.00  0.00    -0.335 C  
BRANCH   5   6
HETATM    6  P   UNL     1     -11.418  14.485  66.908  1.00  0.00    -0.356 P  
BRANCH   6   7
HETATM    7  C   UNL     1     -12.655  14.020  65.600  1.00  0.00    -0.512 C  
BRANCH   7   8
HETATM    8  C   UNL     1     -12.250  14.582  64.238  1.00  0.00    -0.415 C  
BRANCH   8   9
HETATM    9  O   UNL     1     -12.429  13.591  63.223  1.00  0.00    -0.763 OA 
BRANCH   9  10
HETATM   10  C   UNL     1     -12.302  12.282  63.782  1.00  0.00    -0.538 C  
HETATM   11  C   UNL     1     -10.955  11.700  63.407  1.00  0.00    -0.442 C  
ENDBRANCH   9  10
ENDBRANCH   8   9
ENDBRANCH   7   8
ENDBRANCH   6   7
BRANCH   6  12
HETATM   12  C   UNL     1     -10.430  12.913  66.913  1.00  0.00    -0.246 C  
BRANCH  12  13
HETATM   13  C   UNL     1      -9.867  12.569  68.284  1.00  0.00    -0.227 C  
BRANCH  13  14
HETATM   14  P   UNL     1     -10.200  10.818  68.787  1.00  0.00    -0.209 P  
BRANCH  14  15
HETATM   15  C   UNL     1     -11.789  10.981  69.734  1.00  0.00    -0.347 C  
BRANCH  15  16
HETATM   16  C   UNL     1     -11.939   9.850  70.754  1.00  0.00    -0.323 C  
BRANCH  16  17
HETATM   17  O   UNL     1     -12.860  10.225  71.782  1.00  0.00    -0.411 OA 
BRANCH  17  18
HETATM   18  C   UNL     1     -13.362   9.062  72.445  1.00  0.00    -0.460 C  
HETATM   19  C   UNL     1     -14.402   8.388  71.575  1.00  0.00    -0.499 C  
ENDBRANCH  17  18
ENDBRANCH  16  17
ENDBRANCH  15  16
ENDBRANCH  14  15
BRANCH  14  20
HETATM   20  C   UNL     1     -10.860  10.161  67.178  1.00  0.00    -0.189 C  
BRANCH  20  21
HETATM   21  C   UNL     1     -10.009   9.019  66.629  1.00  0.00    -0.278 C  
BRANCH  21  22
HETATM   22  O   UNL     1      -9.564   9.344  65.312  1.00  0.00    -0.269 OA 
BRANCH  22  23
HETATM   23  C   UNL     1      -8.181   9.020  65.150  1.00  0.00    -0.145 C  
HETATM   24  C   UNL     1      -7.345  10.009  65.938  1.00  0.00    -0.115 C  
ENDBRANCH  22  23
ENDBRANCH  21  22
ENDBRANCH  20  21
ENDBRANCH  14  20
ENDBRANCH  13  14
ENDBRANCH  12  13
ENDBRANCH   6  12
ENDBRANCH   5   6
ENDBRANCH   4   5
ENDBRANCH   3   4
ENDBRANCH   2   3
TORSDOF 19
ENDMDL
MODEL       11
REMARK 921   NORMALIZED FREE ENERGY PREDICTED BY IDOCK:   -4.15 KCAL/MOL
REMARK 922        TOTAL FREE ENERGY PREDICTED BY IDOCK:  -10.02 KCAL/MOL
REMARK 923 INTER-LIGAND FREE ENERGY PREDICTED BY IDOCK:   -8.80 KCAL/MOL
REMARK 924 INTRA-LIGAND FREE ENERGY PREDICTED BY IDOCK:   -1.22 KCAL/MOL
REMARK 927      BINDING AFFINITY PREDICTED BY RF-SCORE:    0.00 PKD
ROOT
HETATM    1  C   UNL     1     -10.975  12.111  63.417  1.00  0.00    -0.480 C  
HETATM    2  C   UNL     1     -12.489  12.109  63.447  1.00  0.00    -0.512 C  
ENDROOT
BRANCH   2   3
HETATM    3  O   UNL     1     -12.946  12.496  64.746  1.00  0.00    -0.827 OA 
BRANCH   3   4
HETATM    4  C   UNL     1     -12.392  13.765  65.102  1.00  0.00    -0.448 C  
BRANCH   4   5
HETATM    5  C   UNL     1     -12.310  13.912  66.619  1.00  0.00    -0.369 C  
BRANCH   5   6
HETATM    6  P   UNL     1     -10.894  14.989  67.142  1.00  0.00    -0.322 P  
BRANCH   6   7
HETATM    7  C   UNL     1     -11.625  15.900  68.588  1.00  0.00    -0.380 C  
BRANCH   7   8
HETATM    8  C   UNL     1     -11.415  15.124  69.888  1.00  0.00    -0.288 C  
BRANCH   8   9
HETATM    9  O   UNL     1     -11.855  15.903  71.004  1.00  0.00    -0.374 OA 
BRANCH   9  10
HETATM   10  C   UNL     1     -12.404  15.054  72.014  1.00  0.00    -0.347 C  
HETATM   11  C   UNL     1     -13.917  15.100  71.946  1.00  0.00    -0.629 C  
ENDBRANCH   9  10
ENDBRANCH   8   9
ENDBRANCH   7   8
ENDBRANCH   6   7
BRANCH   6  12
HETATM   12  C   UNL     1      -9.859  13.771  68.089  1.00  0.00    -0.239 C  
BRANCH  12  13
HETATM   13  C   UNL     1      -9.366  12.617  67.230  1.00  0.00    -0.195 C  
BRANCH  13  14
HETATM   14  P   UNL     1      -9.761  10.956  67.951  1.00  0.00    -0.173 P  
BRANCH  14  15
HETATM   15  C   UNL     1     -11.455  11.232  68.658  1.00  0.00    -0.297 C  
BRANCH  15  16
HETATM   16  C   UNL     1     -11.509  10.819  70.131  1.00  0.00    -0.331 C  
BRANCH  16  17
HETATM   17  O   UNL     1     -12.429  11.648  70.847  1.00  0.00    -0.376 OA 
BRANCH  17  18
HETATM   18  C   UNL     1     -13.137  10.874  71.819  1.00  0.00    -0.459 C  
HETATM   19  C   UNL     1     -12.803   9.407  71.647  1.00  0.00    -0.461 C  
ENDBRANCH  17  18
ENDBRANCH  16  17
ENDBRANCH  15  16
ENDBRANCH  14  15
BRANCH  14  20
HETATM   20  C   UNL     1     -10.215  10.050  66.393  1.00  0.00    -0.221 C  
BRANCH  20  21
HETATM   21  C   UNL     1     -10.229   8.535  66.590  1.00  0.00    -0.275 C  
BRANCH  21  22
HETATM   22  O   UNL     1      -9.854   8.224  67.932  1.00  0.00    -0.156 OA 
BRANCH  22  23
HETATM   23  C   UNL     1     -10.600   7.105  68.419  1.00  0.00    -0.186 C  
HETATM   24  C   UNL     1     -10.987   6.220  67.251  1.00  0.00    -0.455 C  
ENDBRANCH  22  23
ENDBRANCH  21  22
ENDBRANCH  20  21
ENDBRANCH  14  20
ENDBRANCH  13  14
ENDBRANCH  12  13
ENDBRANCH   6  12
ENDBRANCH   5   6
ENDBRANCH   4   5
ENDBRANCH   3   4
ENDBRANCH   2   3
TORSDOF 19
ENDMDL
MODEL       12
REMARK 921   NORMALIZED FREE ENERGY PREDICTED BY IDOCK:   -4.15 KCAL/MOL
REMARK 922        TOTAL FREE ENERGY PREDICTED BY IDOCK:  -10.01 KCAL/MOL
REMARK 923 INTER-LIGAND FREE ENERGY PREDICTED BY IDOCK:   -9.12 KCAL/MOL
REMARK 924 INTRA-LIGAND FREE ENERGY PREDICTED BY IDOCK:   -0.89 KCAL/MOL
REMARK 927      BINDING AFFINITY PREDICTED BY RF-SCORE:    0.00 PKD
ROOT
HETATM    1  C   UNL     1     -12.705  11.785  63.801  1.00  0.00    -0.369 C  
HETATM    2  C   UNL     1     -11.868  12.914  63.235  1.00  0.00    -0.398 C  
ENDROOT
BRANCH   2   3
HETATM    3  O   UNL     1     -12.559  14.155  63.395  1.00  0.00    -0.818 OA 
BRANCH   3   4
HETATM    4  C   UNL     1     -12.298  14.698  64.692  1.00  0.00    -0.375 C  
BRANCH   4   5
HETATM    5  C   UNL     1     -10.796  14.761  64.958  1.00  0.00    -0.425 C  
BRANCH   5   6
HETATM    6  P   UNL     1     -10.389  14.479  66.745  1.00  0.00    -0.279 P  
BRANCH   6   7
HETATM    7  C   UNL     1     -10.521  16.198  67.440  1.00  0.00    -0.310 C  
BRANCH   7   8
HETATM    8  C   UNL     1      -9.984  17.232  66.450  1.00  0.00    -0.311 C  
BRANCH   8   9
HETATM    9  O   UNL     1     -10.678  18.472  66.608  1.00  0.00    -0.362 OA 
BRANCH   9  10
HETATM   10  C   UNL     1      -9.747  19.537  66.815  1.00  0.00    -0.366 C  
HETATM   11  C   UNL     1      -9.704  19.892  68.287  1.00  0.00    -0.479 C  
ENDBRANCH   9  10
ENDBRANCH   8   9
ENDBRANCH   7   8
ENDBRANCH   6   7
BRANCH   6  12
HETATM   12  C   UNL     1     -12.006  13.813  67.372  1.00  0.00    -0.388 C  
BRANCH  12  13
HETATM   13  C   UNL     1     -11.894  12.396  67.913  1.00  0.00    -0.308 C  
BRANCH  13  14
HETATM   14  P   UNL     1     -11.361  12.338  69.687  1.00  0.00     0.022 P  
BRANCH  14  15
HETATM   15  C   UNL     1     -12.528  13.542  70.484  1.00  0.00    -0.302 C  
BRANCH  15  16
HETATM   16  C   UNL     1     -11.885  14.926  70.611  1.00  0.00    -0.301 C  
BRANCH  16  17
HETATM   17  O   UNL     1     -11.484  15.165  71.963  1.00  0.00    -0.420 OA 
BRANCH  17  18
HETATM   18  C   UNL     1     -12.590  14.974  72.849  1.00  0.00    -0.410 C  
HETATM   19  C   UNL     1     -12.402  15.820  74.091  1.00  0.00    -0.771 C  
ENDBRANCH  17  18
ENDBRANCH  16  17
ENDBRANCH  15  16
ENDBRANCH  14  15
BRANCH  14  20
HETATM   20  C   UNL     1     -12.165  10.740  70.193  1.00  0.00    -0.346 C  
BRANCH  20  21
HETATM   21  C   UNL     1     -12.951  10.877  71.495  1.00  0.00    -0.451 C  
BRANCH  21  22
HETATM   22  O   UNL     1     -13.228   9.581  72.025  1.00  0.00    -0.392 OA 
BRANCH  22  23
HETATM   23  C   UNL     1     -12.651   8.564  71.202  1.00  0.00    -0.144 C  
HETATM   24  C   UNL     1     -13.231   7.220  71.594  1.00  0.00    -0.421 C  
ENDBRANCH  22  23
ENDBRANCH  21  22
ENDBRANCH  20  21
ENDBRANCH  14  20
ENDBRANCH  13  14
ENDBRANCH  12  13
ENDBRANCH   6  12
ENDBRANCH   5   6
ENDBRANCH   4   5
ENDBRANCH   3   4
ENDBRANCH   2   3
TORSDOF 19
ENDMDL
MODEL       13
REMARK 921   NORMALIZED FREE ENERGY PREDICTED BY IDOCK:   -4.15 KCAL/MOL
REMARK 922        TOTAL FREE ENERGY PREDICTED BY IDOCK:  -10.00 KCAL/MOL
REMARK 923 INTER-LIGAND FREE ENERGY PREDICTED BY IDOCK:   -9.07 KCAL/MOL
REMARK 924 INTRA-LIGAND FREE ENERGY PREDICTED BY IDOCK:   -0.93 KCAL/MOL
REMARK 927      BINDING AFFINITY PREDICTED BY RF-SCORE:    0.00 PKD
ROOT
HETATM    1  C   UNL     1      -9.720  20.599  67.261  1.00  0.00    -0.562 C  
HETATM    2  C   UNL     1      -9.451  19.187  66.786  1.00  0.00    -0.330 C  
ENDROOT
BRANCH   2   3
HETATM    3  O   UNL     1      -9.168  18.345  67.907  1.00  0.00    -0.273 OA 
BRANCH   3   4
HETATM    4  C   UNL     1      -8.508  17.154  67.471  1.00  0.00    -0.198 C  
BRANCH   4   5
HETATM    5  C   UNL     1      -9.186  16.587  66.225  1.00  0.00    -0.310 C  
BRANCH   5   6
HETATM    6  P   UNL     1     -10.598  15.463  66.648  1.00  0.00    -0.302 P  
BRANCH   6   7
HETATM    7  C   UNL     1     -11.251  15.025  64.963  1.00  0.00    -0.409 C  
BRANCH   7   8
HETATM    8  C   UNL     1     -11.475  13.519  64.836  1.00  0.00    -0.334 C  
BRANCH   8   9
HETATM    9  O   UNL     1     -12.630  13.258  64.035  1.00  0.00    -0.645 OA 
BRANCH   9  10
HETATM   10  C   UNL     1     -12.456  12.049  63.294  1.00  0.00    -0.425 C  
HETATM   11  C   UNL     1     -11.015  11.593  63.400  1.00  0.00    -0.442 C  
ENDBRANCH   9  10
ENDBRANCH   8   9
ENDBRANCH   7   8
ENDBRANCH   6   7
BRANCH   6  12
HETATM   12  C   UNL     1      -9.693  13.881  67.003  1.00  0.00    -0.250 C  
BRANCH  12  13
HETATM   13  C   UNL     1      -9.965  13.342  68.400  1.00  0.00    -0.226 C  
BRANCH  13  14
HETATM   14  P   UNL     1     -11.773  13.185  68.777  1.00  0.00    -0.315 P  
BRANCH  14  15
HETATM   15  C   UNL     1     -11.919  11.394  69.243  1.00  0.00    -0.332 C  
BRANCH  15  16
HETATM   16  C   UNL     1     -12.313  11.240  70.714  1.00  0.00    -0.398 C  
BRANCH  16  17
HETATM   17  O   UNL     1     -13.168  10.105  70.884  1.00  0.00    -0.395 OA 
BRANCH  17  18
HETATM   18  C   UNL     1     -12.752   9.339  72.017  1.00  0.00    -0.401 C  
HETATM   19  C   UNL     1     -11.956   8.136  71.557  1.00  0.00    -0.334 C  
ENDBRANCH  17  18
ENDBRANCH  16  17
ENDBRANCH  15  16
ENDBRANCH  14  15
BRANCH  14  20
HETATM   20  C   UNL     1     -11.796  13.952  70.470  1.00  0.00    -0.247 C  
BRANCH  20  21
HETATM   21  C   UNL     1     -12.740  15.150  70.548  1.00  0.00    -0.368 C  
BRANCH  21  22
HETATM   22  O   UNL     1     -13.726  14.918  71.554  1.00  0.00    -0.384 OA 
BRANCH  22  23
HETATM   23  C   UNL     1     -13.108  14.627  72.810  1.00  0.00    -0.486 C  
HETATM   24  C   UNL     1     -12.673  15.925  73.462  1.00  0.00    -0.701 C  
ENDBRANCH  22  23
ENDBRANCH  21  22
ENDBRANCH  20  21
ENDBRANCH  14  20
ENDBRANCH  13  14
ENDBRANCH  12  13
ENDBRANCH   6  12
ENDBRANCH   5   6
ENDBRANCH   4   5
ENDBRANCH   3   4
ENDBRANCH   2   3
TORSDOF 19
ENDMDL
MODEL       14
REMARK 921   NORMALIZED FREE ENERGY PREDICTED BY IDOCK:   -4.14 KCAL/MOL
REMARK 922        TOTAL FREE ENERGY PREDICTED BY IDOCK:  -10.00 KCAL/MOL
REMARK 923 INTER-LIGAND FREE ENERGY PREDICTED BY IDOCK:   -8.99 KCAL/MOL
REMARK 924 INTRA-LIGAND FREE ENERGY PREDICTED BY IDOCK:   -1.01 KCAL/MOL
REMARK 927      BINDING AFFINITY PREDICTED BY RF-SCORE:    0.00 PKD
ROOT
HETATM    1  C   UNL     1      -8.710  19.784  66.407  1.00  0.00    -0.412 C  
HETATM    2  C   UNL     1      -9.988  20.353  66.989  1.00  0.00    -0.428 C  
ENDROOT
BRANCH   2   3
HETATM    3  O   UNL     1     -10.885  19.289  67.316  1.00  0.00    -0.479 OA 
BRANCH   3   4
HETATM    4  C   UNL     1     -10.243  18.361  68.194  1.00  0.00    -0.384 C  
BRANCH   4   5
HETATM    5  C   UNL     1     -10.657  16.929  67.863  1.00  0.00    -0.361 C  
BRANCH   5   6
HETATM    6  P   UNL     1     -10.336  15.765  69.270  1.00  0.00    -0.288 P  
BRANCH   6   7
HETATM    7  C   UNL     1     -12.058  15.442  69.894  1.00  0.00    -0.355 C  
BRANCH   7   8
HETATM    8  C   UNL     1     -12.206  15.887  71.349  1.00  0.00    -0.448 C  
BRANCH   8   9
HETATM    9  O   UNL     1     -13.469  15.464  71.867  1.00  0.00    -0.405 OA 
BRANCH   9  10
HETATM   10  C   UNL     1     -13.285  14.709  73.066  1.00  0.00    -0.485 C  
HETATM   11  C   UNL     1     -12.417  15.493  74.029  1.00  0.00    -0.789 C  
ENDBRANCH   9  10
ENDBRANCH   8   9
ENDBRANCH   7   8
ENDBRANCH   6   7
BRANCH   6  12
HETATM   12  C   UNL     1     -10.081  14.170  68.354  1.00  0.00    -0.238 C  
BRANCH  12  13
HETATM   13  C   UNL     1     -11.252  13.809  67.453  1.00  0.00    -0.310 C  
BRANCH  13  14
HETATM   14  P   UNL     1     -11.633  11.995  67.451  1.00  0.00    -0.221 P  
BRANCH  14  15
HETATM   15  C   UNL     1      -9.987  11.253  67.022  1.00  0.00    -0.198 C  
BRANCH  15  16
HETATM   16  C   UNL     1      -9.626  11.527  65.559  1.00  0.00    -0.227 C  
BRANCH  16  17
HETATM   17  O   UNL     1     -10.731  11.213  64.707  1.00  0.00    -0.314 OA 
BRANCH  17  18
HETATM   18  C   UNL     1     -10.788  12.131  63.612  1.00  0.00    -0.464 C  
HETATM   19  C   UNL     1     -12.105  12.878  63.640  1.00  0.00    -0.611 C  
ENDBRANCH  17  18
ENDBRANCH  16  17
ENDBRANCH  15  16
ENDBRANCH  14  15
BRANCH  14  20
HETATM   20  C   UNL     1     -11.647  11.687  69.284  1.00  0.00    -0.320 C  
BRANCH  20  21
HETATM   21  C   UNL     1     -10.598  10.660  69.705  1.00  0.00    -0.217 C  
BRANCH  21  22
HETATM   22  O   UNL     1     -11.074   9.925  70.832  1.00  0.00    -0.319 OA 
BRANCH  22  23
HETATM   23  C   UNL     1     -12.493   9.765  70.770  1.00  0.00    -0.213 C  
HETATM   24  C   UNL     1     -13.019   9.454  72.157  1.00  0.00    -0.503 C  
ENDBRANCH  22  23
ENDBRANCH  21  22
ENDBRANCH  20  21
ENDBRANCH  14  20
ENDBRANCH  13  14
ENDBRANCH  12  13
ENDBRANCH   6  12
ENDBRANCH   5   6
ENDBRANCH   4   5
ENDBRANCH   3   4
ENDBRANCH   2   3
TORSDOF 19
ENDMDL
MODEL       15
REMARK 921   NORMALIZED FREE ENERGY PREDICTED BY IDOCK:   -4.14 KCAL/MOL
REMARK 922        TOTAL FREE ENERGY PREDICTED BY IDOCK:  -10.00 KCAL/MOL
REMARK 923 INTER-LIGAND FREE ENERGY PREDICTED BY IDOCK:   -9.13 KCAL/MOL
REMARK 924 INTRA-LIGAND FREE ENERGY PREDICTED BY IDOCK:   -0.87 KCAL/MOL
REMARK 927      BINDING AFFINITY PREDICTED BY RF-SCORE:    0.00 PKD
ROOT
HETATM    1  C   UNL     1     -10.608  19.393  65.838  1.00  0.00    -0.551 C  
HETATM    2  C   UNL     1     -10.512  17.882  65.857  1.00  0.00    -0.253 C  
ENDROOT
BRANCH   2   3
HETATM    3  O   UNL     1     -11.067  17.348  64.652  1.00  0.00    -1.029 OA 
BRANCH   3   4
HETATM    4  C   UNL     1     -11.226  15.932  64.773  1.00  0.00    -0.355 C  
BRANCH   4   5
HETATM    5  C   UNL     1     -10.198  15.353  65.741  1.00  0.00    -0.354 C  
BRANCH   5   6
HETATM    6  P   UNL     1     -10.995  14.551  67.211  1.00  0.00    -0.325 P  
BRANCH   6   7
HETATM    7  C   UNL     1     -12.514  13.795  66.452  1.00  0.00    -0.355 C  
BRANCH   7   8
HETATM    8  C   UNL     1     -12.164  12.528  65.671  1.00  0.00    -0.335 C  
BRANCH   8   9
HETATM    9  O   UNL     1     -12.969  12.437  64.493  1.00  0.00    -0.770 OA 
BRANCH   9  10
HETATM   10  C   UNL     1     -12.140  12.375  63.331  1.00  0.00    -0.524 C  
HETATM   11  C   UNL     1     -10.688  12.522  63.736  1.00  0.00    -0.483 C  
ENDBRANCH   9  10
ENDBRANCH   8   9
ENDBRANCH   7   8
ENDBRANCH   6   7
BRANCH   6  12
HETATM   12  C   UNL     1      -9.975  13.007  67.364  1.00  0.00    -0.228 C  
BRANCH  12  13
HETATM   13  C   UNL     1     -10.015  12.405  68.761  1.00  0.00    -0.026 C  
BRANCH  13  14
HETATM   14  P   UNL     1     -10.935  10.799  68.833  1.00  0.00    -0.285 P  
BRANCH  14  15
HETATM   15  C   UNL     1      -9.757   9.718  69.777  1.00  0.00    -0.229 C  
BRANCH  15  16
HETATM   16  C   UNL     1      -9.760   8.290  69.224  1.00  0.00    -0.177 C  
BRANCH  16  17
HETATM   17  O   UNL     1     -11.011   7.653  69.498  1.00  0.00    -0.204 OA 
BRANCH  17  18
HETATM   18  C   UNL     1     -11.038   7.176  70.845  1.00  0.00    -0.263 C  
HETATM   19  C   UNL     1     -12.433   7.331  71.415  1.00  0.00    -0.418 C  
ENDBRANCH  17  18
ENDBRANCH  16  17
ENDBRANCH  15  16
ENDBRANCH  14  15
BRANCH  14  20
HETATM   20  C   UNL     1     -12.144  11.202  70.186  1.00  0.00    -0.362 C  
BRANCH  20  21
HETATM   21  C   UNL     1     -12.213  12.701  70.469  1.00  0.00    -0.299 C  
BRANCH  21  22
HETATM   22  O   UNL     1     -13.086  12.940  71.573  1.00  0.00    -0.374 OA 
BRANCH  22  23
HETATM   23  C   UNL     1     -12.883  14.252  72.105  1.00  0.00    -0.344 C  
HETATM   24  C   UNL     1     -13.600  15.259  71.228  1.00  0.00    -0.584 C  
ENDBRANCH  22  23
ENDBRANCH  21  22
ENDBRANCH  20  21
ENDBRANCH  14  20
ENDBRANCH  13  14
ENDBRANCH  12  13
ENDBRANCH   6  12
ENDBRANCH   5   6
ENDBRANCH   4   5
ENDBRANCH   3   4
ENDBRANCH   2   3
TORSDOF 19
ENDMDL
MODEL       16
REMARK 921   NORMALIZED FREE ENERGY PREDICTED BY IDOCK:   -4.14 KCAL/MOL
REMARK 922        TOTAL FREE ENERGY PREDICTED BY IDOCK:   -9.98 KCAL/MOL
REMARK 923 INTER-LIGAND FREE ENERGY PREDICTED BY IDOCK:   -9.21 KCAL/MOL
REMARK 924 INTRA-LIGAND FREE ENERGY PREDICTED BY IDOCK:   -0.77 KCAL/MOL
REMARK 927      BINDING AFFINITY PREDICTED BY RF-SCORE:    0.00 PKD
ROOT
HETATM    1  C   UNL     1     -11.343   6.448  69.866  1.00  0.00    -0.500 C  
HETATM    2  C   UNL     1     -11.542   6.910  71.295  1.00  0.00    -0.310 C  
ENDROOT
BRANCH   2   3
HETATM    3  O   UNL     1     -10.828   8.130  71.512  1.00  0.00    -0.226 OA 
BRANCH   3   4
HETATM    4  C   UNL     1     -11.741   9.230  71.553  1.00  0.00    -0.380 C  
BRANCH   4   5
HETATM    5  C   UNL     1     -11.296  10.336  70.600  1.00  0.00    -0.347 C  
BRANCH   5   6
HETATM    6  P   UNL     1     -12.660  11.539  70.240  1.00  0.00     0.029 P  
BRANCH   6   7
HETATM    7  C   UNL     1     -13.244  11.973  71.951  1.00  0.00    -0.364 C  
BRANCH   7   8
HETATM    8  C   UNL     1     -13.920  13.344  71.968  1.00  0.00    -0.324 C  
BRANCH   8   9
HETATM    9  O   UNL     1     -13.425  14.124  73.059  1.00  0.00    -0.661 OA 
BRANCH   9  10
HETATM   10  C   UNL     1     -13.493  15.516  72.744  1.00  0.00    -0.557 C  
HETATM   11  C   UNL     1     -12.097  16.046  72.488  1.00  0.00    -0.635 C  
ENDBRANCH   9  10
ENDBRANCH   8   9
ENDBRANCH   7   8
ENDBRANCH   6   7
BRANCH   6  12
HETATM   12  C   UNL     1     -11.685  13.081  69.891  1.00  0.00    -0.256 C  
BRANCH  12  13
HETATM   13  C   UNL     1     -11.185  13.155  68.456  1.00  0.00    -0.272 C  
BRANCH  13  14
HETATM   14  P   UNL     1     -11.495  14.801  67.663  1.00  0.00    -0.332 P  
BRANCH  14  15
HETATM   15  C   UNL     1     -10.163  15.852  68.417  1.00  0.00    -0.226 C  
BRANCH  15  16
HETATM   16  C   UNL     1     -10.390  17.333  68.104  1.00  0.00    -0.357 C  
BRANCH  16  17
HETATM   17  O   UNL     1      -9.768  17.681  66.864  1.00  0.00    -0.270 OA 
BRANCH  17  18
HETATM   18  C   UNL     1     -10.446  18.787  66.264  1.00  0.00    -0.435 C  
HETATM   19  C   UNL     1     -10.251  20.027  67.111  1.00  0.00    -0.580 C  
ENDBRANCH  17  18
ENDBRANCH  16  17
ENDBRANCH  15  16
ENDBRANCH  14  15
BRANCH  14  20
HETATM   20  C   UNL     1     -10.737  14.481  65.997  1.00  0.00    -0.305 C  
BRANCH  20  21
HETATM   21  C   UNL     1     -11.626  14.969  64.855  1.00  0.00    -0.374 C  
BRANCH  21  22
HETATM   22  O   UNL     1     -12.586  13.963  64.533  1.00  0.00    -0.629 OA 
BRANCH  22  23
HETATM   23  C   UNL     1     -12.187  13.238  63.367  1.00  0.00    -0.403 C  
HETATM   24  C   UNL     1     -12.782  11.845  63.421  1.00  0.00    -0.496 C  
ENDBRANCH  22  23
ENDBRANCH  21  22
ENDBRANCH  20  21
ENDBRANCH  14  20
ENDBRANCH  13  14
ENDBRANCH  12  13
ENDBRANCH   6  12
ENDBRANCH   5   6
ENDBRANCH   4   5
ENDBRANCH   3   4
ENDBRANCH   2   3
TORSDOF 19
ENDMDL
MODEL       17
REMARK 921   NORMALIZED FREE ENERGY PREDICTED BY IDOCK:   -4.13 KCAL/MOL
REMARK 922        TOTAL FREE ENERGY PREDICTED BY IDOCK:   -9.97 KCAL/MOL
REMARK 923 INTER-LIGAND FREE ENERGY PREDICTED BY IDOCK:   -9.04 KCAL/MOL
REMARK 924 INTRA-LIGAND FREE ENERGY PREDICTED BY IDOCK:   -0.93 KCAL/MOL
REMARK 927      BINDING AFFINITY PREDICTED BY RF-SCORE:    0.00 PKD
ROOT
HETATM    1  C   UNL     1      -9.288  10.109  64.156  1.00  0.00    -0.340 C  
HETATM    2  C   UNL     1      -9.258  10.932  62.885  1.00  0.00    -0.332 C  
ENDROOT
BRANCH   2   3
HETATM    3  O   UNL     1     -10.241  11.968  62.956  1.00  0.00    -0.343 OA 
BRANCH   3   4
HETATM    4  C   UNL     1     -11.214  11.650  63.954  1.00  0.00    -0.397 C  
BRANCH   4   5
HETATM    5  C   UNL     1     -12.075  12.869  64.276  1.00  0.00    -0.419 C  
BRANCH   5   6
HETATM    6  P   UNL     1     -12.015  13.312  66.076  1.00  0.00    -0.436 P  
BRANCH   6   7
HETATM    7  C   UNL     1     -11.346  11.749  66.828  1.00  0.00    -0.320 C  
BRANCH   7   8
HETATM    8  C   UNL     1     -11.276  11.860  68.351  1.00  0.00    -0.258 C  
BRANCH   8   9
HETATM    9  O   UNL     1     -12.300  11.061  68.951  1.00  0.00    -0.516 OA 
BRANCH   9  10
HETATM   10  C   UNL     1     -12.484  11.437  70.317  1.00  0.00    -0.232 C  
HETATM   11  C   UNL     1     -12.918  10.228  71.120  1.00  0.00    -0.503 C  
ENDBRANCH   9  10
ENDBRANCH   8   9
ENDBRANCH   7   8
ENDBRANCH   6   7
BRANCH   6  12
HETATM   12  C   UNL     1     -10.459  14.324  66.136  1.00  0.00    -0.292 C  
BRANCH  12  13
HETATM   13  C   UNL     1     -10.671  15.703  66.744  1.00  0.00    -0.300 C  
BRANCH  13  14
HETATM   14  P   UNL     1     -10.372  15.743  68.573  1.00  0.00    -0.248 P  
BRANCH  14  15
HETATM   15  C   UNL     1     -10.074  17.549  68.879  1.00  0.00    -0.346 C  
BRANCH  15  16
HETATM   16  C   UNL     1     -10.282  18.364  67.599  1.00  0.00    -0.379 C  
BRANCH  16  17
HETATM   17  O   UNL     1      -9.246  19.341  67.458  1.00  0.00    -0.292 OA 
BRANCH  17  18
HETATM   18  C   UNL     1      -8.307  19.225  68.530  1.00  0.00    -0.366 C  
HETATM   19  C   UNL     1      -7.081  20.061  68.228  1.00  0.00    -0.323 C  
ENDBRANCH  17  18
ENDBRANCH  16  17
ENDBRANCH  15  16
ENDBRANCH  14  15
BRANCH  14  20
HETATM   20  C   UNL     1     -12.128  15.609  69.169  1.00  0.00    -0.227 C  
BRANCH  20  21
HETATM   21  C   UNL     1     -12.227  15.682  70.691  1.00  0.00    -0.405 C  
BRANCH  21  22
HETATM   22  O   UNL     1     -13.595  15.594  71.086  1.00  0.00    -0.582 OA 
BRANCH  22  23
HETATM   23  C   UNL     1     -13.718  15.678  72.509  1.00  0.00    -0.563 C  
HETATM   24  C   UNL     1     -12.350  15.929  73.111  1.00  0.00    -0.619 C  
ENDBRANCH  22  23
ENDBRANCH  21  22
ENDBRANCH  20  21
ENDBRANCH  14  20
ENDBRANCH  13  14
ENDBRANCH  12  13
ENDBRANCH   6  12
ENDBRANCH   5   6
ENDBRANCH   4   5
ENDBRANCH   3   4
ENDBRANCH   2   3
TORSDOF 19
ENDMDL
MODEL       18
REMARK 921   NORMALIZED FREE ENERGY PREDICTED BY IDOCK:   -4.13 KCAL/MOL
REMARK 922        TOTAL FREE ENERGY PREDICTED BY IDOCK:   -9.97 KCAL/MOL
REMARK 923 INTER-LIGAND FREE ENERGY PREDICTED BY IDOCK:   -8.87 KCAL/MOL
REMARK 924 INTRA-LIGAND FREE ENERGY PREDICTED BY IDOCK:   -1.10 KCAL/MOL
REMARK 927      BINDING AFFINITY PREDICTED BY RF-SCORE:    0.00 PKD
ROOT
HETATM    1  C   UNL     1     -10.989  11.643  63.620  1.00  0.00    -0.507 C  
HETATM    2  C   UNL     1     -12.487  11.797  63.461  1.00  0.00    -0.389 C  
ENDROOT
BRANCH   2   3
HETATM    3  O   UNL     1     -12.998  12.643  64.495  1.00  0.00    -0.744 OA 
BRANCH   3   4
HETATM    4  C   UNL     1     -11.918  13.214  65.238  1.00  0.00    -0.398 C  
BRANCH   4   5
HETATM    5  C   UNL     1     -12.389  13.655  66.622  1.00  0.00    -0.331 C  
BRANCH   5   6
HETATM    6  P   UNL     1     -11.287  13.019  67.971  1.00  0.00    -0.336 P  
BRANCH   6   7
HETATM    7  C   UNL     1     -10.762  11.372  67.287  1.00  0.00    -0.241 C  
BRANCH   7   8
HETATM    8  C   UNL     1     -10.455  10.384  68.412  1.00  0.00    -0.189 C  
BRANCH   8   9
HETATM    9  O   UNL     1     -10.827  10.944  69.674  1.00  0.00    -0.245 OA 
BRANCH   9  10
HETATM   10  C   UNL     1     -11.524   9.974  70.459  1.00  0.00    -0.330 C  
HETATM   11  C   UNL     1     -12.817  10.573  70.971  1.00  0.00    -0.502 C  
ENDBRANCH   9  10
ENDBRANCH   8   9
ENDBRANCH   7   8
ENDBRANCH   6   7
BRANCH   6  12
HETATM   12  C   UNL     1      -9.726  13.963  67.623  1.00  0.00    -0.226 C  
BRANCH  12  13
HETATM   13  C   UNL     1      -9.173  14.669  68.852  1.00  0.00    -0.151 C  
BRANCH  13  14
HETATM   14  P   UNL     1      -9.731  16.431  68.989  1.00  0.00    -0.232 P  
BRANCH  14  15
HETATM   15  C   UNL     1     -10.237  16.814  67.244  1.00  0.00    -0.292 C  
BRANCH  15  16
HETATM   16  C   UNL     1     -10.752  18.251  67.125  1.00  0.00    -0.305 C  
BRANCH  16  17
HETATM   17  O   UNL     1     -10.230  19.056  68.187  1.00  0.00    -0.369 OA 
BRANCH  17  18
HETATM   18  C   UNL     1      -9.736  20.294  67.671  1.00  0.00    -0.417 C  
HETATM   19  C   UNL     1      -8.265  20.158  67.335  1.00  0.00    -0.385 C  
ENDBRANCH  17  18
ENDBRANCH  16  17
ENDBRANCH  15  16
ENDBRANCH  14  15
BRANCH  14  20
HETATM   20  C   UNL     1     -11.406  16.159  69.748  1.00  0.00    -0.323 C  
BRANCH  20  21
HETATM   21  C   UNL     1     -11.314  15.750  71.217  1.00  0.00    -0.376 C  
BRANCH  21  22
HETATM   22  O   UNL     1     -12.515  16.122  71.893  1.00  0.00    -0.452 OA 
BRANCH  22  23
HETATM   23  C   UNL     1     -13.598  15.272  71.505  1.00  0.00    -0.504 C  
HETATM   24  C   UNL     1     -13.543  13.995  72.319  1.00  0.00    -0.622 C  
ENDBRANCH  22  23
ENDBRANCH  21  22
ENDBRANCH  20  21
ENDBRANCH  14  20
ENDBRANCH  13  14
ENDBRANCH  12  13
ENDBRANCH   6  12
ENDBRANCH   5   6
ENDBRANCH   4   5
ENDBRANCH   3   4
ENDBRANCH   2   3
TORSDOF 19
ENDMDL
MODEL       19
REMARK 921   NORMALIZED FREE ENERGY PREDICTED BY IDOCK:   -4.12 KCAL/MOL
REMARK 922        TOTAL FREE ENERGY PREDICTED BY IDOCK:   -9.95 KCAL/MOL
REMARK 923 INTER-LIGAND FREE ENERGY PREDICTED BY IDOCK:   -8.89 KCAL/MOL
REMARK 924 INTRA-LIGAND FREE ENERGY PREDICTED BY IDOCK:   -1.06 KCAL/MOL
REMARK 927      BINDING AFFINITY PREDICTED BY RF-SCORE:    0.00 PKD
ROOT
HETATM    1  C   UNL     1     -11.033  12.459  63.548  1.00  0.00    -0.506 C  
HETATM    2  C   UNL     1     -12.490  12.046  63.595  1.00  0.00    -0.525 C  
ENDROOT
BRANCH   2   3
HETATM    3  O   UNL     1     -13.113  12.607  64.753  1.00  0.00    -0.852 OA 
BRANCH   3   4
HETATM    4  C   UNL     1     -12.149  12.772  65.797  1.00  0.00    -0.448 C  
BRANCH   4   5
HETATM    5  C   UNL     1     -12.272  14.154  66.432  1.00  0.00    -0.446 C  
BRANCH   5   6
HETATM    6  P   UNL     1     -10.849  14.535  67.559  1.00  0.00    -0.305 P  
BRANCH   6   7
HETATM    7  C   UNL     1     -11.586  15.827  68.675  1.00  0.00    -0.386 C  
BRANCH   7   8
HETATM    8  C   UNL     1     -12.014  15.218  70.010  1.00  0.00    -0.343 C  
BRANCH   8   9
HETATM    9  O   UNL     1     -11.688  16.106  71.083  1.00  0.00    -0.430 OA 
BRANCH   9  10
HETATM   10  C   UNL     1     -12.564  15.886  72.190  1.00  0.00    -0.451 C  
HETATM   11  C   UNL     1     -13.838  15.226  71.704  1.00  0.00    -0.615 C  
ENDBRANCH   9  10
ENDBRANCH   8   9
ENDBRANCH   7   8
ENDBRANCH   6   7
BRANCH   6  12
HETATM   12  C   UNL     1     -10.932  13.094  68.727  1.00  0.00    -0.262 C  
BRANCH  12  13
HETATM   13  C   UNL     1      -9.872  12.040  68.445  1.00  0.00    -0.204 C  
BRANCH  13  14
HETATM   14  P   UNL     1     -10.292  10.381  69.156  1.00  0.00    -0.247 P  
BRANCH  14  15
HETATM   15  C   UNL     1     -11.977  10.682  69.875  1.00  0.00    -0.310 C  
BRANCH  15  16
HETATM   16  C   UNL     1     -12.087  10.087  71.281  1.00  0.00    -0.394 C  
BRANCH  16  17
HETATM   17  O   UNL     1     -13.022   9.004  71.291  1.00  0.00    -0.306 OA 
BRANCH  17  18
HETATM   18  C   UNL     1     -12.404   7.823  71.809  1.00  0.00    -0.317 C  
HETATM   19  C   UNL     1     -11.906   6.964  70.666  1.00  0.00    -0.418 C  
ENDBRANCH  17  18
ENDBRANCH  16  17
ENDBRANCH  15  16
ENDBRANCH  14  15
BRANCH  14  20
HETATM   20  C   UNL     1     -10.772   9.495  67.593  1.00  0.00    -0.250 C  
BRANCH  20  21
HETATM   21  C   UNL     1      -9.970   8.211  67.389  1.00  0.00    -0.209 C  
BRANCH  21  22
HETATM   22  O   UNL     1      -9.222   8.303  66.176  1.00  0.00    -0.188 OA 
BRANCH  22  23
HETATM   23  C   UNL     1      -9.596   9.469  65.438  1.00  0.00    -0.272 C  
HETATM   24  C   UNL     1      -8.651   9.638  64.265  1.00  0.00    -0.207 C  
ENDBRANCH  22  23
ENDBRANCH  21  22
ENDBRANCH  20  21
ENDBRANCH  14  20
ENDBRANCH  13  14
ENDBRANCH  12  13
ENDBRANCH   6  12
ENDBRANCH   5   6
ENDBRANCH   4   5
ENDBRANCH   3   4
ENDBRANCH   2   3
TORSDOF 19
ENDMDL
MODEL       20
REMARK 921   NORMALIZED FREE ENERGY PREDICTED BY IDOCK:   -4.10 KCAL/MOL
REMARK 922        TOTAL FREE ENERGY PREDICTED BY IDOCK:   -9.91 KCAL/MOL
REMARK 923 INTER-LIGAND FREE ENERGY PREDICTED BY IDOCK:   -9.13 KCAL/MOL
REMARK 924 INTRA-LIGAND FREE ENERGY PREDICTED BY IDOCK:   -0.78 KCAL/MOL
REMARK 927      BINDING AFFINITY PREDICTED BY RF-SCORE:    0.00 PKD
ROOT
HETATM    1  C   UNL     1     -10.974  12.135  63.348  1.00  0.00    -0.480 C  
HETATM    2  C   UNL     1     -12.443  12.055  63.706  1.00  0.00    -0.485 C  
ENDROOT
BRANCH   2   3
HETATM    3  O   UNL     1     -12.902  13.333  64.154  1.00  0.00    -0.640 OA 
BRANCH   3   4
HETATM    4  C   UNL     1     -11.913  13.943  64.989  1.00  0.00    -0.390 C  
BRANCH   4   5
HETATM    5  C   UNL     1     -12.002  13.403  66.414  1.00  0.00    -0.406 C  
BRANCH   5   6
HETATM    6  P   UNL     1     -11.583  14.694  67.678  1.00  0.00    -0.328 P  
BRANCH   6   7
HETATM    7  C   UNL     1     -11.966  13.807  69.266  1.00  0.00    -0.352 C  
BRANCH   7   8
HETATM    8  C   UNL     1     -11.870  14.755  70.461  1.00  0.00    -0.302 C  
BRANCH   8   9
HETATM    9  O   UNL     1     -13.114  15.433  70.653  1.00  0.00    -0.426 OA 
BRANCH   9  10
HETATM   10  C   UNL     1     -13.520  15.345  72.020  1.00  0.00    -0.466 C  
HETATM   11  C   UNL     1     -13.882  13.912  72.350  1.00  0.00    -0.668 C  
ENDBRANCH   9  10
ENDBRANCH   8   9
ENDBRANCH   7   8
ENDBRANCH   6   7
BRANCH   6  12
HETATM   12  C   UNL     1      -9.733  14.547  67.729  1.00  0.00    -0.216 C  
BRANCH  12  13
HETATM   13  C   UNL     1      -9.047  15.279  66.585  1.00  0.00    -0.282 C  
BRANCH  13  14
HETATM   14  P   UNL     1      -7.590  16.282  67.136  1.00  0.00    -0.241 P  
BRANCH  14  15
HETATM   15  C   UNL     1      -7.638  17.718  65.961  1.00  0.00    -0.220 C  
BRANCH  15  16
HETATM   16  C   UNL     1      -6.225  18.205  65.632  1.00  0.00    -0.244 C  
BRANCH  16  17
HETATM   17  O   UNL     1      -6.206  18.852  64.356  1.00  0.00    -0.475 OA 
BRANCH  17  18
HETATM   18  C   UNL     1      -5.553  20.120  64.454  1.00  0.00    -0.202 C  
HETATM   19  C   UNL     1      -6.077  21.050  63.379  1.00  0.00    -0.331 C  
ENDBRANCH  17  18
ENDBRANCH  16  17
ENDBRANCH  15  16
ENDBRANCH  14  15
BRANCH  14  20
HETATM   20  C   UNL     1      -8.327  17.085  68.642  1.00  0.00    -0.264 C  
BRANCH  20  21
HETATM   21  C   UNL     1      -8.954  18.441  68.325  1.00  0.00    -0.312 C  
BRANCH  21  22
HETATM   22  O   UNL     1     -10.349  18.275  68.071  1.00  0.00    -0.368 OA 
BRANCH  22  23
HETATM   23  C   UNL     1     -10.866  19.390  67.340  1.00  0.00    -0.440 C  
HETATM   24  C   UNL     1      -9.790  20.451  67.225  1.00  0.00    -0.597 C  
ENDBRANCH  22  23
ENDBRANCH  21  22
ENDBRANCH  20  21
ENDBRANCH  14  20
ENDBRANCH  13  14
ENDBRANCH  12  13
ENDBRANCH   6  12
ENDBRANCH   5   6
ENDBRANCH   4   5
ENDBRANCH   3   4
ENDBRANCH   2   3
TORSDOF 19
ENDMDL
MODEL       21
REMARK 921   NORMALIZED FREE ENERGY PREDICTED BY IDOCK:   -4.09 KCAL/MOL
REMARK 922        TOTAL FREE ENERGY PREDICTED BY IDOCK:   -9.88 KCAL/MOL
REMARK 923 INTER-LIGAND FREE ENERGY PREDICTED BY IDOCK:   -8.84 KCAL/MOL
REMARK 924 INTRA-LIGAND FREE ENERGY PREDICTED BY IDOCK:   -1.05 KCAL/MOL
REMARK 927      BINDING AFFINITY PREDICTED BY RF-SCORE:    0.00 PKD
ROOT
HETATM    1  C   UNL     1     -11.005  12.179  63.485  1.00  0.00    -0.521 C  
HETATM    2  C   UNL     1     -12.519  12.187  63.486  1.00  0.00    -0.555 C  
ENDROOT
BRANCH   2   3
HETATM    3  O   UNL     1     -13.000  12.517  64.792  1.00  0.00    -0.827 OA 
BRANCH   3   4
HETATM    4  C   UNL     1     -12.631  13.859  65.124  1.00  0.00    -0.434 C  
BRANCH   4   5
HETATM    5  C   UNL     1     -12.367  13.991  66.621  1.00  0.00    -0.371 C  
BRANCH   5   6
HETATM    6  P   UNL     1     -10.639  14.559  66.979  1.00  0.00    -0.286 P  
BRANCH   6   7
HETATM    7  C   UNL     1     -10.943  16.025  68.082  1.00  0.00    -0.339 C  
BRANCH   7   8
HETATM    8  C   UNL     1     -10.302  17.287  67.506  1.00  0.00    -0.346 C  
BRANCH   8   9
HETATM    9  O   UNL     1      -9.720  18.066  68.555  1.00  0.00    -0.319 OA 
BRANCH   9  10
HETATM   10  C   UNL     1      -9.615  19.434  68.155  1.00  0.00    -0.358 C  
HETATM   11  C   UNL     1     -10.612  19.716  67.049  1.00  0.00    -0.602 C  
ENDBRANCH   9  10
ENDBRANCH   8   9
ENDBRANCH   7   8
ENDBRANCH   6   7
BRANCH   6  12
HETATM   12  C   UNL     1     -10.133  13.342  68.287  1.00  0.00    -0.250 C  
BRANCH  12  13
HETATM   13  C   UNL     1      -9.805  11.967  67.723  1.00  0.00    -0.190 C  
BRANCH  13  14
HETATM   14  P   UNL     1     -11.026  10.667  68.226  1.00  0.00    -0.297 P  
BRANCH  14  15
HETATM   15  C   UNL     1      -9.962   9.485  69.184  1.00  0.00    -0.183 C  
BRANCH  15  16
HETATM   16  C   UNL     1     -10.066   8.068  68.614  1.00  0.00    -0.199 C  
BRANCH  16  17
HETATM   17  O   UNL     1     -11.005   7.296  69.369  1.00  0.00    -0.217 OA 
BRANCH  17  18
HETATM   18  C   UNL     1     -10.636   5.915  69.350  1.00  0.00    -0.309 C  
HETATM   19  C   UNL     1     -10.550   5.390  70.768  1.00  0.00    -0.293 C  
ENDBRANCH  17  18
ENDBRANCH  16  17
ENDBRANCH  15  16
ENDBRANCH  14  15
BRANCH  14  20
HETATM   20  C   UNL     1     -11.852  11.557  69.633  1.00  0.00    -0.354 C  
BRANCH  20  21
HETATM   21  C   UNL     1     -11.912  10.704  70.899  1.00  0.00    -0.363 C  
BRANCH  21  22
HETATM   22  O   UNL     1     -13.068   9.867  70.857  1.00  0.00    -0.348 OA 
BRANCH  22  23
HETATM   23  C   UNL     1     -13.193   9.116  72.068  1.00  0.00    -0.441 C  
HETATM   24  C   UNL     1     -11.849   8.508  72.416  1.00  0.00    -0.437 C  
ENDBRANCH  22  23
ENDBRANCH  21  22
ENDBRANCH  20  21
ENDBRANCH  14  20
ENDBRANCH  13  14
ENDBRANCH  12  13
ENDBRANCH   6  12
ENDBRANCH   5   6
ENDBRANCH   4   5
ENDBRANCH   3   4
ENDBRANCH   2   3
TORSDOF 19
ENDMDL
MODEL       22
REMARK 921   NORMALIZED FREE ENERGY PREDICTED BY IDOCK:   -4.07 KCAL/MOL
REMARK 922        TOTAL FREE ENERGY PREDICTED BY IDOCK:   -9.85 KCAL/MOL
REMARK 923 INTER-LIGAND FREE ENERGY PREDICTED BY IDOCK:   -8.94 KCAL/MOL
REMARK 924 INTRA-LIGAND FREE ENERGY PREDICTED BY IDOCK:   -0.91 KCAL/MOL
REMARK 927      BINDING AFFINITY PREDICTED BY RF-SCORE:    0.00 PKD
ROOT
HETATM    1  C   UNL     1     -11.085  11.608  63.774  1.00  0.00    -0.499 C  
HETATM    2  C   UNL     1     -12.355  12.403  63.555  1.00  0.00    -0.546 C  
ENDROOT
BRANCH   2   3
HETATM    3  O   UNL     1     -13.012  12.620  64.807  1.00  0.00    -0.816 OA 
BRANCH   3   4
HETATM    4  C   UNL     1     -12.684  13.917  65.312  1.00  0.00    -0.449 C  
BRANCH   4   5
HETATM    5  C   UNL     1     -12.123  13.819  66.728  1.00  0.00    -0.418 C  
BRANCH   5   6
HETATM    6  P   UNL     1     -10.479  14.661  66.889  1.00  0.00    -0.278 P  
BRANCH   6   7
HETATM    7  C   UNL     1     -10.744  15.728  68.388  1.00  0.00    -0.281 C  
BRANCH   7   8
HETATM    8  C   UNL     1     -10.719  17.210  68.018  1.00  0.00    -0.372 C  
BRANCH   8   9
HETATM    9  O   UNL     1     -10.119  17.970  69.070  1.00  0.00    -0.377 OA 
BRANCH   9  10
HETATM   10  C   UNL     1      -9.940  19.327  68.660  1.00  0.00    -0.431 C  
HETATM   11  C   UNL     1     -10.053  19.420  67.152  1.00  0.00    -0.490 C  
ENDBRANCH   9  10
ENDBRANCH   8   9
ENDBRANCH   7   8
ENDBRANCH   6   7
BRANCH   6  12
HETATM   12  C   UNL     1      -9.475  13.319  67.690  1.00  0.00    -0.211 C  
BRANCH  12  13
HETATM   13  C   UNL     1     -10.055  11.930  67.467  1.00  0.00    -0.193 C  
BRANCH  13  14
HETATM   14  P   UNL     1     -10.272  10.974  69.038  1.00  0.00    -0.118 P  
BRANCH  14  15
HETATM   15  C   UNL     1     -11.920  11.581  69.639  1.00  0.00    -0.339 C  
BRANCH  15  16
HETATM   16  C   UNL     1     -12.391  10.778  70.854  1.00  0.00    -0.396 C  
BRANCH  16  17
HETATM   17  O   UNL     1     -13.042  11.636  71.796  1.00  0.00    -0.465 OA 
BRANCH  17  18
HETATM   18  C   UNL     1     -12.824  13.006  71.449  1.00  0.00    -0.292 C  
HETATM   19  C   UNL     1     -13.490  13.904  72.471  1.00  0.00    -0.676 C  
ENDBRANCH  17  18
ENDBRANCH  16  17
ENDBRANCH  15  16
ENDBRANCH  14  15
BRANCH  14  20
HETATM   20  C   UNL     1     -10.782   9.334  68.327  1.00  0.00    -0.145 C  
BRANCH  20  21
HETATM   21  C   UNL     1     -10.156   8.160  69.076  1.00  0.00    -0.205 C  
BRANCH  21  22
HETATM   22  O   UNL     1     -10.757   6.940  68.642  1.00  0.00    -0.217 OA 
BRANCH  22  23
HETATM   23  C   UNL     1     -11.241   6.189  69.759  1.00  0.00    -0.423 C  
HETATM   24  C   UNL     1     -10.300   5.030  70.023  1.00  0.00    -0.303 C  
ENDBRANCH  22  23
ENDBRANCH  21  22
ENDBRANCH  20  21
ENDBRANCH  14  20
ENDBRANCH  13  14
ENDBRANCH  12  13
ENDBRANCH   6  12
ENDBRANCH   5   6
ENDBRANCH   4   5
ENDBRANCH   3   4
ENDBRANCH   2   3
TORSDOF 19
ENDMDL
MODEL       23
REMARK 921   NORMALIZED FREE ENERGY PREDICTED BY IDOCK:   -4.06 KCAL/MOL
REMARK 922        TOTAL FREE ENERGY PREDICTED BY IDOCK:   -9.83 KCAL/MOL
REMARK 923 INTER-LIGAND FREE ENERGY PREDICTED BY IDOCK:   -8.78 KCAL/MOL
REMARK 924 INTRA-LIGAND FREE ENERGY PREDICTED BY IDOCK:   -1.05 KCAL/MOL
REMARK 927      BINDING AFFINITY PREDICTED BY RF-SCORE:    0.00 PKD
ROOT
HETATM    1  C   UNL     1     -11.114  11.505  63.637  1.00  0.00    -0.469 C  
HETATM    2  C   UNL     1     -12.270  12.469  63.471  1.00  0.00    -0.558 C  
ENDROOT
BRANCH   2   3
HETATM    3  O   UNL     1     -12.956  12.620  64.716  1.00  0.00    -0.816 OA 
BRANCH   3   4
HETATM    4  C   UNL     1     -12.759  13.941  65.226  1.00  0.00    -0.449 C  
BRANCH   4   5
HETATM    5  C   UNL     1     -12.341  13.897  66.694  1.00  0.00    -0.369 C  
BRANCH   5   6
HETATM    6  P   UNL     1     -10.498  13.855  66.896  1.00  0.00    -0.280 P  
BRANCH   6   7
HETATM    7  C   UNL     1     -10.102  15.657  67.125  1.00  0.00    -0.256 C  
BRANCH   7   8
HETATM    8  C   UNL     1      -9.068  16.125  66.101  1.00  0.00    -0.347 C  
BRANCH   8   9
HETATM    9  O   UNL     1      -9.285  17.501  65.777  1.00  0.00    -0.510 OA 
BRANCH   9  10
HETATM   10  C   UNL     1     -10.139  18.110  66.747  1.00  0.00    -0.362 C  
HETATM   11  C   UNL     1     -10.466  19.525  66.316  1.00  0.00    -0.609 C  
ENDBRANCH   9  10
ENDBRANCH   8   9
ENDBRANCH   7   8
ENDBRANCH   6   7
BRANCH   6  12
HETATM   12  C   UNL     1     -10.352  13.322  68.669  1.00  0.00    -0.196 C  
BRANCH  12  13
HETATM   13  C   UNL     1     -11.676  12.864  69.262  1.00  0.00    -0.321 C  
BRANCH  13  14
HETATM   14  P   UNL     1     -11.837  11.020  69.339  1.00  0.00    -0.317 P  
BRANCH  14  15
HETATM   15  C   UNL     1     -10.065  10.479  69.459  1.00  0.00    -0.178 C  
BRANCH  15  16
HETATM   16  C   UNL     1      -9.621   9.769  68.178  1.00  0.00    -0.143 C  
BRANCH  16  17
HETATM   17  O   UNL     1     -10.757   9.270  67.465  1.00  0.00    -0.277 OA 
BRANCH  17  18
HETATM   18  C   UNL     1     -10.486   7.962  66.956  1.00  0.00    -0.349 C  
HETATM   19  C   UNL     1      -9.129   7.947  66.282  1.00  0.00    -0.224 C  
ENDBRANCH  17  18
ENDBRANCH  16  17
ENDBRANCH  15  16
ENDBRANCH  14  15
BRANCH  14  20
HETATM   20  C   UNL     1     -12.343  10.834  71.118  1.00  0.00    -0.393 C  
BRANCH  20  21
HETATM   21  C   UNL     1     -13.236   9.615  71.339  1.00  0.00    -0.389 C  
BRANCH  21  22
HETATM   22  O   UNL     1     -12.458   8.424  71.221  1.00  0.00    -0.302 OA 
BRANCH  22  23
HETATM   23  C   UNL     1     -11.699   8.196  72.411  1.00  0.00    -0.399 C  
HETATM   24  C   UNL     1     -10.273   7.850  72.032  1.00  0.00    -0.270 C  
ENDBRANCH  22  23
ENDBRANCH  21  22
ENDBRANCH  20  21
ENDBRANCH  14  20
ENDBRANCH  13  14
ENDBRANCH  12  13
ENDBRANCH   6  12
ENDBRANCH   5   6
ENDBRANCH   4   5
ENDBRANCH   3   4
ENDBRANCH   2   3
TORSDOF 19
ENDMDL
MODEL       24
REMARK 921   NORMALIZED FREE ENERGY PREDICTED BY IDOCK:   -4.06 KCAL/MOL
REMARK 922        TOTAL FREE ENERGY PREDICTED BY IDOCK:   -9.82 KCAL/MOL
REMARK 923 INTER-LIGAND FREE ENERGY PREDICTED BY IDOCK:   -8.68 KCAL/MOL
REMARK 924 INTRA-LIGAND FREE ENERGY PREDICTED BY IDOCK:   -1.15 KCAL/MOL
REMARK 927      BINDING AFFINITY PREDICTED BY RF-SCORE:    0.00 PKD
ROOT
HETATM    1  C   UNL     1     -10.999  12.324  63.720  1.00  0.00    -0.495 C  
HETATM    2  C   UNL     1     -12.495  12.100  63.784  1.00  0.00    -0.514 C  
ENDROOT
BRANCH   2   3
HETATM    3  O   UNL     1     -13.010  12.620  65.013  1.00  0.00    -0.812 OA 
BRANCH   3   4
HETATM    4  C   UNL     1     -12.309  13.815  65.369  1.00  0.00    -0.475 C  
BRANCH   4   5
HETATM    5  C   UNL     1     -12.063  13.867  66.875  1.00  0.00    -0.430 C  
BRANCH   5   6
HETATM    6  P   UNL     1     -10.306  14.298  67.282  1.00  0.00    -0.262 P  
BRANCH   6   7
HETATM    7  C   UNL     1     -10.519  15.378  68.781  1.00  0.00    -0.231 C  
BRANCH   7   8
HETATM    8  C   UNL     1     -11.999  15.599  69.091  1.00  0.00    -0.310 C  
BRANCH   8   9
HETATM    9  O   UNL     1     -12.288  15.188  70.430  1.00  0.00    -0.319 OA 
BRANCH   9  10
HETATM   10  C   UNL     1     -11.668  16.073  71.365  1.00  0.00    -0.473 C  
HETATM   11  C   UNL     1     -11.931  15.585  72.775  1.00  0.00    -0.573 C  
ENDBRANCH   9  10
ENDBRANCH   8   9
ENDBRANCH   7   8
ENDBRANCH   6   7
BRANCH   6  12
HETATM   12  C   UNL     1      -9.756  12.749  68.145  1.00  0.00    -0.223 C  
BRANCH  12  13
HETATM   13  C   UNL     1      -9.767  11.528  67.237  1.00  0.00    -0.182 C  
BRANCH  13  14
HETATM   14  P   UNL     1     -11.017  10.258  67.746  1.00  0.00    -0.180 P  
BRANCH  14  15
HETATM   15  C   UNL     1      -9.975   8.730  67.908  1.00  0.00    -0.187 C  
BRANCH  15  16
HETATM   16  C   UNL     1     -10.403   7.664  66.897  1.00  0.00    -0.318 C  
BRANCH  16  17
HETATM   17  O   UNL     1     -11.189   6.656  67.539  1.00  0.00    -0.319 OA 
BRANCH  17  18
HETATM   18  C   UNL     1     -10.577   6.262  68.770  1.00  0.00    -0.262 C  
HETATM   19  C   UNL     1      -9.890   4.923  68.594  1.00  0.00    -0.221 C  
ENDBRANCH  17  18
ENDBRANCH  16  17
ENDBRANCH  15  16
ENDBRANCH  14  15
BRANCH  14  20
HETATM   20  C   UNL     1     -11.194  10.709  69.540  1.00  0.00    -0.272 C  
BRANCH  20  21
HETATM   21  C   UNL     1     -10.813   9.555  70.465  1.00  0.00    -0.292 C  
BRANCH  21  22
HETATM   22  O   UNL     1     -11.571   9.639  71.672  1.00  0.00    -0.382 OA 
BRANCH  22  23
HETATM   23  C   UNL     1     -12.954   9.864  71.385  1.00  0.00    -0.407 C  
HETATM   24  C   UNL     1     -13.794   8.909  72.210  1.00  0.00    -0.536 C  
ENDBRANCH  22  23
ENDBRANCH  21  22
ENDBRANCH  20  21
ENDBRANCH  14  20
ENDBRANCH  13  14
ENDBRANCH  12  13
ENDBRANCH   6  12
ENDBRANCH   5   6
ENDBRANCH   4   5
ENDBRANCH   3   4
ENDBRANCH   2   3
TORSDOF 19
ENDMDL
MODEL       25
REMARK 921   NORMALIZED FREE ENERGY PREDICTED BY IDOCK:   -4.06 KCAL/MOL
REMARK 922        TOTAL FREE ENERGY PREDICTED BY IDOCK:   -9.82 KCAL/MOL
REMARK 923 INTER-LIGAND FREE ENERGY PREDICTED BY IDOCK:   -8.81 KCAL/MOL
REMARK 924 INTRA-LIGAND FREE ENERGY PREDICTED BY IDOCK:   -1.01 KCAL/MOL
REMARK 927      BINDING AFFINITY PREDICTED BY RF-SCORE:    0.00 PKD
ROOT
HETATM    1  C   UNL     1     -10.784  19.274  67.358  1.00  0.00    -0.594 C  
HETATM    2  C   UNL     1     -10.505  19.250  65.870  1.00  0.00    -0.451 C  
ENDROOT
BRANCH   2   3
HETATM    3  O   UNL     1     -10.631  17.915  65.376  1.00  0.00    -0.656 OA 
BRANCH   3   4
HETATM    4  C   UNL     1      -9.745  17.045  66.085  1.00  0.00    -0.261 C  
BRANCH   4   5
HETATM    5  C   UNL     1     -10.011  15.587  65.718  1.00  0.00    -0.359 C  
BRANCH   5   6
HETATM    6  P   UNL     1     -10.972  14.698  67.031  1.00  0.00    -0.331 P  
BRANCH   6   7
HETATM    7  C   UNL     1     -12.442  14.084  66.073  1.00  0.00    -0.455 C  
BRANCH   7   8
HETATM    8  C   UNL     1     -12.114  13.960  64.585  1.00  0.00    -0.431 C  
BRANCH   8   9
HETATM    9  O   UNL     1     -12.966  12.988  63.973  1.00  0.00    -0.592 OA 
BRANCH   9  10
HETATM   10  C   UNL     1     -12.202  11.857  63.550  1.00  0.00    -0.482 C  
HETATM   11  C   UNL     1     -10.756  12.267  63.355  1.00  0.00    -0.438 C  
ENDBRANCH   9  10
ENDBRANCH   8   9
ENDBRANCH   7   8
ENDBRANCH   6   7
BRANCH   6  12
HETATM   12  C   UNL     1     -10.032  13.100  67.133  1.00  0.00    -0.236 C  
BRANCH  12  13
HETATM   13  C   UNL     1     -10.138  12.435  68.497  1.00  0.00    -0.185 C  
BRANCH  13  14
HETATM   14  P   UNL     1     -11.549  11.240  68.614  1.00  0.00    -0.314 P  
BRANCH  14  15
HETATM   15  C   UNL     1     -10.677   9.645  68.989  1.00  0.00    -0.211 C  
BRANCH  15  16
HETATM   16  C   UNL     1      -9.625   9.331  67.922  1.00  0.00    -0.142 C  
BRANCH  16  17
HETATM   17  O   UNL     1     -10.255   8.900  66.713  1.00  0.00    -0.261 OA 
BRANCH  17  18
HETATM   18  C   UNL     1      -9.890   9.760  65.631  1.00  0.00    -0.301 C  
HETATM   19  C   UNL     1      -8.410  10.073  65.705  1.00  0.00    -0.148 C  
ENDBRANCH  17  18
ENDBRANCH  16  17
ENDBRANCH  15  16
ENDBRANCH  14  15
BRANCH  14  20
HETATM   20  C   UNL     1     -12.167  11.667  70.314  1.00  0.00    -0.318 C  
BRANCH  20  21
HETATM   21  C   UNL     1     -12.104  10.475  71.267  1.00  0.00    -0.332 C  
BRANCH  21  22
HETATM   22  O   UNL     1     -13.282  10.444  72.073  1.00  0.00    -0.456 OA 
BRANCH  22  23
HETATM   23  C   UNL     1     -13.709   9.097  72.292  1.00  0.00    -0.487 C  
HETATM   24  C   UNL     1     -12.530   8.164  72.100  1.00  0.00    -0.364 C  
ENDBRANCH  22  23
ENDBRANCH  21  22
ENDBRANCH  20  21
ENDBRANCH  14  20
ENDBRANCH  13  14
ENDBRANCH  12  13
ENDBRANCH   6  12
ENDBRANCH   5   6
ENDBRANCH   4   5
ENDBRANCH   3   4
ENDBRANCH   2   3
TORSDOF 19
ENDMDL
MODEL       26
REMARK 921   NORMALIZED FREE ENERGY PREDICTED BY IDOCK:   -4.04 KCAL/MOL
REMARK 922        TOTAL FREE ENERGY PREDICTED BY IDOCK:   -9.78 KCAL/MOL
REMARK 923 INTER-LIGAND FREE ENERGY PREDICTED BY IDOCK:   -8.34 KCAL/MOL
REMARK 924 INTRA-LIGAND FREE ENERGY PREDICTED BY IDOCK:   -1.44 KCAL/MOL
REMARK 927      BINDING AFFINITY PREDICTED BY RF-SCORE:    0.00 PKD
ROOT
HETATM    1  C   UNL     1      -9.996  11.620  63.336  1.00  0.00    -0.447 C  
HETATM    2  C   UNL     1     -11.319  11.873  64.027  1.00  0.00    -0.397 C  
ENDROOT
BRANCH   2   3
HETATM    3  O   UNL     1     -12.011  12.938  63.370  1.00  0.00    -0.533 OA 
BRANCH   3   4
HETATM    4  C   UNL     1     -12.175  14.041  64.265  1.00  0.00    -0.418 C  
BRANCH   4   5
HETATM    5  C   UNL     1     -12.464  13.549  65.681  1.00  0.00    -0.479 C  
BRANCH   5   6
HETATM    6  P   UNL     1     -11.465  14.456  66.954  1.00  0.00    -0.384 P  
BRANCH   6   7
HETATM    7  C   UNL     1     -10.929  13.071  68.072  1.00  0.00    -0.250 C  
BRANCH   7   8
HETATM    8  C   UNL     1     -11.533  11.740  67.624  1.00  0.00    -0.300 C  
BRANCH   8   9
HETATM    9  O   UNL     1     -12.265  11.145  68.699  1.00  0.00    -0.582 OA 
BRANCH   9  10
HETATM   10  C   UNL     1     -11.917  11.765  69.938  1.00  0.00    -0.332 C  
HETATM   11  C   UNL     1     -12.594  11.033  71.079  1.00  0.00    -0.512 C  
ENDBRANCH   9  10
ENDBRANCH   8   9
ENDBRANCH   7   8
ENDBRANCH   6   7
BRANCH   6  12
HETATM   12  C   UNL     1      -9.867  14.696  66.040  1.00  0.00    -0.322 C  
BRANCH  12  13
HETATM   13  C   UNL     1      -9.389  16.140  66.049  1.00  0.00    -0.333 C  
BRANCH  13  14
HETATM   14  P   UNL     1     -10.501  17.266  67.013  1.00  0.00    -0.186 P  
BRANCH  14  15
HETATM   15  C   UNL     1      -9.503  17.575  68.549  1.00  0.00    -0.296 C  
BRANCH  15  16
HETATM   16  C   UNL     1      -8.242  16.708  68.567  1.00  0.00    -0.231 C  
BRANCH  16  17
HETATM   17  O   UNL     1      -8.436  15.564  69.404  1.00  0.00    -0.247 OA 
BRANCH  17  18
HETATM   18  C   UNL     1      -7.229  14.801  69.486  1.00  0.00    -0.160 C  
HETATM   19  C   UNL     1      -7.333  13.584  68.591  1.00  0.00    -0.112 C  
ENDBRANCH  17  18
ENDBRANCH  16  17
ENDBRANCH  15  16
ENDBRANCH  14  15
BRANCH  14  20
HETATM   20  C   UNL     1     -10.181  18.857  66.107  1.00  0.00    -0.433 C  
BRANCH  20  21
HETATM   21  C   UNL     1      -9.374  19.846  66.944  1.00  0.00    -0.379 C  
BRANCH  21  22
HETATM   22  O   UNL     1      -8.037  19.912  66.449  1.00  0.00    -0.310 OA 
BRANCH  22  23
HETATM   23  C   UNL     1      -7.258  20.834  67.217  1.00  0.00    -0.360 C  
HETATM   24  C   UNL     1      -6.655  20.107  68.402  1.00  0.00    -0.337 C  
ENDBRANCH  22  23
ENDBRANCH  21  22
ENDBRANCH  20  21
ENDBRANCH  14  20
ENDBRANCH  13  14
ENDBRANCH  12  13
ENDBRANCH   6  12
ENDBRANCH   5   6
ENDBRANCH   4   5
ENDBRANCH   3   4
ENDBRANCH   2   3
TORSDOF 19
ENDMDL
MODEL       27
REMARK 921   NORMALIZED FREE ENERGY PREDICTED BY IDOCK:   -4.04 KCAL/MOL
REMARK 922        TOTAL FREE ENERGY PREDICTED BY IDOCK:   -9.78 KCAL/MOL
REMARK 923 INTER-LIGAND FREE ENERGY PREDICTED BY IDOCK:   -8.46 KCAL/MOL
REMARK 924 INTRA-LIGAND FREE ENERGY PREDICTED BY IDOCK:   -1.32 KCAL/MOL
REMARK 927      BINDING AFFINITY PREDICTED BY RF-SCORE:    0.00 PKD
ROOT
HETATM    1  C   UNL     1      -9.840  20.559  67.227  1.00  0.00    -0.581 C  
HETATM    2  C   UNL     1     -10.431  19.953  65.970  1.00  0.00    -0.475 C  
ENDROOT
BRANCH   2   3
HETATM    3  O   UNL     1     -10.651  18.554  66.166  1.00  0.00    -0.424 OA 
BRANCH   3   4
HETATM    4  C   UNL     1     -10.598  18.241  67.561  1.00  0.00    -0.409 C  
BRANCH   4   5
HETATM    5  C   UNL     1      -9.889  16.908  67.788  1.00  0.00    -0.252 C  
BRANCH   5   6
HETATM    6  P   UNL     1      -8.814  16.434  66.354  1.00  0.00    -0.336 P  
BRANCH   6   7
HETATM    7  C   UNL     1      -7.329  15.719  67.214  1.00  0.00    -0.222 C  
BRANCH   7   8
HETATM    8  C   UNL     1      -6.957  16.545  68.444  1.00  0.00    -0.150 C  
BRANCH   8   9
HETATM    9  O   UNL     1      -6.357  17.780  68.044  1.00  0.00    -0.170 OA 
BRANCH   9  10
HETATM   10  C   UNL     1      -6.733  18.827  68.941  1.00  0.00    -0.280 C  
HETATM   11  C   UNL     1      -6.376  20.168  68.334  1.00  0.00    -0.326 C  
ENDBRANCH   9  10
ENDBRANCH   8   9
ENDBRANCH   7   8
ENDBRANCH   6   7
BRANCH   6  12
HETATM   12  C   UNL     1      -9.612  14.841  65.829  1.00  0.00    -0.254 C  
BRANCH  12  13
HETATM   13  C   UNL     1     -10.979  15.044  65.193  1.00  0.00    -0.406 C  
BRANCH  13  14
HETATM   14  P   UNL     1     -12.299  13.994  65.960  1.00  0.00    -0.367 P  
BRANCH  14  15
HETATM   15  C   UNL     1     -12.328  12.520  64.832  1.00  0.00    -0.470 C  
BRANCH  15  16
HETATM   16  C   UNL     1     -11.749  12.869  63.459  1.00  0.00    -0.512 C  
BRANCH  16  17
HETATM   17  O   UNL     1     -10.540  12.139  63.229  1.00  0.00    -0.428 OA 
BRANCH  17  18
HETATM   18  C   UNL     1     -10.423  11.067  64.167  1.00  0.00    -0.366 C  
HETATM   19  C   UNL     1      -9.325  10.121  63.728  1.00  0.00    -0.336 C  
ENDBRANCH  17  18
ENDBRANCH  16  17
ENDBRANCH  15  16
ENDBRANCH  14  15
BRANCH  14  20
HETATM   20  C   UNL     1     -11.333  13.283  67.380  1.00  0.00    -0.303 C  
BRANCH  20  21
HETATM   21  C   UNL     1     -12.034  13.496  68.720  1.00  0.00    -0.339 C  
BRANCH  21  22
HETATM   22  O   UNL     1     -12.007  14.883  69.059  1.00  0.00    -0.308 OA 
BRANCH  22  23
HETATM   23  C   UNL     1     -12.743  15.125  70.260  1.00  0.00    -0.299 C  
HETATM   24  C   UNL     1     -11.775  15.247  71.420  1.00  0.00    -0.444 C  
ENDBRANCH  22  23
ENDBRANCH  21  22
ENDBRANCH  20  21
ENDBRANCH  14  20
ENDBRANCH  13  14
ENDBRANCH  12  13
ENDBRANCH   6  12
ENDBRANCH   5   6
ENDBRANCH   4   5
ENDBRANCH   3   4
ENDBRANCH   2   3
TORSDOF 19
ENDMDL
MODEL       28
REMARK 921   NORMALIZED FREE ENERGY PREDICTED BY IDOCK:   -4.04 KCAL/MOL
REMARK 922        TOTAL FREE ENERGY PREDICTED BY IDOCK:   -9.77 KCAL/MOL
REMARK 923 INTER-LIGAND FREE ENERGY PREDICTED BY IDOCK:   -8.73 KCAL/MOL
REMARK 924 INTRA-LIGAND FREE ENERGY PREDICTED BY IDOCK:   -1.05 KCAL/MOL
REMARK 927      BINDING AFFINITY PREDICTED BY RF-SCORE:    0.00 PKD
ROOT
HETATM    1  C   UNL     1     -10.280  19.880  66.341  1.00  0.00    -0.617 C  
HETATM    2  C   UNL     1      -8.880  19.305  66.271  1.00  0.00    -0.326 C  
ENDROOT
BRANCH   2   3
HETATM    3  O   UNL     1      -8.945  17.914  65.948  1.00  0.00    -0.512 OA 
BRANCH   3   4
HETATM    4  C   UNL     1      -9.518  17.185  67.037  1.00  0.00    -0.252 C  
BRANCH   4   5
HETATM    5  C   UNL     1     -10.495  16.130  66.526  1.00  0.00    -0.297 C  
BRANCH   5   6
HETATM    6  P   UNL     1     -10.714  14.737  67.730  1.00  0.00    -0.282 P  
BRANCH   6   7
HETATM    7  C   UNL     1     -11.808  15.516  69.015  1.00  0.00    -0.354 C  
BRANCH   7   8
HETATM    8  C   UNL     1     -11.033  15.787  70.304  1.00  0.00    -0.357 C  
BRANCH   8   9
HETATM    9  O   UNL     1     -11.935  16.132  71.359  1.00  0.00    -0.442 OA 
BRANCH   9  10
HETATM   10  C   UNL     1     -12.652  14.976  71.794  1.00  0.00    -0.341 C  
HETATM   11  C   UNL     1     -14.029  15.385  72.275  1.00  0.00    -0.661 C  
ENDBRANCH   9  10
ENDBRANCH   8   9
ENDBRANCH   7   8
ENDBRANCH   6   7
BRANCH   6  12
HETATM   12  C   UNL     1     -12.003  13.721  66.861  1.00  0.00    -0.421 C  
BRANCH  12  13
HETATM   13  C   UNL     1     -11.564  12.285  66.620  1.00  0.00    -0.375 C  
BRANCH  13  14
HETATM   14  P   UNL     1     -10.529  11.602  67.997  1.00  0.00    -0.213 P  
BRANCH  14  15
HETATM   15  C   UNL     1     -11.809  10.838  69.104  1.00  0.00    -0.275 C  
BRANCH  15  16
HETATM   16  C   UNL     1     -12.059  11.711  70.336  1.00  0.00    -0.373 C  
BRANCH  16  17
HETATM   17  O   UNL     1     -12.375  10.895  71.468  1.00  0.00    -0.324 OA 
BRANCH  17  18
HETATM   18  C   UNL     1     -11.716   9.630  71.364  1.00  0.00    -0.404 C  
HETATM   19  C   UNL     1     -12.412   8.618  72.251  1.00  0.00    -0.460 C  
ENDBRANCH  17  18
ENDBRANCH  16  17
ENDBRANCH  15  16
ENDBRANCH  14  15
BRANCH  14  20
HETATM   20  C   UNL     1      -9.884  10.072  67.161  1.00  0.00    -0.185 C  
BRANCH  20  21
HETATM   21  C   UNL     1     -10.435   8.795  67.791  1.00  0.00    -0.229 C  
BRANCH  21  22
HETATM   22  O   UNL     1     -10.626   7.806  66.779  1.00  0.00    -0.331 OA 
BRANCH  22  23
HETATM   23  C   UNL     1     -10.848   6.520  67.363  1.00  0.00    -0.373 C  
HETATM   24  C   UNL     1     -10.809   6.648  68.873  1.00  0.00    -0.326 C  
ENDBRANCH  22  23
ENDBRANCH  21  22
ENDBRANCH  20  21
ENDBRANCH  14  20
ENDBRANCH  13  14
ENDBRANCH  12  13
ENDBRANCH   6  12
ENDBRANCH   5   6
ENDBRANCH   4   5
ENDBRANCH   3   4
ENDBRANCH   2   3
TORSDOF 19
ENDMDL
MODEL       29
REMARK 921   NORMALIZED FREE ENERGY PREDICTED BY IDOCK:   -4.03 KCAL/MOL
REMARK 922        TOTAL FREE ENERGY PREDICTED BY IDOCK:   -9.77 KCAL/MOL
REMARK 923 INTER-LIGAND FREE ENERGY PREDICTED BY IDOCK:   -8.86 KCAL/MOL
REMARK 924 INTRA-LIGAND FREE ENERGY PREDICTED BY IDOCK:   -0.91 KCAL/MOL
REMARK 927      BINDING AFFINITY PREDICTED BY RF-SCORE:    0.00 PKD
ROOT
HETATM    1  C   UNL     1     -12.833  11.840  63.610  1.00  0.00    -0.339 C  
HETATM    2  C   UNL     1     -11.929  13.030  63.364  1.00  0.00    -0.520 C  
ENDROOT
BRANCH   2   3
HETATM    3  O   UNL     1     -12.612  14.236  63.716  1.00  0.00    -0.821 OA 
BRANCH   3   4
HETATM    4  C   UNL     1     -11.855  14.962  64.687  1.00  0.00    -0.407 C  
BRANCH   4   5
HETATM    5  C   UNL     1     -10.514  14.280  64.946  1.00  0.00    -0.430 C  
BRANCH   5   6
HETATM    6  P   UNL     1      -9.521  15.158  66.243  1.00  0.00    -0.315 P  
BRANCH   6   7
HETATM    7  C   UNL     1     -10.725  16.445  66.834  1.00  0.00    -0.202 C  
BRANCH   7   8
HETATM    8  C   UNL     1     -10.127  17.847  66.723  1.00  0.00    -0.349 C  
BRANCH   8   9
HETATM    9  O   UNL     1     -10.548  18.466  65.504  1.00  0.00    -0.627 OA 
BRANCH   9  10
HETATM   10  C   UNL     1     -10.555  19.887  65.647  1.00  0.00    -0.327 C  
HETATM   11  C   UNL     1      -9.922  20.266  66.971  1.00  0.00    -0.601 C  
ENDBRANCH   9  10
ENDBRANCH   8   9
ENDBRANCH   7   8
ENDBRANCH   6   7
BRANCH   6  12
HETATM   12  C   UNL     1      -9.677  13.973  67.665  1.00  0.00    -0.228 C  
BRANCH  12  13
HETATM   13  C   UNL     1     -11.114  13.789  68.129  1.00  0.00    -0.259 C  
BRANCH  13  14
HETATM   14  P   UNL     1     -11.655  12.016  68.126  1.00  0.00    -0.316 P  
BRANCH  14  15
HETATM   15  C   UNL     1     -10.082  11.131  67.691  1.00  0.00    -0.179 C  
BRANCH  15  16
HETATM   16  C   UNL     1     -10.008  10.851  66.188  1.00  0.00    -0.233 C  
BRANCH  16  17
HETATM   17  O   UNL     1     -10.177   9.453  65.933  1.00  0.00    -0.259 OA 
BRANCH  17  18
HETATM   18  C   UNL     1      -9.987   8.705  67.137  1.00  0.00    -0.231 C  
HETATM   19  C   UNL     1     -10.708   7.377  67.033  1.00  0.00    -0.389 C  
ENDBRANCH  17  18
ENDBRANCH  16  17
ENDBRANCH  15  16
ENDBRANCH  14  15
BRANCH  14  20
HETATM   20  C   UNL     1     -11.692  11.708  69.959  1.00  0.00    -0.321 C  
BRANCH  20  21
HETATM   21  C   UNL     1     -11.584  10.222  70.296  1.00  0.00    -0.316 C  
BRANCH  21  22
HETATM   22  O   UNL     1     -11.841  10.028  71.686  1.00  0.00    -0.365 OA 
BRANCH  22  23
HETATM   23  C   UNL     1     -13.219   9.718  71.908  1.00  0.00    -0.449 C  
HETATM   24  C   UNL     1     -13.415   8.219  71.801  1.00  0.00    -0.377 C  
ENDBRANCH  22  23
ENDBRANCH  21  22
ENDBRANCH  20  21
ENDBRANCH  14  20
ENDBRANCH  13  14
ENDBRANCH  12  13
ENDBRANCH   6  12
ENDBRANCH   5   6
ENDBRANCH   4   5
ENDBRANCH   3   4
ENDBRANCH   2   3
TORSDOF 19
ENDMDL
MODEL       30
REMARK 921   NORMALIZED FREE ENERGY PREDICTED BY IDOCK:   -4.03 KCAL/MOL
REMARK 922        TOTAL FREE ENERGY PREDICTED BY IDOCK:   -9.77 KCAL/MOL
REMARK 923 INTER-LIGAND FREE ENERGY PREDICTED BY IDOCK:   -8.69 KCAL/MOL
REMARK 924 INTRA-LIGAND FREE ENERGY PREDICTED BY IDOCK:   -1.08 KCAL/MOL
REMARK 927      BINDING AFFINITY PREDICTED BY RF-SCORE:    0.00 PKD
ROOT
HETATM    1  C   UNL     1     -11.145  12.070  63.495  1.00  0.00    -0.519 C  
HETATM    2  C   UNL     1     -12.656  12.136  63.420  1.00  0.00    -0.463 C  
ENDROOT
BRANCH   2   3
HETATM    3  O   UNL     1     -13.176  12.699  64.627  1.00  0.00    -0.828 OA 
BRANCH   3   4
HETATM    4  C   UNL     1     -12.135  12.815  65.601  1.00  0.00    -0.459 C  
BRANCH   4   5
HETATM    5  C   UNL     1     -12.266  14.123  66.377  1.00  0.00    -0.446 C  
BRANCH   5   6
HETATM    6  P   UNL     1     -10.637  14.704  67.048  1.00  0.00    -0.289 P  
BRANCH   6   7
HETATM    7  C   UNL     1     -11.143  16.203  68.023  1.00  0.00    -0.317 C  
BRANCH   7   8
HETATM    8  C   UNL     1     -10.234  17.392  67.711  1.00  0.00    -0.345 C  
BRANCH   8   9
HETATM    9  O   UNL     1     -11.012  18.494  67.236  1.00  0.00    -0.365 OA 
BRANCH   9  10
HETATM   10  C   UNL     1     -10.412  19.056  66.067  1.00  0.00    -0.458 C  
HETATM   11  C   UNL     1      -8.946  19.330  66.332  1.00  0.00    -0.375 C  
ENDBRANCH   9  10
ENDBRANCH   8   9
ENDBRANCH   7   8
ENDBRANCH   6   7
BRANCH   6  12
HETATM   12  C   UNL     1     -10.403  13.528  68.466  1.00  0.00    -0.240 C  
BRANCH  12  13
HETATM   13  C   UNL     1      -9.400  12.425  68.164  1.00  0.00    -0.209 C  
BRANCH  13  14
HETATM   14  P   UNL     1      -9.974  10.752  68.714  1.00  0.00    -0.194 P  
BRANCH  14  15
HETATM   15  C   UNL     1     -11.745  11.078  69.167  1.00  0.00    -0.333 C  
BRANCH  15  16
HETATM   16  C   UNL     1     -12.028  10.659  70.611  1.00  0.00    -0.367 C  
BRANCH  16  17
HETATM   17  O   UNL     1     -11.820   9.253  70.771  1.00  0.00    -0.281 OA 
BRANCH  17  18
HETATM   18  C   UNL     1     -12.326   8.819  72.037  1.00  0.00    -0.377 C  
HETATM   19  C   UNL     1     -13.786   9.204  72.162  1.00  0.00    -0.531 C  
ENDBRANCH  17  18
ENDBRANCH  16  17
ENDBRANCH  15  16
ENDBRANCH  14  15
BRANCH  14  20
HETATM   20  C   UNL     1     -10.217   9.954  67.053  1.00  0.00    -0.233 C  
BRANCH  20  21
HETATM   21  C   UNL     1     -10.391   8.441  67.160  1.00  0.00    -0.311 C  
BRANCH  21  22
HETATM   22  O   UNL     1      -9.812   7.978  68.380  1.00  0.00    -0.161 OA 
BRANCH  22  23
HETATM   23  C   UNL     1     -10.308   6.678  68.713  1.00  0.00    -0.194 C  
HETATM   24  C   UNL     1     -10.857   6.020  67.463  1.00  0.00    -0.393 C  
ENDBRANCH  22  23
ENDBRANCH  21  22
ENDBRANCH  20  21
ENDBRANCH  14  20
ENDBRANCH  13  14
ENDBRANCH  12  13
ENDBRANCH   6  12
ENDBRANCH   5   6
ENDBRANCH   4   5
ENDBRANCH   3   4
ENDBRANCH   2   3
TORSDOF 19
ENDMDL
MODEL       31
REMARK 921   NORMALIZED FREE ENERGY PREDICTED BY IDOCK:   -4.03 KCAL/MOL
REMARK 922        TOTAL FREE ENERGY PREDICTED BY IDOCK:   -9.77 KCAL/MOL
REMARK 923 INTER-LIGAND FREE ENERGY PREDICTED BY IDOCK:   -8.82 KCAL/MOL
REMARK 924 INTRA-LIGAND FREE ENERGY PREDICTED BY IDOCK:   -0.95 KCAL/MOL
REMARK 927      BINDING AFFINITY PREDICTED BY RF-SCORE:    0.00 PKD
ROOT
HETATM    1  C   UNL     1     -10.957   6.062  69.574  1.00  0.00    -0.467 C  
HETATM    2  C   UNL     1     -10.546   5.821  68.137  1.00  0.00    -0.216 C  
ENDROOT
BRANCH   2   3
HETATM    3  O   UNL     1      -9.823   6.952  67.644  1.00  0.00    -0.127 OA 
BRANCH   3   4
HETATM    4  C   UNL     1     -10.710   7.838  66.956  1.00  0.00    -0.246 C  
BRANCH   4   5
HETATM    5  C   UNL     1     -10.075   9.216  66.789  1.00  0.00    -0.271 C  
BRANCH   5   6
HETATM    6  P   UNL     1     -11.002  10.530  67.711  1.00  0.00    -0.278 P  
BRANCH   6   7
HETATM    7  C   UNL     1     -10.217  10.437  69.394  1.00  0.00    -0.234 C  
BRANCH   7   8
HETATM    8  C   UNL     1     -11.243  10.045  70.456  1.00  0.00    -0.336 C  
BRANCH   8   9
HETATM    9  O   UNL     1     -10.614   9.284  71.491  1.00  0.00    -0.333 OA 
BRANCH   9  10
HETATM   10  C   UNL     1     -11.591   8.545  72.225  1.00  0.00    -0.374 C  
HETATM   11  C   UNL     1     -12.946   9.205  72.072  1.00  0.00    -0.496 C  
ENDBRANCH   9  10
ENDBRANCH   8   9
ENDBRANCH   7   8
ENDBRANCH   6   7
BRANCH   6  12
HETATM   12  C   UNL     1     -10.144  12.059  67.100  1.00  0.00    -0.201 C  
BRANCH  12  13
HETATM   13  C   UNL     1     -10.363  13.264  68.002  1.00  0.00    -0.241 C  
BRANCH  13  14
HETATM   14  P   UNL     1     -11.286  14.637  67.168  1.00  0.00    -0.359 P  
BRANCH  14  15
HETATM   15  C   UNL     1      -9.960  15.426  66.136  1.00  0.00    -0.307 C  
BRANCH  15  16
HETATM   16  C   UNL     1      -9.738  16.883  66.549  1.00  0.00    -0.281 C  
BRANCH  16  17
HETATM   17  O   UNL     1     -10.327  17.767  65.590  1.00  0.00    -0.612 OA 
BRANCH  17  18
HETATM   18  C   UNL     1     -10.413  19.091  66.126  1.00  0.00    -0.467 C  
HETATM   19  C   UNL     1     -10.050  19.071  67.596  1.00  0.00    -0.448 C  
ENDBRANCH  17  18
ENDBRANCH  16  17
ENDBRANCH  15  16
ENDBRANCH  14  15
BRANCH  14  20
HETATM   20  C   UNL     1     -12.164  13.656  65.854  1.00  0.00    -0.461 C  
BRANCH  20  21
HETATM   21  C   UNL     1     -12.163  14.371  64.504  1.00  0.00    -0.463 C  
BRANCH  21  22
HETATM   22  O   UNL     1     -12.290  13.411  63.455  1.00  0.00    -0.711 OA 
BRANCH  22  23
HETATM   23  C   UNL     1     -12.007  12.095  63.937  1.00  0.00    -0.486 C  
HETATM   24  C   UNL     1     -10.719  11.602  63.308  1.00  0.00    -0.404 C  
ENDBRANCH  22  23
ENDBRANCH  21  22
ENDBRANCH  20  21
ENDBRANCH  14  20
ENDBRANCH  13  14
ENDBRANCH  12  13
ENDBRANCH   6  12
ENDBRANCH   5   6
ENDBRANCH   4   5
ENDBRANCH   3   4
ENDBRANCH   2   3
TORSDOF 19
ENDMDL
MODEL       32
REMARK 921   NORMALIZED FREE ENERGY PREDICTED BY IDOCK:   -4.01 KCAL/MOL
REMARK 922        TOTAL FREE ENERGY PREDICTED BY IDOCK:   -9.72 KCAL/MOL
REMARK 923 INTER-LIGAND FREE ENERGY PREDICTED BY IDOCK:   -8.54 KCAL/MOL
REMARK 924 INTRA-LIGAND FREE ENERGY PREDICTED BY IDOCK:   -1.17 KCAL/MOL
REMARK 927      BINDING AFFINITY PREDICTED BY RF-SCORE:    0.00 PKD
ROOT
HETATM    1  C   UNL     1     -11.222  11.704  63.391  1.00  0.00    -0.401 C  
HETATM    2  C   UNL     1     -12.160  12.893  63.384  1.00  0.00    -0.530 C  
ENDROOT
BRANCH   2   3
HETATM    3  O   UNL     1     -12.947  12.895  64.578  1.00  0.00    -0.725 OA 
BRANCH   3   4
HETATM    4  C   UNL     1     -12.585  14.007  65.401  1.00  0.00    -0.505 C  
BRANCH   4   5
HETATM    5  C   UNL     1     -11.701  14.984  64.630  1.00  0.00    -0.382 C  
BRANCH   5   6
HETATM    6  P   UNL     1     -10.174  15.442  65.577  1.00  0.00    -0.378 P  
BRANCH   6   7
HETATM    7  C   UNL     1     -10.892  16.072  67.172  1.00  0.00    -0.239 C  
BRANCH   7   8
HETATM    8  C   UNL     1     -10.734  17.588  67.283  1.00  0.00    -0.222 C  
BRANCH   8   9
HETATM    9  O   UNL     1     -10.533  18.158  65.987  1.00  0.00    -0.440 OA 
BRANCH   9  10
HETATM   10  C   UNL     1     -10.168  19.535  66.103  1.00  0.00    -0.496 C  
HETATM   11  C   UNL     1      -8.682  19.644  66.377  1.00  0.00    -0.404 C  
ENDBRANCH   9  10
ENDBRANCH   8   9
ENDBRANCH   7   8
ENDBRANCH   6   7
BRANCH   6  12
HETATM   12  C   UNL     1      -9.619  13.773  66.175  1.00  0.00    -0.216 C  
BRANCH  12  13
HETATM   13  C   UNL     1      -9.463  13.706  67.687  1.00  0.00    -0.221 C  
BRANCH  13  14
HETATM   14  P   UNL     1     -10.163  12.155  68.419  1.00  0.00    -0.171 P  
BRANCH  14  15
HETATM   15  C   UNL     1     -11.878  12.687  68.890  1.00  0.00    -0.302 C  
BRANCH  15  16
HETATM   16  C   UNL     1     -11.873  13.437  70.224  1.00  0.00    -0.245 C  
BRANCH  16  17
HETATM   17  O   UNL     1     -13.197  13.862  70.561  1.00  0.00    -0.120 OA 
BRANCH  17  18
HETATM   18  C   UNL     1     -13.181  15.220  71.007  1.00  0.00    -0.484 C  
HETATM   19  C   UNL     1     -13.987  15.349  72.283  1.00  0.00    -0.661 C  
ENDBRANCH  17  18
ENDBRANCH  16  17
ENDBRANCH  15  16
ENDBRANCH  14  15
BRANCH  14  20
HETATM   20  C   UNL     1     -10.541  11.225  66.855  1.00  0.00    -0.257 C  
BRANCH  20  21
HETATM   21  C   UNL     1      -9.614  10.027  66.658  1.00  0.00    -0.186 C  
BRANCH  21  22
HETATM   22  O   UNL     1     -10.393   8.843  66.484  1.00  0.00    -0.276 OA 
BRANCH  22  23
HETATM   23  C   UNL     1     -10.405   8.065  67.683  1.00  0.00    -0.246 C  
HETATM   24  C   UNL     1     -10.998   6.702  67.384  1.00  0.00    -0.434 C  
ENDBRANCH  22  23
ENDBRANCH  21  22
ENDBRANCH  20  21
ENDBRANCH  14  20
ENDBRANCH  13  14
ENDBRANCH  12  13
ENDBRANCH   6  12
ENDBRANCH   5   6
ENDBRANCH   4   5
ENDBRANCH   3   4
ENDBRANCH   2   3
TORSDOF 19
ENDMDL
MODEL       33
REMARK 921   NORMALIZED FREE ENERGY PREDICTED BY IDOCK:   -4.01 KCAL/MOL
REMARK 922        TOTAL FREE ENERGY PREDICTED BY IDOCK:   -9.71 KCAL/MOL
REMARK 923 INTER-LIGAND FREE ENERGY PREDICTED BY IDOCK:   -8.11 KCAL/MOL
REMARK 924 INTRA-LIGAND FREE ENERGY PREDICTED BY IDOCK:   -1.59 KCAL/MOL
REMARK 927      BINDING AFFINITY PREDICTED BY RF-SCORE:    0.00 PKD
ROOT
HETATM    1  C   UNL     1      -6.372  20.684  67.926  1.00  0.00    -0.351 C  
HETATM    2  C   UNL     1      -6.583  19.191  68.072  1.00  0.00    -0.236 C  
ENDROOT
BRANCH   2   3
HETATM    3  O   UNL     1      -7.080  18.651  66.845  1.00  0.00    -0.198 OA 
BRANCH   3   4
HETATM    4  C   UNL     1      -7.096  17.222  66.910  1.00  0.00    -0.199 C  
BRANCH   4   5
HETATM    5  C   UNL     1      -7.343  16.750  68.340  1.00  0.00    -0.198 C  
BRANCH   5   6
HETATM    6  P   UNL     1      -8.754  15.551  68.446  1.00  0.00    -0.192 P  
BRANCH   6   7
HETATM    7  C   UNL     1     -10.102  16.616  69.159  1.00  0.00    -0.285 C  
BRANCH   7   8
HETATM    8  C   UNL     1     -10.626  17.606  68.119  1.00  0.00    -0.356 C  
BRANCH   8   9
HETATM    9  O   UNL     1     -10.142  18.921  68.404  1.00  0.00    -0.363 OA 
BRANCH   9  10
HETATM   10  C   UNL     1     -10.510  19.821  67.357  1.00  0.00    -0.442 C  
HETATM   11  C   UNL     1     -10.516  19.083  66.034  1.00  0.00    -0.530 C  
ENDBRANCH   9  10
ENDBRANCH   8   9
ENDBRANCH   7   8
ENDBRANCH   6   7
BRANCH   6  12
HETATM   12  C   UNL     1      -9.333  15.533  66.682  1.00  0.00    -0.266 C  
BRANCH  12  13
HETATM   13  C   UNL     1     -10.012  14.229  66.293  1.00  0.00    -0.306 C  
BRANCH  13  14
HETATM   14  P   UNL     1     -11.805  14.178  66.760  1.00  0.00    -0.428 P  
BRANCH  14  15
HETATM   15  C   UNL     1     -12.615  13.748  65.147  1.00  0.00    -0.433 C  
BRANCH  15  16
HETATM   16  C   UNL     1     -12.133  12.387  64.637  1.00  0.00    -0.415 C  
BRANCH  16  17
HETATM   17  O   UNL     1     -11.449  12.537  63.389  1.00  0.00    -0.472 OA 
BRANCH  17  18
HETATM   18  C   UNL     1     -10.228  11.794  63.403  1.00  0.00    -0.449 C  
HETATM   19  C   UNL     1     -10.275  10.753  64.502  1.00  0.00    -0.428 C  
ENDBRANCH  17  18
ENDBRANCH  16  17
ENDBRANCH  15  16
ENDBRANCH  14  15
BRANCH  14  20
HETATM   20  C   UNL     1     -11.854  12.515  67.590  1.00  0.00    -0.317 C  
BRANCH  20  21
HETATM   21  C   UNL     1     -10.465  12.040  68.013  1.00  0.00    -0.207 C  
BRANCH  21  22
HETATM   22  O   UNL     1     -10.571  11.248  69.196  1.00  0.00    -0.218 OA 
BRANCH  22  23
HETATM   23  C   UNL     1     -11.942  11.010  69.525  1.00  0.00    -0.342 C  
HETATM   24  C   UNL     1     -12.029  10.492  70.947  1.00  0.00    -0.481 C  
ENDBRANCH  22  23
ENDBRANCH  21  22
ENDBRANCH  20  21
ENDBRANCH  14  20
ENDBRANCH  13  14
ENDBRANCH  12  13
ENDBRANCH   6  12
ENDBRANCH   5   6
ENDBRANCH   4   5
ENDBRANCH   3   4
ENDBRANCH   2   3
TORSDOF 19
ENDMDL
MODEL       34
REMARK 921   NORMALIZED FREE ENERGY PREDICTED BY IDOCK:   -3.97 KCAL/MOL
REMARK 922        TOTAL FREE ENERGY PREDICTED BY IDOCK:   -9.64 KCAL/MOL
REMARK 923 INTER-LIGAND FREE ENERGY PREDICTED BY IDOCK:   -8.54 KCAL/MOL
REMARK 924 INTRA-LIGAND FREE ENERGY PREDICTED BY IDOCK:   -1.10 KCAL/MOL
REMARK 927      BINDING AFFINITY PREDICTED BY RF-SCORE:    0.00 PKD
ROOT
HETATM    1  C   UNL     1     -12.339  13.626  64.660  1.00  0.00    -0.413 C  
HETATM    2  C   UNL     1     -12.098  12.262  64.047  1.00  0.00    -0.471 C  
ENDROOT
BRANCH   2   3
HETATM    3  O   UNL     1     -11.080  11.575  64.780  1.00  0.00    -0.296 OA 
BRANCH   3   4
HETATM    4  C   UNL     1     -10.196  12.519  65.390  1.00  0.00    -0.283 C  
BRANCH   4   5
HETATM    5  C   UNL     1      -9.649  11.973  66.707  1.00  0.00    -0.208 C  
BRANCH   5   6
HETATM    6  P   UNL     1     -10.975  11.205  67.751  1.00  0.00    -0.303 P  
BRANCH   6   7
HETATM    7  C   UNL     1      -9.986  10.083  68.854  1.00  0.00    -0.192 C  
BRANCH   7   8
HETATM    8  C   UNL     1     -10.902   9.225  69.727  1.00  0.00    -0.224 C  
BRANCH   8   9
HETATM    9  O   UNL     1     -10.990   9.780  71.042  1.00  0.00    -0.320 OA 
BRANCH   9  10
HETATM   10  C   UNL     1     -12.259   9.474  71.624  1.00  0.00    -0.398 C  
HETATM   11  C   UNL     1     -13.089  10.737  71.723  1.00  0.00    -0.573 C  
ENDBRANCH   9  10
ENDBRANCH   8   9
ENDBRANCH   7   8
ENDBRANCH   6   7
BRANCH   6  12
HETATM   12  C   UNL     1     -11.294  12.568  68.972  1.00  0.00    -0.290 C  
BRANCH  12  13
HETATM   13  C   UNL     1     -11.558  13.911  68.307  1.00  0.00    -0.337 C  
BRANCH  13  14
HETATM   14  P   UNL     1     -10.353  15.222  68.817  1.00  0.00    -0.251 P  
BRANCH  14  15
HETATM   15  C   UNL     1     -10.379  16.365  67.354  1.00  0.00    -0.295 C  
BRANCH  15  16
HETATM   16  C   UNL     1      -9.341  15.943  66.311  1.00  0.00    -0.322 C  
BRANCH  16  17
HETATM   17  O   UNL     1      -8.724  17.096  65.730  1.00  0.00    -0.527 OA 
BRANCH  17  18
HETATM   18  C   UNL     1      -7.448  17.330  66.332  1.00  0.00    -0.301 C  
HETATM   19  C   UNL     1      -7.484  18.624  67.118  1.00  0.00    -0.230 C  
ENDBRANCH  17  18
ENDBRANCH  16  17
ENDBRANCH  15  16
ENDBRANCH  14  15
BRANCH  14  20
HETATM   20  C   UNL     1     -11.431  16.185  69.986  1.00  0.00    -0.288 C  
BRANCH  20  21
HETATM   21  C   UNL     1     -11.887  15.343  71.176  1.00  0.00    -0.371 C  
BRANCH  21  22
HETATM   22  O   UNL     1     -12.373  16.199  72.210  1.00  0.00    -0.473 OA 
BRANCH  22  23
HETATM   23  C   UNL     1     -13.514  15.621  72.850  1.00  0.00    -0.568 C  
HETATM   24  C   UNL     1     -14.043  14.488  71.994  1.00  0.00    -0.606 C  
ENDBRANCH  22  23
ENDBRANCH  21  22
ENDBRANCH  20  21
ENDBRANCH  14  20
ENDBRANCH  13  14
ENDBRANCH  12  13
ENDBRANCH   6  12
ENDBRANCH   5   6
ENDBRANCH   4   5
ENDBRANCH   3   4
ENDBRANCH   2   3
TORSDOF 19
ENDMDL
MODEL       35
REMARK 921   NORMALIZED FREE ENERGY PREDICTED BY IDOCK:   -3.97 KCAL/MOL
REMARK 922        TOTAL FREE ENERGY PREDICTED BY IDOCK:   -9.64 KCAL/MOL
REMARK 923 INTER-LIGAND FREE ENERGY PREDICTED BY IDOCK:   -8.59 KCAL/MOL
REMARK 924 INTRA-LIGAND FREE ENERGY PREDICTED BY IDOCK:   -1.05 KCAL/MOL
REMARK 927      BINDING AFFINITY PREDICTED BY RF-SCORE:    0.00 PKD
ROOT
HETATM    1  C   UNL     1      -9.152  20.148  67.515  1.00  0.00    -0.465 C  
HETATM    2  C   UNL     1      -8.555  19.473  66.298  1.00  0.00    -0.361 C  
ENDROOT
BRANCH   2   3
HETATM    3  O   UNL     1      -9.224  18.233  66.056  1.00  0.00    -0.508 OA 
BRANCH   3   4
HETATM    4  C   UNL     1     -10.345  18.103  66.934  1.00  0.00    -0.375 C  
BRANCH   4   5
HETATM    5  C   UNL     1     -10.594  16.637  67.279  1.00  0.00    -0.281 C  
BRANCH   5   6
HETATM    6  P   UNL     1     -10.266  16.273  69.067  1.00  0.00    -0.298 P  
BRANCH   6   7
HETATM    7  C   UNL     1     -11.939  15.711  69.652  1.00  0.00    -0.349 C  
BRANCH   7   8
HETATM    8  C   UNL     1     -12.073  15.871  71.166  1.00  0.00    -0.418 C  
BRANCH   8   9
HETATM    9  O   UNL     1     -13.355  15.409  71.599  1.00  0.00    -0.422 OA 
BRANCH   9  10
HETATM   10  C   UNL     1     -13.267  14.870  72.919  1.00  0.00    -0.492 C  
HETATM   11  C   UNL     1     -12.750  15.933  73.867  1.00  0.00    -0.727 C  
ENDBRANCH   9  10
ENDBRANCH   8   9
ENDBRANCH   7   8
ENDBRANCH   6   7
BRANCH   6  12
HETATM   12  C   UNL     1      -9.454  14.608  68.943  1.00  0.00    -0.173 C  
BRANCH  12  13
HETATM   13  C   UNL     1     -10.422  13.503  68.546  1.00  0.00    -0.244 C  
BRANCH  13  14
HETATM   14  P   UNL     1      -9.818  12.488  67.119  1.00  0.00    -0.218 P  
BRANCH  14  15
HETATM   15  C   UNL     1      -9.850  10.770  67.822  1.00  0.00    -0.166 C  
BRANCH  15  16
HETATM   16  C   UNL     1     -11.281  10.226  67.875  1.00  0.00    -0.220 C  
BRANCH  16  17
HETATM   17  O   UNL     1     -11.808  10.344  69.200  1.00  0.00    -0.186 OA 
BRANCH  17  18
HETATM   18  C   UNL     1     -10.789  10.069  70.164  1.00  0.00    -0.311 C  
HETATM   19  C   UNL     1     -11.196   8.884  71.015  1.00  0.00    -0.342 C  
ENDBRANCH  17  18
ENDBRANCH  16  17
ENDBRANCH  15  16
ENDBRANCH  14  15
BRANCH  14  20
HETATM   20  C   UNL     1     -11.373  12.440  66.102  1.00  0.00    -0.352 C  
BRANCH  20  21
HETATM   21  C   UNL     1     -12.401  13.467  66.573  1.00  0.00    -0.327 C  
BRANCH  21  22
HETATM   22  O   UNL     1     -12.971  14.127  65.442  1.00  0.00    -0.706 OA 
BRANCH  22  23
HETATM   23  C   UNL     1     -12.000  14.280  64.404  1.00  0.00    -0.456 C  
HETATM   24  C   UNL     1     -11.624  15.744  64.287  1.00  0.00    -0.192 C  
ENDBRANCH  22  23
ENDBRANCH  21  22
ENDBRANCH  20  21
ENDBRANCH  14  20
ENDBRANCH  13  14
ENDBRANCH  12  13
ENDBRANCH   6  12
ENDBRANCH   5   6
ENDBRANCH   4   5
ENDBRANCH   3   4
ENDBRANCH   2   3
TORSDOF 19
ENDMDL
MODEL       36
REMARK 921   NORMALIZED FREE ENERGY PREDICTED BY IDOCK:   -3.97 KCAL/MOL
REMARK 922        TOTAL FREE ENERGY PREDICTED BY IDOCK:   -9.63 KCAL/MOL
REMARK 923 INTER-LIGAND FREE ENERGY PREDICTED BY IDOCK:   -8.49 KCAL/MOL
REMARK 924 INTRA-LIGAND FREE ENERGY PREDICTED BY IDOCK:   -1.14 KCAL/MOL
REMARK 927      BINDING AFFINITY PREDICTED BY RF-SCORE:    0.00 PKD
ROOT
HETATM    1  C   UNL     1     -13.938  13.685  72.326  1.00  0.00    -0.661 C  
HETATM    2  C   UNL     1     -12.722  13.993  71.479  1.00  0.00    -0.363 C  
ENDROOT
BRANCH   2   3
HETATM    3  O   UNL     1     -12.345  15.362  71.653  1.00  0.00    -0.313 OA 
BRANCH   3   4
HETATM    4  C   UNL     1     -11.447  15.758  70.614  1.00  0.00    -0.390 C  
BRANCH   4   5
HETATM    5  C   UNL     1     -11.881  15.172  69.273  1.00  0.00    -0.320 C  
BRANCH   5   6
HETATM    6  P   UNL     1     -10.813  15.759  67.875  1.00  0.00    -0.310 P  
BRANCH   6   7
HETATM    7  C   UNL     1      -9.530  16.762  68.774  1.00  0.00    -0.259 C  
BRANCH   7   8
HETATM    8  C   UNL     1      -8.996  17.887  67.889  1.00  0.00    -0.264 C  
BRANCH   8   9
HETATM    9  O   UNL     1      -9.410  19.156  68.402  1.00  0.00    -0.328 OA 
BRANCH   9  10
HETATM   10  C   UNL     1     -10.489  19.677  67.624  1.00  0.00    -0.446 C  
HETATM   11  C   UNL     1     -10.143  19.584  66.152  1.00  0.00    -0.557 C  
ENDBRANCH   9  10
ENDBRANCH   8   9
ENDBRANCH   7   8
ENDBRANCH   6   7
BRANCH   6  12
HETATM   12  C   UNL     1      -9.790  14.242  67.555  1.00  0.00    -0.231 C  
BRANCH  12  13
HETATM   13  C   UNL     1     -10.270  13.027  68.333  1.00  0.00    -0.245 C  
BRANCH  13  14
HETATM   14  P   UNL     1     -11.079  11.752  67.260  1.00  0.00    -0.315 P  
BRANCH  14  15
HETATM   15  C   UNL     1      -9.789  11.465  65.957  1.00  0.00    -0.223 C  
BRANCH  15  16
HETATM   16  C   UNL     1     -10.353  11.727  64.559  1.00  0.00    -0.294 C  
BRANCH  16  17
HETATM   17  O   UNL     1     -10.854  13.064  64.467  1.00  0.00    -0.329 OA 
BRANCH  17  18
HETATM   18  C   UNL     1     -11.792  13.167  63.393  1.00  0.00    -0.427 C  
HETATM   19  C   UNL     1     -12.724  11.974  63.412  1.00  0.00    -0.527 C  
ENDBRANCH  17  18
ENDBRANCH  16  17
ENDBRANCH  15  16
ENDBRANCH  14  15
BRANCH  14  20
HETATM   20  C   UNL     1     -10.800  10.247  68.315  1.00  0.00    -0.255 C  
BRANCH  20  21
HETATM   21  C   UNL     1     -11.109  10.510  69.788  1.00  0.00    -0.295 C  
BRANCH  21  22
HETATM   22  O   UNL     1     -10.778   9.355  70.559  1.00  0.00    -0.232 OA 
BRANCH  22  23
HETATM   23  C   UNL     1     -11.556   9.308  71.758  1.00  0.00    -0.388 C  
HETATM   24  C   UNL     1     -12.902   9.956  71.503  1.00  0.00    -0.522 C  
ENDBRANCH  22  23
ENDBRANCH  21  22
ENDBRANCH  20  21
ENDBRANCH  14  20
ENDBRANCH  13  14
ENDBRANCH  12  13
ENDBRANCH   6  12
ENDBRANCH   5   6
ENDBRANCH   4   5
ENDBRANCH   3   4
ENDBRANCH   2   3
TORSDOF 19
ENDMDL
MODEL       37
REMARK 921   NORMALIZED FREE ENERGY PREDICTED BY IDOCK:   -3.97 KCAL/MOL
REMARK 922        TOTAL FREE ENERGY PREDICTED BY IDOCK:   -9.62 KCAL/MOL
REMARK 923 INTER-LIGAND FREE ENERGY PREDICTED BY IDOCK:   -8.46 KCAL/MOL
REMARK 924 INTRA-LIGAND FREE ENERGY PREDICTED BY IDOCK:   -1.16 KCAL/MOL
REMARK 927      BINDING AFFINITY PREDICTED BY RF-SCORE:    0.00 PKD
ROOT
HETATM    1  C   UNL     1      -7.060  20.791  67.327  1.00  0.00    -0.417 C  
HETATM    2  C   UNL     1      -8.312  20.207  66.706  1.00  0.00    -0.301 C  
ENDROOT
BRANCH   2   3
HETATM    3  O   UNL     1      -9.439  20.484  67.542  1.00  0.00    -0.402 OA 
BRANCH   3   4
HETATM    4  C   UNL     1     -10.398  19.428  67.435  1.00  0.00    -0.446 C  
BRANCH   4   5
HETATM    5  C   UNL     1     -10.178  18.626  66.155  1.00  0.00    -0.416 C  
BRANCH   5   6
HETATM    6  P   UNL     1      -9.865  16.831  66.499  1.00  0.00    -0.320 P  
BRANCH   6   7
HETATM    7  C   UNL     1     -10.971  16.528  67.963  1.00  0.00    -0.320 C  
BRANCH   7   8
HETATM    8  C   UNL     1     -10.152  16.207  69.212  1.00  0.00    -0.260 C  
BRANCH   8   9
HETATM    9  O   UNL     1     -10.875  15.309  70.058  1.00  0.00    -0.259 OA 
BRANCH   9  10
HETATM   10  C   UNL     1     -11.809  16.031  70.863  1.00  0.00    -0.373 C  
HETATM   11  C   UNL     1     -11.785  15.488  72.277  1.00  0.00    -0.578 C  
ENDBRANCH   9  10
ENDBRANCH   8   9
ENDBRANCH   7   8
ENDBRANCH   6   7
BRANCH   6  12
HETATM   12  C   UNL     1     -10.921  16.034  65.196  1.00  0.00    -0.348 C  
BRANCH  12  13
HETATM   13  C   UNL     1     -10.684  14.537  65.073  1.00  0.00    -0.427 C  
BRANCH  13  14
HETATM   14  P   UNL     1     -12.244  13.544  65.186  1.00  0.00    -0.469 P  
BRANCH  14  15
HETATM   15  C   UNL     1     -12.104  12.431  63.706  1.00  0.00    -0.529 C  
BRANCH  15  16
HETATM   16  C   UNL     1     -10.639  12.122  63.389  1.00  0.00    -0.410 C  
BRANCH  16  17
HETATM   17  O   UNL     1     -10.369  10.731  63.592  1.00  0.00    -0.327 OA 
BRANCH  17  18
HETATM   18  C   UNL     1      -9.214  10.567  64.419  1.00  0.00    -0.245 C  
HETATM   19  C   UNL     1      -9.457   9.457  65.421  1.00  0.00    -0.322 C  
ENDBRANCH  17  18
ENDBRANCH  16  17
ENDBRANCH  15  16
ENDBRANCH  14  15
BRANCH  14  20
HETATM   20  C   UNL     1     -11.747  12.351  66.523  1.00  0.00    -0.379 C  
BRANCH  20  21
HETATM   21  C   UNL     1     -10.545  12.849  67.322  1.00  0.00    -0.234 C  
BRANCH  21  22
HETATM   22  O   UNL     1     -10.508  12.192  68.589  1.00  0.00    -0.228 OA 
BRANCH  22  23
HETATM   23  C   UNL     1      -9.488  11.191  68.611  1.00  0.00    -0.193 C  
HETATM   24  C   UNL     1      -9.848  10.137  69.639  1.00  0.00    -0.254 C  
ENDBRANCH  22  23
ENDBRANCH  21  22
ENDBRANCH  20  21
ENDBRANCH  14  20
ENDBRANCH  13  14
ENDBRANCH  12  13
ENDBRANCH   6  12
ENDBRANCH   5   6
ENDBRANCH   4   5
ENDBRANCH   3   4
ENDBRANCH   2   3
TORSDOF 19
ENDMDL
MODEL       38
REMARK 921   NORMALIZED FREE ENERGY PREDICTED BY IDOCK:   -3.95 KCAL/MOL
REMARK 922        TOTAL FREE ENERGY PREDICTED BY IDOCK:   -9.60 KCAL/MOL
REMARK 923 INTER-LIGAND FREE ENERGY PREDICTED BY IDOCK:   -8.47 KCAL/MOL
REMARK 924 INTRA-LIGAND FREE ENERGY PREDICTED BY IDOCK:   -1.13 KCAL/MOL
REMARK 927      BINDING AFFINITY PREDICTED BY RF-SCORE:    0.00 PKD
ROOT
HETATM    1  C   UNL     1      -9.180  20.327  67.440  1.00  0.00    -0.507 C  
HETATM    2  C   UNL     1     -10.375  19.917  66.604  1.00  0.00    -0.485 C  
ENDROOT
BRANCH   2   3
HETATM    3  O   UNL     1     -11.033  18.805  67.216  1.00  0.00    -0.412 OA 
BRANCH   3   4
HETATM    4  C   UNL     1     -10.254  18.316  68.311  1.00  0.00    -0.385 C  
BRANCH   4   5
HETATM    5  C   UNL     1      -9.952  16.829  68.137  1.00  0.00    -0.270 C  
BRANCH   5   6
HETATM    6  P   UNL     1      -9.445  16.416  66.402  1.00  0.00    -0.335 P  
BRANCH   6   7
HETATM    7  C   UNL     1      -7.653  16.910  66.403  1.00  0.00    -0.304 C  
BRANCH   7   8
HETATM    8  C   UNL     1      -6.960  16.455  67.687  1.00  0.00    -0.134 C  
BRANCH   8   9
HETATM    9  O   UNL     1      -5.937  15.502  67.384  1.00  0.00    -0.294 OA 
BRANCH   9  10
HETATM   10  C   UNL     1      -6.006  14.398  68.288  1.00  0.00    -0.120 C  
HETATM   11  C   UNL     1      -6.674  14.838  69.575  1.00  0.00    -0.160 C  
ENDBRANCH   9  10
ENDBRANCH   8   9
ENDBRANCH   7   8
ENDBRANCH   6   7
BRANCH   6  12
HETATM   12  C   UNL     1      -9.216  14.578  66.531  1.00  0.00    -0.255 C  
BRANCH  12  13
HETATM   13  C   UNL     1      -9.839  13.990  67.789  1.00  0.00    -0.232 C  
BRANCH  13  14
HETATM   14  P   UNL     1     -11.127  12.708  67.428  1.00  0.00    -0.307 P  
BRANCH  14  15
HETATM   15  C   UNL     1     -11.827  12.375  69.115  1.00  0.00    -0.300 C  
BRANCH  15  16
HETATM   16  C   UNL     1     -11.527  10.941  69.560  1.00  0.00    -0.301 C  
BRANCH  16  17
HETATM   17  O   UNL     1     -11.939  10.744  70.916  1.00  0.00    -0.326 OA 
BRANCH  17  18
HETATM   18  C   UNL     1     -12.908   9.695  70.990  1.00  0.00    -0.262 C  
HETATM   19  C   UNL     1     -13.215   9.385  72.441  1.00  0.00    -0.483 C  
ENDBRANCH  17  18
ENDBRANCH  16  17
ENDBRANCH  15  16
ENDBRANCH  14  15
BRANCH  14  20
HETATM   20  C   UNL     1     -12.463  13.806  66.745  1.00  0.00    -0.209 C  
BRANCH  20  21
HETATM   21  C   UNL     1     -12.517  13.768  65.220  1.00  0.00    -0.480 C  
BRANCH  21  22
HETATM   22  O   UNL     1     -13.061  12.520  64.791  1.00  0.00    -0.853 OA 
BRANCH  22  23
HETATM   23  C   UNL     1     -12.505  12.130  63.533  1.00  0.00    -0.555 C  
HETATM   24  C   UNL     1     -11.048  12.546  63.484  1.00  0.00    -0.497 C  
ENDBRANCH  22  23
ENDBRANCH  21  22
ENDBRANCH  20  21
ENDBRANCH  14  20
ENDBRANCH  13  14
ENDBRANCH  12  13
ENDBRANCH   6  12
ENDBRANCH   5   6
ENDBRANCH   4   5
ENDBRANCH   3   4
ENDBRANCH   2   3
TORSDOF 19
ENDMDL
MODEL       39
REMARK 921   NORMALIZED FREE ENERGY PREDICTED BY IDOCK:   -3.95 KCAL/MOL
REMARK 922        TOTAL FREE ENERGY PREDICTED BY IDOCK:   -9.59 KCAL/MOL
REMARK 923 INTER-LIGAND FREE ENERGY PREDICTED BY IDOCK:   -8.58 KCAL/MOL
REMARK 924 INTRA-LIGAND FREE ENERGY PREDICTED BY IDOCK:   -1.01 KCAL/MOL
REMARK 927      BINDING AFFINITY PREDICTED BY RF-SCORE:    0.00 PKD
ROOT
HETATM    1  C   UNL     1     -10.242   5.538  68.962  1.00  0.00    -0.298 C  
HETATM    2  C   UNL     1     -11.276   6.306  69.759  1.00  0.00    -0.430 C  
ENDROOT
BRANCH   2   3
HETATM    3  O   UNL     1     -10.713   7.534  70.226  1.00  0.00    -0.228 OA 
BRANCH   3   4
HETATM    4  C   UNL     1     -11.527   8.082  71.266  1.00  0.00    -0.269 C  
BRANCH   4   5
HETATM    5  C   UNL     1     -11.251   9.574  71.439  1.00  0.00    -0.382 C  
BRANCH   5   6
HETATM    6  P   UNL     1     -12.534  10.623  70.607  1.00  0.00    -0.374 P  
BRANCH   6   7
HETATM    7  C   UNL     1     -13.243  11.565  72.044  1.00  0.00    -0.337 C  
BRANCH   7   8
HETATM    8  C   UNL     1     -13.063  13.071  71.854  1.00  0.00    -0.384 C  
BRANCH   8   9
HETATM    9  O   UNL     1     -14.114  13.780  72.517  1.00  0.00    -0.686 OA 
BRANCH   9  10
HETATM   10  C   UNL     1     -13.748  15.149  72.700  1.00  0.00    -0.486 C  
HETATM   11  C   UNL     1     -12.652  15.246  73.741  1.00  0.00    -0.736 C  
ENDBRANCH   9  10
ENDBRANCH   8   9
ENDBRANCH   7   8
ENDBRANCH   6   7
BRANCH   6  12
HETATM   12  C   UNL     1     -11.475  11.974  69.898  1.00  0.00    -0.162 C  
BRANCH  12  13
HETATM   13  C   UNL     1     -10.567  11.490  68.777  1.00  0.00    -0.211 C  
BRANCH  13  14
HETATM   14  P   UNL     1     -11.304  11.727  67.093  1.00  0.00    -0.265 P  
BRANCH  14  15
HETATM   15  C   UNL     1     -12.008  13.440  67.215  1.00  0.00    -0.347 C  
BRANCH  15  16
HETATM   16  C   UNL     1     -11.840  14.198  65.896  1.00  0.00    -0.384 C  
BRANCH  16  17
HETATM   17  O   UNL     1     -12.876  13.835  64.978  1.00  0.00    -0.693 OA 
BRANCH  17  18
HETATM   18  C   UNL     1     -12.314  13.501  63.706  1.00  0.00    -0.327 C  
HETATM   19  C   UNL     1     -12.524  12.027  63.426  1.00  0.00    -0.625 C  
ENDBRANCH  17  18
ENDBRANCH  16  17
ENDBRANCH  15  16
ENDBRANCH  14  15
BRANCH  14  20
HETATM   20  C   UNL     1      -9.754  12.093  66.134  1.00  0.00    -0.240 C  
BRANCH  20  21
HETATM   21  C   UNL     1      -9.358  10.938  65.216  1.00  0.00    -0.213 C  
BRANCH  21  22
HETATM   22  O   UNL     1      -9.439   9.707  65.934  1.00  0.00    -0.196 OA 
BRANCH  22  23
HETATM   23  C   UNL     1      -8.678   8.688  65.280  1.00  0.00    -0.165 C  
HETATM   24  C   UNL     1      -8.513   7.510  66.219  1.00  0.00    -0.141 C  
ENDBRANCH  22  23
ENDBRANCH  21  22
ENDBRANCH  20  21
ENDBRANCH  14  20
ENDBRANCH  13  14
ENDBRANCH  12  13
ENDBRANCH   6  12
ENDBRANCH   5   6
ENDBRANCH   4   5
ENDBRANCH   3   4
ENDBRANCH   2   3
TORSDOF 19
ENDMDL
MODEL       40
REMARK 921   NORMALIZED FREE ENERGY PREDICTED BY IDOCK:   -3.94 KCAL/MOL
REMARK 922        TOTAL FREE ENERGY PREDICTED BY IDOCK:   -9.56 KCAL/MOL
REMARK 923 INTER-LIGAND FREE ENERGY PREDICTED BY IDOCK:   -8.68 KCAL/MOL
REMARK 924 INTRA-LIGAND FREE ENERGY PREDICTED BY IDOCK:   -0.88 KCAL/MOL
REMARK 927      BINDING AFFINITY PREDICTED BY RF-SCORE:    0.00 PKD
ROOT
HETATM    1  C   UNL     1     -10.100  18.857  67.202  1.00  0.00    -0.414 C  
HETATM    2  C   UNL     1     -10.526  18.271  65.873  1.00  0.00    -0.307 C  
ENDROOT
BRANCH   2   3
HETATM    3  O   UNL     1      -9.933  16.981  65.701  1.00  0.00    -0.554 OA 
BRANCH   3   4
HETATM    4  C   UNL     1     -10.762  16.168  64.866  1.00  0.00    -0.274 C  
BRANCH   4   5
HETATM    5  C   UNL     1     -10.393  14.694  65.010  1.00  0.00    -0.402 C  
BRANCH   5   6
HETATM    6  P   UNL     1     -11.827  13.575  64.651  1.00  0.00    -0.440 P  
BRANCH   6   7
HETATM    7  C   UNL     1     -11.039  12.282  63.573  1.00  0.00    -0.464 C  
BRANCH   7   8
HETATM    8  C   UNL     1     -10.604  11.071  64.398  1.00  0.00    -0.325 C  
BRANCH   8   9
HETATM    9  O   UNL     1      -9.179  10.955  64.389  1.00  0.00    -0.207 OA 
BRANCH   9  10
HETATM   10  C   UNL     1      -8.733  10.235  65.540  1.00  0.00    -0.162 C  
HETATM   11  C   UNL     1      -9.897   9.475  66.143  1.00  0.00    -0.343 C  
ENDBRANCH   9  10
ENDBRANCH   8   9
ENDBRANCH   7   8
ENDBRANCH   6   7
BRANCH   6  12
HETATM   12  C   UNL     1     -11.910  12.595  66.226  1.00  0.00    -0.410 C  
BRANCH  12  13
HETATM   13  C   UNL     1     -12.247  13.449  67.440  1.00  0.00    -0.214 C  
BRANCH  13  14
HETATM   14  P   UNL     1     -11.088  13.179  68.860  1.00  0.00    -0.226 P  
BRANCH  14  15
HETATM   15  C   UNL     1     -11.541  14.571  70.001  1.00  0.00    -0.284 C  
BRANCH  15  16
HETATM   16  C   UNL     1     -12.943  14.371  70.582  1.00  0.00    -0.289 C  
BRANCH  16  17
HETATM   17  O   UNL     1     -13.446  15.604  71.105  1.00  0.00    -0.552 OA 
BRANCH  17  18
HETATM   18  C   UNL     1     -13.934  15.414  72.436  1.00  0.00    -0.560 C  
HETATM   19  C   UNL     1     -12.916  15.928  73.432  1.00  0.00    -0.693 C  
ENDBRANCH  17  18
ENDBRANCH  16  17
ENDBRANCH  15  16
ENDBRANCH  14  15
BRANCH  14  20
HETATM   20  C   UNL     1     -11.970  11.779  69.708  1.00  0.00    -0.322 C  
BRANCH  20  21
HETATM   21  C   UNL     1     -11.063  10.568  69.916  1.00  0.00    -0.307 C  
BRANCH  21  22
HETATM   22  O   UNL     1     -11.366   9.953  71.168  1.00  0.00    -0.357 OA 
BRANCH  22  23
HETATM   23  C   UNL     1     -10.473   8.867  71.428  1.00  0.00    -0.305 C  
HETATM   24  C   UNL     1     -11.253   7.568  71.418  1.00  0.00    -0.267 C  
ENDBRANCH  22  23
ENDBRANCH  21  22
ENDBRANCH  20  21
ENDBRANCH  14  20
ENDBRANCH  13  14
ENDBRANCH  12  13
ENDBRANCH   6  12
ENDBRANCH   5   6
ENDBRANCH   4   5
ENDBRANCH   3   4
ENDBRANCH   2   3
TORSDOF 19
ENDMDL
MODEL       41
REMARK 921   NORMALIZED FREE ENERGY PREDICTED BY IDOCK:   -3.93 KCAL/MOL
REMARK 922        TOTAL FREE ENERGY PREDICTED BY IDOCK:   -9.56 KCAL/MOL
REMARK 923 INTER-LIGAND FREE ENERGY PREDICTED BY IDOCK:   -8.48 KCAL/MOL
REMARK 924 INTRA-LIGAND FREE ENERGY PREDICTED BY IDOCK:   -1.08 KCAL/MOL
REMARK 927      BINDING AFFINITY PREDICTED BY RF-SCORE:    0.00 PKD
ROOT
HETATM    1  C   UNL     1     -10.440  12.303  63.586  1.00  0.00    -0.483 C  
HETATM    2  C   UNL     1     -11.800  12.181  64.243  1.00  0.00    -0.378 C  
ENDROOT
BRANCH   2   3
HETATM    3  O   UNL     1     -12.611  13.304  63.887  1.00  0.00    -0.661 OA 
BRANCH   3   4
HETATM    4  C   UNL     1     -12.248  14.439  64.677  1.00  0.00    -0.464 C  
BRANCH   4   5
HETATM    5  C   UNL     1     -12.184  14.068  66.157  1.00  0.00    -0.465 C  
BRANCH   5   6
HETATM    6  P   UNL     1     -10.560  14.531  66.924  1.00  0.00    -0.288 P  
BRANCH   6   7
HETATM    7  C   UNL     1     -10.654  16.388  66.915  1.00  0.00    -0.252 C  
BRANCH   7   8
HETATM    8  C   UNL     1     -10.732  16.940  68.338  1.00  0.00    -0.368 C  
BRANCH   8   9
HETATM    9  O   UNL     1     -10.316  18.308  68.360  1.00  0.00    -0.372 OA 
BRANCH   9  10
HETATM   10  C   UNL     1     -10.713  18.965  67.155  1.00  0.00    -0.432 C  
HETATM   11  C   UNL     1      -9.795  20.142  66.894  1.00  0.00    -0.593 C  
ENDBRANCH   9  10
ENDBRANCH   8   9
ENDBRANCH   7   8
ENDBRANCH   6   7
BRANCH   6  12
HETATM   12  C   UNL     1     -10.930  14.254  68.723  1.00  0.00    -0.255 C  
BRANCH  12  13
HETATM   13  C   UNL     1     -11.953  13.152  68.955  1.00  0.00    -0.277 C  
BRANCH  13  14
HETATM   14  P   UNL     1     -11.181  11.531  69.415  1.00  0.00    -0.216 P  
BRANCH  14  15
HETATM   15  C   UNL     1     -12.556  10.695  70.341  1.00  0.00    -0.316 C  
BRANCH  15  16
HETATM   16  C   UNL     1     -12.001   9.767  71.424  1.00  0.00    -0.411 C  
BRANCH  16  17
HETATM   17  O   UNL     1     -13.066   9.242  72.223  1.00  0.00    -0.412 OA 
BRANCH  17  18
HETATM   18  C   UNL     1     -13.625   8.082  71.600  1.00  0.00    -0.344 C  
HETATM   19  C   UNL     1     -12.522   7.098  71.270  1.00  0.00    -0.425 C  
ENDBRANCH  17  18
ENDBRANCH  16  17
ENDBRANCH  15  16
ENDBRANCH  14  15
BRANCH  14  20
HETATM   20  C   UNL     1     -11.325  10.654  67.782  1.00  0.00    -0.244 C  
BRANCH  20  21
HETATM   21  C   UNL     1      -9.974  10.513  67.083  1.00  0.00    -0.193 C  
BRANCH  21  22
HETATM   22  O   UNL     1     -10.086   9.578  66.010  1.00  0.00    -0.295 OA 
BRANCH  22  23
HETATM   23  C   UNL     1      -8.795   9.117  65.603  1.00  0.00    -0.185 C  
HETATM   24  C   UNL     1      -7.871  10.308  65.443  1.00  0.00    -0.149 C  
ENDBRANCH  22  23
ENDBRANCH  21  22
ENDBRANCH  20  21
ENDBRANCH  14  20
ENDBRANCH  13  14
ENDBRANCH  12  13
ENDBRANCH   6  12
ENDBRANCH   5   6
ENDBRANCH   4   5
ENDBRANCH   3   4
ENDBRANCH   2   3
TORSDOF 19
ENDMDL
MODEL       42
REMARK 921   NORMALIZED FREE ENERGY PREDICTED BY IDOCK:   -3.93 KCAL/MOL
REMARK 922        TOTAL FREE ENERGY PREDICTED BY IDOCK:   -9.55 KCAL/MOL
REMARK 923 INTER-LIGAND FREE ENERGY PREDICTED BY IDOCK:   -8.30 KCAL/MOL
REMARK 924 INTRA-LIGAND FREE ENERGY PREDICTED BY IDOCK:   -1.25 KCAL/MOL
REMARK 927      BINDING AFFINITY PREDICTED BY RF-SCORE:    0.00 PKD
ROOT
HETATM    1  C   UNL     1     -10.402  19.755  67.787  1.00  0.00    -0.573 C  
HETATM    2  C   UNL     1     -10.215  18.865  66.576  1.00  0.00    -0.414 C  
ENDROOT
BRANCH   2   3
HETATM    3  O   UNL     1     -10.126  17.499  66.989  1.00  0.00    -0.301 OA 
BRANCH   3   4
HETATM    4  C   UNL     1      -9.852  17.429  68.390  1.00  0.00    -0.316 C  
BRANCH   4   5
HETATM    5  C   UNL     1      -8.640  16.540  68.660  1.00  0.00    -0.243 C  
BRANCH   5   6
HETATM    6  P   UNL     1      -7.951  15.806  67.102  1.00  0.00    -0.250 P  
BRANCH   6   7
HETATM    7  C   UNL     1      -6.270  15.242  67.661  1.00  0.00    -0.130 C  
BRANCH   7   8
HETATM    8  C   UNL     1      -6.200  13.717  67.737  1.00  0.00    -0.150 C  
BRANCH   8   9
HETATM    9  O   UNL     1      -6.046  13.298  69.096  1.00  0.00    -0.082 OA 
BRANCH   9  10
HETATM   10  C   UNL     1      -5.649  14.401  69.912  1.00  0.00    -0.103 C  
HETATM   11  C   UNL     1      -5.808  14.034  71.373  1.00  0.00    -0.195 C  
ENDBRANCH   9  10
ENDBRANCH   8   9
ENDBRANCH   7   8
ENDBRANCH   6   7
BRANCH   6  12
HETATM   12  C   UNL     1      -8.797  14.153  67.090  1.00  0.00    -0.229 C  
BRANCH  12  13
HETATM   13  C   UNL     1      -9.961  14.089  66.112  1.00  0.00    -0.312 C  
BRANCH  13  14
HETATM   14  P   UNL     1     -11.611  14.033  66.952  1.00  0.00    -0.426 P  
BRANCH  14  15
HETATM   15  C   UNL     1     -12.780  13.990  65.510  1.00  0.00    -0.486 C  
BRANCH  15  16
HETATM   16  C   UNL     1     -12.063  14.367  64.211  1.00  0.00    -0.436 C  
BRANCH  16  17
HETATM   17  O   UNL     1     -12.455  13.487  63.153  1.00  0.00    -0.759 OA 
BRANCH  17  18
HETATM   18  C   UNL     1     -12.283  12.126  63.553  1.00  0.00    -0.567 C  
HETATM   19  C   UNL     1     -10.823  11.739  63.434  1.00  0.00    -0.460 C  
ENDBRANCH  17  18
ENDBRANCH  16  17
ENDBRANCH  15  16
ENDBRANCH  14  15
BRANCH  14  20
HETATM   20  C   UNL     1     -11.643  12.239  67.436  1.00  0.00    -0.355 C  
BRANCH  20  21
HETATM   21  C   UNL     1     -11.589  12.050  68.951  1.00  0.00    -0.321 C  
BRANCH  21  22
HETATM   22  O   UNL     1     -12.401  10.936  69.323  1.00  0.00    -0.395 OA 
BRANCH  22  23
HETATM   23  C   UNL     1     -11.970  10.391  70.573  1.00  0.00    -0.334 C  
HETATM   24  C   UNL     1     -13.158   9.769  71.280  1.00  0.00    -0.465 C  
ENDBRANCH  22  23
ENDBRANCH  21  22
ENDBRANCH  20  21
ENDBRANCH  14  20
ENDBRANCH  13  14
ENDBRANCH  12  13
ENDBRANCH   6  12
ENDBRANCH   5   6
ENDBRANCH   4   5
ENDBRANCH   3   4
ENDBRANCH   2   3
TORSDOF 19
ENDMDL
MODEL       43
REMARK 921   NORMALIZED FREE ENERGY PREDICTED BY IDOCK:   -3.93 KCAL/MOL
REMARK 922        TOTAL FREE ENERGY PREDICTED BY IDOCK:   -9.55 KCAL/MOL
REMARK 923 INTER-LIGAND FREE ENERGY PREDICTED BY IDOCK:   -8.40 KCAL/MOL
REMARK 924 INTRA-LIGAND FREE ENERGY PREDICTED BY IDOCK:   -1.15 KCAL/MOL
REMARK 927      BINDING AFFINITY PREDICTED BY RF-SCORE:    0.00 PKD
ROOT
HETATM    1  C   UNL     1      -9.682  20.492  66.977  1.00  0.00    -0.548 C  
HETATM    2  C   UNL     1     -10.527  19.411  66.334  1.00  0.00    -0.488 C  
ENDROOT
BRANCH   2   3
HETATM    3  O   UNL     1     -10.560  18.257  67.179  1.00  0.00    -0.395 OA 
BRANCH   3   4
HETATM    4  C   UNL     1      -9.641  18.419  68.263  1.00  0.00    -0.334 C  
BRANCH   4   5
HETATM    5  C   UNL     1      -8.829  17.144  68.477  1.00  0.00    -0.265 C  
BRANCH   5   6
HETATM    6  P   UNL     1      -8.198  16.441  66.881  1.00  0.00    -0.278 P  
BRANCH   6   7
HETATM    7  C   UNL     1      -6.441  16.022  67.321  1.00  0.00    -0.165 C  
BRANCH   7   8
HETATM    8  C   UNL     1      -6.167  16.292  68.800  1.00  0.00    -0.122 C  
BRANCH   8   9
HETATM    9  O   UNL     1      -5.470  15.186  69.382  1.00  0.00    -0.092 OA 
BRANCH   9  10
HETATM   10  C   UNL     1      -6.374  14.371  70.131  1.00  0.00    -0.158 C  
HETATM   11  C   UNL     1      -6.426  12.984  69.523  1.00  0.00    -0.075 C  
ENDBRANCH   9  10
ENDBRANCH   8   9
ENDBRANCH   7   8
ENDBRANCH   6   7
BRANCH   6  12
HETATM   12  C   UNL     1      -8.907  14.726  66.948  1.00  0.00    -0.248 C  
BRANCH  12  13
HETATM   13  C   UNL     1      -9.722  14.470  68.207  1.00  0.00    -0.218 C  
BRANCH  13  14
HETATM   14  P   UNL     1     -11.532  14.793  67.978  1.00  0.00    -0.338 P  
BRANCH  14  15
HETATM   15  C   UNL     1     -12.048  13.370  66.903  1.00  0.00    -0.354 C  
BRANCH  15  16
HETATM   16  C   UNL     1     -12.660  13.867  65.591  1.00  0.00    -0.517 C  
BRANCH  16  17
HETATM   17  O   UNL     1     -11.673  13.881  64.555  1.00  0.00    -0.376 OA 
BRANCH  17  18
HETATM   18  C   UNL     1     -11.902  12.805  63.641  1.00  0.00    -0.532 C  
HETATM   19  C   UNL     1     -10.640  11.978  63.500  1.00  0.00    -0.514 C  
ENDBRANCH  17  18
ENDBRANCH  16  17
ENDBRANCH  15  16
ENDBRANCH  14  15
BRANCH  14  20
HETATM   20  C   UNL     1     -12.158  14.189  69.620  1.00  0.00    -0.349 C  
BRANCH  20  21
HETATM   21  C   UNL     1     -12.232  15.308  70.656  1.00  0.00    -0.364 C  
BRANCH  21  22
HETATM   22  O   UNL     1     -13.554  15.377  71.191  1.00  0.00    -0.497 OA 
BRANCH  22  23
HETATM   23  C   UNL     1     -13.518  15.455  72.619  1.00  0.00    -0.529 C  
HETATM   24  C   UNL     1     -12.249  16.164  73.046  1.00  0.00    -0.641 C  
ENDBRANCH  22  23
ENDBRANCH  21  22
ENDBRANCH  20  21
ENDBRANCH  14  20
ENDBRANCH  13  14
ENDBRANCH  12  13
ENDBRANCH   6  12
ENDBRANCH   5   6
ENDBRANCH   4   5
ENDBRANCH   3   4
ENDBRANCH   2   3
TORSDOF 19
ENDMDL
MODEL       44
REMARK 921   NORMALIZED FREE ENERGY PREDICTED BY IDOCK:   -3.93 KCAL/MOL
REMARK 922        TOTAL FREE ENERGY PREDICTED BY IDOCK:   -9.55 KCAL/MOL
REMARK 923 INTER-LIGAND FREE ENERGY PREDICTED BY IDOCK:   -8.51 KCAL/MOL
REMARK 924 INTRA-LIGAND FREE ENERGY PREDICTED BY IDOCK:   -1.04 KCAL/MOL
REMARK 927      BINDING AFFINITY PREDICTED BY RF-SCORE:    0.00 PKD
ROOT
HETATM    1  C   UNL     1     -12.629  12.058  63.331  1.00  0.00    -0.592 C  
HETATM    2  C   UNL     1     -12.002  13.334  63.854  1.00  0.00    -0.483 C  
ENDROOT
BRANCH   2   3
HETATM    3  O   UNL     1     -12.809  13.874  64.904  1.00  0.00    -0.687 OA 
BRANCH   3   4
HETATM    4  C   UNL     1     -12.265  13.511  66.175  1.00  0.00    -0.433 C  
BRANCH   4   5
HETATM    5  C   UNL     1     -11.166  14.486  66.590  1.00  0.00    -0.346 C  
BRANCH   5   6
HETATM    6  P   UNL     1     -10.561  14.165  68.314  1.00  0.00    -0.263 P  
BRANCH   6   7
HETATM    7  C   UNL     1     -11.906  14.941  69.337  1.00  0.00    -0.324 C  
BRANCH   7   8
HETATM    8  C   UNL     1     -12.316  14.025  70.489  1.00  0.00    -0.367 C  
BRANCH   8   9
HETATM    9  O   UNL     1     -11.790  14.520  71.723  1.00  0.00    -0.306 OA 
BRANCH   9  10
HETATM   10  C   UNL     1     -12.552  15.643  72.171  1.00  0.00    -0.426 C  
HETATM   11  C   UNL     1     -12.807  15.521  73.659  1.00  0.00    -0.697 C  
ENDBRANCH   9  10
ENDBRANCH   8   9
ENDBRANCH   7   8
ENDBRANCH   6   7
BRANCH   6  12
HETATM   12  C   UNL     1     -11.051  12.387  68.533  1.00  0.00    -0.258 C  
BRANCH  12  13
HETATM   13  C   UNL     1      -9.870  11.432  68.442  1.00  0.00    -0.205 C  
BRANCH  13  14
HETATM   14  P   UNL     1     -10.354   9.658  68.679  1.00  0.00    -0.215 P  
BRANCH  14  15
HETATM   15  C   UNL     1      -8.873   8.760  68.012  1.00  0.00    -0.141 C  
BRANCH  15  16
HETATM   16  C   UNL     1      -8.709   9.010  66.511  1.00  0.00    -0.129 C  
BRANCH  16  17
HETATM   17  O   UNL     1      -9.969   9.346  65.922  1.00  0.00    -0.303 OA 
BRANCH  17  18
HETATM   18  C   UNL     1      -9.775  10.202  64.794  1.00  0.00    -0.322 C  
HETATM   19  C   UNL     1      -8.412   9.944  64.185  1.00  0.00    -0.179 C  
ENDBRANCH  17  18
ENDBRANCH  16  17
ENDBRANCH  15  16
ENDBRANCH  14  15
BRANCH  14  20
HETATM   20  C   UNL     1     -10.025   9.496  70.501  1.00  0.00    -0.273 C  
BRANCH  20  21
HETATM   21  C   UNL     1     -11.301   9.219  71.294  1.00  0.00    -0.353 C  
BRANCH  21  22
HETATM   22  O   UNL     1     -11.969  10.450  71.570  1.00  0.00    -0.333 OA 
BRANCH  22  23
HETATM   23  C   UNL     1     -13.364  10.229  71.796  1.00  0.00    -0.375 C  
HETATM   24  C   UNL     1     -13.553   8.870  72.440  1.00  0.00    -0.500 C  
ENDBRANCH  22  23
ENDBRANCH  21  22
ENDBRANCH  20  21
ENDBRANCH  14  20
ENDBRANCH  13  14
ENDBRANCH  12  13
ENDBRANCH   6  12
ENDBRANCH   5   6
ENDBRANCH   4   5
ENDBRANCH   3   4
ENDBRANCH   2   3
TORSDOF 19
ENDMDL
MODEL       45
REMARK 921   NORMALIZED FREE ENERGY PREDICTED BY IDOCK:   -3.93 KCAL/MOL
REMARK 922        TOTAL FREE ENERGY PREDICTED BY IDOCK:   -9.54 KCAL/MOL
REMARK 923 INTER-LIGAND FREE ENERGY PREDICTED BY IDOCK:   -8.14 KCAL/MOL
REMARK 924 INTRA-LIGAND FREE ENERGY PREDICTED BY IDOCK:   -1.40 KCAL/MOL
REMARK 927      BINDING AFFINITY PREDICTED BY RF-SCORE:    0.00 PKD
ROOT
HETATM    1  C   UNL     1     -10.338  19.763  67.554  1.00  0.00    -0.578 C  
HETATM    2  C   UNL     1     -10.282  19.871  66.045  1.00  0.00    -0.487 C  
ENDROOT
BRANCH   2   3
HETATM    3  O   UNL     1     -10.563  18.597  65.459  1.00  0.00    -0.608 OA 
BRANCH   3   4
HETATM    4  C   UNL     1     -10.605  17.590  66.473  1.00  0.00    -0.191 C  
BRANCH   4   5
HETATM    5  C   UNL     1     -10.412  16.203  65.866  1.00  0.00    -0.352 C  
BRANCH   5   6
HETATM    6  P   UNL     1      -8.901  15.355  66.527  1.00  0.00    -0.257 P  
BRANCH   6   7
HETATM    7  C   UNL     1      -8.151  16.687  67.585  1.00  0.00    -0.171 C  
BRANCH   7   8
HETATM    8  C   UNL     1      -6.916  17.288  66.917  1.00  0.00    -0.194 C  
BRANCH   8   9
HETATM    9  O   UNL     1      -7.279  17.919  65.686  1.00  0.00    -0.514 OA 
BRANCH   9  10
HETATM   10  C   UNL     1      -6.655  19.200  65.583  1.00  0.00    -0.262 C  
HETATM   11  C   UNL     1      -6.430  19.766  66.970  1.00  0.00    -0.208 C  
ENDBRANCH   9  10
ENDBRANCH   8   9
ENDBRANCH   7   8
ENDBRANCH   6   7
BRANCH   6  12
HETATM   12  C   UNL     1      -9.642  14.323  67.881  1.00  0.00    -0.221 C  
BRANCH  12  13
HETATM   13  C   UNL     1      -9.042  12.927  67.960  1.00  0.00    -0.211 C  
BRANCH  13  14
HETATM   14  P   UNL     1     -10.207  11.604  67.389  1.00  0.00    -0.212 P  
BRANCH  14  15
HETATM   15  C   UNL     1     -10.655  10.767  68.985  1.00  0.00    -0.219 C  
BRANCH  15  16
HETATM   16  C   UNL     1     -11.971  11.317  69.542  1.00  0.00    -0.351 C  
BRANCH  16  17
HETATM   17  O   UNL     1     -12.443  10.491  70.610  1.00  0.00    -0.317 OA 
BRANCH  17  18
HETATM   18  C   UNL     1     -11.388   9.655  71.092  1.00  0.00    -0.386 C  
HETATM   19  C   UNL     1     -11.939   8.662  72.094  1.00  0.00    -0.449 C  
ENDBRANCH  17  18
ENDBRANCH  16  17
ENDBRANCH  15  16
ENDBRANCH  14  15
BRANCH  14  20
HETATM   20  C   UNL     1     -11.734  12.633  67.135  1.00  0.00    -0.371 C  
BRANCH  20  21
HETATM   21  C   UNL     1     -12.173  12.662  65.673  1.00  0.00    -0.411 C  
BRANCH  21  22
HETATM   22  O   UNL     1     -11.050  12.956  64.842  1.00  0.00    -0.283 OA 
BRANCH  22  23
HETATM   23  C   UNL     1     -11.218  12.382  63.543  1.00  0.00    -0.469 C  
HETATM   24  C   UNL     1     -10.381  11.123  63.445  1.00  0.00    -0.419 C  
ENDBRANCH  22  23
ENDBRANCH  21  22
ENDBRANCH  20  21
ENDBRANCH  14  20
ENDBRANCH  13  14
ENDBRANCH  12  13
ENDBRANCH   6  12
ENDBRANCH   5   6
ENDBRANCH   4   5
ENDBRANCH   3   4
ENDBRANCH   2   3
TORSDOF 19
ENDMDL
MODEL       46
REMARK 921   NORMALIZED FREE ENERGY PREDICTED BY IDOCK:   -3.91 KCAL/MOL
REMARK 922        TOTAL FREE ENERGY PREDICTED BY IDOCK:   -9.51 KCAL/MOL
REMARK 923 INTER-LIGAND FREE ENERGY PREDICTED BY IDOCK:   -8.60 KCAL/MOL
REMARK 924 INTRA-LIGAND FREE ENERGY PREDICTED BY IDOCK:   -0.90 KCAL/MOL
REMARK 927      BINDING AFFINITY PREDICTED BY RF-SCORE:    0.00 PKD
ROOT
HETATM    1  C   UNL     1     -13.936  14.140  72.208  1.00  0.00    -0.646 C  
HETATM    2  C   UNL     1     -12.982  14.871  73.129  1.00  0.00    -0.519 C  
ENDROOT
BRANCH   2   3
HETATM    3  O   UNL     1     -11.765  15.158  72.435  1.00  0.00    -0.406 OA 
BRANCH   3   4
HETATM    4  C   UNL     1     -12.055  15.677  71.134  1.00  0.00    -0.404 C  
BRANCH   4   5
HETATM    5  C   UNL     1     -10.873  15.466  70.192  1.00  0.00    -0.309 C  
BRANCH   5   6
HETATM    6  P   UNL     1     -11.335  15.737  68.417  1.00  0.00    -0.327 P  
BRANCH   6   7
HETATM    7  C   UNL     1      -9.948  16.825  67.827  1.00  0.00    -0.268 C  
BRANCH   7   8
HETATM    8  C   UNL     1     -10.355  17.601  66.574  1.00  0.00    -0.337 C  
BRANCH   8   9
HETATM    9  O   UNL     1      -9.225  18.292  66.034  1.00  0.00    -0.508 OA 
BRANCH   9  10
HETATM   10  C   UNL     1      -8.824  19.345  66.912  1.00  0.00    -0.306 C  
HETATM   11  C   UNL     1      -9.921  20.387  66.987  1.00  0.00    -0.568 C  
ENDBRANCH   9  10
ENDBRANCH   8   9
ENDBRANCH   7   8
ENDBRANCH   6   7
BRANCH   6  12
HETATM   12  C   UNL     1     -10.764  14.141  67.659  1.00  0.00    -0.257 C  
BRANCH  12  13
HETATM   13  C   UNL     1     -10.465  13.066  68.693  1.00  0.00    -0.219 C  
BRANCH  13  14
HETATM   14  P   UNL     1     -11.682  11.669  68.658  1.00  0.00    -0.273 P  
BRANCH  14  15
HETATM   15  C   UNL     1     -10.569  10.187  68.543  1.00  0.00    -0.216 C  
BRANCH  15  16
HETATM   16  C   UNL     1     -10.437   9.712  67.094  1.00  0.00    -0.249 C  
BRANCH  16  17
HETATM   17  O   UNL     1     -10.734  10.781  66.190  1.00  0.00    -0.210 OA 
BRANCH  17  18
HETATM   18  C   UNL     1      -9.588  11.083  65.389  1.00  0.00    -0.225 C  
HETATM   19  C   UNL     1      -9.505  10.112  64.230  1.00  0.00    -0.366 C  
ENDBRANCH  17  18
ENDBRANCH  16  17
ENDBRANCH  15  16
ENDBRANCH  14  15
BRANCH  14  20
HETATM   20  C   UNL     1     -12.114  11.598  70.464  1.00  0.00    -0.366 C  
BRANCH  20  21
HETATM   21  C   UNL     1     -12.198  10.163  70.981  1.00  0.00    -0.374 C  
BRANCH  21  22
HETATM   22  O   UNL     1     -13.136  10.096  72.056  1.00  0.00    -0.440 OA 
BRANCH  22  23
HETATM   23  C   UNL     1     -13.900   8.890  71.986  1.00  0.00    -0.456 C  
HETATM   24  C   UNL     1     -12.992   7.750  71.570  1.00  0.00    -0.357 C  
ENDBRANCH  22  23
ENDBRANCH  21  22
ENDBRANCH  20  21
ENDBRANCH  14  20
ENDBRANCH  13  14
ENDBRANCH  12  13
ENDBRANCH   6  12
ENDBRANCH   5   6
ENDBRANCH   4   5
ENDBRANCH   3   4
ENDBRANCH   2   3
TORSDOF 19
ENDMDL
MODEL       47
REMARK 921   NORMALIZED FREE ENERGY PREDICTED BY IDOCK:   -3.91 KCAL/MOL
REMARK 922        TOTAL FREE ENERGY PREDICTED BY IDOCK:   -9.51 KCAL/MOL
REMARK 923 INTER-LIGAND FREE ENERGY PREDICTED BY IDOCK:   -8.64 KCAL/MOL
REMARK 924 INTRA-LIGAND FREE ENERGY PREDICTED BY IDOCK:   -0.87 KCAL/MOL
REMARK 927      BINDING AFFINITY PREDICTED BY RF-SCORE:    0.00 PKD
ROOT
HETATM    1  C   UNL     1     -11.201  11.948  63.581  1.00  0.00    -0.522 C  
HETATM    2  C   UNL     1     -12.264  13.027  63.549  1.00  0.00    -0.501 C  
ENDROOT
BRANCH   2   3
HETATM    3  O   UNL     1     -12.958  13.059  64.798  1.00  0.00    -0.735 OA 
BRANCH   3   4
HETATM    4  C   UNL     1     -12.066  12.719  65.863  1.00  0.00    -0.426 C  
BRANCH   4   5
HETATM    5  C   UNL     1     -12.082  13.794  66.946  1.00  0.00    -0.413 C  
BRANCH   5   6
HETATM    6  P   UNL     1     -10.914  13.408  68.333  1.00  0.00    -0.292 P  
BRANCH   6   7
HETATM    7  C   UNL     1     -11.194  14.848  69.475  1.00  0.00    -0.277 C  
BRANCH   7   8
HETATM    8  C   UNL     1     -12.462  14.650  70.306  1.00  0.00    -0.346 C  
BRANCH   8   9
HETATM    9  O   UNL     1     -12.124  14.437  71.678  1.00  0.00    -0.341 OA 
BRANCH   9  10
HETATM   10  C   UNL     1     -13.003  15.178  72.526  1.00  0.00    -0.379 C  
HETATM   11  C   UNL     1     -12.352  15.379  73.879  1.00  0.00    -0.764 C  
ENDBRANCH   9  10
ENDBRANCH   8   9
ENDBRANCH   7   8
ENDBRANCH   6   7
BRANCH   6  12
HETATM   12  C   UNL     1     -11.888  12.133  69.267  1.00  0.00    -0.313 C  
BRANCH  12  13
HETATM   13  C   UNL     1     -11.522  10.707  68.882  1.00  0.00    -0.265 C  
BRANCH  13  14
HETATM   14  P   UNL     1      -9.828  10.215  69.452  1.00  0.00    -0.215 P  
BRANCH  14  15
HETATM   15  C   UNL     1     -10.209   9.107  70.892  1.00  0.00    -0.282 C  
BRANCH  15  16
HETATM   16  C   UNL     1     -11.554   9.475  71.526  1.00  0.00    -0.395 C  
BRANCH  16  17
HETATM   17  O   UNL     1     -12.055   8.380  72.298  1.00  0.00    -0.352 OA 
BRANCH  17  18
HETATM   18  C   UNL     1     -12.136   7.202  71.492  1.00  0.00    -0.342 C  
HETATM   19  C   UNL     1     -11.646   6.007  72.282  1.00  0.00    -0.359 C  
ENDBRANCH  17  18
ENDBRANCH  16  17
ENDBRANCH  15  16
ENDBRANCH  14  15
BRANCH  14  20
HETATM   20  C   UNL     1      -9.436   8.933  68.165  1.00  0.00    -0.143 C  
BRANCH  20  21
HETATM   21  C   UNL     1     -10.535   8.820  67.110  1.00  0.00    -0.283 C  
BRANCH  21  22
HETATM   22  O   UNL     1     -10.106   9.449  65.903  1.00  0.00    -0.296 OA 
BRANCH  22  23
HETATM   23  C   UNL     1      -8.799   9.001  65.536  1.00  0.00    -0.194 C  
HETATM   24  C   UNL     1      -8.573   9.280  64.064  1.00  0.00    -0.204 C  
ENDBRANCH  22  23
ENDBRANCH  21  22
ENDBRANCH  20  21
ENDBRANCH  14  20
ENDBRANCH  13  14
ENDBRANCH  12  13
ENDBRANCH   6  12
ENDBRANCH   5   6
ENDBRANCH   4   5
ENDBRANCH   3   4
ENDBRANCH   2   3
TORSDOF 19
ENDMDL
MODEL       48
REMARK 921   NORMALIZED FREE ENERGY PREDICTED BY IDOCK:   -3.90 KCAL/MOL
REMARK 922        TOTAL FREE ENERGY PREDICTED BY IDOCK:   -9.49 KCAL/MOL
REMARK 923 INTER-LIGAND FREE ENERGY PREDICTED BY IDOCK:   -8.54 KCAL/MOL
REMARK 924 INTRA-LIGAND FREE ENERGY PREDICTED BY IDOCK:   -0.95 KCAL/MOL
REMARK 927      BINDING AFFINITY PREDICTED BY RF-SCORE:    0.00 PKD
ROOT
HETATM    1  C   UNL     1     -13.914  13.687  72.296  1.00  0.00    -0.661 C  
HETATM    2  C   UNL     1     -14.389  15.031  71.783  1.00  0.00    -0.580 C  
ENDROOT
BRANCH   2   3
HETATM    3  O   UNL     1     -13.262  15.846  71.449  1.00  0.00    -0.475 OA 
BRANCH   3   4
HETATM    4  C   UNL     1     -12.497  15.222  70.414  1.00  0.00    -0.381 C  
BRANCH   4   5
HETATM    5  C   UNL     1     -11.071  15.767  70.395  1.00  0.00    -0.366 C  
BRANCH   5   6
HETATM    6  P   UNL     1     -10.403  15.915  68.671  1.00  0.00    -0.255 P  
BRANCH   6   7
HETATM    7  C   UNL     1      -9.025  17.142  68.903  1.00  0.00    -0.189 C  
BRANCH   7   8
HETATM    8  C   UNL     1      -9.028  18.186  67.788  1.00  0.00    -0.263 C  
BRANCH   8   9
HETATM    9  O   UNL     1      -9.167  19.498  68.342  1.00  0.00    -0.336 OA 
BRANCH   9  10
HETATM   10  C   UNL     1      -9.722  20.388  67.372  1.00  0.00    -0.457 C  
HETATM   11  C   UNL     1     -10.473  19.592  66.324  1.00  0.00    -0.609 C  
ENDBRANCH   9  10
ENDBRANCH   8   9
ENDBRANCH   7   8
ENDBRANCH   6   7
BRANCH   6  12
HETATM   12  C   UNL     1      -9.372  14.374  68.561  1.00  0.00    -0.204 C  
BRANCH  12  13
HETATM   13  C   UNL     1      -9.577  13.614  67.259  1.00  0.00    -0.238 C  
BRANCH  13  14
HETATM   14  P   UNL     1     -11.119  12.588  67.252  1.00  0.00    -0.310 P  
BRANCH  14  15
HETATM   15  C   UNL     1     -11.262  12.113  65.463  1.00  0.00    -0.334 C  
BRANCH  15  16
HETATM   16  C   UNL     1     -12.589  12.596  64.872  1.00  0.00    -0.450 C  
BRANCH  16  17
HETATM   17  O   UNL     1     -12.829  13.958  65.236  1.00  0.00    -0.689 OA 
BRANCH  17  18
HETATM   18  C   UNL     1     -12.285  14.837  64.248  1.00  0.00    -0.379 C  
HETATM   19  C   UNL     1     -11.159  15.650  64.853  1.00  0.00    -0.414 C  
ENDBRANCH  17  18
ENDBRANCH  16  17
ENDBRANCH  15  16
ENDBRANCH  14  15
BRANCH  14  20
HETATM   20  C   UNL     1     -10.432  11.005  67.943  1.00  0.00    -0.192 C  
BRANCH  20  21
HETATM   21  C   UNL     1     -10.412   9.884  66.906  1.00  0.00    -0.215 C  
BRANCH  21  22
HETATM   22  O   UNL     1      -9.063   9.593  66.542  1.00  0.00    -0.146 OA 
BRANCH  22  23
HETATM   23  C   UNL     1      -8.983   8.343  65.853  1.00  0.00    -0.178 C  
HETATM   24  C   UNL     1      -9.465   7.238  66.772  1.00  0.00    -0.218 C  
ENDBRANCH  22  23
ENDBRANCH  21  22
ENDBRANCH  20  21
ENDBRANCH  14  20
ENDBRANCH  13  14
ENDBRANCH  12  13
ENDBRANCH   6  12
ENDBRANCH   5   6
ENDBRANCH   4   5
ENDBRANCH   3   4
ENDBRANCH   2   3
TORSDOF 19
ENDMDL
MODEL       49
REMARK 921   NORMALIZED FREE ENERGY PREDICTED BY IDOCK:   -3.90 KCAL/MOL
REMARK 922        TOTAL FREE ENERGY PREDICTED BY IDOCK:   -9.48 KCAL/MOL
REMARK 923 INTER-LIGAND FREE ENERGY PREDICTED BY IDOCK:   -8.41 KCAL/MOL
REMARK 924 INTRA-LIGAND FREE ENERGY PREDICTED BY IDOCK:   -1.06 KCAL/MOL
REMARK 927      BINDING AFFINITY PREDICTED BY RF-SCORE:    0.00 PKD
ROOT
HETATM    1  C   UNL     1     -12.454  11.968  63.578  1.00  0.00    -0.654 C  
HETATM    2  C   UNL     1     -11.776  13.268  63.961  1.00  0.00    -0.430 C  
ENDROOT
BRANCH   2   3
HETATM    3  O   UNL     1     -12.675  14.074  64.726  1.00  0.00    -0.651 OA 
BRANCH   3   4
HETATM    4  C   UNL     1     -12.532  13.780  66.118  1.00  0.00    -0.418 C  
BRANCH   4   5
HETATM    5  C   UNL     1     -11.394  14.594  66.728  1.00  0.00    -0.356 C  
BRANCH   5   6
HETATM    6  P   UNL     1     -10.687  13.784  68.239  1.00  0.00    -0.266 P  
BRANCH   6   7
HETATM    7  C   UNL     1     -12.222  13.399  69.215  1.00  0.00    -0.176 C  
BRANCH   7   8
HETATM    8  C   UNL     1     -12.180  14.067  70.588  1.00  0.00    -0.372 C  
BRANCH   8   9
HETATM    9  O   UNL     1     -13.462  14.615  70.909  1.00  0.00    -0.361 OA 
BRANCH   9  10
HETATM   10  C   UNL     1     -13.395  15.345  72.135  1.00  0.00    -0.444 C  
HETATM   11  C   UNL     1     -12.050  16.033  72.243  1.00  0.00    -0.617 C  
ENDBRANCH   9  10
ENDBRANCH   8   9
ENDBRANCH   7   8
ENDBRANCH   6   7
BRANCH   6  12
HETATM   12  C   UNL     1     -10.345  12.076  67.594  1.00  0.00    -0.198 C  
BRANCH  12  13
HETATM   13  C   UNL     1     -11.195  11.007  68.264  1.00  0.00    -0.277 C  
BRANCH  13  14
HETATM   14  P   UNL     1     -10.345  10.200  69.699  1.00  0.00    -0.240 P  
BRANCH  14  15
HETATM   15  C   UNL     1     -11.712  10.094  70.951  1.00  0.00    -0.378 C  
BRANCH  15  16
HETATM   16  C   UNL     1     -12.229   8.659  71.079  1.00  0.00    -0.179 C  
BRANCH  16  17
HETATM   17  O   UNL     1     -12.305   8.278  72.456  1.00  0.00    -0.353 OA 
BRANCH  17  18
HETATM   18  C   UNL     1     -11.131   7.554  72.834  1.00  0.00    -0.375 C  
HETATM   19  C   UNL     1     -11.104   6.217  72.123  1.00  0.00    -0.321 C  
ENDBRANCH  17  18
ENDBRANCH  16  17
ENDBRANCH  15  16
ENDBRANCH  14  15
BRANCH  14  20
HETATM   20  C   UNL     1     -10.336   8.442  69.095  1.00  0.00    -0.220 C  
BRANCH  20  21
HETATM   21  C   UNL     1      -9.586   8.290  67.773  1.00  0.00    -0.148 C  
BRANCH  21  22
HETATM   22  O   UNL     1     -10.421   7.627  66.824  1.00  0.00    -0.314 OA 
BRANCH  22  23
HETATM   23  C   UNL     1     -11.022   6.466  67.403  1.00  0.00    -0.376 C  
HETATM   24  C   UNL     1     -10.672   5.254  66.563  1.00  0.00    -0.290 C  
ENDBRANCH  22  23
ENDBRANCH  21  22
ENDBRANCH  20  21
ENDBRANCH  14  20
ENDBRANCH  13  14
ENDBRANCH  12  13
ENDBRANCH   6  12
ENDBRANCH   5   6
ENDBRANCH   4   5
ENDBRANCH   3   4
ENDBRANCH   2   3
TORSDOF 19
ENDMDL
MODEL       50
REMARK 921   NORMALIZED FREE ENERGY PREDICTED BY IDOCK:   -3.88 KCAL/MOL
REMARK 922        TOTAL FREE ENERGY PREDICTED BY IDOCK:   -9.45 KCAL/MOL
REMARK 923 INTER-LIGAND FREE ENERGY PREDICTED BY IDOCK:   -8.46 KCAL/MOL
REMARK 924 INTRA-LIGAND FREE ENERGY PREDICTED BY IDOCK:   -0.99 KCAL/MOL
REMARK 927      BINDING AFFINITY PREDICTED BY RF-SCORE:    0.00 PKD
ROOT
HETATM    1  C   UNL     1      -8.775  10.729  62.356  1.00  0.00    -0.331 C  
HETATM    2  C   UNL     1      -9.420  10.283  63.652  1.00  0.00    -0.299 C  
ENDROOT
BRANCH   2   3
HETATM    3  O   UNL     1      -9.887  11.424  64.377  1.00  0.00    -0.242 OA 
BRANCH   3   4
HETATM    4  C   UNL     1     -11.286  11.612  64.145  1.00  0.00    -0.345 C  
BRANCH   4   5
HETATM    5  C   UNL     1     -11.611  13.094  63.975  1.00  0.00    -0.428 C  
BRANCH   5   6
HETATM    6  P   UNL     1     -10.865  14.132  65.318  1.00  0.00    -0.400 P  
BRANCH   6   7
HETATM    7  C   UNL     1     -11.166  15.852  64.678  1.00  0.00    -0.351 C  
BRANCH   7   8
HETATM    8  C   UNL     1     -10.610  16.900  65.642  1.00  0.00    -0.221 C  
BRANCH   8   9
HETATM    9  O   UNL     1     -10.910  18.215  65.165  1.00  0.00    -0.658 OA 
BRANCH   9  10
HETATM   10  C   UNL     1     -10.448  19.195  66.096  1.00  0.00    -0.477 C  
HETATM   11  C   UNL     1     -10.656  18.690  67.509  1.00  0.00    -0.472 C  
ENDBRANCH   9  10
ENDBRANCH   8   9
ENDBRANCH   7   8
ENDBRANCH   6   7
BRANCH   6  12
HETATM   12  C   UNL     1     -12.215  14.081  66.592  1.00  0.00    -0.428 C  
BRANCH  12  13
HETATM   13  C   UNL     1     -11.710  13.704  67.977  1.00  0.00    -0.352 C  
BRANCH  13  14
HETATM   14  P   UNL     1     -11.568  11.873  68.224  1.00  0.00    -0.310 P  
BRANCH  14  15
HETATM   15  C   UNL     1      -9.729  11.623  68.225  1.00  0.00    -0.197 C  
BRANCH  15  16
HETATM   16  C   UNL     1      -9.371  10.182  67.851  1.00  0.00    -0.141 C  
BRANCH  16  17
HETATM   17  O   UNL     1     -10.375   9.281  68.327  1.00  0.00    -0.200 OA 
BRANCH  17  18
HETATM   18  C   UNL     1      -9.840   8.446  69.357  1.00  0.00    -0.185 C  
HETATM   19  C   UNL     1     -10.962   7.683  70.030  1.00  0.00    -0.237 C  
ENDBRANCH  17  18
ENDBRANCH  16  17
ENDBRANCH  15  16
ENDBRANCH  14  15
BRANCH  14  20
HETATM   20  C   UNL     1     -11.897  11.789  70.052  1.00  0.00    -0.342 C  
BRANCH  20  21
HETATM   21  C   UNL     1     -12.310  13.142  70.627  1.00  0.00    -0.326 C  
BRANCH  21  22
HETATM   22  O   UNL     1     -13.264  12.948  71.671  1.00  0.00    -0.388 OA 
BRANCH  22  23
HETATM   23  C   UNL     1     -13.814  14.198  72.092  1.00  0.00    -0.518 C  
HETATM   24  C   UNL     1     -12.904  14.815  73.136  1.00  0.00    -0.614 C  
ENDBRANCH  22  23
ENDBRANCH  21  22
ENDBRANCH  20  21
ENDBRANCH  14  20
ENDBRANCH  13  14
ENDBRANCH  12  13
ENDBRANCH   6  12
ENDBRANCH   5   6
ENDBRANCH   4   5
ENDBRANCH   3   4
ENDBRANCH   2   3
TORSDOF 19
ENDMDL
MODEL       51
REMARK 921   NORMALIZED FREE ENERGY PREDICTED BY IDOCK:   -3.88 KCAL/MOL
REMARK 922        TOTAL FREE ENERGY PREDICTED BY IDOCK:   -9.44 KCAL/MOL
REMARK 923 INTER-LIGAND FREE ENERGY PREDICTED BY IDOCK:   -8.46 KCAL/MOL
REMARK 924 INTRA-LIGAND FREE ENERGY PREDICTED BY IDOCK:   -0.98 KCAL/MOL
REMARK 927      BINDING AFFINITY PREDICTED BY RF-SCORE:    0.00 PKD
ROOT
HETATM    1  C   UNL     1      -9.847  20.003  65.993  1.00  0.00    -0.512 C  
HETATM    2  C   UNL     1     -10.514  18.648  66.117  1.00  0.00    -0.430 C  
ENDROOT
BRANCH   2   3
HETATM    3  O   UNL     1     -11.056  18.495  67.432  1.00  0.00    -0.278 OA 
BRANCH   3   4
HETATM    4  C   UNL     1     -10.361  17.459  68.130  1.00  0.00    -0.366 C  
BRANCH   4   5
HETATM    5  C   UNL     1     -10.743  16.087  67.581  1.00  0.00    -0.320 C  
BRANCH   5   6
HETATM    6  P   UNL     1     -10.384  14.726  68.787  1.00  0.00    -0.255 P  
BRANCH   6   7
HETATM    7  C   UNL     1     -10.494  15.622  70.413  1.00  0.00    -0.192 C  
BRANCH   7   8
HETATM    8  C   UNL     1     -11.914  15.567  70.974  1.00  0.00    -0.381 C  
BRANCH   8   9
HETATM    9  O   UNL     1     -12.024  16.418  72.118  1.00  0.00    -0.509 OA 
BRANCH   9  10
HETATM   10  C   UNL     1     -13.056  15.946  72.988  1.00  0.00    -0.541 C  
HETATM   11  C   UNL     1     -12.448  15.512  74.305  1.00  0.00    -0.792 C  
ENDBRANCH   9  10
ENDBRANCH   8   9
ENDBRANCH   7   8
ENDBRANCH   6   7
BRANCH   6  12
HETATM   12  C   UNL     1     -12.029  13.865  68.845  1.00  0.00    -0.358 C  
BRANCH  12  13
HETATM   13  C   UNL     1     -11.905  12.359  69.023  1.00  0.00    -0.300 C  
BRANCH  13  14
HETATM   14  P   UNL     1     -10.314  11.679  68.359  1.00  0.00    -0.211 P  
BRANCH  14  15
HETATM   15  C   UNL     1     -10.204  10.038  69.219  1.00  0.00    -0.214 C  
BRANCH  15  16
HETATM   16  C   UNL     1      -8.799   9.805  69.779  1.00  0.00    -0.224 C  
BRANCH  16  17
HETATM   17  O   UNL     1      -8.182   8.691  69.127  1.00  0.00    -0.114 OA 
BRANCH  17  18
HETATM   18  C   UNL     1      -9.093   7.591  69.059  1.00  0.00    -0.140 C  
HETATM   19  C   UNL     1      -8.802   6.617  70.183  1.00  0.00    -0.141 C  
ENDBRANCH  17  18
ENDBRANCH  16  17
ENDBRANCH  15  16
ENDBRANCH  14  15
BRANCH  14  20
HETATM   20  C   UNL     1     -10.900  11.118  66.687  1.00  0.00    -0.253 C  
BRANCH  20  21
HETATM   21  C   UNL     1     -11.046  12.281  65.707  1.00  0.00    -0.323 C  
BRANCH  21  22
HETATM   22  O   UNL     1     -12.423  12.458  65.377  1.00  0.00    -0.637 OA 
BRANCH  22  23
HETATM   23  C   UNL     1     -12.783  13.841  65.435  1.00  0.00    -0.472 C  
HETATM   24  C   UNL     1     -12.059  14.589  64.332  1.00  0.00    -0.492 C  
ENDBRANCH  22  23
ENDBRANCH  21  22
ENDBRANCH  20  21
ENDBRANCH  14  20
ENDBRANCH  13  14
ENDBRANCH  12  13
ENDBRANCH   6  12
ENDBRANCH   5   6
ENDBRANCH   4   5
ENDBRANCH   3   4
ENDBRANCH   2   3
TORSDOF 19
ENDMDL
MODEL       52
REMARK 921   NORMALIZED FREE ENERGY PREDICTED BY IDOCK:   -3.87 KCAL/MOL
REMARK 922        TOTAL FREE ENERGY PREDICTED BY IDOCK:   -9.43 KCAL/MOL
REMARK 923 INTER-LIGAND FREE ENERGY PREDICTED BY IDOCK:   -8.15 KCAL/MOL
REMARK 924 INTRA-LIGAND FREE ENERGY PREDICTED BY IDOCK:   -1.27 KCAL/MOL
REMARK 927      BINDING AFFINITY PREDICTED BY RF-SCORE:    0.00 PKD
ROOT
HETATM    1  C   UNL     1     -10.767  19.235  67.290  1.00  0.00    -0.594 C  
HETATM    2  C   UNL     1     -10.422  19.020  65.831  1.00  0.00    -0.399 C  
ENDROOT
BRANCH   2   3
HETATM    3  O   UNL     1      -9.929  17.691  65.641  1.00  0.00    -0.558 OA 
BRANCH   3   4
HETATM    4  C   UNL     1     -10.904  16.902  64.953  1.00  0.00     0.003 C  
BRANCH   4   5
HETATM    5  C   UNL     1     -10.521  15.425  64.984  1.00  0.00    -0.381 C  
BRANCH   5   6
HETATM    6  P   UNL     1     -11.987  14.317  64.733  1.00  0.00    -0.469 P  
BRANCH   6   7
HETATM    7  C   UNL     1     -11.238  12.909  63.778  1.00  0.00    -0.402 C  
BRANCH   7   8
HETATM    8  C   UNL     1     -11.088  11.668  64.658  1.00  0.00    -0.278 C  
BRANCH   8   9
HETATM    9  O   UNL     1     -10.284  10.689  63.996  1.00  0.00    -0.341 OA 
BRANCH   9  10
HETATM   10  C   UNL     1      -9.439  11.315  63.028  1.00  0.00    -0.367 C  
HETATM   11  C   UNL     1      -8.404  10.322  62.541  1.00  0.00    -0.185 C  
ENDBRANCH   9  10
ENDBRANCH   8   9
ENDBRANCH   7   8
ENDBRANCH   6   7
BRANCH   6  12
HETATM   12  C   UNL     1     -12.090  13.490  66.392  1.00  0.00    -0.417 C  
BRANCH  12  13
HETATM   13  C   UNL     1     -11.989  14.470  67.552  1.00  0.00    -0.325 C  
BRANCH  13  14
HETATM   14  P   UNL     1     -10.907  13.859  68.926  1.00  0.00    -0.201 P  
BRANCH  14  15
HETATM   15  C   UNL     1      -9.226  14.426  68.377  1.00  0.00    -0.195 C  
BRANCH  15  16
HETATM   16  C   UNL     1      -9.042  15.924  68.631  1.00  0.00    -0.206 C  
BRANCH  16  17
HETATM   17  O   UNL     1      -7.910  16.416  67.908  1.00  0.00    -0.148 OA 
BRANCH  17  18
HETATM   18  C   UNL     1      -7.529  17.703  68.403  1.00  0.00    -0.253 C  
HETATM   19  C   UNL     1      -6.792  18.467  67.322  1.00  0.00    -0.209 C  
ENDBRANCH  17  18
ENDBRANCH  16  17
ENDBRANCH  15  16
ENDBRANCH  14  15
BRANCH  14  20
HETATM   20  C   UNL     1     -11.275  15.159  70.202  1.00  0.00    -0.273 C  
BRANCH  20  21
HETATM   21  C   UNL     1     -12.770  15.453  70.311  1.00  0.00    -0.298 C  
BRANCH  21  22
HETATM   22  O   UNL     1     -13.139  15.550  71.687  1.00  0.00    -0.422 OA 
BRANCH  22  23
HETATM   23  C   UNL     1     -11.981  15.514  72.525  1.00  0.00    -0.455 C  
HETATM   24  C   UNL     1     -12.419  15.447  73.975  1.00  0.00    -0.780 C  
ENDBRANCH  22  23
ENDBRANCH  21  22
ENDBRANCH  20  21
ENDBRANCH  14  20
ENDBRANCH  13  14
ENDBRANCH  12  13
ENDBRANCH   6  12
ENDBRANCH   5   6
ENDBRANCH   4   5
ENDBRANCH   3   4
ENDBRANCH   2   3
TORSDOF 19
ENDMDL
MODEL       53
REMARK 921   NORMALIZED FREE ENERGY PREDICTED BY IDOCK:   -3.87 KCAL/MOL
REMARK 922        TOTAL FREE ENERGY PREDICTED BY IDOCK:   -9.42 KCAL/MOL
REMARK 923 INTER-LIGAND FREE ENERGY PREDICTED BY IDOCK:   -8.52 KCAL/MOL
REMARK 924 INTRA-LIGAND FREE ENERGY PREDICTED BY IDOCK:   -0.90 KCAL/MOL
REMARK 927      BINDING AFFINITY PREDICTED BY RF-SCORE:    0.00 PKD
ROOT
HETATM    1  C   UNL     1     -13.452   9.515  72.192  1.00  0.00    -0.535 C  
HETATM    2  C   UNL     1     -12.178   9.783  71.418  1.00  0.00    -0.397 C  
ENDROOT
BRANCH   2   3
HETATM    3  O   UNL     1     -12.371  10.895  70.540  1.00  0.00    -0.318 OA 
BRANCH   3   4
HETATM    4  C   UNL     1     -11.690  10.666  69.303  1.00  0.00    -0.264 C  
BRANCH   4   5
HETATM    5  C   UNL     1     -12.019  11.764  68.294  1.00  0.00    -0.165 C  
BRANCH   5   6
HETATM    6  P   UNL     1     -10.826  11.790  66.875  1.00  0.00    -0.298 P  
BRANCH   6   7
HETATM    7  C   UNL     1     -11.881  12.477  65.507  1.00  0.00    -0.439 C  
BRANCH   7   8
HETATM    8  C   UNL     1     -11.431  11.943  64.147  1.00  0.00    -0.370 C  
BRANCH   8   9
HETATM    9  O   UNL     1     -10.541  10.838  64.322  1.00  0.00    -0.350 OA 
BRANCH   9  10
HETATM   10  C   UNL     1      -9.607  10.779  63.242  1.00  0.00    -0.350 C  
HETATM   11  C   UNL     1      -8.305  10.178  63.731  1.00  0.00    -0.171 C  
ENDBRANCH   9  10
ENDBRANCH   8   9
ENDBRANCH   7   8
ENDBRANCH   6   7
BRANCH   6  12
HETATM   12  C   UNL     1      -9.856  13.325  67.260  1.00  0.00    -0.233 C  
BRANCH  12  13
HETATM   13  C   UNL     1     -10.137  13.872  68.652  1.00  0.00    -0.203 C  
BRANCH  13  14
HETATM   14  P   UNL     1      -9.787  15.685  68.803  1.00  0.00    -0.239 P  
BRANCH  14  15
HETATM   15  C   UNL     1     -10.618  16.369  67.290  1.00  0.00    -0.293 C  
BRANCH  15  16
HETATM   16  C   UNL     1     -10.320  17.861  67.128  1.00  0.00    -0.367 C  
BRANCH  16  17
HETATM   17  O   UNL     1      -9.164  18.223  67.890  1.00  0.00    -0.267 OA 
BRANCH  17  18
HETATM   18  C   UNL     1      -9.274  19.575  68.342  1.00  0.00    -0.353 C  
HETATM   19  C   UNL     1      -9.773  20.453  67.212  1.00  0.00    -0.602 C  
ENDBRANCH  17  18
ENDBRANCH  16  17
ENDBRANCH  15  16
ENDBRANCH  14  15
BRANCH  14  20
HETATM   20  C   UNL     1     -11.056  16.132  70.086  1.00  0.00    -0.371 C  
BRANCH  20  21
HETATM   21  C   UNL     1     -12.027  14.986  70.361  1.00  0.00    -0.323 C  
BRANCH  21  22
HETATM   22  O   UNL     1     -12.738  15.241  71.572  1.00  0.00    -0.325 OA 
BRANCH  22  23
HETATM   23  C   UNL     1     -11.939  16.010  72.475  1.00  0.00    -0.545 C  
HETATM   24  C   UNL     1     -12.497  15.867  73.877  1.00  0.00    -0.744 C  
ENDBRANCH  22  23
ENDBRANCH  21  22
ENDBRANCH  20  21
ENDBRANCH  14  20
ENDBRANCH  13  14
ENDBRANCH  12  13
ENDBRANCH   6  12
ENDBRANCH   5   6
ENDBRANCH   4   5
ENDBRANCH   3   4
ENDBRANCH   2   3
TORSDOF 19
ENDMDL
MODEL       54
REMARK 921   NORMALIZED FREE ENERGY PREDICTED BY IDOCK:   -3.87 KCAL/MOL
REMARK 922        TOTAL FREE ENERGY PREDICTED BY IDOCK:   -9.42 KCAL/MOL
REMARK 923 INTER-LIGAND FREE ENERGY PREDICTED BY IDOCK:   -8.25 KCAL/MOL
REMARK 924 INTRA-LIGAND FREE ENERGY PREDICTED BY IDOCK:   -1.18 KCAL/MOL
REMARK 927      BINDING AFFINITY PREDICTED BY RF-SCORE:    0.00 PKD
ROOT
HETATM    1  C   UNL     1     -10.877  14.688  64.490  1.00  0.00    -0.209 C  
HETATM    2  C   UNL     1     -12.388  14.677  64.605  1.00  0.00    -0.375 C  
ENDROOT
BRANCH   2   3
HETATM    3  O   UNL     1     -12.795  13.664  65.528  1.00  0.00    -0.577 OA 
BRANCH   3   4
HETATM    4  C   UNL     1     -11.659  12.908  65.956  1.00  0.00    -0.375 C  
BRANCH   4   5
HETATM    5  C   UNL     1     -11.860  12.391  67.379  1.00  0.00    -0.289 C  
BRANCH   5   6
HETATM    6  P   UNL     1     -10.263  12.283  68.315  1.00  0.00    -0.210 P  
BRANCH   6   7
HETATM    7  C   UNL     1      -9.238  11.211  67.194  1.00  0.00    -0.158 C  
BRANCH   7   8
HETATM    8  C   UNL     1      -9.928   9.873  66.934  1.00  0.00    -0.212 C  
BRANCH   8   9
HETATM    9  O   UNL     1     -10.253   9.747  65.547  1.00  0.00    -0.256 OA 
BRANCH   9  10
HETATM   10  C   UNL     1      -9.313  10.472  64.751  1.00  0.00    -0.238 C  
HETATM   11  C   UNL     1     -10.010  11.029  63.527  1.00  0.00    -0.421 C  
ENDBRANCH   9  10
ENDBRANCH   8   9
ENDBRANCH   7   8
ENDBRANCH   6   7
BRANCH   6  12
HETATM   12  C   UNL     1      -9.497  13.921  67.893  1.00  0.00    -0.212 C  
BRANCH  12  13
HETATM   13  C   UNL     1      -9.263  14.800  69.113  1.00  0.00    -0.089 C  
BRANCH  13  14
HETATM   14  P   UNL     1     -10.357  16.295  69.151  1.00  0.00    -0.309 P  
BRANCH  14  15
HETATM   15  C   UNL     1     -10.613  16.635  67.343  1.00  0.00    -0.295 C  
BRANCH  15  16
HETATM   16  C   UNL     1      -9.557  17.608  66.814  1.00  0.00    -0.294 C  
BRANCH  16  17
HETATM   17  O   UNL     1     -10.068  18.337  65.694  1.00  0.00    -0.532 OA 
BRANCH  17  18
HETATM   18  C   UNL     1     -10.665  19.560  66.132  1.00  0.00    -0.428 C  
HETATM   19  C   UNL     1      -9.791  20.207  67.186  1.00  0.00    -0.586 C  
ENDBRANCH  17  18
ENDBRANCH  16  17
ENDBRANCH  15  16
ENDBRANCH  14  15
BRANCH  14  20
HETATM   20  C   UNL     1     -11.977  15.474  69.547  1.00  0.00    -0.350 C  
BRANCH  20  21
HETATM   21  C   UNL     1     -11.921  14.691  70.858  1.00  0.00    -0.326 C  
BRANCH  21  22
HETATM   22  O   UNL     1     -12.390  15.514  71.926  1.00  0.00    -0.328 OA 
BRANCH  22  23
HETATM   23  C   UNL     1     -13.024  14.722  72.934  1.00  0.00    -0.487 C  
HETATM   24  C   UNL     1     -13.870  13.656  72.268  1.00  0.00    -0.689 C  
ENDBRANCH  22  23
ENDBRANCH  21  22
ENDBRANCH  20  21
ENDBRANCH  14  20
ENDBRANCH  13  14
ENDBRANCH  12  13
ENDBRANCH   6  12
ENDBRANCH   5   6
ENDBRANCH   4   5
ENDBRANCH   3   4
ENDBRANCH   2   3
TORSDOF 19
ENDMDL
MODEL       55
REMARK 921   NORMALIZED FREE ENERGY PREDICTED BY IDOCK:   -3.86 KCAL/MOL
REMARK 922        TOTAL FREE ENERGY PREDICTED BY IDOCK:   -9.41 KCAL/MOL
REMARK 923 INTER-LIGAND FREE ENERGY PREDICTED BY IDOCK:   -8.39 KCAL/MOL
REMARK 924 INTRA-LIGAND FREE ENERGY PREDICTED BY IDOCK:   -1.02 KCAL/MOL
REMARK 927      BINDING AFFINITY PREDICTED BY RF-SCORE:    0.00 PKD
ROOT
HETATM    1  C   UNL     1     -13.991   8.987  72.295  1.00  0.00    -0.522 C  
HETATM    2  C   UNL     1     -12.933   9.871  71.668  1.00  0.00    -0.434 C  
ENDROOT
BRANCH   2   3
HETATM    3  O   UNL     1     -11.965   9.062  70.995  1.00  0.00    -0.287 OA 
BRANCH   3   4
HETATM    4  C   UNL     1     -10.847   9.863  70.601  1.00  0.00    -0.330 C  
BRANCH   4   5
HETATM    5  C   UNL     1     -11.292  10.996  69.680  1.00  0.00    -0.292 C  
BRANCH   5   6
HETATM    6  P   UNL     1     -10.033  11.368  68.371  1.00  0.00    -0.205 P  
BRANCH   6   7
HETATM    7  C   UNL     1     -10.905  10.792  66.833  1.00  0.00    -0.229 C  
BRANCH   7   8
HETATM    8  C   UNL     1      -9.951  10.029  65.915  1.00  0.00    -0.269 C  
BRANCH   8   9
HETATM    9  O   UNL     1      -9.431  10.902  64.909  1.00  0.00    -0.211 OA 
BRANCH   9  10
HETATM   10  C   UNL     1      -8.862  10.143  63.841  1.00  0.00    -0.230 C  
HETATM   11  C   UNL     1      -8.998  10.913  62.543  1.00  0.00    -0.360 C  
ENDBRANCH   9  10
ENDBRANCH   8   9
ENDBRANCH   7   8
ENDBRANCH   6   7
BRANCH   6  12
HETATM   12  C   UNL     1     -10.284  13.195  68.152  1.00  0.00    -0.239 C  
BRANCH  12  13
HETATM   13  C   UNL     1      -9.180  13.853  67.338  1.00  0.00    -0.224 C  
BRANCH  13  14
HETATM   14  P   UNL     1      -9.817  15.107  66.132  1.00  0.00    -0.345 P  
BRANCH  14  15
HETATM   15  C   UNL     1     -11.463  14.390  65.658  1.00  0.00    -0.336 C  
BRANCH  15  16
HETATM   16  C   UNL     1     -12.073  15.149  64.477  1.00  0.00    -0.301 C  
BRANCH  16  17
HETATM   17  O   UNL     1     -12.658  14.234  63.546  1.00  0.00    -0.814 OA 
BRANCH  17  18
HETATM   18  C   UNL     1     -11.904  13.020  63.507  1.00  0.00    -0.516 C  
HETATM   19  C   UNL     1     -12.837  11.846  63.294  1.00  0.00    -0.303 C  
ENDBRANCH  17  18
ENDBRANCH  16  17
ENDBRANCH  15  16
ENDBRANCH  14  15
BRANCH  14  20
HETATM   20  C   UNL     1     -10.378  16.417  67.326  1.00  0.00    -0.287 C  
BRANCH  20  21
HETATM   21  C   UNL     1      -9.357  17.545  67.465  1.00  0.00    -0.246 C  
BRANCH  21  22
HETATM   22  O   UNL     1      -9.021  18.048  66.173  1.00  0.00    -0.469 OA 
BRANCH  22  23
HETATM   23  C   UNL     1      -8.807  19.461  66.220  1.00  0.00    -0.351 C  
HETATM   24  C   UNL     1     -10.097  20.145  66.628  1.00  0.00    -0.584 C  
ENDBRANCH  22  23
ENDBRANCH  21  22
ENDBRANCH  20  21
ENDBRANCH  14  20
ENDBRANCH  13  14
ENDBRANCH  12  13
ENDBRANCH   6  12
ENDBRANCH   5   6
ENDBRANCH   4   5
ENDBRANCH   3   4
ENDBRANCH   2   3
TORSDOF 19
ENDMDL
MODEL       56
REMARK 921   NORMALIZED FREE ENERGY PREDICTED BY IDOCK:   -3.86 KCAL/MOL
REMARK 922        TOTAL FREE ENERGY PREDICTED BY IDOCK:   -9.39 KCAL/MOL
REMARK 923 INTER-LIGAND FREE ENERGY PREDICTED BY IDOCK:   -8.47 KCAL/MOL
REMARK 924 INTRA-LIGAND FREE ENERGY PREDICTED BY IDOCK:   -0.93 KCAL/MOL
REMARK 927      BINDING AFFINITY PREDICTED BY RF-SCORE:    0.00 PKD
ROOT
HETATM    1  C   UNL     1     -10.825  12.329  63.489  1.00  0.00    -0.508 C  
HETATM    2  C   UNL     1     -12.282  12.736  63.548  1.00  0.00    -0.525 C  
ENDROOT
BRANCH   2   3
HETATM    3  O   UNL     1     -12.804  12.480  64.854  1.00  0.00    -0.758 OA 
BRANCH   3   4
HETATM    4  C   UNL     1     -12.394  13.512  65.756  1.00  0.00    -0.468 C  
BRANCH   4   5
HETATM    5  C   UNL     1     -12.139  12.941  67.149  1.00  0.00    -0.219 C  
BRANCH   5   6
HETATM    6  P   UNL     1     -10.499  12.083  67.264  1.00  0.00    -0.229 P  
BRANCH   6   7
HETATM    7  C   UNL     1      -9.392  13.458  67.848  1.00  0.00    -0.216 C  
BRANCH   7   8
HETATM    8  C   UNL     1     -10.204  14.571  68.509  1.00  0.00    -0.240 C  
BRANCH   8   9
HETATM    9  O   UNL     1      -9.874  15.834  67.926  1.00  0.00    -0.216 OA 
BRANCH   9  10
HETATM   10  C   UNL     1     -10.858  16.811  68.271  1.00  0.00    -0.366 C  
HETATM   11  C   UNL     1     -10.173  18.060  68.787  1.00  0.00    -0.362 C  
ENDBRANCH   9  10
ENDBRANCH   8   9
ENDBRANCH   7   8
ENDBRANCH   6   7
BRANCH   6  12
HETATM   12  C   UNL     1     -10.686  11.186  68.879  1.00  0.00    -0.207 C  
BRANCH  12  13
HETATM   13  C   UNL     1     -12.136  11.045  69.316  1.00  0.00    -0.292 C  
BRANCH  13  14
HETATM   14  P   UNL     1     -12.325  10.844  71.148  1.00  0.00    -0.316 P  
BRANCH  14  15
HETATM   15  C   UNL     1     -13.201  12.411  71.623  1.00  0.00    -0.269 C  
BRANCH  15  16
HETATM   16  C   UNL     1     -12.510  13.633  71.011  1.00  0.00    -0.377 C  
BRANCH  16  17
HETATM   17  O   UNL     1     -13.388  14.762  71.029  1.00  0.00    -0.376 OA 
BRANCH  17  18
HETATM   18  C   UNL     1     -13.992  14.898  72.318  1.00  0.00    -0.499 C  
HETATM   19  C   UNL     1     -13.121  15.769  73.200  1.00  0.00    -0.669 C  
ENDBRANCH  17  18
ENDBRANCH  16  17
ENDBRANCH  15  16
ENDBRANCH  14  15
BRANCH  14  20
HETATM   20  C   UNL     1     -13.760   9.662  71.177  1.00  0.00    -0.095 C  
BRANCH  20  21
HETATM   21  C   UNL     1     -13.352   8.272  71.661  1.00  0.00    -0.330 C  
BRANCH  21  22
HETATM   22  O   UNL     1     -11.968   8.056  71.384  1.00  0.00    -0.288 OA 
BRANCH  22  23
HETATM   23  C   UNL     1     -11.341   7.353  72.459  1.00  0.00    -0.313 C  
HETATM   24  C   UNL     1     -11.065   5.927  72.026  1.00  0.00    -0.329 C  
ENDBRANCH  22  23
ENDBRANCH  21  22
ENDBRANCH  20  21
ENDBRANCH  14  20
ENDBRANCH  13  14
ENDBRANCH  12  13
ENDBRANCH   6  12
ENDBRANCH   5   6
ENDBRANCH   4   5
ENDBRANCH   3   4
ENDBRANCH   2   3
TORSDOF 19
ENDMDL
MODEL       57
REMARK 921   NORMALIZED FREE ENERGY PREDICTED BY IDOCK:   -3.86 KCAL/MOL
REMARK 922        TOTAL FREE ENERGY PREDICTED BY IDOCK:   -9.39 KCAL/MOL
REMARK 923 INTER-LIGAND FREE ENERGY PREDICTED BY IDOCK:   -8.27 KCAL/MOL
REMARK 924 INTRA-LIGAND FREE ENERGY PREDICTED BY IDOCK:   -1.12 KCAL/MOL
REMARK 927      BINDING AFFINITY PREDICTED BY RF-SCORE:    0.00 PKD
ROOT
HETATM    1  C   UNL     1     -10.735  11.901  63.395  1.00  0.00    -0.476 C  
HETATM    2  C   UNL     1     -12.205  12.031  63.737  1.00  0.00    -0.498 C  
ENDROOT
BRANCH   2   3
HETATM    3  O   UNL     1     -12.632  13.380  63.530  1.00  0.00    -0.733 OA 
BRANCH   3   4
HETATM    4  C   UNL     1     -11.974  14.248  64.457  1.00  0.00    -0.462 C  
BRANCH   4   5
HETATM    5  C   UNL     1     -12.534  14.060  65.864  1.00  0.00    -0.481 C  
BRANCH   5   6
HETATM    6  P   UNL     1     -11.211  14.139  67.160  1.00  0.00    -0.347 P  
BRANCH   6   7
HETATM    7  C   UNL     1     -11.875  15.450  68.299  1.00  0.00    -0.206 C  
BRANCH   7   8
HETATM    8  C   UNL     1     -11.516  15.146  69.753  1.00  0.00    -0.297 C  
BRANCH   8   9
HETATM    9  O   UNL     1     -12.517  15.672  70.628  1.00  0.00    -0.416 OA 
BRANCH   9  10
HETATM   10  C   UNL     1     -11.928  16.087  71.862  1.00  0.00    -0.525 C  
HETATM   11  C   UNL     1     -12.748  15.555  73.019  1.00  0.00    -0.563 C  
ENDBRANCH   9  10
ENDBRANCH   8   9
ENDBRANCH   7   8
ENDBRANCH   6   7
BRANCH   6  12
HETATM   12  C   UNL     1     -11.636  12.652  68.188  1.00  0.00    -0.338 C  
BRANCH  12  13
HETATM   13  C   UNL     1     -10.435  11.763  68.470  1.00  0.00    -0.215 C  
BRANCH  13  14
HETATM   14  P   UNL     1     -10.905  10.020  68.889  1.00  0.00    -0.179 P  
BRANCH  14  15
HETATM   15  C   UNL     1      -9.256   9.250  69.256  1.00  0.00    -0.152 C  
BRANCH  15  16
HETATM   16  C   UNL     1      -8.603   8.719  67.978  1.00  0.00    -0.134 C  
BRANCH  16  17
HETATM   17  O   UNL     1      -7.701   9.691  67.439  1.00  0.00    -0.095 OA 
BRANCH  17  18
HETATM   18  C   UNL     1      -8.075  10.022  66.100  1.00  0.00    -0.122 C  
HETATM   19  C   UNL     1      -9.013   8.965  65.554  1.00  0.00    -0.246 C  
ENDBRANCH  17  18
ENDBRANCH  16  17
ENDBRANCH  15  16
ENDBRANCH  14  15
BRANCH  14  20
HETATM   20  C   UNL     1     -11.522  10.282  70.623  1.00  0.00    -0.349 C  
BRANCH  20  21
HETATM   21  C   UNL     1     -11.007   9.214  71.586  1.00  0.00    -0.374 C  
BRANCH  21  22
HETATM   22  O   UNL     1     -12.092   8.387  72.007  1.00  0.00    -0.312 OA 
BRANCH  22  23
HETATM   23  C   UNL     1     -11.713   7.008  71.991  1.00  0.00    -0.295 C  
HETATM   24  C   UNL     1     -11.640   6.530  70.555  1.00  0.00    -0.455 C  
ENDBRANCH  22  23
ENDBRANCH  21  22
ENDBRANCH  20  21
ENDBRANCH  14  20
ENDBRANCH  13  14
ENDBRANCH  12  13
ENDBRANCH   6  12
ENDBRANCH   5   6
ENDBRANCH   4   5
ENDBRANCH   3   4
ENDBRANCH   2   3
TORSDOF 19
ENDMDL
MODEL       58
REMARK 921   NORMALIZED FREE ENERGY PREDICTED BY IDOCK:   -3.85 KCAL/MOL
REMARK 922        TOTAL FREE ENERGY PREDICTED BY IDOCK:   -9.38 KCAL/MOL
REMARK 923 INTER-LIGAND FREE ENERGY PREDICTED BY IDOCK:   -8.48 KCAL/MOL
REMARK 924 INTRA-LIGAND FREE ENERGY PREDICTED BY IDOCK:   -0.90 KCAL/MOL
REMARK 927      BINDING AFFINITY PREDICTED BY RF-SCORE:    0.00 PKD
ROOT
HETATM    1  C   UNL     1     -10.115   5.499  68.134  1.00  0.00    -0.221 C  
HETATM    2  C   UNL     1     -10.668   6.104  66.860  1.00  0.00    -0.340 C  
ENDROOT
BRANCH   2   3
HETATM    3  O   UNL     1     -11.079   7.452  67.104  1.00  0.00    -0.263 OA 
BRANCH   3   4
HETATM    4  C   UNL     1     -10.091   8.361  66.611  1.00  0.00    -0.288 C  
BRANCH   4   5
HETATM    5  C   UNL     1      -9.761   9.421  67.659  1.00  0.00    -0.155 C  
BRANCH   5   6
HETATM    6  P   UNL     1     -11.019  10.783  67.696  1.00  0.00    -0.300 P  
BRANCH   6   7
HETATM    7  C   UNL     1     -11.278  11.009  69.523  1.00  0.00    -0.279 C  
BRANCH   7   8
HETATM    8  C   UNL     1     -11.313   9.661  70.243  1.00  0.00    -0.257 C  
BRANCH   8   9
HETATM    9  O   UNL     1     -11.599   9.851  71.631  1.00  0.00    -0.360 OA 
BRANCH   9  10
HETATM   10  C   UNL     1     -12.947  10.295  71.802  1.00  0.00    -0.469 C  
HETATM   11  C   UNL     1     -13.830   9.112  72.145  1.00  0.00    -0.508 C  
ENDBRANCH   9  10
ENDBRANCH   8   9
ENDBRANCH   7   8
ENDBRANCH   6   7
BRANCH   6  12
HETATM   12  C   UNL     1      -9.941  12.264  67.394  1.00  0.00    -0.201 C  
BRANCH  12  13
HETATM   13  C   UNL     1     -10.713  13.575  67.418  1.00  0.00    -0.263 C  
BRANCH  13  14
HETATM   14  P   UNL     1     -10.186  14.751  66.087  1.00  0.00    -0.334 P  
BRANCH  14  15
HETATM   15  C   UNL     1     -11.589  14.625  64.879  1.00  0.00    -0.405 C  
BRANCH  15  16
HETATM   16  C   UNL     1     -12.773  13.871  65.490  1.00  0.00    -0.499 C  
BRANCH  16  17
HETATM   17  O   UNL     1     -13.009  12.653  64.777  1.00  0.00    -0.816 OA 
BRANCH  17  18
HETATM   18  C   UNL     1     -12.187  12.598  63.608  1.00  0.00    -0.536 C  
HETATM   19  C   UNL     1     -11.165  11.490  63.753  1.00  0.00    -0.456 C  
ENDBRANCH  17  18
ENDBRANCH  16  17
ENDBRANCH  15  16
ENDBRANCH  14  15
BRANCH  14  20
HETATM   20  C   UNL     1     -10.625  16.358  66.912  1.00  0.00    -0.252 C  
BRANCH  20  21
HETATM   21  C   UNL     1     -10.577  16.256  68.435  1.00  0.00    -0.301 C  
BRANCH  21  22
HETATM   22  O   UNL     1      -9.531  17.089  68.937  1.00  0.00    -0.266 OA 
BRANCH  22  23
HETATM   23  C   UNL     1      -9.552  18.368  68.297  1.00  0.00    -0.334 C  
HETATM   24  C   UNL     1      -8.349  19.170  68.751  1.00  0.00    -0.377 C  
ENDBRANCH  22  23
ENDBRANCH  21  22
ENDBRANCH  20  21
ENDBRANCH  14  20
ENDBRANCH  13  14
ENDBRANCH  12  13
ENDBRANCH   6  12
ENDBRANCH   5   6
ENDBRANCH   4   5
ENDBRANCH   3   4
ENDBRANCH   2   3
TORSDOF 19
ENDMDL
MODEL       59
REMARK 921   NORMALIZED FREE ENERGY PREDICTED BY IDOCK:   -3.85 KCAL/MOL
REMARK 922        TOTAL FREE ENERGY PREDICTED BY IDOCK:   -9.38 KCAL/MOL
REMARK 923 INTER-LIGAND FREE ENERGY PREDICTED BY IDOCK:   -8.22 KCAL/MOL
REMARK 924 INTRA-LIGAND FREE ENERGY PREDICTED BY IDOCK:   -1.16 KCAL/MOL
REMARK 927      BINDING AFFINITY PREDICTED BY RF-SCORE:    0.00 PKD
ROOT
HETATM    1  C   UNL     1     -13.155  10.351  71.651  1.00  0.00    -0.553 C  
HETATM    2  C   UNL     1     -13.272   9.038  72.398  1.00  0.00    -0.447 C  
ENDROOT
BRANCH   2   3
HETATM    3  O   UNL     1     -11.987   8.419  72.494  1.00  0.00    -0.393 OA 
BRANCH   3   4
HETATM    4  C   UNL     1     -11.060   9.081  71.628  1.00  0.00    -0.363 C  
BRANCH   4   5
HETATM    5  C   UNL     1     -10.525   8.116  70.573  1.00  0.00    -0.214 C  
BRANCH   5   6
HETATM    6  P   UNL     1      -9.537   8.986  69.267  1.00  0.00    -0.171 P  
BRANCH   6   7
HETATM    7  C   UNL     1      -9.545   7.737  67.890  1.00  0.00    -0.146 C  
BRANCH   7   8
HETATM    8  C   UNL     1      -9.733   8.417  66.534  1.00  0.00    -0.260 C  
BRANCH   8   9
HETATM    9  O   UNL     1      -8.461   8.710  65.950  1.00  0.00    -0.129 OA 
BRANCH   9  10
HETATM   10  C   UNL     1      -8.444  10.046  65.445  1.00  0.00    -0.151 C  
HETATM   11  C   UNL     1      -9.807  10.391  64.881  1.00  0.00    -0.400 C  
ENDBRANCH   9  10
ENDBRANCH   8   9
ENDBRANCH   7   8
ENDBRANCH   6   7
BRANCH   6  12
HETATM   12  C   UNL     1     -10.811  10.150  68.580  1.00  0.00    -0.235 C  
BRANCH  12  13
HETATM   13  C   UNL     1     -10.327  11.591  68.518  1.00  0.00    -0.210 C  
BRANCH  13  14
HETATM   14  P   UNL     1     -11.710  12.814  68.366  1.00  0.00    -0.289 P  
BRANCH  14  15
HETATM   15  C   UNL     1     -11.332  14.001  69.743  1.00  0.00    -0.179 C  
BRANCH  15  16
HETATM   16  C   UNL     1     -12.602  14.363  70.518  1.00  0.00    -0.353 C  
BRANCH  16  17
HETATM   17  O   UNL     1     -12.542  13.834  71.846  1.00  0.00    -0.281 OA 
BRANCH  17  18
HETATM   18  C   UNL     1     -13.437  14.549  72.702  1.00  0.00    -0.493 C  
HETATM   19  C   UNL     1     -12.760  15.803  73.215  1.00  0.00    -0.640 C  
ENDBRANCH  17  18
ENDBRANCH  16  17
ENDBRANCH  15  16
ENDBRANCH  14  15
BRANCH  14  20
HETATM   20  C   UNL     1     -11.083  13.801  66.921  1.00  0.00    -0.302 C  
BRANCH  20  21
HETATM   21  C   UNL     1     -12.219  14.390  66.087  1.00  0.00    -0.340 C  
BRANCH  21  22
HETATM   22  O   UNL     1     -12.809  13.363  65.290  1.00  0.00    -0.648 OA 
BRANCH  22  23
HETATM   23  C   UNL     1     -12.063  13.166  64.086  1.00  0.00    -0.430 C  
HETATM   24  C   UNL     1     -12.635  11.979  63.337  1.00  0.00    -0.592 C  
ENDBRANCH  22  23
ENDBRANCH  21  22
ENDBRANCH  20  21
ENDBRANCH  14  20
ENDBRANCH  13  14
ENDBRANCH  12  13
ENDBRANCH   6  12
ENDBRANCH   5   6
ENDBRANCH   4   5
ENDBRANCH   3   4
ENDBRANCH   2   3
TORSDOF 19
ENDMDL
MODEL       60
REMARK 921   NORMALIZED FREE ENERGY PREDICTED BY IDOCK:   -3.85 KCAL/MOL
REMARK 922        TOTAL FREE ENERGY PREDICTED BY IDOCK:   -9.37 KCAL/MOL
REMARK 923 INTER-LIGAND FREE ENERGY PREDICTED BY IDOCK:   -7.97 KCAL/MOL
REMARK 924 INTRA-LIGAND FREE ENERGY PREDICTED BY IDOCK:   -1.40 KCAL/MOL
REMARK 927      BINDING AFFINITY PREDICTED BY RF-SCORE:    0.00 PKD
ROOT
HETATM    1  C   UNL     1     -13.996  14.838  71.954  1.00  0.00    -0.577 C  
HETATM    2  C   UNL     1     -13.138  15.454  70.869  1.00  0.00    -0.468 C  
ENDROOT
BRANCH   2   3
HETATM    3  O   UNL     1     -11.783  15.023  71.022  1.00  0.00    -0.292 OA 
BRANCH   3   4
HETATM    4  C   UNL     1     -10.964  15.613  70.008  1.00  0.00    -0.327 C  
BRANCH   4   5
HETATM    5  C   UNL     1     -11.768  15.840  68.730  1.00  0.00    -0.378 C  
BRANCH   5   6
HETATM    6  P   UNL     1     -11.266  14.681  67.373  1.00  0.00    -0.365 P  
BRANCH   6   7
HETATM    7  C   UNL     1     -10.577  15.856  66.107  1.00  0.00    -0.305 C  
BRANCH   7   8
HETATM    8  C   UNL     1      -9.429  16.679  66.690  1.00  0.00    -0.252 C  
BRANCH   8   9
HETATM    9  O   UNL     1      -9.271  17.895  65.954  1.00  0.00    -0.519 OA 
BRANCH   9  10
HETATM   10  C   UNL     1     -10.467  18.674  66.022  1.00  0.00    -0.414 C  
HETATM   11  C   UNL     1     -10.458  19.505  67.289  1.00  0.00    -0.590 C  
ENDBRANCH   9  10
ENDBRANCH   8   9
ENDBRANCH   7   8
ENDBRANCH   6   7
BRANCH   6  12
HETATM   12  C   UNL     1      -9.658  14.035  68.040  1.00  0.00    -0.217 C  
BRANCH  12  13
HETATM   13  C   UNL     1      -9.662  12.527  68.244  1.00  0.00    -0.220 C  
BRANCH  13  14
HETATM   14  P   UNL     1     -11.345  11.775  68.054  1.00  0.00    -0.319 P  
BRANCH  14  15
HETATM   15  C   UNL     1     -10.943   9.979  67.814  1.00  0.00    -0.249 C  
BRANCH  15  16
HETATM   16  C   UNL     1      -9.435   9.736  67.915  1.00  0.00    -0.130 C  
BRANCH  16  17
HETATM   17  O   UNL     1      -9.163   8.673  68.833  1.00  0.00    -0.145 OA 
BRANCH  17  18
HETATM   18  C   UNL     1      -8.967   9.195  70.149  1.00  0.00    -0.198 C  
HETATM   19  C   UNL     1      -7.616   9.875  70.233  1.00  0.00    -0.172 C  
ENDBRANCH  17  18
ENDBRANCH  16  17
ENDBRANCH  15  16
ENDBRANCH  14  15
BRANCH  14  20
HETATM   20  C   UNL     1     -11.866  11.745  69.838  1.00  0.00    -0.348 C  
BRANCH  20  21
HETATM   21  C   UNL     1     -12.370  10.369  70.268  1.00  0.00    -0.250 C  
BRANCH  21  22
HETATM   22  O   UNL     1     -12.039  10.145  71.638  1.00  0.00    -0.375 OA 
BRANCH  22  23
HETATM   23  C   UNL     1     -12.644   8.939  72.114  1.00  0.00    -0.399 C  
HETATM   24  C   UNL     1     -11.556   7.980  72.557  1.00  0.00    -0.464 C  
ENDBRANCH  22  23
ENDBRANCH  21  22
ENDBRANCH  20  21
ENDBRANCH  14  20
ENDBRANCH  13  14
ENDBRANCH  12  13
ENDBRANCH   6  12
ENDBRANCH   5   6
ENDBRANCH   4   5
ENDBRANCH   3   4
ENDBRANCH   2   3
TORSDOF 19
ENDMDL
MODEL       61
REMARK 921   NORMALIZED FREE ENERGY PREDICTED BY IDOCK:   -3.85 KCAL/MOL
REMARK 922        TOTAL FREE ENERGY PREDICTED BY IDOCK:   -9.37 KCAL/MOL
REMARK 923 INTER-LIGAND FREE ENERGY PREDICTED BY IDOCK:   -8.27 KCAL/MOL
REMARK 924 INTRA-LIGAND FREE ENERGY PREDICTED BY IDOCK:   -1.10 KCAL/MOL
REMARK 927      BINDING AFFINITY PREDICTED BY RF-SCORE:    0.00 PKD
ROOT
HETATM    1  C   UNL     1      -9.649  20.297  67.155  1.00  0.00    -0.580 C  
HETATM    2  C   UNL     1     -10.241  19.817  65.846  1.00  0.00    -0.459 C  
ENDROOT
BRANCH   2   3
HETATM    3  O   UNL     1     -10.616  18.442  65.961  1.00  0.00    -0.427 OA 
BRANCH   3   4
HETATM    4  C   UNL     1     -10.626  18.051  67.336  1.00  0.00    -0.365 C  
BRANCH   4   5
HETATM    5  C   UNL     1     -10.614  16.530  67.466  1.00  0.00    -0.313 C  
BRANCH   5   6
HETATM    6  P   UNL     1      -9.483  15.732  66.232  1.00  0.00    -0.366 P  
BRANCH   6   7
HETATM    7  C   UNL     1      -7.840  16.472  66.690  1.00  0.00    -0.285 C  
BRANCH   7   8
HETATM    8  C   UNL     1      -7.454  16.104  68.122  1.00  0.00    -0.132 C  
BRANCH   8   9
HETATM    9  O   UNL     1      -7.457  17.271  68.949  1.00  0.00    -0.250 OA 
BRANCH   9  10
HETATM   10  C   UNL     1      -6.560  18.252  68.424  1.00  0.00    -0.212 C  
HETATM   11  C   UNL     1      -6.668  19.524  69.240  1.00  0.00    -0.376 C  
ENDBRANCH   9  10
ENDBRANCH   8   9
ENDBRANCH   7   8
ENDBRANCH   6   7
BRANCH   6  12
HETATM   12  C   UNL     1      -9.247  14.059  67.002  1.00  0.00    -0.254 C  
BRANCH  12  13
HETATM   13  C   UNL     1     -10.358  13.691  67.974  1.00  0.00    -0.250 C  
BRANCH  13  14
HETATM   14  P   UNL     1     -11.742  12.755  67.171  1.00  0.00    -0.308 P  
BRANCH  14  15
HETATM   15  C   UNL     1     -10.926  12.091  65.641  1.00  0.00    -0.297 C  
BRANCH  15  16
HETATM   16  C   UNL     1     -11.551  12.693  64.381  1.00  0.00    -0.357 C  
BRANCH  16  17
HETATM   17  O   UNL     1     -10.854  12.242  63.215  1.00  0.00    -0.435 OA 
BRANCH  17  18
HETATM   18  C   UNL     1      -9.883  11.254  63.572  1.00  0.00    -0.359 C  
HETATM   19  C   UNL     1      -8.994  10.959  62.381  1.00  0.00    -0.353 C  
ENDBRANCH  17  18
ENDBRANCH  16  17
ENDBRANCH  15  16
ENDBRANCH  14  15
BRANCH  14  20
HETATM   20  C   UNL     1     -11.724  11.225  68.226  1.00  0.00    -0.274 C  
BRANCH  20  21
HETATM   21  C   UNL     1     -11.950  11.540  69.703  1.00  0.00    -0.339 C  
BRANCH  21  22
HETATM   22  O   UNL     1     -12.137  10.324  70.428  1.00  0.00    -0.279 OA 
BRANCH  22  23
HETATM   23  C   UNL     1     -12.848  10.565  71.645  1.00  0.00    -0.475 C  
HETATM   24  C   UNL     1     -13.547   9.290  72.072  1.00  0.00    -0.519 C  
ENDBRANCH  22  23
ENDBRANCH  21  22
ENDBRANCH  20  21
ENDBRANCH  14  20
ENDBRANCH  13  14
ENDBRANCH  12  13
ENDBRANCH   6  12
ENDBRANCH   5   6
ENDBRANCH   4   5
ENDBRANCH   3   4
ENDBRANCH   2   3
TORSDOF 19
ENDMDL
MODEL       62
REMARK 921   NORMALIZED FREE ENERGY PREDICTED BY IDOCK:   -3.84 KCAL/MOL
REMARK 922        TOTAL FREE ENERGY PREDICTED BY IDOCK:   -9.36 KCAL/MOL
REMARK 923 INTER-LIGAND FREE ENERGY PREDICTED BY IDOCK:   -8.42 KCAL/MOL
REMARK 924 INTRA-LIGAND FREE ENERGY PREDICTED BY IDOCK:   -0.94 KCAL/MOL
REMARK 927      BINDING AFFINITY PREDICTED BY RF-SCORE:    0.00 PKD
ROOT
HETATM    1  C   UNL     1      -5.227  19.097  68.718  1.00  0.00    -0.196 C  
HETATM    2  C   UNL     1      -6.631  19.648  68.855  1.00  0.00    -0.311 C  
ENDROOT
BRANCH   2   3
HETATM    3  O   UNL     1      -7.004  20.325  67.653  1.00  0.00    -0.255 OA 
BRANCH   3   4
HETATM    4  C   UNL     1      -8.253  19.818  67.173  1.00  0.00    -0.298 C  
BRANCH   4   5
HETATM    5  C   UNL     1      -9.065  19.214  68.315  1.00  0.00    -0.338 C  
BRANCH   5   6
HETATM    6  P   UNL     1     -10.535  18.265  67.702  1.00  0.00    -0.350 P  
BRANCH   6   7
HETATM    7  C   UNL     1      -9.963  17.728  66.017  1.00  0.00    -0.209 C  
BRANCH   7   8
HETATM    8  C   UNL     1      -9.218  16.395  66.090  1.00  0.00    -0.330 C  
BRANCH   8   9
HETATM    9  O   UNL     1      -9.938  15.389  65.374  1.00  0.00    -0.344 OA 
BRANCH   9  10
HETATM   10  C   UNL     1     -11.133  15.938  64.815  1.00  0.00    -0.384 C  
HETATM   11  C   UNL     1     -11.991  14.821  64.257  1.00  0.00    -0.387 C  
ENDBRANCH   9  10
ENDBRANCH   8   9
ENDBRANCH   7   8
ENDBRANCH   6   7
BRANCH   6  12
HETATM   12  C   UNL     1     -10.305  16.650  68.590  1.00  0.00    -0.304 C  
BRANCH  12  13
HETATM   13  C   UNL     1     -11.587  15.836  68.683  1.00  0.00    -0.386 C  
BRANCH  13  14
HETATM   14  P   UNL     1     -11.521  14.526  69.991  1.00  0.00    -0.199 P  
BRANCH  14  15
HETATM   15  C   UNL     1     -13.159  14.741  70.839  1.00  0.00    -0.363 C  
BRANCH  15  16
HETATM   16  C   UNL     1     -13.354  13.685  71.931  1.00  0.00    -0.425 C  
BRANCH  16  17
HETATM   17  O   UNL     1     -13.517  14.312  73.206  1.00  0.00    -0.553 OA 
BRANCH  17  18
HETATM   18  C   UNL     1     -12.272  14.852  73.655  1.00  0.00    -0.399 C  
HETATM   19  C   UNL     1     -12.511  16.166  74.369  1.00  0.00    -0.655 C  
ENDBRANCH  17  18
ENDBRANCH  16  17
ENDBRANCH  15  16
ENDBRANCH  14  15
BRANCH  14  20
HETATM   20  C   UNL     1     -11.901  13.036  68.947  1.00  0.00    -0.316 C  
BRANCH  20  21
HETATM   21  C   UNL     1     -12.002  13.382  67.463  1.00  0.00    -0.339 C  
BRANCH  21  22
HETATM   22  O   UNL     1     -11.855  12.195  66.684  1.00  0.00    -0.566 OA 
BRANCH  22  23
HETATM   23  C   UNL     1     -10.476  11.944  66.400  1.00  0.00    -0.223 C  
HETATM   24  C   UNL     1     -10.258  10.449  66.280  1.00  0.00    -0.286 C  
ENDBRANCH  22  23
ENDBRANCH  21  22
ENDBRANCH  20  21
ENDBRANCH  14  20
ENDBRANCH  13  14
ENDBRANCH  12  13
ENDBRANCH   6  12
ENDBRANCH   5   6
ENDBRANCH   4   5
ENDBRANCH   3   4
ENDBRANCH   2   3
TORSDOF 19
ENDMDL
MODEL       63
REMARK 921   NORMALIZED FREE ENERGY PREDICTED BY IDOCK:   -3.84 KCAL/MOL
REMARK 922        TOTAL FREE ENERGY PREDICTED BY IDOCK:   -9.36 KCAL/MOL
REMARK 923 INTER-LIGAND FREE ENERGY PREDICTED BY IDOCK:   -8.14 KCAL/MOL
REMARK 924 INTRA-LIGAND FREE ENERGY PREDICTED BY IDOCK:   -1.22 KCAL/MOL
REMARK 927      BINDING AFFINITY PREDICTED BY RF-SCORE:    0.00 PKD
ROOT
HETATM    1  C   UNL     1      -9.813   6.598  66.752  1.00  0.00    -0.227 C  
HETATM    2  C   UNL     1      -9.168   7.803  67.404  1.00  0.00    -0.136 C  
ENDROOT
BRANCH   2   3
HETATM    3  O   UNL     1     -10.140   8.837  67.578  1.00  0.00    -0.189 OA 
BRANCH   3   4
HETATM    4  C   UNL     1      -9.534   9.983  68.181  1.00  0.00    -0.138 C  
BRANCH   4   5
HETATM    5  C   UNL     1     -10.294  10.395  69.440  1.00  0.00    -0.237 C  
BRANCH   5   6
HETATM    6  P   UNL     1     -11.743  11.486  69.056  1.00  0.00    -0.343 P  
BRANCH   6   7
HETATM    7  C   UNL     1     -12.353  11.918  70.758  1.00  0.00    -0.320 C  
BRANCH   7   8
HETATM    8  C   UNL     1     -12.536  13.428  70.908  1.00  0.00    -0.359 C  
BRANCH   8   9
HETATM    9  O   UNL     1     -13.572  13.708  71.853  1.00  0.00    -0.392 OA 
BRANCH   9  10
HETATM   10  C   UNL     1     -13.127  14.679  72.802  1.00  0.00    -0.486 C  
HETATM   11  C   UNL     1     -12.131  15.612  72.144  1.00  0.00    -0.539 C  
ENDBRANCH   9  10
ENDBRANCH   8   9
ENDBRANCH   7   8
ENDBRANCH   6   7
BRANCH   6  12
HETATM   12  C   UNL     1     -10.885  13.085  68.665  1.00  0.00    -0.259 C  
BRANCH  12  13
HETATM   13  C   UNL     1     -10.603  13.260  67.180  1.00  0.00    -0.258 C  
BRANCH  13  14
HETATM   14  P   UNL     1     -11.898  14.259  66.309  1.00  0.00    -0.376 P  
BRANCH  14  15
HETATM   15  C   UNL     1     -10.891  15.205  65.069  1.00  0.00    -0.440 C  
BRANCH  15  16
HETATM   16  C   UNL     1      -9.811  16.040  65.762  1.00  0.00    -0.323 C  
BRANCH  16  17
HETATM   17  O   UNL     1     -10.393  17.191  66.381  1.00  0.00    -0.321 OA 
BRANCH  17  18
HETATM   18  C   UNL     1      -9.631  17.574  67.528  1.00  0.00    -0.265 C  
HETATM   19  C   UNL     1     -10.438  17.322  68.785  1.00  0.00    -0.340 C  
ENDBRANCH  17  18
ENDBRANCH  16  17
ENDBRANCH  15  16
ENDBRANCH  14  15
BRANCH  14  20
HETATM   20  C   UNL     1     -12.602  12.942  65.202  1.00  0.00    -0.471 C  
BRANCH  20  21
HETATM   21  C   UNL     1     -12.109  13.074  63.763  1.00  0.00    -0.502 C  
BRANCH  21  22
HETATM   22  O   UNL     1     -11.609  11.816  63.311  1.00  0.00    -0.366 OA 
BRANCH  22  23
HETATM   23  C   UNL     1     -10.193  11.738  63.497  1.00  0.00    -0.450 C  
HETATM   24  C   UNL     1      -9.865  10.487  64.288  1.00  0.00    -0.402 C  
ENDBRANCH  22  23
ENDBRANCH  21  22
ENDBRANCH  20  21
ENDBRANCH  14  20
ENDBRANCH  13  14
ENDBRANCH  12  13
ENDBRANCH   6  12
ENDBRANCH   5   6
ENDBRANCH   4   5
ENDBRANCH   3   4
ENDBRANCH   2   3
TORSDOF 19
ENDMDL
MODEL       64
REMARK 921   NORMALIZED FREE ENERGY PREDICTED BY IDOCK:   -3.84 KCAL/MOL
REMARK 922        TOTAL FREE ENERGY PREDICTED BY IDOCK:   -9.35 KCAL/MOL
REMARK 923 INTER-LIGAND FREE ENERGY PREDICTED BY IDOCK:   -8.34 KCAL/MOL
REMARK 924 INTRA-LIGAND FREE ENERGY PREDICTED BY IDOCK:   -1.01 KCAL/MOL
REMARK 927      BINDING AFFINITY PREDICTED BY RF-SCORE:    0.00 PKD
ROOT
HETATM    1  C   UNL     1     -10.572  19.657  65.855  1.00  0.00    -0.566 C  
HETATM    2  C   UNL     1     -10.472  19.416  67.347  1.00  0.00    -0.466 C  
ENDROOT
BRANCH   2   3
HETATM    3  O   UNL     1      -9.381  18.533  67.621  1.00  0.00    -0.277 OA 
BRANCH   3   4
HETATM    4  C   UNL     1      -9.556  17.304  66.910  1.00  0.00    -0.268 C  
BRANCH   4   5
HETATM    5  C   UNL     1      -8.206  16.720  66.502  1.00  0.00    -0.290 C  
BRANCH   5   6
HETATM    6  P   UNL     1      -7.494  15.620  67.814  1.00  0.00    -0.178 P  
BRANCH   6   7
HETATM    7  C   UNL     1      -6.720  16.857  68.966  1.00  0.00    -0.215 C  
BRANCH   7   8
HETATM    8  C   UNL     1      -5.702  17.729  68.230  1.00  0.00    -0.158 C  
BRANCH   8   9
HETATM    9  O   UNL     1      -6.021  19.112  68.405  1.00  0.00    -0.210 OA 
BRANCH   9  10
HETATM   10  C   UNL     1      -5.880  19.813  67.168  1.00  0.00    -0.173 C  
HETATM   11  C   UNL     1      -6.865  20.964  67.123  1.00  0.00    -0.417 C  
ENDBRANCH   9  10
ENDBRANCH   8   9
ENDBRANCH   7   8
ENDBRANCH   6   7
BRANCH   6  12
HETATM   12  C   UNL     1      -9.012  15.238  68.813  1.00  0.00    -0.200 C  
BRANCH  12  13
HETATM   13  C   UNL     1      -9.686  13.939  68.396  1.00  0.00    -0.226 C  
BRANCH  13  14
HETATM   14  P   UNL     1     -11.522  14.102  68.211  1.00  0.00    -0.345 P  
BRANCH  14  15
HETATM   15  C   UNL     1     -11.923  12.699  67.064  1.00  0.00    -0.260 C  
BRANCH  15  16
HETATM   16  C   UNL     1     -12.084  13.196  65.625  1.00  0.00    -0.449 C  
BRANCH  16  17
HETATM   17  O   UNL     1     -12.995  12.358  64.908  1.00  0.00    -0.762 OA 
BRANCH  17  18
HETATM   18  C   UNL     1     -12.509  12.118  63.585  1.00  0.00    -0.549 C  
HETATM   19  C   UNL     1     -11.000  11.990  63.610  1.00  0.00    -0.517 C  
ENDBRANCH  17  18
ENDBRANCH  16  17
ENDBRANCH  15  16
ENDBRANCH  14  15
BRANCH  14  20
HETATM   20  C   UNL     1     -12.056  13.350  69.825  1.00  0.00    -0.310 C  
BRANCH  20  21
HETATM   21  C   UNL     1     -11.893  11.831  69.836  1.00  0.00    -0.348 C  
BRANCH  21  22
HETATM   22  O   UNL     1     -12.521  11.291  70.998  1.00  0.00    -0.382 OA 
BRANCH  22  23
HETATM   23  C   UNL     1     -12.063   9.960  71.248  1.00  0.00    -0.394 C  
HETATM   24  C   UNL     1     -10.717   9.763  70.578  1.00  0.00    -0.381 C  
ENDBRANCH  22  23
ENDBRANCH  21  22
ENDBRANCH  20  21
ENDBRANCH  14  20
ENDBRANCH  13  14
ENDBRANCH  12  13
ENDBRANCH   6  12
ENDBRANCH   5   6
ENDBRANCH   4   5
ENDBRANCH   3   4
ENDBRANCH   2   3
TORSDOF 19
ENDMDL
MODEL       65
REMARK 921   NORMALIZED FREE ENERGY PREDICTED BY IDOCK:   -3.83 KCAL/MOL
REMARK 922        TOTAL FREE ENERGY PREDICTED BY IDOCK:   -9.34 KCAL/MOL
REMARK 923 INTER-LIGAND FREE ENERGY PREDICTED BY IDOCK:   -7.95 KCAL/MOL
REMARK 924 INTRA-LIGAND FREE ENERGY PREDICTED BY IDOCK:   -1.39 KCAL/MOL
REMARK 927      BINDING AFFINITY PREDICTED BY RF-SCORE:    0.00 PKD
ROOT
HETATM    1  C   UNL     1     -11.233  12.401  63.422  1.00  0.00    -0.492 C  
HETATM    2  C   UNL     1     -12.039  12.187  64.686  1.00  0.00    -0.311 C  
ENDROOT
BRANCH   2   3
HETATM    3  O   UNL     1     -13.136  13.104  64.720  1.00  0.00    -0.728 OA 
BRANCH   3   4
HETATM    4  C   UNL     1     -12.758  14.292  65.421  1.00  0.00    -0.369 C  
BRANCH   4   5
HETATM    5  C   UNL     1     -12.265  13.957  66.826  1.00  0.00    -0.399 C  
BRANCH   5   6
HETATM    6  P   UNL     1     -11.008  15.176  67.435  1.00  0.00    -0.311 P  
BRANCH   6   7
HETATM    7  C   UNL     1     -11.773  15.742  69.033  1.00  0.00    -0.396 C  
BRANCH   7   8
HETATM    8  C   UNL     1     -10.829  15.497  70.210  1.00  0.00    -0.339 C  
BRANCH   8   9
HETATM    9  O   UNL     1     -11.546  14.917  71.303  1.00  0.00    -0.327 OA 
BRANCH   9  10
HETATM   10  C   UNL     1     -11.953  15.932  72.222  1.00  0.00    -0.518 C  
HETATM   11  C   UNL     1     -12.473  15.288  73.491  1.00  0.00    -0.670 C  
ENDBRANCH   9  10
ENDBRANCH   8   9
ENDBRANCH   7   8
ENDBRANCH   6   7
BRANCH   6  12
HETATM   12  C   UNL     1      -9.726  14.034  68.143  1.00  0.00    -0.220 C  
BRANCH  12  13
HETATM   13  C   UNL     1      -9.372  12.887  67.209  1.00  0.00    -0.212 C  
BRANCH  13  14
HETATM   14  P   UNL     1      -8.370  11.563  68.032  1.00  0.00    -0.160 P  
BRANCH  14  15
HETATM   15  C   UNL     1      -9.672  10.326  68.502  1.00  0.00    -0.161 C  
BRANCH  15  16
HETATM   16  C   UNL     1     -10.964  10.565  67.717  1.00  0.00    -0.313 C  
BRANCH  16  17
HETATM   17  O   UNL     1     -12.057  10.785  68.614  1.00  0.00    -0.480 OA 
BRANCH  17  18
HETATM   18  C   UNL     1     -11.598  10.762  69.968  1.00  0.00    -0.334 C  
HETATM   19  C   UNL     1     -12.507  11.613  70.830  1.00  0.00    -0.425 C  
ENDBRANCH  17  18
ENDBRANCH  16  17
ENDBRANCH  15  16
ENDBRANCH  14  15
BRANCH  14  20
HETATM   20  C   UNL     1      -7.674  10.729  66.524  1.00  0.00    -0.145 C  
BRANCH  20  21
HETATM   21  C   UNL     1      -7.826   9.210  66.584  1.00  0.00    -0.100 C  
BRANCH  21  22
HETATM   22  O   UNL     1      -8.098   8.705  65.276  1.00  0.00    -0.119 OA 
BRANCH  22  23
HETATM   23  C   UNL     1      -8.966   9.590  64.563  1.00  0.00    -0.212 C  
HETATM   24  C   UNL     1      -8.569   9.602  63.100  1.00  0.00    -0.208 C  
ENDBRANCH  22  23
ENDBRANCH  21  22
ENDBRANCH  20  21
ENDBRANCH  14  20
ENDBRANCH  13  14
ENDBRANCH  12  13
ENDBRANCH   6  12
ENDBRANCH   5   6
ENDBRANCH   4   5
ENDBRANCH   3   4
ENDBRANCH   2   3
TORSDOF 19
ENDMDL
MODEL       66
REMARK 921   NORMALIZED FREE ENERGY PREDICTED BY IDOCK:   -3.83 KCAL/MOL
REMARK 922        TOTAL FREE ENERGY PREDICTED BY IDOCK:   -9.34 KCAL/MOL
REMARK 923 INTER-LIGAND FREE ENERGY PREDICTED BY IDOCK:   -8.23 KCAL/MOL
REMARK 924 INTRA-LIGAND FREE ENERGY PREDICTED BY IDOCK:   -1.11 KCAL/MOL
REMARK 927      BINDING AFFINITY PREDICTED BY RF-SCORE:    0.00 PKD
ROOT
HETATM    1  C   UNL     1     -11.750  12.357  63.686  1.00  0.00    -0.596 C  
HETATM    2  C   UNL     1     -10.776  13.174  64.510  1.00  0.00    -0.398 C  
ENDROOT
BRANCH   2   3
HETATM    3  O   UNL     1     -11.440  14.321  65.046  1.00  0.00    -0.333 OA 
BRANCH   3   4
HETATM    4  C   UNL     1     -12.261  13.938  66.153  1.00  0.00    -0.464 C  
BRANCH   4   5
HETATM    5  C   UNL     1     -11.899  14.744  67.398  1.00  0.00    -0.295 C  
BRANCH   5   6
HETATM    6  P   UNL     1     -11.144  13.686  68.720  1.00  0.00    -0.284 P  
BRANCH   6   7
HETATM    7  C   UNL     1     -12.303  13.977  70.145  1.00  0.00    -0.345 C  
BRANCH   7   8
HETATM    8  C   UNL     1     -12.507  15.471  70.389  1.00  0.00    -0.402 C  
BRANCH   8   9
HETATM    9  O   UNL     1     -13.797  15.706  70.961  1.00  0.00    -0.567 OA 
BRANCH   9  10
HETATM   10  C   UNL     1     -13.912  15.029  72.214  1.00  0.00    -0.509 C  
HETATM   11  C   UNL     1     -13.410  15.930  73.324  1.00  0.00    -0.660 C  
ENDBRANCH   9  10
ENDBRANCH   8   9
ENDBRANCH   7   8
ENDBRANCH   6   7
BRANCH   6  12
HETATM   12  C   UNL     1     -11.756  12.006  68.217  1.00  0.00    -0.334 C  
BRANCH  12  13
HETATM   13  C   UNL     1     -12.105  11.122  69.405  1.00  0.00    -0.326 C  
BRANCH  13  14
HETATM   14  P   UNL     1     -10.651  10.176  70.057  1.00  0.00    -0.231 P  
BRANCH  14  15
HETATM   15  C   UNL     1     -11.369   9.343  71.553  1.00  0.00    -0.394 C  
BRANCH  15  16
HETATM   16  C   UNL     1     -11.518   7.837  71.324  1.00  0.00    -0.269 C  
BRANCH  16  17
HETATM   17  O   UNL     1     -11.135   7.115  72.497  1.00  0.00    -0.252 OA 
BRANCH  17  18
HETATM   18  C   UNL     1     -10.435   5.921  72.136  1.00  0.00    -0.207 C  
HETATM   19  C   UNL     1     -10.569   5.682  70.646  1.00  0.00    -0.347 C  
ENDBRANCH  17  18
ENDBRANCH  16  17
ENDBRANCH  15  16
ENDBRANCH  14  15
BRANCH  14  20
HETATM   20  C   UNL     1     -10.661   8.748  68.868  1.00  0.00    -0.155 C  
BRANCH  20  21
HETATM   21  C   UNL     1      -9.666   8.941  67.726  1.00  0.00    -0.160 C  
BRANCH  21  22
HETATM   22  O   UNL     1     -10.374   9.133  66.502  1.00  0.00    -0.263 OA 
BRANCH  22  23
HETATM   23  C   UNL     1      -9.565   9.833  65.553  1.00  0.00    -0.282 C  
HETATM   24  C   UNL     1      -8.533  10.659  66.295  1.00  0.00    -0.155 C  
ENDBRANCH  22  23
ENDBRANCH  21  22
ENDBRANCH  20  21
ENDBRANCH  14  20
ENDBRANCH  13  14
ENDBRANCH  12  13
ENDBRANCH   6  12
ENDBRANCH   5   6
ENDBRANCH   4   5
ENDBRANCH   3   4
ENDBRANCH   2   3
TORSDOF 19
ENDMDL
MODEL       67
REMARK 921   NORMALIZED FREE ENERGY PREDICTED BY IDOCK:   -3.83 KCAL/MOL
REMARK 922        TOTAL FREE ENERGY PREDICTED BY IDOCK:   -9.33 KCAL/MOL
REMARK 923 INTER-LIGAND FREE ENERGY PREDICTED BY IDOCK:   -8.28 KCAL/MOL
REMARK 924 INTRA-LIGAND FREE ENERGY PREDICTED BY IDOCK:   -1.05 KCAL/MOL
REMARK 927      BINDING AFFINITY PREDICTED BY RF-SCORE:    0.00 PKD
ROOT
HETATM    1  C   UNL     1     -14.080  13.997  72.288  1.00  0.00    -0.633 C  
HETATM    2  C   UNL     1     -12.960  13.631  71.335  1.00  0.00    -0.347 C  
ENDROOT
BRANCH   2   3
HETATM    3  O   UNL     1     -11.873  14.546  71.493  1.00  0.00    -0.333 OA 
BRANCH   3   4
HETATM    4  C   UNL     1     -12.030  15.652  70.599  1.00  0.00    -0.402 C  
BRANCH   4   5
HETATM    5  C   UNL     1     -10.710  15.975  69.904  1.00  0.00    -0.334 C  
BRANCH   5   6
HETATM    6  P   UNL     1     -10.962  16.573  68.167  1.00  0.00    -0.224 P  
BRANCH   6   7
HETATM    7  C   UNL     1     -10.095  18.217  68.203  1.00  0.00    -0.379 C  
BRANCH   7   8
HETATM    8  C   UNL     1     -10.782  19.220  67.277  1.00  0.00    -0.488 C  
BRANCH   8   9
HETATM    9  O   UNL     1      -9.823  20.141  66.751  1.00  0.00    -0.405 OA 
BRANCH   9  10
HETATM   10  C   UNL     1      -8.553  19.946  67.377  1.00  0.00    -0.335 C  
HETATM   11  C   UNL     1      -7.450  20.154  66.360  1.00  0.00    -0.311 C  
ENDBRANCH   9  10
ENDBRANCH   8   9
ENDBRANCH   7   8
ENDBRANCH   6   7
BRANCH   6  12
HETATM   12  C   UNL     1      -9.659  15.603  67.268  1.00  0.00    -0.217 C  
BRANCH  12  13
HETATM   13  C   UNL     1     -10.226  14.425  66.489  1.00  0.00    -0.274 C  
BRANCH  13  14
HETATM   14  P   UNL     1     -11.950  13.980  67.003  1.00  0.00    -0.368 P  
BRANCH  14  15
HETATM   15  C   UNL     1     -12.631  13.216  65.454  1.00  0.00    -0.454 C  
BRANCH  15  16
HETATM   16  C   UNL     1     -12.137  13.961  64.211  1.00  0.00    -0.440 C  
BRANCH  16  17
HETATM   17  O   UNL     1     -11.981  13.053  63.116  1.00  0.00    -0.534 OA 
BRANCH  17  18
HETATM   18  C   UNL     1     -11.455  11.807  63.579  1.00  0.00    -0.394 C  
HETATM   19  C   UNL     1      -9.963  11.756  63.325  1.00  0.00    -0.435 C  
ENDBRANCH  17  18
ENDBRANCH  16  17
ENDBRANCH  15  16
ENDBRANCH  14  15
BRANCH  14  20
HETATM   20  C   UNL     1     -11.587  12.440  67.979  1.00  0.00    -0.347 C  
BRANCH  20  21
HETATM   21  C   UNL     1     -10.427  11.643  67.387  1.00  0.00    -0.210 C  
BRANCH  21  22
HETATM   22  O   UNL     1      -9.343  11.614  68.316  1.00  0.00    -0.181 OA 
BRANCH  22  23
HETATM   23  C   UNL     1      -8.363  10.650  67.920  1.00  0.00    -0.120 C  
HETATM   24  C   UNL     1      -7.193  11.367  67.276  1.00  0.00    -0.119 C  
ENDBRANCH  22  23
ENDBRANCH  21  22
ENDBRANCH  20  21
ENDBRANCH  14  20
ENDBRANCH  13  14
ENDBRANCH  12  13
ENDBRANCH   6  12
ENDBRANCH   5   6
ENDBRANCH   4   5
ENDBRANCH   3   4
ENDBRANCH   2   3
TORSDOF 19
ENDMDL
MODEL       68
REMARK 921   NORMALIZED FREE ENERGY PREDICTED BY IDOCK:   -3.82 KCAL/MOL
REMARK 922        TOTAL FREE ENERGY PREDICTED BY IDOCK:   -9.31 KCAL/MOL
REMARK 923 INTER-LIGAND FREE ENERGY PREDICTED BY IDOCK:   -8.38 KCAL/MOL
REMARK 924 INTRA-LIGAND FREE ENERGY PREDICTED BY IDOCK:   -0.93 KCAL/MOL
REMARK 927      BINDING AFFINITY PREDICTED BY RF-SCORE:    0.00 PKD
ROOT
HETATM    1  C   UNL     1     -12.617  11.664  63.244  1.00  0.00    -0.237 C  
HETATM    2  C   UNL     1     -11.812  12.937  63.402  1.00  0.00    -0.507 C  
ENDROOT
BRANCH   2   3
HETATM    3  O   UNL     1     -12.674  14.009  63.791  1.00  0.00    -0.734 OA 
BRANCH   3   4
HETATM    4  C   UNL     1     -12.587  14.219  65.203  1.00  0.00    -0.372 C  
BRANCH   4   5
HETATM    5  C   UNL     1     -11.299  13.616  65.760  1.00  0.00    -0.306 C  
BRANCH   5   6
HETATM    6  P   UNL     1     -11.597  12.641  67.309  1.00  0.00    -0.346 P  
BRANCH   6   7
HETATM    7  C   UNL     1     -10.586  11.112  66.994  1.00  0.00    -0.252 C  
BRANCH   7   8
HETATM    8  C   UNL     1      -9.565  11.350  65.882  1.00  0.00    -0.227 C  
BRANCH   8   9
HETATM    9  O   UNL     1      -9.642  10.303  64.911  1.00  0.00    -0.253 OA 
BRANCH   9  10
HETATM   10  C   UNL     1      -8.631  10.474  63.916  1.00  0.00    -0.144 C  
HETATM   11  C   UNL     1      -8.935   9.587  62.727  1.00  0.00    -0.243 C  
ENDBRANCH   9  10
ENDBRANCH   8   9
ENDBRANCH   7   8
ENDBRANCH   6   7
BRANCH   6  12
HETATM   12  C   UNL     1     -10.437  13.490  68.486  1.00  0.00    -0.244 C  
BRANCH  12  13
HETATM   13  C   UNL     1     -10.150  14.933  68.098  1.00  0.00    -0.222 C  
BRANCH  13  14
HETATM   14  P   UNL     1     -11.429  16.119  68.722  1.00  0.00    -0.176 P  
BRANCH  14  15
HETATM   15  C   UNL     1     -11.486  15.713  70.533  1.00  0.00    -0.360 C  
BRANCH  15  16
HETATM   16  C   UNL     1     -12.897  15.300  70.958  1.00  0.00    -0.440 C  
BRANCH  16  17
HETATM   17  O   UNL     1     -12.906  14.903  72.333  1.00  0.00    -0.310 OA 
BRANCH  17  18
HETATM   18  C   UNL     1     -11.870  15.579  73.049  1.00  0.00    -0.445 C  
HETATM   19  C   UNL     1     -12.319  15.840  74.472  1.00  0.00    -0.776 C  
ENDBRANCH  17  18
ENDBRANCH  16  17
ENDBRANCH  15  16
ENDBRANCH  14  15
BRANCH  14  20
HETATM   20  C   UNL     1     -10.403  17.668  68.780  1.00  0.00    -0.348 C  
BRANCH  20  21
HETATM   21  C   UNL     1     -10.786  18.655  67.679  1.00  0.00    -0.376 C  
BRANCH  21  22
HETATM   22  O   UNL     1     -10.358  19.967  68.043  1.00  0.00    -0.410 OA 
BRANCH  22  23
HETATM   23  C   UNL     1      -9.623  20.574  66.977  1.00  0.00    -0.400 C  
HETATM   24  C   UNL     1      -9.214  19.504  65.984  1.00  0.00    -0.256 C  
ENDBRANCH  22  23
ENDBRANCH  21  22
ENDBRANCH  20  21
ENDBRANCH  14  20
ENDBRANCH  13  14
ENDBRANCH  12  13
ENDBRANCH   6  12
ENDBRANCH   5   6
ENDBRANCH   4   5
ENDBRANCH   3   4
ENDBRANCH   2   3
TORSDOF 19
ENDMDL
MODEL       69
REMARK 921   NORMALIZED FREE ENERGY PREDICTED BY IDOCK:   -3.82 KCAL/MOL
REMARK 922        TOTAL FREE ENERGY PREDICTED BY IDOCK:   -9.31 KCAL/MOL
REMARK 923 INTER-LIGAND FREE ENERGY PREDICTED BY IDOCK:   -8.09 KCAL/MOL
REMARK 924 INTRA-LIGAND FREE ENERGY PREDICTED BY IDOCK:   -1.22 KCAL/MOL
REMARK 927      BINDING AFFINITY PREDICTED BY RF-SCORE:    0.00 PKD
ROOT
HETATM    1  C   UNL     1     -11.616   6.287  70.495  1.00  0.00    -0.357 C  
HETATM    2  C   UNL     1     -10.690   7.370  71.008  1.00  0.00    -0.231 C  
ENDROOT
BRANCH   2   3
HETATM    3  O   UNL     1     -11.455   8.512  71.404  1.00  0.00    -0.262 OA 
BRANCH   3   4
HETATM    4  C   UNL     1     -10.749   9.712  71.075  1.00  0.00    -0.323 C  
BRANCH   4   5
HETATM    5  C   UNL     1     -11.473  10.479  69.973  1.00  0.00    -0.316 C  
BRANCH   5   6
HETATM    6  P   UNL     1     -10.295  11.247  68.764  1.00  0.00    -0.168 P  
BRANCH   6   7
HETATM    7  C   UNL     1     -10.942  10.603  67.144  1.00  0.00    -0.247 C  
BRANCH   7   8
HETATM    8  C   UNL     1     -10.732   9.094  67.031  1.00  0.00    -0.118 C  
BRANCH   8   9
HETATM    9  O   UNL     1      -9.521   8.714  67.690  1.00  0.00    -0.138 OA 
BRANCH   9  10
HETATM   10  C   UNL     1      -9.274   7.319  67.507  1.00  0.00    -0.130 C  
HETATM   11  C   UNL     1     -10.528   6.647  66.987  1.00  0.00    -0.369 C  
ENDBRANCH   9  10
ENDBRANCH   8   9
ENDBRANCH   7   8
ENDBRANCH   6   7
BRANCH   6  12
HETATM   12  C   UNL     1     -10.975  12.971  68.658  1.00  0.00    -0.265 C  
BRANCH  12  13
HETATM   13  C   UNL     1      -9.956  13.980  68.148  1.00  0.00    -0.242 C  
BRANCH  13  14
HETATM   14  P   UNL     1     -10.341  14.601  66.445  1.00  0.00    -0.313 P  
BRANCH  14  15
HETATM   15  C   UNL     1     -12.162  14.266  66.311  1.00  0.00    -0.410 C  
BRANCH  15  16
HETATM   16  C   UNL     1     -12.568  14.015  64.856  1.00  0.00    -0.342 C  
BRANCH  16  17
HETATM   17  O   UNL     1     -12.943  12.647  64.673  1.00  0.00    -0.768 OA 
BRANCH  17  18
HETATM   18  C   UNL     1     -12.401  12.145  63.449  1.00  0.00    -0.538 C  
HETATM   19  C   UNL     1     -10.898  12.005  63.575  1.00  0.00    -0.509 C  
ENDBRANCH  17  18
ENDBRANCH  16  17
ENDBRANCH  15  16
ENDBRANCH  14  15
BRANCH  14  20
HETATM   20  C   UNL     1     -10.382  16.427  66.790  1.00  0.00    -0.293 C  
BRANCH  20  21
HETATM   21  C   UNL     1     -10.554  16.729  68.277  1.00  0.00    -0.352 C  
BRANCH  21  22
HETATM   22  O   UNL     1     -10.404  18.130  68.501  1.00  0.00    -0.375 OA 
BRANCH  22  23
HETATM   23  C   UNL     1     -10.765  18.871  67.333  1.00  0.00    -0.444 C  
HETATM   24  C   UNL     1      -9.906  20.117  67.249  1.00  0.00    -0.580 C  
ENDBRANCH  22  23
ENDBRANCH  21  22
ENDBRANCH  20  21
ENDBRANCH  14  20
ENDBRANCH  13  14
ENDBRANCH  12  13
ENDBRANCH   6  12
ENDBRANCH   5   6
ENDBRANCH   4   5
ENDBRANCH   3   4
ENDBRANCH   2   3
TORSDOF 19
ENDMDL
MODEL       70
REMARK 921   NORMALIZED FREE ENERGY PREDICTED BY IDOCK:   -3.81 KCAL/MOL
REMARK 922        TOTAL FREE ENERGY PREDICTED BY IDOCK:   -9.29 KCAL/MOL
REMARK 923 INTER-LIGAND FREE ENERGY PREDICTED BY IDOCK:   -8.43 KCAL/MOL
REMARK 924 INTRA-LIGAND FREE ENERGY PREDICTED BY IDOCK:   -0.86 KCAL/MOL
REMARK 927      BINDING AFFINITY PREDICTED BY RF-SCORE:    0.00 PKD
ROOT
HETATM    1  C   UNL     1     -13.692   7.397  71.582  1.00  0.00    -0.468 C  
HETATM    2  C   UNL     1     -12.652   8.346  72.140  1.00  0.00    -0.364 C  
ENDROOT
BRANCH   2   3
HETATM    3  O   UNL     1     -11.741   8.726  71.106  1.00  0.00    -0.277 OA 
BRANCH   3   4
HETATM    4  C   UNL     1     -11.686  10.151  71.002  1.00  0.00    -0.382 C  
BRANCH   4   5
HETATM    5  C   UNL     1     -11.895  10.596  69.557  1.00  0.00    -0.273 C  
BRANCH   5   6
HETATM    6  P   UNL     1     -10.293  10.768  68.639  1.00  0.00    -0.216 P  
BRANCH   6   7
HETATM    7  C   UNL     1     -10.414   9.381  67.406  1.00  0.00    -0.278 C  
BRANCH   7   8
HETATM    8  C   UNL     1      -9.208   8.448  67.511  1.00  0.00    -0.140 C  
BRANCH   8   9
HETATM    9  O   UNL     1      -9.587   7.113  67.168  1.00  0.00    -0.137 OA 
BRANCH   9  10
HETATM   10  C   UNL     1     -10.947   6.875  67.535  1.00  0.00    -0.270 C  
HETATM   11  C   UNL     1     -10.993   6.004  68.774  1.00  0.00    -0.384 C  
ENDBRANCH   9  10
ENDBRANCH   8   9
ENDBRANCH   7   8
ENDBRANCH   6   7
BRANCH   6  12
HETATM   12  C   UNL     1     -10.693  12.176  67.497  1.00  0.00    -0.232 C  
BRANCH  12  13
HETATM   13  C   UNL     1     -10.082  13.496  67.945  1.00  0.00    -0.248 C  
BRANCH  13  14
HETATM   14  P   UNL     1     -11.349  14.808  68.270  1.00  0.00    -0.329 P  
BRANCH  14  15
HETATM   15  C   UNL     1     -12.129  14.214  69.846  1.00  0.00    -0.347 C  
BRANCH  15  16
HETATM   16  C   UNL     1     -12.167  15.329  70.894  1.00  0.00    -0.355 C  
BRANCH  16  17
HETATM   17  O   UNL     1     -13.515  15.753  71.121  1.00  0.00    -0.575 OA 
BRANCH  17  18
HETATM   18  C   UNL     1     -13.932  15.387  72.438  1.00  0.00    -0.560 C  
HETATM   19  C   UNL     1     -12.899  15.845  73.447  1.00  0.00    -0.688 C  
ENDBRANCH  17  18
ENDBRANCH  16  17
ENDBRANCH  15  16
ENDBRANCH  14  15
BRANCH  14  20
HETATM   20  C   UNL     1     -10.241  16.137  68.949  1.00  0.00    -0.245 C  
BRANCH  20  21
HETATM   21  C   UNL     1     -10.278  17.407  68.103  1.00  0.00    -0.350 C  
BRANCH  21  22
HETATM   22  O   UNL     1     -10.241  18.552  68.956  1.00  0.00    -0.356 OA 
BRANCH  22  23
HETATM   23  C   UNL     1      -9.184  19.435  68.572  1.00  0.00    -0.375 C  
HETATM   24  C   UNL     1      -9.669  20.332  67.450  1.00  0.00    -0.584 C  
ENDBRANCH  22  23
ENDBRANCH  21  22
ENDBRANCH  20  21
ENDBRANCH  14  20
ENDBRANCH  13  14
ENDBRANCH  12  13
ENDBRANCH   6  12
ENDBRANCH   5   6
ENDBRANCH   4   5
ENDBRANCH   3   4
ENDBRANCH   2   3
TORSDOF 19
ENDMDL
MODEL       71
REMARK 921   NORMALIZED FREE ENERGY PREDICTED BY IDOCK:   -3.80 KCAL/MOL
REMARK 922        TOTAL FREE ENERGY PREDICTED BY IDOCK:   -9.28 KCAL/MOL
REMARK 923 INTER-LIGAND FREE ENERGY PREDICTED BY IDOCK:   -8.21 KCAL/MOL
REMARK 924 INTRA-LIGAND FREE ENERGY PREDICTED BY IDOCK:   -1.07 KCAL/MOL
REMARK 927      BINDING AFFINITY PREDICTED BY RF-SCORE:    0.00 PKD
ROOT
HETATM    1  C   UNL     1     -14.353   8.191  71.635  1.00  0.00    -0.570 C  
HETATM    2  C   UNL     1     -13.075   7.383  71.533  1.00  0.00    -0.374 C  
ENDROOT
BRANCH   2   3
HETATM    3  O   UNL     1     -12.010   8.080  72.183  1.00  0.00    -0.312 OA 
BRANCH   3   4
HETATM    4  C   UNL     1     -10.800   7.931  71.436  1.00  0.00    -0.226 C  
BRANCH   4   5
HETATM    5  C   UNL     1     -10.100   9.277  71.268  1.00  0.00    -0.291 C  
BRANCH   5   6
HETATM    6  P   UNL     1     -10.019   9.806  69.492  1.00  0.00    -0.243 P  
BRANCH   6   7
HETATM    7  C   UNL     1     -10.289   8.195  68.605  1.00  0.00    -0.200 C  
BRANCH   7   8
HETATM    8  C   UNL     1     -10.629   8.431  67.133  1.00  0.00    -0.256 C  
BRANCH   8   9
HETATM    9  O   UNL     1      -9.452   8.795  66.408  1.00  0.00    -0.189 OA 
BRANCH   9  10
HETATM   10  C   UNL     1      -9.742   9.855  65.495  1.00  0.00    -0.302 C  
HETATM   11  C   UNL     1      -9.093  11.134  65.981  1.00  0.00    -0.217 C  
ENDBRANCH   9  10
ENDBRANCH   8   9
ENDBRANCH   7   8
ENDBRANCH   6   7
BRANCH   6  12
HETATM   12  C   UNL     1     -11.716  10.526  69.263  1.00  0.00    -0.209 C  
BRANCH  12  13
HETATM   13  C   UNL     1     -11.784  11.537  68.128  1.00  0.00    -0.287 C  
BRANCH  13  14
HETATM   14  P   UNL     1     -11.098  13.194  68.592  1.00  0.00    -0.290 P  
BRANCH  14  15
HETATM   15  C   UNL     1     -12.025  14.331  67.454  1.00  0.00    -0.391 C  
BRANCH  15  16
HETATM   16  C   UNL     1     -11.144  14.772  66.282  1.00  0.00    -0.341 C  
BRANCH  16  17
HETATM   17  O   UNL     1     -11.050  13.726  65.310  1.00  0.00    -0.299 OA 
BRANCH  17  18
HETATM   18  C   UNL     1     -12.352  13.371  64.838  1.00  0.00    -0.412 C  
HETATM   19  C   UNL     1     -12.247  12.200  63.882  1.00  0.00    -0.587 C  
ENDBRANCH  17  18
ENDBRANCH  16  17
ENDBRANCH  15  16
ENDBRANCH  14  15
BRANCH  14  20
HETATM   20  C   UNL     1     -12.045  13.484  70.165  1.00  0.00    -0.354 C  
BRANCH  20  21
HETATM   21  C   UNL     1     -12.458  14.945  70.329  1.00  0.00    -0.336 C  
BRANCH  21  22
HETATM   22  O   UNL     1     -12.019  15.428  71.598  1.00  0.00    -0.315 OA 
BRANCH  22  23
HETATM   23  C   UNL     1     -13.113  15.510  72.515  1.00  0.00    -0.446 C  
HETATM   24  C   UNL     1     -12.572  15.658  73.923  1.00  0.00    -0.767 C  
ENDBRANCH  22  23
ENDBRANCH  21  22
ENDBRANCH  20  21
ENDBRANCH  14  20
ENDBRANCH  13  14
ENDBRANCH  12  13
ENDBRANCH   6  12
ENDBRANCH   5   6
ENDBRANCH   4   5
ENDBRANCH   3   4
ENDBRANCH   2   3
TORSDOF 19
ENDMDL
MODEL       72
REMARK 921   NORMALIZED FREE ENERGY PREDICTED BY IDOCK:   -3.80 KCAL/MOL
REMARK 922        TOTAL FREE ENERGY PREDICTED BY IDOCK:   -9.28 KCAL/MOL
REMARK 923 INTER-LIGAND FREE ENERGY PREDICTED BY IDOCK:   -8.49 KCAL/MOL
REMARK 924 INTRA-LIGAND FREE ENERGY PREDICTED BY IDOCK:   -0.78 KCAL/MOL
REMARK 927      BINDING AFFINITY PREDICTED BY RF-SCORE:    0.00 PKD
ROOT
HETATM    1  C   UNL     1      -8.388  20.436  67.408  1.00  0.00    -0.380 C  
HETATM    2  C   UNL     1      -7.986  19.159  66.700  1.00  0.00    -0.272 C  
ENDROOT
BRANCH   2   3
HETATM    3  O   UNL     1      -9.141  18.540  66.128  1.00  0.00    -0.462 OA 
BRANCH   3   4
HETATM    4  C   UNL     1     -10.232  18.590  67.052  1.00  0.00    -0.380 C  
BRANCH   4   5
HETATM    5  C   UNL     1     -10.766  17.188  67.334  1.00  0.00    -0.242 C  
BRANCH   5   6
HETATM    6  P   UNL     1     -10.492  16.677  69.095  1.00  0.00    -0.324 P  
BRANCH   6   7
HETATM    7  C   UNL     1     -12.051  15.731  69.461  1.00  0.00    -0.242 C  
BRANCH   7   8
HETATM    8  C   UNL     1     -12.351  15.729  70.960  1.00  0.00    -0.415 C  
BRANCH   8   9
HETATM    9  O   UNL     1     -13.764  15.703  71.178  1.00  0.00    -0.591 OA 
BRANCH   9  10
HETATM   10  C   UNL     1     -14.054  15.195  72.482  1.00  0.00    -0.439 C  
HETATM   11  C   UNL     1     -12.787  15.180  73.312  1.00  0.00    -0.640 C  
ENDBRANCH   9  10
ENDBRANCH   8   9
ENDBRANCH   7   8
ENDBRANCH   6   7
BRANCH   6  12
HETATM   12  C   UNL     1      -9.350  15.231  68.867  1.00  0.00    -0.213 C  
BRANCH  12  13
HETATM   13  C   UNL     1      -9.098  14.898  67.403  1.00  0.00    -0.189 C  
BRANCH  13  14
HETATM   14  P   UNL     1     -10.281  13.639  66.733  1.00  0.00    -0.277 P  
BRANCH  14  15
HETATM   15  C   UNL     1     -10.418  14.145  64.952  1.00  0.00    -0.438 C  
BRANCH  15  16
HETATM   16  C   UNL     1     -11.697  14.950  64.707  1.00  0.00    -0.402 C  
BRANCH  16  17
HETATM   17  O   UNL     1     -12.585  14.225  63.851  1.00  0.00    -0.787 OA 
BRANCH  17  18
HETATM   18  C   UNL     1     -11.925  13.077  63.313  1.00  0.00    -0.421 C  
HETATM   19  C   UNL     1     -12.848  11.877  63.384  1.00  0.00    -0.393 C  
ENDBRANCH  17  18
ENDBRANCH  16  17
ENDBRANCH  15  16
ENDBRANCH  14  15
BRANCH  14  20
HETATM   20  C   UNL     1      -9.121  12.197  66.561  1.00  0.00    -0.199 C  
BRANCH  20  21
HETATM   21  C   UNL     1      -9.068  11.345  67.827  1.00  0.00    -0.158 C  
BRANCH  21  22
HETATM   22  O   UNL     1      -8.846   9.979  67.476  1.00  0.00    -0.128 OA 
BRANCH  22  23
HETATM   23  C   UNL     1      -9.980   9.443  66.789  1.00  0.00    -0.239 C  
HETATM   24  C   UNL     1     -10.579   8.324  67.617  1.00  0.00    -0.264 C  
ENDBRANCH  22  23
ENDBRANCH  21  22
ENDBRANCH  20  21
ENDBRANCH  14  20
ENDBRANCH  13  14
ENDBRANCH  12  13
ENDBRANCH   6  12
ENDBRANCH   5   6
ENDBRANCH   4   5
ENDBRANCH   3   4
ENDBRANCH   2   3
TORSDOF 19
ENDMDL
MODEL       73
REMARK 921   NORMALIZED FREE ENERGY PREDICTED BY IDOCK:   -3.80 KCAL/MOL
REMARK 922        TOTAL FREE ENERGY PREDICTED BY IDOCK:   -9.27 KCAL/MOL
REMARK 923 INTER-LIGAND FREE ENERGY PREDICTED BY IDOCK:   -8.11 KCAL/MOL
REMARK 924 INTRA-LIGAND FREE ENERGY PREDICTED BY IDOCK:   -1.16 KCAL/MOL
REMARK 927      BINDING AFFINITY PREDICTED BY RF-SCORE:    0.00 PKD
ROOT
HETATM    1  C   UNL     1     -12.868  11.845  63.631  1.00  0.00    -0.429 C  
HETATM    2  C   UNL     1     -11.989  13.044  63.346  1.00  0.00    -0.520 C  
ENDROOT
BRANCH   2   3
HETATM    3  O   UNL     1     -12.563  14.215  63.933  1.00  0.00    -0.752 OA 
BRANCH   3   4
HETATM    4  C   UNL     1     -11.540  15.014  64.533  1.00  0.00    -0.343 C  
BRANCH   4   5
HETATM    5  C   UNL     1     -10.348  14.149  64.938  1.00  0.00    -0.408 C  
BRANCH   5   6
HETATM    6  P   UNL     1     -10.124  14.086  66.778  1.00  0.00    -0.275 P  
BRANCH   6   7
HETATM    7  C   UNL     1     -10.999  15.634  67.320  1.00  0.00    -0.275 C  
BRANCH   7   8
HETATM    8  C   UNL     1     -10.172  16.398  68.353  1.00  0.00    -0.259 C  
BRANCH   8   9
HETATM    9  O   UNL     1     -10.490  17.791  68.306  1.00  0.00    -0.369 OA 
BRANCH   9  10
HETATM   10  C   UNL     1     -10.487  18.254  66.954  1.00  0.00    -0.373 C  
HETATM   11  C   UNL     1     -10.283  19.755  66.933  1.00  0.00    -0.579 C  
ENDBRANCH   9  10
ENDBRANCH   8   9
ENDBRANCH   7   8
ENDBRANCH   6   7
BRANCH   6  12
HETATM   12  C   UNL     1     -11.436  12.858  67.249  1.00  0.00    -0.336 C  
BRANCH  12  13
HETATM   13  C   UNL     1     -11.101  11.438  66.819  1.00  0.00    -0.281 C  
BRANCH  13  14
HETATM   14  P   UNL     1     -11.080  10.239  68.233  1.00  0.00    -0.163 P  
BRANCH  14  15
HETATM   15  C   UNL     1      -9.413  10.556  68.986  1.00  0.00    -0.201 C  
BRANCH  15  16
HETATM   16  C   UNL     1      -8.317   9.798  68.232  1.00  0.00    -0.106 C  
BRANCH  16  17
HETATM   17  O   UNL     1      -7.288  10.698  67.811  1.00  0.00    -0.088 OA 
BRANCH  17  18
HETATM   18  C   UNL     1      -6.710  10.248  66.583  1.00  0.00    -0.082 C  
HETATM   19  C   UNL     1      -7.792  10.096  65.534  1.00  0.00    -0.147 C  
ENDBRANCH  17  18
ENDBRANCH  16  17
ENDBRANCH  15  16
ENDBRANCH  14  15
BRANCH  14  20
HETATM   20  C   UNL     1     -12.149  11.170  69.435  1.00  0.00    -0.326 C  
BRANCH  20  21
HETATM   21  C   UNL     1     -12.077  10.585  70.844  1.00  0.00    -0.383 C  
BRANCH  21  22
HETATM   22  O   UNL     1     -12.911  11.343  71.720  1.00  0.00    -0.459 OA 
BRANCH  22  23
HETATM   23  C   UNL     1     -12.857  12.734  71.392  1.00  0.00    -0.275 C  
HETATM   24  C   UNL     1     -13.814  13.493  72.289  1.00  0.00    -0.680 C  
ENDBRANCH  22  23
ENDBRANCH  21  22
ENDBRANCH  20  21
ENDBRANCH  14  20
ENDBRANCH  13  14
ENDBRANCH  12  13
ENDBRANCH   6  12
ENDBRANCH   5   6
ENDBRANCH   4   5
ENDBRANCH   3   4
ENDBRANCH   2   3
TORSDOF 19
ENDMDL
MODEL       74
REMARK 921   NORMALIZED FREE ENERGY PREDICTED BY IDOCK:   -3.79 KCAL/MOL
REMARK 922        TOTAL FREE ENERGY PREDICTED BY IDOCK:   -9.26 KCAL/MOL
REMARK 923 INTER-LIGAND FREE ENERGY PREDICTED BY IDOCK:   -8.71 KCAL/MOL
REMARK 924 INTRA-LIGAND FREE ENERGY PREDICTED BY IDOCK:   -0.55 KCAL/MOL
REMARK 927      BINDING AFFINITY PREDICTED BY RF-SCORE:    0.00 PKD
ROOT
HETATM    1  C   UNL     1     -10.590   5.765  66.804  1.00  0.00    -0.373 C  
HETATM    2  C   UNL     1     -10.418   6.951  67.731  1.00  0.00    -0.223 C  
ENDROOT
BRANCH   2   3
HETATM    3  O   UNL     1     -10.723   8.160  67.031  1.00  0.00    -0.321 OA 
BRANCH   3   4
HETATM    4  C   UNL     1     -10.277   9.289  67.788  1.00  0.00    -0.218 C  
BRANCH   4   5
HETATM    5  C   UNL     1     -11.235  10.465  67.619  1.00  0.00    -0.213 C  
BRANCH   5   6
HETATM    6  P   UNL     1     -10.398  12.095  67.900  1.00  0.00    -0.219 P  
BRANCH   6   7
HETATM    7  C   UNL     1     -10.719  12.968  66.290  1.00  0.00    -0.276 C  
BRANCH   7   8
HETATM    8  C   UNL     1     -11.913  13.914  66.408  1.00  0.00    -0.438 C  
BRANCH   8   9
HETATM    9  O   UNL     1     -12.811  13.712  65.313  1.00  0.00    -0.672 OA 
BRANCH   9  10
HETATM   10  C   UNL     1     -12.080  13.533  64.099  1.00  0.00    -0.435 C  
HETATM   11  C   UNL     1     -12.365  12.156  63.535  1.00  0.00    -0.682 C  
ENDBRANCH   9  10
ENDBRANCH   8   9
ENDBRANCH   7   8
ENDBRANCH   6   7
BRANCH   6  12
HETATM   12  C   UNL     1     -11.669  12.968  68.935  1.00  0.00    -0.328 C  
BRANCH  12  13
HETATM   13  C   UNL     1     -11.055  13.918  69.952  1.00  0.00     0.063 C  
BRANCH  13  14
HETATM   14  P   UNL     1     -11.871  15.581  69.976  1.00  0.00    -0.378 P  
BRANCH  14  15
HETATM   15  C   UNL     1     -11.612  16.117  71.734  1.00  0.00    -0.419 C  
BRANCH  15  16
HETATM   16  C   UNL     1     -12.829  15.773  72.597  1.00  0.00    -0.461 C  
BRANCH  16  17
HETATM   17  O   UNL     1     -12.821  14.383  72.937  1.00  0.00    -0.438 OA 
BRANCH  17  18
HETATM   18  C   UNL     1     -13.906  13.711  72.291  1.00  0.00    -0.590 C  
HETATM   19  C   UNL     1     -13.528  12.268  72.029  1.00  0.00    -0.418 C  
ENDBRANCH  17  18
ENDBRANCH  16  17
ENDBRANCH  15  16
ENDBRANCH  14  15
BRANCH  14  20
HETATM   20  C   UNL     1     -10.544  16.582  69.144  1.00  0.00    -0.319 C  
BRANCH  20  21
HETATM   21  C   UNL     1     -11.005  17.153  67.805  1.00  0.00    -0.180 C  
BRANCH  21  22
HETATM   22  O   UNL     1      -9.879  17.328  66.946  1.00  0.00    -0.265 OA 
BRANCH  22  23
HETATM   23  C   UNL     1      -9.405  18.676  67.002  1.00  0.00    -0.294 C  
HETATM   24  C   UNL     1     -10.583  19.609  67.196  1.00  0.00    -0.611 C  
ENDBRANCH  22  23
ENDBRANCH  21  22
ENDBRANCH  20  21
ENDBRANCH  14  20
ENDBRANCH  13  14
ENDBRANCH  12  13
ENDBRANCH   6  12
ENDBRANCH   5   6
ENDBRANCH   4   5
ENDBRANCH   3   4
ENDBRANCH   2   3
TORSDOF 19
ENDMDL
MODEL       75
REMARK 921   NORMALIZED FREE ENERGY PREDICTED BY IDOCK:   -3.79 KCAL/MOL
REMARK 922        TOTAL FREE ENERGY PREDICTED BY IDOCK:   -9.25 KCAL/MOL
REMARK 923 INTER-LIGAND FREE ENERGY PREDICTED BY IDOCK:   -8.24 KCAL/MOL
REMARK 924 INTRA-LIGAND FREE ENERGY PREDICTED BY IDOCK:   -1.00 KCAL/MOL
REMARK 927      BINDING AFFINITY PREDICTED BY RF-SCORE:    0.00 PKD
ROOT
HETATM    1  C   UNL     1      -7.469   7.034  66.447  1.00  0.00    -0.084 C  
HETATM    2  C   UNL     1      -8.893   7.217  65.965  1.00  0.00    -0.131 C  
ENDROOT
BRANCH   2   3
HETATM    3  O   UNL     1      -9.426   8.438  66.483  1.00  0.00    -0.186 OA 
BRANCH   3   4
HETATM    4  C   UNL     1      -9.737   8.286  67.870  1.00  0.00    -0.161 C  
BRANCH   4   5
HETATM    5  C   UNL     1      -9.658   9.629  68.592  1.00  0.00    -0.150 C  
BRANCH   5   6
HETATM    6  P   UNL     1     -10.946  10.821  67.994  1.00  0.00    -0.323 P  
BRANCH   6   7
HETATM    7  C   UNL     1     -12.124  10.859  69.433  1.00  0.00    -0.290 C  
BRANCH   7   8
HETATM    8  C   UNL     1     -11.498  10.215  70.670  1.00  0.00    -0.349 C  
BRANCH   8   9
HETATM    9  O   UNL     1     -12.435  10.212  71.750  1.00  0.00    -0.394 OA 
BRANCH   9  10
HETATM   10  C   UNL     1     -12.799   8.871  72.085  1.00  0.00    -0.409 C  
HETATM   11  C   UNL     1     -11.554   8.077  72.421  1.00  0.00    -0.450 C  
ENDBRANCH   9  10
ENDBRANCH   8   9
ENDBRANCH   7   8
ENDBRANCH   6   7
BRANCH   6  12
HETATM   12  C   UNL     1     -10.095  12.442  68.303  1.00  0.00    -0.227 C  
BRANCH  12  13
HETATM   13  C   UNL     1      -9.760  13.191  67.022  1.00  0.00    -0.241 C  
BRANCH  13  14
HETATM   14  P   UNL     1     -10.634  14.819  66.884  1.00  0.00    -0.306 P  
BRANCH  14  15
HETATM   15  C   UNL     1     -11.699  14.563  65.385  1.00  0.00    -0.354 C  
BRANCH  15  16
HETATM   16  C   UNL     1     -12.700  13.427  65.611  1.00  0.00    -0.370 C  
BRANCH  16  17
HETATM   17  O   UNL     1     -12.892  12.686  64.402  1.00  0.00    -0.712 OA 
BRANCH  17  18
HETATM   18  C   UNL     1     -11.752  12.825  63.551  1.00  0.00    -0.530 C  
HETATM   19  C   UNL     1     -10.915  11.563  63.607  1.00  0.00    -0.482 C  
ENDBRANCH  17  18
ENDBRANCH  16  17
ENDBRANCH  15  16
ENDBRANCH  14  15
BRANCH  14  20
HETATM   20  C   UNL     1     -11.910  14.591  68.217  1.00  0.00    -0.312 C  
BRANCH  20  21
HETATM   21  C   UNL     1     -11.821  15.673  69.291  1.00  0.00    -0.363 C  
BRANCH  21  22
HETATM   22  O   UNL     1     -12.669  15.329  70.388  1.00  0.00    -0.379 OA 
BRANCH  22  23
HETATM   23  C   UNL     1     -12.109  15.785  71.622  1.00  0.00    -0.452 C  
HETATM   24  C   UNL     1     -13.191  15.796  72.684  1.00  0.00    -0.588 C  
ENDBRANCH  22  23
ENDBRANCH  21  22
ENDBRANCH  20  21
ENDBRANCH  14  20
ENDBRANCH  13  14
ENDBRANCH  12  13
ENDBRANCH   6  12
ENDBRANCH   5   6
ENDBRANCH   4   5
ENDBRANCH   3   4
ENDBRANCH   2   3
TORSDOF 19
ENDMDL
MODEL       76
REMARK 921   NORMALIZED FREE ENERGY PREDICTED BY IDOCK:   -3.79 KCAL/MOL
REMARK 922        TOTAL FREE ENERGY PREDICTED BY IDOCK:   -9.24 KCAL/MOL
REMARK 923 INTER-LIGAND FREE ENERGY PREDICTED BY IDOCK:   -8.14 KCAL/MOL
REMARK 924 INTRA-LIGAND FREE ENERGY PREDICTED BY IDOCK:   -1.10 KCAL/MOL
REMARK 927      BINDING AFFINITY PREDICTED BY RF-SCORE:    0.00 PKD
ROOT
HETATM    1  C   UNL     1     -10.193  19.996  65.725  1.00  0.00    -0.454 C  
HETATM    2  C   UNL     1      -9.858  19.932  67.201  1.00  0.00    -0.406 C  
ENDROOT
BRANCH   2   3
HETATM    3  O   UNL     1     -10.831  19.137  67.884  1.00  0.00    -0.352 OA 
BRANCH   3   4
HETATM    4  C   UNL     1     -10.266  17.874  68.245  1.00  0.00    -0.388 C  
BRANCH   4   5
HETATM    5  C   UNL     1     -10.764  16.773  67.311  1.00  0.00    -0.213 C  
BRANCH   5   6
HETATM    6  P   UNL     1      -9.403  16.081  66.259  1.00  0.00    -0.361 P  
BRANCH   6   7
HETATM    7  C   UNL     1      -7.896  16.506  67.261  1.00  0.00    -0.156 C  
BRANCH   7   8
HETATM    8  C   UNL     1      -6.768  17.015  66.365  1.00  0.00    -0.187 C  
BRANCH   8   9
HETATM    9  O   UNL     1      -7.252  18.048  65.503  1.00  0.00    -0.532 OA 
BRANCH   9  10
HETATM   10  C   UNL     1      -6.165  18.842  65.023  1.00  0.00    -0.259 C  
HETATM   11  C   UNL     1      -6.561  20.304  65.037  1.00  0.00    -0.331 C  
ENDBRANCH   9  10
ENDBRANCH   8   9
ENDBRANCH   7   8
ENDBRANCH   6   7
BRANCH   6  12
HETATM   12  C   UNL     1      -9.510  14.277  66.690  1.00  0.00    -0.286 C  
BRANCH  12  13
HETATM   13  C   UNL     1     -10.907  13.851  67.116  1.00  0.00    -0.284 C  
BRANCH  13  14
HETATM   14  P   UNL     1     -10.956  13.128  68.821  1.00  0.00    -0.225 P  
BRANCH  14  15
HETATM   15  C   UNL     1     -12.246  14.174  69.650  1.00  0.00    -0.326 C  
BRANCH  15  16
HETATM   16  C   UNL     1     -12.080  14.147  71.172  1.00  0.00    -0.314 C  
BRANCH  16  17
HETATM   17  O   UNL     1     -12.149  15.473  71.704  1.00  0.00    -0.325 OA 
BRANCH  17  18
HETATM   18  C   UNL     1     -13.179  15.556  72.692  1.00  0.00    -0.486 C  
HETATM   19  C   UNL     1     -12.596  16.058  73.997  1.00  0.00    -0.733 C  
ENDBRANCH  17  18
ENDBRANCH  16  17
ENDBRANCH  15  16
ENDBRANCH  14  15
BRANCH  14  20
HETATM   20  C   UNL     1     -11.962  11.604  68.475  1.00  0.00    -0.217 C  
BRANCH  20  21
HETATM   21  C   UNL     1     -12.180  10.759  69.729  1.00  0.00    -0.288 C  
BRANCH  21  22
HETATM   22  O   UNL     1     -10.971  10.707  70.486  1.00  0.00    -0.225 OA 
BRANCH  22  23
HETATM   23  C   UNL     1     -10.823   9.431  71.114  1.00  0.00    -0.357 C  
HETATM   24  C   UNL     1     -12.130   9.049  71.779  1.00  0.00    -0.438 C  
ENDBRANCH  22  23
ENDBRANCH  21  22
ENDBRANCH  20  21
ENDBRANCH  14  20
ENDBRANCH  13  14
ENDBRANCH  12  13
ENDBRANCH   6  12
ENDBRANCH   5   6
ENDBRANCH   4   5
ENDBRANCH   3   4
ENDBRANCH   2   3
TORSDOF 19
ENDMDL
MODEL       77
REMARK 921   NORMALIZED FREE ENERGY PREDICTED BY IDOCK:   -3.79 KCAL/MOL
REMARK 922        TOTAL FREE ENERGY PREDICTED BY IDOCK:   -9.24 KCAL/MOL
REMARK 923 INTER-LIGAND FREE ENERGY PREDICTED BY IDOCK:   -8.21 KCAL/MOL
REMARK 924 INTRA-LIGAND FREE ENERGY PREDICTED BY IDOCK:   -1.03 KCAL/MOL
REMARK 927      BINDING AFFINITY PREDICTED BY RF-SCORE:    0.00 PKD
ROOT
HETATM    1  C   UNL     1     -13.177  14.647  72.833  1.00  0.00    -0.609 C  
HETATM    2  C   UNL     1     -13.889  13.411  72.322  1.00  0.00    -0.573 C  
ENDROOT
BRANCH   2   3
HETATM    3  O   UNL     1     -12.994  12.636  71.520  1.00  0.00    -0.375 OA 
BRANCH   3   4
HETATM    4  C   UNL     1     -13.114  11.250  71.853  1.00  0.00    -0.405 C  
BRANCH   4   5
HETATM    5  C   UNL     1     -12.728  10.374  70.664  1.00  0.00    -0.333 C  
BRANCH   5   6
HETATM    6  P   UNL     1     -11.042   9.628  70.864  1.00  0.00    -0.374 P  
BRANCH   6   7
HETATM    7  C   UNL     1     -11.395   7.821  70.608  1.00  0.00    -0.264 C  
BRANCH   7   8
HETATM    8  C   UNL     1     -12.583   7.369  71.457  1.00  0.00    -0.367 C  
BRANCH   8   9
HETATM    9  O   UNL     1     -12.301   6.105  72.065  1.00  0.00    -0.290 OA 
BRANCH   9  10
HETATM   10  C   UNL     1     -11.123   6.195  72.869  1.00  0.00    -0.247 C  
HETATM   11  C   UNL     1     -10.898   4.879  73.586  1.00  0.00    -0.374 C  
ENDBRANCH   9  10
ENDBRANCH   8   9
ENDBRANCH   7   8
ENDBRANCH   6   7
BRANCH   6  12
HETATM   12  C   UNL     1     -10.298   9.993  69.203  1.00  0.00    -0.216 C  
BRANCH  12  13
HETATM   13  C   UNL     1     -10.603  11.401  68.712  1.00  0.00    -0.204 C  
BRANCH  13  14
HETATM   14  P   UNL     1      -9.519  11.929  67.305  1.00  0.00    -0.183 P  
BRANCH  14  15
HETATM   15  C   UNL     1     -10.185  10.916  65.899  1.00  0.00    -0.257 C  
BRANCH  15  16
HETATM   16  C   UNL     1      -9.336  11.101  64.639  1.00  0.00    -0.175 C  
BRANCH  16  17
HETATM   17  O   UNL     1      -9.959  12.035  63.752  1.00  0.00    -0.349 OA 
BRANCH  17  18
HETATM   18  C   UNL     1     -11.372  11.819  63.721  1.00  0.00    -0.438 C  
HETATM   19  C   UNL     1     -12.082  13.125  63.433  1.00  0.00    -0.558 C  
ENDBRANCH  17  18
ENDBRANCH  16  17
ENDBRANCH  15  16
ENDBRANCH  14  15
BRANCH  14  20
HETATM   20  C   UNL     1     -10.307  13.566  66.914  1.00  0.00    -0.265 C  
BRANCH  20  21
HETATM   21  C   UNL     1     -11.828  13.520  67.047  1.00  0.00    -0.402 C  
BRANCH  21  22
HETATM   22  O   UNL     1     -12.230  14.265  68.196  1.00  0.00    -0.284 OA 
BRANCH  22  23
HETATM   23  C   UNL     1     -11.441  15.450  68.333  1.00  0.00    -0.355 C  
HETATM   24  C   UNL     1     -11.113  15.661  69.798  1.00  0.00    -0.315 C  
ENDBRANCH  22  23
ENDBRANCH  21  22
ENDBRANCH  20  21
ENDBRANCH  14  20
ENDBRANCH  13  14
ENDBRANCH  12  13
ENDBRANCH   6  12
ENDBRANCH   5   6
ENDBRANCH   4   5
ENDBRANCH   3   4
ENDBRANCH   2   3
TORSDOF 19
ENDMDL
MODEL       78
REMARK 921   NORMALIZED FREE ENERGY PREDICTED BY IDOCK:   -3.79 KCAL/MOL
REMARK 922        TOTAL FREE ENERGY PREDICTED BY IDOCK:   -9.24 KCAL/MOL
REMARK 923 INTER-LIGAND FREE ENERGY PREDICTED BY IDOCK:   -8.42 KCAL/MOL
REMARK 924 INTRA-LIGAND FREE ENERGY PREDICTED BY IDOCK:   -0.82 KCAL/MOL
REMARK 927      BINDING AFFINITY PREDICTED BY RF-SCORE:    0.00 PKD
ROOT
HETATM    1  C   UNL     1     -10.527   9.369  68.519  1.00  0.00    -0.239 C  
HETATM    2  C   UNL     1     -10.361   9.581  67.029  1.00  0.00    -0.250 C  
ENDROOT
BRANCH   2   3
HETATM    3  O   UNL     1      -9.836  10.889  66.782  1.00  0.00    -0.186 OA 
BRANCH   3   4
HETATM    4  C   UNL     1      -9.369  11.466  68.004  1.00  0.00    -0.171 C  
BRANCH   4   5
HETATM    5  C   UNL     1      -9.619  12.972  68.020  1.00  0.00    -0.224 C  
BRANCH   5   6
HETATM    6  P   UNL     1     -10.118  13.616  66.354  1.00  0.00    -0.305 P  
BRANCH   6   7
HETATM    7  C   UNL     1     -11.963  13.753  66.539  1.00  0.00    -0.434 C  
BRANCH   7   8
HETATM    8  C   UNL     1     -12.649  13.793  65.173  1.00  0.00    -0.433 C  
BRANCH   8   9
HETATM    9  O   UNL     1     -13.062  12.478  64.791  1.00  0.00    -0.853 OA 
BRANCH   9  10
HETATM   10  C   UNL     1     -12.622  12.188  63.463  1.00  0.00    -0.506 C  
HETATM   11  C   UNL     1     -11.254  11.539  63.513  1.00  0.00    -0.412 C  
ENDBRANCH   9  10
ENDBRANCH   8   9
ENDBRANCH   7   8
ENDBRANCH   6   7
BRANCH   6  12
HETATM   12  C   UNL     1      -9.697  15.415  66.533  1.00  0.00    -0.272 C  
BRANCH  12  13
HETATM   13  C   UNL     1     -10.894  16.270  66.922  1.00  0.00    -0.151 C  
BRANCH  13  14
HETATM   14  P   UNL     1     -10.763  16.963  68.635  1.00  0.00    -0.277 P  
BRANCH  14  15
HETATM   15  C   UNL     1     -11.422  15.570  69.670  1.00  0.00    -0.329 C  
BRANCH  15  16
HETATM   16  C   UNL     1     -11.546  15.987  71.138  1.00  0.00    -0.443 C  
BRANCH  16  17
HETATM   17  O   UNL     1     -12.880  15.770  71.606  1.00  0.00    -0.444 OA 
BRANCH  17  18
HETATM   18  C   UNL     1     -12.883  14.798  72.655  1.00  0.00    -0.405 C  
HETATM   19  C   UNL     1     -13.900  13.718  72.347  1.00  0.00    -0.681 C  
ENDBRANCH  17  18
ENDBRANCH  16  17
ENDBRANCH  15  16
ENDBRANCH  14  15
BRANCH  14  20
HETATM   20  C   UNL     1      -8.941  16.729  68.918  1.00  0.00    -0.227 C  
BRANCH  20  21
HETATM   21  C   UNL     1      -8.120  17.901  68.385  1.00  0.00    -0.299 C  
BRANCH  21  22
HETATM   22  O   UNL     1      -6.992  18.120  69.233  1.00  0.00    -0.243 OA 
BRANCH  22  23
HETATM   23  C   UNL     1      -6.278  19.292  68.832  1.00  0.00    -0.247 C  
HETATM   24  C   UNL     1      -5.937  20.110  70.062  1.00  0.00    -0.388 C  
ENDBRANCH  22  23
ENDBRANCH  21  22
ENDBRANCH  20  21
ENDBRANCH  14  20
ENDBRANCH  13  14
ENDBRANCH  12  13
ENDBRANCH   6  12
ENDBRANCH   5   6
ENDBRANCH   4   5
ENDBRANCH   3   4
ENDBRANCH   2   3
TORSDOF 19
ENDMDL
MODEL       79
REMARK 921   NORMALIZED FREE ENERGY PREDICTED BY IDOCK:   -3.78 KCAL/MOL
REMARK 922        TOTAL FREE ENERGY PREDICTED BY IDOCK:   -9.23 KCAL/MOL
REMARK 923 INTER-LIGAND FREE ENERGY PREDICTED BY IDOCK:   -8.11 KCAL/MOL
REMARK 924 INTRA-LIGAND FREE ENERGY PREDICTED BY IDOCK:   -1.12 KCAL/MOL
REMARK 927      BINDING AFFINITY PREDICTED BY RF-SCORE:    0.00 PKD
ROOT
HETATM    1  C   UNL     1     -12.305  13.770  63.788  1.00  0.00    -0.313 C  
HETATM    2  C   UNL     1     -12.475  12.274  63.620  1.00  0.00    -0.541 C  
ENDROOT
BRANCH   2   3
HETATM    3  O   UNL     1     -11.300  11.601  64.078  1.00  0.00    -0.366 OA 
BRANCH   3   4
HETATM    4  C   UNL     1     -10.296  12.555  64.435  1.00  0.00    -0.352 C  
BRANCH   4   5
HETATM    5  C   UNL     1      -9.804  12.314  65.860  1.00  0.00    -0.251 C  
BRANCH   5   6
HETATM    6  P   UNL     1     -10.580  10.813  66.623  1.00  0.00    -0.160 P  
BRANCH   6   7
HETATM    7  C   UNL     1      -9.145  10.072  67.544  1.00  0.00    -0.134 C  
BRANCH   7   8
HETATM    8  C   UNL     1      -8.835  10.870  68.810  1.00  0.00    -0.161 C  
BRANCH   8   9
HETATM    9  O   UNL     1      -7.456  11.250  68.827  1.00  0.00    -0.108 OA 
BRANCH   9  10
HETATM   10  C   UNL     1      -7.327  12.655  68.601  1.00  0.00    -0.101 C  
HETATM   11  C   UNL     1      -6.318  12.900  67.498  1.00  0.00    -0.161 C  
ENDBRANCH   9  10
ENDBRANCH   8   9
ENDBRANCH   7   8
ENDBRANCH   6   7
BRANCH   6  12
HETATM   12  C   UNL     1     -11.462  11.572  68.070  1.00  0.00    -0.311 C  
BRANCH  12  13
HETATM   13  C   UNL     1     -11.850  13.025  67.834  1.00  0.00    -0.343 C  
BRANCH  13  14
HETATM   14  P   UNL     1     -11.211  14.168  69.144  1.00  0.00    -0.273 P  
BRANCH  14  15
HETATM   15  C   UNL     1     -11.515  15.836  68.387  1.00  0.00    -0.365 C  
BRANCH  15  16
HETATM   16  C   UNL     1     -10.214  16.634  68.277  1.00  0.00    -0.281 C  
BRANCH  16  17
HETATM   17  O   UNL     1     -10.473  18.032  68.434  1.00  0.00    -0.366 OA 
BRANCH  17  18
HETATM   18  C   UNL     1     -10.628  18.652  67.155  1.00  0.00    -0.417 C  
HETATM   19  C   UNL     1     -10.008  20.034  67.179  1.00  0.00    -0.580 C  
ENDBRANCH  17  18
ENDBRANCH  16  17
ENDBRANCH  15  16
ENDBRANCH  14  15
BRANCH  14  20
HETATM   20  C   UNL     1     -12.640  14.097  70.331  1.00  0.00    -0.332 C  
BRANCH  20  21
HETATM   21  C   UNL     1     -13.019  15.478  70.861  1.00  0.00    -0.467 C  
BRANCH  21  22
HETATM   22  O   UNL     1     -13.813  15.337  72.039  1.00  0.00    -0.427 OA 
BRANCH  22  23
HETATM   23  C   UNL     1     -13.144  14.522  73.005  1.00  0.00    -0.510 C  
HETATM   24  C   UNL     1     -12.398  15.414  73.977  1.00  0.00    -0.792 C  
ENDBRANCH  22  23
ENDBRANCH  21  22
ENDBRANCH  20  21
ENDBRANCH  14  20
ENDBRANCH  13  14
ENDBRANCH  12  13
ENDBRANCH   6  12
ENDBRANCH   5   6
ENDBRANCH   4   5
ENDBRANCH   3   4
ENDBRANCH   2   3
TORSDOF 19
ENDMDL
MODEL       80
REMARK 921   NORMALIZED FREE ENERGY PREDICTED BY IDOCK:   -3.78 KCAL/MOL
REMARK 922        TOTAL FREE ENERGY PREDICTED BY IDOCK:   -9.22 KCAL/MOL
REMARK 923 INTER-LIGAND FREE ENERGY PREDICTED BY IDOCK:   -8.13 KCAL/MOL
REMARK 924 INTRA-LIGAND FREE ENERGY PREDICTED BY IDOCK:   -1.09 KCAL/MOL
REMARK 927      BINDING AFFINITY PREDICTED BY RF-SCORE:    0.00 PKD
ROOT
HETATM    1  C   UNL     1     -12.589  13.876  65.487  1.00  0.00    -0.560 C  
HETATM    2  C   UNL     1     -12.439  12.755  64.479  1.00  0.00    -0.428 C  
ENDROOT
BRANCH   2   3
HETATM    3  O   UNL     1     -11.085  12.693  64.024  1.00  0.00    -0.349 OA 
BRANCH   3   4
HETATM    4  C   UNL     1     -10.763  11.358  63.627  1.00  0.00    -0.401 C  
BRANCH   4   5
HETATM    5  C   UNL     1      -9.550  10.843  64.397  1.00  0.00    -0.265 C  
BRANCH   5   6
HETATM    6  P   UNL     1      -9.906  10.634  66.204  1.00  0.00    -0.237 P  
BRANCH   6   7
HETATM    7  C   UNL     1      -8.626   9.379  66.700  1.00  0.00    -0.130 C  
BRANCH   7   8
HETATM    8  C   UNL     1      -9.267   8.204  67.437  1.00  0.00    -0.137 C  
BRANCH   8   9
HETATM    9  O   UNL     1     -10.529   8.595  67.983  1.00  0.00    -0.223 OA 
BRANCH   9  10
HETATM   10  C   UNL     1     -10.485   8.554  69.411  1.00  0.00    -0.218 C  
HETATM   11  C   UNL     1     -10.935   9.889  69.970  1.00  0.00    -0.338 C  
ENDBRANCH   9  10
ENDBRANCH   8   9
ENDBRANCH   7   8
ENDBRANCH   6   7
BRANCH   6  12
HETATM   12  C   UNL     1      -9.082  12.145  66.901  1.00  0.00    -0.203 C  
BRANCH  12  13
HETATM   13  C   UNL     1      -9.974  12.919  67.861  1.00  0.00    -0.233 C  
BRANCH  13  14
HETATM   14  P   UNL     1      -9.425  14.671  68.109  1.00  0.00    -0.223 P  
BRANCH  14  15
HETATM   15  C   UNL     1      -9.270  15.281  66.362  1.00  0.00    -0.307 C  
BRANCH  15  16
HETATM   16  C   UNL     1      -8.899  16.766  66.331  1.00  0.00    -0.296 C  
BRANCH  16  17
HETATM   17  O   UNL     1      -9.947  17.527  65.724  1.00  0.00    -0.546 OA 
BRANCH  17  18
HETATM   18  C   UNL     1     -10.371  18.573  66.603  1.00  0.00    -0.408 C  
HETATM   19  C   UNL     1     -10.080  19.919  65.972  1.00  0.00    -0.589 C  
ENDBRANCH  17  18
ENDBRANCH  16  17
ENDBRANCH  15  16
ENDBRANCH  14  15
BRANCH  14  20
HETATM   20  C   UNL     1     -11.055  15.437  68.566  1.00  0.00    -0.295 C  
BRANCH  20  21
HETATM   21  C   UNL     1     -11.686  14.767  69.785  1.00  0.00    -0.310 C  
BRANCH  21  22
HETATM   22  O   UNL     1     -12.387  15.742  70.557  1.00  0.00    -0.402 OA 
BRANCH  22  23
HETATM   23  C   UNL     1     -11.827  15.846  71.869  1.00  0.00    -0.506 C  
HETATM   24  C   UNL     1     -12.726  15.119  72.850  1.00  0.00    -0.522 C  
ENDBRANCH  22  23
ENDBRANCH  21  22
ENDBRANCH  20  21
ENDBRANCH  14  20
ENDBRANCH  13  14
ENDBRANCH  12  13
ENDBRANCH   6  12
ENDBRANCH   5   6
ENDBRANCH   4   5
ENDBRANCH   3   4
ENDBRANCH   2   3
TORSDOF 19
ENDMDL
MODEL       81
REMARK 921   NORMALIZED FREE ENERGY PREDICTED BY IDOCK:   -3.77 KCAL/MOL
REMARK 922        TOTAL FREE ENERGY PREDICTED BY IDOCK:   -9.21 KCAL/MOL
REMARK 923 INTER-LIGAND FREE ENERGY PREDICTED BY IDOCK:   -8.27 KCAL/MOL
REMARK 924 INTRA-LIGAND FREE ENERGY PREDICTED BY IDOCK:   -0.94 KCAL/MOL
REMARK 927      BINDING AFFINITY PREDICTED BY RF-SCORE:    0.00 PKD
ROOT
HETATM    1  C   UNL     1      -9.302  10.377  62.991  1.00  0.00    -0.344 C  
HETATM    2  C   UNL     1     -10.000  11.685  63.301  1.00  0.00    -0.419 C  
ENDROOT
BRANCH   2   3
HETATM    3  O   UNL     1     -11.365  11.435  63.645  1.00  0.00    -0.386 OA 
BRANCH   3   4
HETATM    4  C   UNL     1     -11.753  12.265  64.743  1.00  0.00    -0.358 C  
BRANCH   4   5
HETATM    5  C   UNL     1     -10.896  11.970  65.972  1.00  0.00    -0.289 C  
BRANCH   5   6
HETATM    6  P   UNL     1     -11.570  12.770  67.503  1.00  0.00    -0.355 P  
BRANCH   6   7
HETATM    7  C   UNL     1     -11.746  11.313  68.645  1.00  0.00    -0.324 C  
BRANCH   7   8
HETATM    8  C   UNL     1     -10.389  10.665  68.919  1.00  0.00    -0.207 C  
BRANCH   8   9
HETATM    9  O   UNL     1     -10.419   9.284  68.549  1.00  0.00    -0.205 OA 
BRANCH   9  10
HETATM   10  C   UNL     1      -9.351   8.990  67.647  1.00  0.00    -0.136 C  
HETATM   11  C   UNL     1      -8.257  10.027  67.802  1.00  0.00    -0.113 C  
ENDBRANCH   9  10
ENDBRANCH   8   9
ENDBRANCH   7   8
ENDBRANCH   6   7
BRANCH   6  12
HETATM   12  C   UNL     1     -10.023  13.495  68.230  1.00  0.00    -0.237 C  
BRANCH  12  13
HETATM   13  C   UNL     1      -9.802  14.945  67.829  1.00  0.00    -0.217 C  
BRANCH  13  14
HETATM   14  P   UNL     1     -11.046  16.101  68.570  1.00  0.00    -0.341 P  
BRANCH  14  15
HETATM   15  C   UNL     1     -11.155  15.485  70.318  1.00  0.00    -0.328 C  
BRANCH  15  16
HETATM   16  C   UNL     1     -12.590  15.087  70.671  1.00  0.00    -0.374 C  
BRANCH  16  17
HETATM   17  O   UNL     1     -13.000  15.727  71.884  1.00  0.00    -0.444 OA 
BRANCH  17  18
HETATM   18  C   UNL     1     -12.832  14.839  72.992  1.00  0.00    -0.485 C  
HETATM   19  C   UNL     1     -12.367  15.618  74.205  1.00  0.00    -0.813 C  
ENDBRANCH  17  18
ENDBRANCH  16  17
ENDBRANCH  15  16
ENDBRANCH  14  15
BRANCH  14  20
HETATM   20  C   UNL     1      -9.962  17.588  68.828  1.00  0.00    -0.342 C  
BRANCH  20  21
HETATM   21  C   UNL     1     -10.512  18.831  68.131  1.00  0.00    -0.315 C  
BRANCH  21  22
HETATM   22  O   UNL     1      -9.525  19.862  68.141  1.00  0.00    -0.346 OA 
BRANCH  22  23
HETATM   23  C   UNL     1      -9.169  20.235  66.807  1.00  0.00    -0.327 C  
HETATM   24  C   UNL     1     -10.315  19.897  65.875  1.00  0.00    -0.567 C  
ENDBRANCH  22  23
ENDBRANCH  21  22
ENDBRANCH  20  21
ENDBRANCH  14  20
ENDBRANCH  13  14
ENDBRANCH  12  13
ENDBRANCH   6  12
ENDBRANCH   5   6
ENDBRANCH   4   5
ENDBRANCH   3   4
ENDBRANCH   2   3
TORSDOF 19
ENDMDL
MODEL       82
REMARK 921   NORMALIZED FREE ENERGY PREDICTED BY IDOCK:   -3.77 KCAL/MOL
REMARK 922        TOTAL FREE ENERGY PREDICTED BY IDOCK:   -9.20 KCAL/MOL
REMARK 923 INTER-LIGAND FREE ENERGY PREDICTED BY IDOCK:   -8.36 KCAL/MOL
REMARK 924 INTRA-LIGAND FREE ENERGY PREDICTED BY IDOCK:   -0.84 KCAL/MOL
REMARK 927      BINDING AFFINITY PREDICTED BY RF-SCORE:    0.00 PKD
ROOT
HETATM    1  C   UNL     1     -10.697  19.743  65.660  1.00  0.00    -0.418 C  
HETATM    2  C   UNL     1     -10.041  20.165  66.959  1.00  0.00    -0.459 C  
ENDROOT
BRANCH   2   3
HETATM    3  O   UNL     1     -10.754  19.606  68.065  1.00  0.00    -0.381 OA 
BRANCH   3   4
HETATM    4  C   UNL     1      -9.899  18.732  68.807  1.00  0.00    -0.384 C  
BRANCH   4   5
HETATM    5  C   UNL     1     -10.045  17.293  68.320  1.00  0.00    -0.321 C  
BRANCH   5   6
HETATM    6  P   UNL     1      -8.476  16.643  67.577  1.00  0.00    -0.194 P  
BRANCH   6   7
HETATM    7  C   UNL     1      -7.213  17.171  68.835  1.00  0.00    -0.242 C  
BRANCH   7   8
HETATM    8  C   UNL     1      -6.438  18.396  68.353  1.00  0.00    -0.212 C  
BRANCH   8   9
HETATM    9  O   UNL     1      -6.604  19.478  69.273  1.00  0.00    -0.310 OA 
BRANCH   9  10
HETATM   10  C   UNL     1      -5.861  20.618  68.837  1.00  0.00    -0.357 C  
HETATM   11  C   UNL     1      -6.398  21.091  67.501  1.00  0.00    -0.413 C  
ENDBRANCH   9  10
ENDBRANCH   8   9
ENDBRANCH   7   8
ENDBRANCH   6   7
BRANCH   6  12
HETATM   12  C   UNL     1      -8.583  14.849  68.043  1.00  0.00    -0.160 C  
BRANCH  12  13
HETATM   13  C   UNL     1      -9.809  14.157  67.464  1.00  0.00    -0.235 C  
BRANCH  13  14
HETATM   14  P   UNL     1     -10.787  13.231  68.737  1.00  0.00    -0.179 P  
BRANCH  14  15
HETATM   15  C   UNL     1     -12.201  14.390  69.059  1.00  0.00    -0.198 C  
BRANCH  15  16
HETATM   16  C   UNL     1     -12.779  14.173  70.460  1.00  0.00    -0.309 C  
BRANCH  16  17
HETATM   17  O   UNL     1     -13.118  15.428  71.058  1.00  0.00    -0.454 OA 
BRANCH  17  18
HETATM   18  C   UNL     1     -13.730  15.218  72.333  1.00  0.00    -0.519 C  
HETATM   19  C   UNL     1     -13.976  13.738  72.544  1.00  0.00    -0.572 C  
ENDBRANCH  17  18
ENDBRANCH  16  17
ENDBRANCH  15  16
ENDBRANCH  14  15
BRANCH  14  20
HETATM   20  C   UNL     1     -11.635  12.002  67.630  1.00  0.00    -0.321 C  
BRANCH  20  21
HETATM   21  C   UNL     1     -11.278  12.207  66.159  1.00  0.00    -0.338 C  
BRANCH  21  22
HETATM   22  O   UNL     1     -12.456  12.094  65.361  1.00  0.00    -0.523 OA 
BRANCH  22  23
HETATM   23  C   UNL     1     -12.180  12.439  64.001  1.00  0.00    -0.490 C  
HETATM   24  C   UNL     1     -12.215  13.947  63.854  1.00  0.00    -0.375 C  
ENDBRANCH  22  23
ENDBRANCH  21  22
ENDBRANCH  20  21
ENDBRANCH  14  20
ENDBRANCH  13  14
ENDBRANCH  12  13
ENDBRANCH   6  12
ENDBRANCH   5   6
ENDBRANCH   4   5
ENDBRANCH   3   4
ENDBRANCH   2   3
TORSDOF 19
ENDMDL
MODEL       83
REMARK 921   NORMALIZED FREE ENERGY PREDICTED BY IDOCK:   -3.77 KCAL/MOL
REMARK 922        TOTAL FREE ENERGY PREDICTED BY IDOCK:   -9.20 KCAL/MOL
REMARK 923 INTER-LIGAND FREE ENERGY PREDICTED BY IDOCK:   -8.34 KCAL/MOL
REMARK 924 INTRA-LIGAND FREE ENERGY PREDICTED BY IDOCK:   -0.86 KCAL/MOL
REMARK 927      BINDING AFFINITY PREDICTED BY RF-SCORE:    0.00 PKD
ROOT
HETATM    1  C   UNL     1     -10.956   6.017  67.101  1.00  0.00    -0.360 C  
HETATM    2  C   UNL     1     -10.290   6.599  68.331  1.00  0.00    -0.193 C  
ENDROOT
BRANCH   2   3
HETATM    3  O   UNL     1      -9.243   7.489  67.938  1.00  0.00    -0.136 OA 
BRANCH   3   4
HETATM    4  C   UNL     1      -9.016   8.461  68.962  1.00  0.00    -0.147 C  
BRANCH   4   5
HETATM    5  C   UNL     1     -10.069   9.564  68.903  1.00  0.00    -0.188 C  
BRANCH   5   6
HETATM    6  P   UNL     1      -9.535  10.985  67.838  1.00  0.00    -0.174 P  
BRANCH   6   7
HETATM    7  C   UNL     1     -10.512  10.682  66.285  1.00  0.00    -0.203 C  
BRANCH   7   8
HETATM    8  C   UNL     1      -9.629  10.823  65.046  1.00  0.00    -0.254 C  
BRANCH   8   9
HETATM    9  O   UNL     1     -10.439  11.023  63.884  1.00  0.00    -0.357 OA 
BRANCH   9  10
HETATM   10  C   UNL     1     -10.808  12.398  63.769  1.00  0.00    -0.454 C  
HETATM   11  C   UNL     1     -12.298  12.503  63.521  1.00  0.00    -0.623 C  
ENDBRANCH   9  10
ENDBRANCH   8   9
ENDBRANCH   7   8
ENDBRANCH   6   7
BRANCH   6  12
HETATM   12  C   UNL     1     -10.569  12.358  68.541  1.00  0.00    -0.231 C  
BRANCH  12  13
HETATM   13  C   UNL     1     -11.380  13.091  67.483  1.00  0.00    -0.305 C  
BRANCH  13  14
HETATM   14  P   UNL     1     -11.553  14.903  67.828  1.00  0.00    -0.239 P  
BRANCH  14  15
HETATM   15  C   UNL     1     -10.823  15.046  69.529  1.00  0.00    -0.262 C  
BRANCH  15  16
HETATM   16  C   UNL     1     -11.681  15.949  70.420  1.00  0.00    -0.354 C  
BRANCH  16  17
HETATM   17  O   UNL     1     -12.015  15.275  71.637  1.00  0.00    -0.309 OA 
BRANCH  17  18
HETATM   18  C   UNL     1     -11.942  16.182  72.740  1.00  0.00    -0.536 C  
HETATM   19  C   UNL     1     -12.481  15.514  73.987  1.00  0.00    -0.789 C  
ENDBRANCH  17  18
ENDBRANCH  16  17
ENDBRANCH  15  16
ENDBRANCH  14  15
BRANCH  14  20
HETATM   20  C   UNL     1     -10.126  15.540  66.821  1.00  0.00    -0.264 C  
BRANCH  20  21
HETATM   21  C   UNL     1     -10.550  15.937  65.408  1.00  0.00    -0.419 C  
BRANCH  21  22
HETATM   22  O   UNL     1     -10.652  17.358  65.320  1.00  0.00    -0.667 OA 
BRANCH  22  23
HETATM   23  C   UNL     1      -9.860  17.986  66.332  1.00  0.00    -0.340 C  
HETATM   24  C   UNL     1     -10.596  19.204  66.854  1.00  0.00    -0.540 C  
ENDBRANCH  22  23
ENDBRANCH  21  22
ENDBRANCH  20  21
ENDBRANCH  14  20
ENDBRANCH  13  14
ENDBRANCH  12  13
ENDBRANCH   6  12
ENDBRANCH   5   6
ENDBRANCH   4   5
ENDBRANCH   3   4
ENDBRANCH   2   3
TORSDOF 19
ENDMDL
MODEL       84
REMARK 921   NORMALIZED FREE ENERGY PREDICTED BY IDOCK:   -3.76 KCAL/MOL
REMARK 922        TOTAL FREE ENERGY PREDICTED BY IDOCK:   -9.18 KCAL/MOL
REMARK 923 INTER-LIGAND FREE ENERGY PREDICTED BY IDOCK:   -8.19 KCAL/MOL
REMARK 924 INTRA-LIGAND FREE ENERGY PREDICTED BY IDOCK:   -0.99 KCAL/MOL
REMARK 927      BINDING AFFINITY PREDICTED BY RF-SCORE:    0.00 PKD
ROOT
HETATM    1  C   UNL     1      -9.702   6.922  66.707  1.00  0.00    -0.232 C  
HETATM    2  C   UNL     1      -9.165   8.094  65.911  1.00  0.00    -0.097 C  
ENDROOT
BRANCH   2   3
HETATM    3  O   UNL     1     -10.021   9.226  66.082  1.00  0.00    -0.279 OA 
BRANCH   3   4
HETATM    4  C   UNL     1      -9.470  10.362  65.409  1.00  0.00    -0.232 C  
BRANCH   4   5
HETATM    5  C   UNL     1      -9.666  11.628  66.238  1.00  0.00    -0.218 C  
BRANCH   5   6
HETATM    6  P   UNL     1     -11.250  11.596  67.201  1.00  0.00    -0.271 P  
BRANCH   6   7
HETATM    7  C   UNL     1     -10.641  11.232  68.920  1.00  0.00    -0.207 C  
BRANCH   7   8
HETATM    8  C   UNL     1     -11.735  11.492  69.955  1.00  0.00    -0.332 C  
BRANCH   8   9
HETATM    9  O   UNL     1     -12.300  10.255  70.396  1.00  0.00    -0.276 OA 
BRANCH   9  10
HETATM   10  C   UNL     1     -12.904  10.416  71.681  1.00  0.00    -0.474 C  
HETATM   11  C   UNL     1     -13.276  11.870  71.886  1.00  0.00    -0.467 C  
ENDBRANCH   9  10
ENDBRANCH   8   9
ENDBRANCH   7   8
ENDBRANCH   6   7
BRANCH   6  12
HETATM   12  C   UNL     1     -11.570  13.413  67.411  1.00  0.00    -0.354 C  
BRANCH  12  13
HETATM   13  C   UNL     1     -10.296  14.244  67.410  1.00  0.00    -0.259 C  
BRANCH  13  14
HETATM   14  P   UNL     1     -10.076  15.236  68.960  1.00  0.00    -0.261 P  
BRANCH  14  15
HETATM   15  C   UNL     1      -9.358  16.820  68.310  1.00  0.00    -0.230 C  
BRANCH  15  16
HETATM   16  C   UNL     1     -10.237  18.015  68.687  1.00  0.00    -0.377 C  
BRANCH  16  17
HETATM   17  O   UNL     1     -10.876  18.549  67.524  1.00  0.00    -0.422 OA 
BRANCH  17  18
HETATM   18  C   UNL     1      -9.910  19.159  66.665  1.00  0.00    -0.353 C  
HETATM   19  C   UNL     1      -9.511  20.509  67.222  1.00  0.00    -0.559 C  
ENDBRANCH  17  18
ENDBRANCH  16  17
ENDBRANCH  15  16
ENDBRANCH  14  15
BRANCH  14  20
HETATM   20  C   UNL     1     -11.835  15.774  69.227  1.00  0.00    -0.346 C  
BRANCH  20  21
HETATM   21  C   UNL     1     -12.434  15.179  70.499  1.00  0.00    -0.379 C  
BRANCH  21  22
HETATM   22  O   UNL     1     -11.845  15.801  71.641  1.00  0.00    -0.376 OA 
BRANCH  22  23
HETATM   23  C   UNL     1     -12.804  15.942  72.692  1.00  0.00    -0.459 C  
HETATM   24  C   UNL     1     -12.259  15.301  73.953  1.00  0.00    -0.735 C  
ENDBRANCH  22  23
ENDBRANCH  21  22
ENDBRANCH  20  21
ENDBRANCH  14  20
ENDBRANCH  13  14
ENDBRANCH  12  13
ENDBRANCH   6  12
ENDBRANCH   5   6
ENDBRANCH   4   5
ENDBRANCH   3   4
ENDBRANCH   2   3
TORSDOF 19
ENDMDL
MODEL       85
REMARK 921   NORMALIZED FREE ENERGY PREDICTED BY IDOCK:   -3.75 KCAL/MOL
REMARK 922        TOTAL FREE ENERGY PREDICTED BY IDOCK:   -9.18 KCAL/MOL
REMARK 923 INTER-LIGAND FREE ENERGY PREDICTED BY IDOCK:   -8.62 KCAL/MOL
REMARK 924 INTRA-LIGAND FREE ENERGY PREDICTED BY IDOCK:   -0.56 KCAL/MOL
REMARK 927      BINDING AFFINITY PREDICTED BY RF-SCORE:    0.00 PKD
ROOT
HETATM    1  C   UNL     1      -9.566  10.999  63.000  1.00  0.00    -0.386 C  
HETATM    2  C   UNL     1     -10.732  11.478  63.840  1.00  0.00    -0.395 C  
ENDROOT
BRANCH   2   3
HETATM    3  O   UNL     1     -10.258  12.344  64.874  1.00  0.00    -0.281 OA 
BRANCH   3   4
HETATM    4  C   UNL     1      -9.542  11.589  65.855  1.00  0.00    -0.230 C  
BRANCH   4   5
HETATM    5  C   UNL     1     -10.504  10.953  66.855  1.00  0.00    -0.249 C  
BRANCH   5   6
HETATM    6  P   UNL     1     -11.598  12.209  67.669  1.00  0.00    -0.274 P  
BRANCH   6   7
HETATM    7  C   UNL     1     -11.601  11.621  69.433  1.00  0.00    -0.327 C  
BRANCH   7   8
HETATM    8  C   UNL     1     -10.997  10.222  69.546  1.00  0.00    -0.258 C  
BRANCH   8   9
HETATM    9  O   UNL     1     -10.988   9.798  70.911  1.00  0.00    -0.304 OA 
BRANCH   9  10
HETATM   10  C   UNL     1     -12.254  10.060  71.520  1.00  0.00    -0.405 C  
HETATM   11  C   UNL     1     -12.760   8.803  72.197  1.00  0.00    -0.461 C  
ENDBRANCH   9  10
ENDBRANCH   8   9
ENDBRANCH   7   8
ENDBRANCH   6   7
BRANCH   6  12
HETATM   12  C   UNL     1     -10.417  13.629  67.863  1.00  0.00    -0.247 C  
BRANCH  12  13
HETATM   13  C   UNL     1     -11.115  14.942  68.187  1.00  0.00    -0.283 C  
BRANCH  13  14
HETATM   14  P   UNL     1     -10.118  16.039  69.298  1.00  0.00    -0.263 P  
BRANCH  14  15
HETATM   15  C   UNL     1     -10.370  17.708  68.525  1.00  0.00    -0.370 C  
BRANCH  15  16
HETATM   16  C   UNL     1      -9.039  18.450  68.378  1.00  0.00    -0.320 C  
BRANCH  16  17
HETATM   17  O   UNL     1      -9.260  19.771  67.873  1.00  0.00    -0.327 OA 
BRANCH  17  18
HETATM   18  C   UNL     1      -9.144  19.781  66.448  1.00  0.00    -0.382 C  
HETATM   19  C   UNL     1     -10.524  19.811  65.823  1.00  0.00    -0.545 C  
ENDBRANCH  17  18
ENDBRANCH  16  17
ENDBRANCH  15  16
ENDBRANCH  14  15
BRANCH  14  20
HETATM   20  C   UNL     1     -11.298  16.175  70.728  1.00  0.00    -0.368 C  
BRANCH  20  21
HETATM   21  C   UNL     1     -12.539  15.306  70.536  1.00  0.00    -0.399 C  
BRANCH  21  22
HETATM   22  O   UNL     1     -12.645  14.378  71.615  1.00  0.00    -0.324 OA 
BRANCH  22  23
HETATM   23  C   UNL     1     -13.473  14.904  72.656  1.00  0.00    -0.471 C  
HETATM   24  C   UNL     1     -12.597  15.351  73.809  1.00  0.00    -0.747 C  
ENDBRANCH  22  23
ENDBRANCH  21  22
ENDBRANCH  20  21
ENDBRANCH  14  20
ENDBRANCH  13  14
ENDBRANCH  12  13
ENDBRANCH   6  12
ENDBRANCH   5   6
ENDBRANCH   4   5
ENDBRANCH   3   4
ENDBRANCH   2   3
TORSDOF 19
ENDMDL
MODEL       86
REMARK 921   NORMALIZED FREE ENERGY PREDICTED BY IDOCK:   -3.75 KCAL/MOL
REMARK 922        TOTAL FREE ENERGY PREDICTED BY IDOCK:   -9.16 KCAL/MOL
REMARK 923 INTER-LIGAND FREE ENERGY PREDICTED BY IDOCK:   -8.23 KCAL/MOL
REMARK 924 INTRA-LIGAND FREE ENERGY PREDICTED BY IDOCK:   -0.92 KCAL/MOL
REMARK 927      BINDING AFFINITY PREDICTED BY RF-SCORE:    0.00 PKD
ROOT
HETATM    1  C   UNL     1     -11.927   6.678  71.791  1.00  0.00    -0.391 C  
HETATM    2  C   UNL     1     -11.773   8.061  72.389  1.00  0.00    -0.386 C  
ENDROOT
BRANCH   2   3
HETATM    3  O   UNL     1     -13.055   8.683  72.505  1.00  0.00    -0.363 OA 
BRANCH   3   4
HETATM    4  C   UNL     1     -12.960  10.068  72.165  1.00  0.00    -0.366 C  
BRANCH   4   5
HETATM    5  C   UNL     1     -12.917  10.251  70.650  1.00  0.00    -0.266 C  
BRANCH   5   6
HETATM    6  P   UNL     1     -11.302  10.959  70.077  1.00  0.00    -0.243 P  
BRANCH   6   7
HETATM    7  C   UNL     1     -10.712   9.651  68.895  1.00  0.00    -0.206 C  
BRANCH   7   8
HETATM    8  C   UNL     1     -11.021  10.039  67.449  1.00  0.00    -0.191 C  
BRANCH   8   9
HETATM    9  O   UNL     1      -9.806  10.257  66.727  1.00  0.00    -0.182 OA 
BRANCH   9  10
HETATM   10  C   UNL     1      -9.629   9.240  65.739  1.00  0.00    -0.271 C  
HETATM   11  C   UNL     1      -9.310   9.882  64.404  1.00  0.00    -0.326 C  
ENDBRANCH   9  10
ENDBRANCH   8   9
ENDBRANCH   7   8
ENDBRANCH   6   7
BRANCH   6  12
HETATM   12  C   UNL     1     -11.888  12.203  68.828  1.00  0.00    -0.303 C  
BRANCH  12  13
HETATM   13  C   UNL     1     -10.897  13.337  68.610  1.00  0.00    -0.259 C  
BRANCH  13  14
HETATM   14  P   UNL     1     -11.717  14.985  68.399  1.00  0.00    -0.228 P  
BRANCH  14  15
HETATM   15  C   UNL     1     -11.267  15.849  69.979  1.00  0.00    -0.353 C  
BRANCH  15  16
HETATM   16  C   UNL     1     -12.301  15.568  71.072  1.00  0.00    -0.416 C  
BRANCH  16  17
HETATM   17  O   UNL     1     -11.940  16.239  72.283  1.00  0.00    -0.511 OA 
BRANCH  17  18
HETATM   18  C   UNL     1     -12.963  16.066  73.267  1.00  0.00    -0.550 C  
HETATM   19  C   UNL     1     -12.436  15.219  74.407  1.00  0.00    -0.645 C  
ENDBRANCH  17  18
ENDBRANCH  16  17
ENDBRANCH  15  16
ENDBRANCH  14  15
BRANCH  14  20
HETATM   20  C   UNL     1     -10.498  15.784  67.245  1.00  0.00    -0.308 C  
BRANCH  20  21
HETATM   21  C   UNL     1     -10.290  14.969  65.971  1.00  0.00    -0.312 C  
BRANCH  21  22
HETATM   22  O   UNL     1     -11.555  14.672  65.381  1.00  0.00    -0.346 OA 
BRANCH  22  23
HETATM   23  C   UNL     1     -11.408  13.731  64.315  1.00  0.00    -0.326 C  
HETATM   24  C   UNL     1     -12.145  12.455  64.673  1.00  0.00    -0.487 C  
ENDBRANCH  22  23
ENDBRANCH  21  22
ENDBRANCH  20  21
ENDBRANCH  14  20
ENDBRANCH  13  14
ENDBRANCH  12  13
ENDBRANCH   6  12
ENDBRANCH   5   6
ENDBRANCH   4   5
ENDBRANCH   3   4
ENDBRANCH   2   3
TORSDOF 19
ENDMDL
MODEL       87
REMARK 921   NORMALIZED FREE ENERGY PREDICTED BY IDOCK:   -3.74 KCAL/MOL
REMARK 922        TOTAL FREE ENERGY PREDICTED BY IDOCK:   -9.15 KCAL/MOL
REMARK 923 INTER-LIGAND FREE ENERGY PREDICTED BY IDOCK:   -8.04 KCAL/MOL
REMARK 924 INTRA-LIGAND FREE ENERGY PREDICTED BY IDOCK:   -1.11 KCAL/MOL
REMARK 927      BINDING AFFINITY PREDICTED BY RF-SCORE:    0.00 PKD
ROOT
HETATM    1  C   UNL     1     -12.542  11.845  63.394  1.00  0.00    -0.555 C  
HETATM    2  C   UNL     1     -11.952  12.943  64.255  1.00  0.00    -0.399 C  
ENDROOT
BRANCH   2   3
HETATM    3  O   UNL     1     -12.990  13.579  65.005  1.00  0.00    -0.719 OA 
BRANCH   3   4
HETATM    4  C   UNL     1     -12.479  14.034  66.260  1.00  0.00    -0.400 C  
BRANCH   4   5
HETATM    5  C   UNL     1     -11.688  12.928  66.954  1.00  0.00    -0.382 C  
BRANCH   5   6
HETATM    6  P   UNL     1     -10.904  13.511  68.530  1.00  0.00    -0.274 P  
BRANCH   6   7
HETATM    7  C   UNL     1     -11.697  15.178  68.752  1.00  0.00    -0.342 C  
BRANCH   7   8
HETATM    8  C   UNL     1     -10.911  16.030  69.748  1.00  0.00    -0.334 C  
BRANCH   8   9
HETATM    9  O   UNL     1     -10.043  16.927  69.051  1.00  0.00    -0.271 OA 
BRANCH   9  10
HETATM   10  C   UNL     1     -10.644  17.343  67.823  1.00  0.00    -0.371 C  
HETATM   11  C   UNL     1     -10.572  18.852  67.709  1.00  0.00    -0.471 C  
ENDBRANCH   9  10
ENDBRANCH   8   9
ENDBRANCH   7   8
ENDBRANCH   6   7
BRANCH   6  12
HETATM   12  C   UNL     1     -11.900  12.571  69.785  1.00  0.00    -0.310 C  
BRANCH  12  13
HETATM   13  C   UNL     1     -12.087  11.106  69.418  1.00  0.00    -0.326 C  
BRANCH  13  14
HETATM   14  P   UNL     1     -11.028   9.967  70.426  1.00  0.00    -0.343 P  
BRANCH  14  15
HETATM   15  C   UNL     1     -12.291   8.847  71.200  1.00  0.00    -0.235 C  
BRANCH  15  16
HETATM   16  C   UNL     1     -12.015   7.383  70.848  1.00  0.00    -0.277 C  
BRANCH  16  17
HETATM   17  O   UNL     1     -12.365   6.533  71.943  1.00  0.00    -0.347 OA 
BRANCH  17  18
HETATM   18  C   UNL     1     -11.207   5.852  72.432  1.00  0.00    -0.291 C  
HETATM   19  C   UNL     1     -10.310   5.473  71.271  1.00  0.00    -0.297 C  
ENDBRANCH  17  18
ENDBRANCH  16  17
ENDBRANCH  15  16
ENDBRANCH  14  15
BRANCH  14  20
HETATM   20  C   UNL     1     -10.409   8.853  69.072  1.00  0.00    -0.212 C  
BRANCH  20  21
HETATM   21  C   UNL     1     -10.743   9.393  67.683  1.00  0.00    -0.230 C  
BRANCH  21  22
HETATM   22  O   UNL     1      -9.595   9.292  66.842  1.00  0.00    -0.154 OA 
BRANCH  22  23
HETATM   23  C   UNL     1      -9.909   9.696  65.506  1.00  0.00    -0.281 C  
HETATM   24  C   UNL     1      -8.953  10.794  65.082  1.00  0.00    -0.215 C  
ENDBRANCH  22  23
ENDBRANCH  21  22
ENDBRANCH  20  21
ENDBRANCH  14  20
ENDBRANCH  13  14
ENDBRANCH  12  13
ENDBRANCH   6  12
ENDBRANCH   5   6
ENDBRANCH   4   5
ENDBRANCH   3   4
ENDBRANCH   2   3
TORSDOF 19
ENDMDL
MODEL       88
REMARK 921   NORMALIZED FREE ENERGY PREDICTED BY IDOCK:   -3.74 KCAL/MOL
REMARK 922        TOTAL FREE ENERGY PREDICTED BY IDOCK:   -9.15 KCAL/MOL
REMARK 923 INTER-LIGAND FREE ENERGY PREDICTED BY IDOCK:   -8.22 KCAL/MOL
REMARK 924 INTRA-LIGAND FREE ENERGY PREDICTED BY IDOCK:   -0.93 KCAL/MOL
REMARK 927      BINDING AFFINITY PREDICTED BY RF-SCORE:    0.00 PKD
ROOT
HETATM    1  C   UNL     1     -13.053  14.600  72.724  1.00  0.00    -0.580 C  
HETATM    2  C   UNL     1     -13.609  13.288  72.211  1.00  0.00    -0.605 C  
ENDROOT
BRANCH   2   3
HETATM    3  O   UNL     1     -12.634  12.639  71.390  1.00  0.00    -0.314 OA 
BRANCH   3   4
HETATM    4  C   UNL     1     -12.857  11.226  71.391  1.00  0.00    -0.410 C  
BRANCH   4   5
HETATM    5  C   UNL     1     -12.526  10.626  70.027  1.00  0.00    -0.225 C  
BRANCH   5   6
HETATM    6  P   UNL     1     -10.701  10.413  69.780  1.00  0.00    -0.242 P  
BRANCH   6   7
HETATM    7  C   UNL     1     -10.614   8.704  69.054  1.00  0.00    -0.160 C  
BRANCH   7   8
HETATM    8  C   UNL     1     -10.480   7.648  70.151  1.00  0.00    -0.227 C  
BRANCH   8   9
HETATM    9  O   UNL     1     -11.335   6.536  69.871  1.00  0.00    -0.359 OA 
BRANCH   9  10
HETATM   10  C   UNL     1     -10.657   5.309  70.150  1.00  0.00    -0.227 C  
HETATM   11  C   UNL     1      -9.869   4.878  68.930  1.00  0.00    -0.241 C  
ENDBRANCH   9  10
ENDBRANCH   8   9
ENDBRANCH   7   8
ENDBRANCH   6   7
BRANCH   6  12
HETATM   12  C   UNL     1     -10.443  11.381  68.217  1.00  0.00    -0.198 C  
BRANCH  12  13
HETATM   13  C   UNL     1     -11.631  12.264  67.862  1.00  0.00    -0.354 C  
BRANCH  13  14
HETATM   14  P   UNL     1     -11.132  13.936  67.241  1.00  0.00    -0.320 P  
BRANCH  14  15
HETATM   15  C   UNL     1     -12.438  14.284  65.969  1.00  0.00    -0.369 C  
BRANCH  15  16
HETATM   16  C   UNL     1     -11.881  14.122  64.552  1.00  0.00    -0.436 C  
BRANCH  16  17
HETATM   17  O   UNL     1     -10.743  13.255  64.562  1.00  0.00    -0.368 OA 
BRANCH  17  18
HETATM   18  C   UNL     1     -10.908  12.212  63.597  1.00  0.00    -0.464 C  
HETATM   19  C   UNL     1     -12.382  12.012  63.309  1.00  0.00    -0.553 C  
ENDBRANCH  17  18
ENDBRANCH  16  17
ENDBRANCH  15  16
ENDBRANCH  14  15
BRANCH  14  20
HETATM   20  C   UNL     1     -11.770  14.981  68.640  1.00  0.00    -0.337 C  
BRANCH  20  21
HETATM   21  C   UNL     1     -10.640  15.556  69.492  1.00  0.00    -0.258 C  
BRANCH  21  22
HETATM   22  O   UNL     1      -9.751  16.306  68.665  1.00  0.00    -0.218 OA 
BRANCH  22  23
HETATM   23  C   UNL     1     -10.213  17.650  68.514  1.00  0.00    -0.386 C  
HETATM   24  C   UNL     1     -10.261  17.996  67.039  1.00  0.00    -0.367 C  
ENDBRANCH  22  23
ENDBRANCH  21  22
ENDBRANCH  20  21
ENDBRANCH  14  20
ENDBRANCH  13  14
ENDBRANCH  12  13
ENDBRANCH   6  12
ENDBRANCH   5   6
ENDBRANCH   4   5
ENDBRANCH   3   4
ENDBRANCH   2   3
TORSDOF 19
ENDMDL
MODEL       89
REMARK 921   NORMALIZED FREE ENERGY PREDICTED BY IDOCK:   -3.73 KCAL/MOL
REMARK 922        TOTAL FREE ENERGY PREDICTED BY IDOCK:   -9.13 KCAL/MOL
REMARK 923 INTER-LIGAND FREE ENERGY PREDICTED BY IDOCK:   -8.24 KCAL/MOL
REMARK 924 INTRA-LIGAND FREE ENERGY PREDICTED BY IDOCK:   -0.89 KCAL/MOL
REMARK 927      BINDING AFFINITY PREDICTED BY RF-SCORE:    0.00 PKD
ROOT
HETATM    1  C   UNL     1     -10.696   5.451  66.700  1.00  0.00    -0.309 C  
HETATM    2  C   UNL     1     -10.382   5.890  68.116  1.00  0.00    -0.210 C  
ENDROOT
BRANCH   2   3
HETATM    3  O   UNL     1      -9.179   6.661  68.127  1.00  0.00    -0.120 OA 
BRANCH   3   4
HETATM    4  C   UNL     1      -9.322   7.803  67.278  1.00  0.00    -0.145 C  
BRANCH   4   5
HETATM    5  C   UNL     1      -9.168   9.094  68.078  1.00  0.00    -0.134 C  
BRANCH   5   6
HETATM    6  P   UNL     1     -10.715  10.116  68.060  1.00  0.00    -0.266 P  
BRANCH   6   7
HETATM    7  C   UNL     1     -10.913  10.535  69.861  1.00  0.00    -0.298 C  
BRANCH   7   8
HETATM    8  C   UNL     1     -10.530   9.349  70.744  1.00  0.00    -0.304 C  
BRANCH   8   9
HETATM    9  O   UNL     1     -11.675   8.527  70.990  1.00  0.00    -0.282 OA 
BRANCH   9  10
HETATM   10  C   UNL     1     -12.460   9.076  72.050  1.00  0.00    -0.390 C  
HETATM   11  C   UNL     1     -13.927   8.806  71.786  1.00  0.00    -0.475 C  
ENDBRANCH   9  10
ENDBRANCH   8   9
ENDBRANCH   7   8
ENDBRANCH   6   7
BRANCH   6  12
HETATM   12  C   UNL     1     -10.050  11.749  67.477  1.00  0.00    -0.192 C  
BRANCH  12  13
HETATM   13  C   UNL     1     -10.288  12.876  68.471  1.00  0.00    -0.229 C  
BRANCH  13  14
HETATM   14  P   UNL     1     -11.897  13.754  68.199  1.00  0.00    -0.319 P  
BRANCH  14  15
HETATM   15  C   UNL     1     -11.673  15.297  69.208  1.00  0.00    -0.338 C  
BRANCH  15  16
HETATM   16  C   UNL     1     -11.805  14.998  70.703  1.00  0.00    -0.313 C  
BRANCH  16  17
HETATM   17  O   UNL     1     -11.808  16.215  71.455  1.00  0.00    -0.456 OA 
BRANCH  17  18
HETATM   18  C   UNL     1     -12.256  15.969  72.791  1.00  0.00    -0.516 C  
HETATM   19  C   UNL     1     -12.978  14.639  72.851  1.00  0.00    -0.592 C  
ENDBRANCH  17  18
ENDBRANCH  16  17
ENDBRANCH  15  16
ENDBRANCH  14  15
BRANCH  14  20
HETATM   20  C   UNL     1     -11.584  14.441  66.501  1.00  0.00    -0.378 C  
BRANCH  20  21
HETATM   21  C   UNL     1     -12.599  13.937  65.478  1.00  0.00    -0.526 C  
BRANCH  21  22
HETATM   22  O   UNL     1     -12.592  12.509  65.460  1.00  0.00    -0.642 OA 
BRANCH  22  23
HETATM   23  C   UNL     1     -12.628  12.020  64.117  1.00  0.00    -0.308 C  
HETATM   24  C   UNL     1     -11.934  13.014  63.207  1.00  0.00    -0.493 C  
ENDBRANCH  22  23
ENDBRANCH  21  22
ENDBRANCH  20  21
ENDBRANCH  14  20
ENDBRANCH  13  14
ENDBRANCH  12  13
ENDBRANCH   6  12
ENDBRANCH   5   6
ENDBRANCH   4   5
ENDBRANCH   3   4
ENDBRANCH   2   3
TORSDOF 19
ENDMDL
MODEL       90
REMARK 921   NORMALIZED FREE ENERGY PREDICTED BY IDOCK:   -3.73 KCAL/MOL
REMARK 922        TOTAL FREE ENERGY PREDICTED BY IDOCK:   -9.13 KCAL/MOL
REMARK 923 INTER-LIGAND FREE ENERGY PREDICTED BY IDOCK:   -7.96 KCAL/MOL
REMARK 924 INTRA-LIGAND FREE ENERGY PREDICTED BY IDOCK:   -1.17 KCAL/MOL
REMARK 927      BINDING AFFINITY PREDICTED BY RF-SCORE:    0.00 PKD
ROOT
HETATM    1  C   UNL     1     -10.464  18.858  67.390  1.00  0.00    -0.520 C  
HETATM    2  C   UNL     1     -10.363  18.246  66.008  1.00  0.00    -0.363 C  
ENDROOT
BRANCH   2   3
HETATM    3  O   UNL     1     -10.216  16.828  66.117  1.00  0.00    -0.326 OA 
BRANCH   3   4
HETATM    4  C   UNL     1     -10.826  16.185  64.994  1.00  0.00    -0.363 C  
BRANCH   4   5
HETATM    5  C   UNL     1     -10.348  14.740  64.875  1.00  0.00    -0.332 C  
BRANCH   5   6
HETATM    6  P   UNL     1     -11.697  13.603  64.303  1.00  0.00    -0.364 P  
BRANCH   6   7
HETATM    7  C   UNL     1     -10.724  12.218  63.534  1.00  0.00    -0.451 C  
BRANCH   7   8
HETATM    8  C   UNL     1     -10.727  10.981  64.432  1.00  0.00    -0.269 C  
BRANCH   8   9
HETATM    9  O   UNL     1      -9.666  10.099  64.058  1.00  0.00    -0.306 OA 
BRANCH   9  10
HETATM   10  C   UNL     1      -8.956   9.659  65.218  1.00  0.00    -0.204 C  
HETATM   11  C   UNL     1      -8.372   8.285  64.964  1.00  0.00    -0.158 C  
ENDBRANCH   9  10
ENDBRANCH   8   9
ENDBRANCH   7   8
ENDBRANCH   6   7
BRANCH   6  12
HETATM   12  C   UNL     1     -12.145  12.761  65.897  1.00  0.00    -0.426 C  
BRANCH  12  13
HETATM   13  C   UNL     1     -12.251  13.726  67.068  1.00  0.00    -0.340 C  
BRANCH  13  14
HETATM   14  P   UNL     1     -11.393  13.113  68.592  1.00  0.00    -0.332 P  
BRANCH  14  15
HETATM   15  C   UNL     1      -9.889  12.286  67.885  1.00  0.00    -0.201 C  
BRANCH  15  16
HETATM   16  C   UNL     1      -9.508  11.049  68.703  1.00  0.00    -0.195 C  
BRANCH  16  17
HETATM   17  O   UNL     1     -10.407   9.971  68.423  1.00  0.00    -0.173 OA 
BRANCH  17  18
HETATM   18  C   UNL     1     -10.817   9.342  69.639  1.00  0.00    -0.212 C  
HETATM   19  C   UNL     1      -9.658   9.307  70.613  1.00  0.00    -0.334 C  
ENDBRANCH  17  18
ENDBRANCH  16  17
ENDBRANCH  15  16
ENDBRANCH  14  15
BRANCH  14  20
HETATM   20  C   UNL     1     -10.630  14.707  69.171  1.00  0.00    -0.242 C  
BRANCH  20  21
HETATM   21  C   UNL     1     -11.663  15.823  69.309  1.00  0.00    -0.374 C  
BRANCH  21  22
HETATM   22  O   UNL     1     -12.438  15.615  70.490  1.00  0.00    -0.415 OA 
BRANCH  22  23
HETATM   23  C   UNL     1     -11.591  15.496  71.636  1.00  0.00    -0.430 C  
HETATM   24  C   UNL     1     -12.249  16.188  72.813  1.00  0.00    -0.628 C  
ENDBRANCH  22  23
ENDBRANCH  21  22
ENDBRANCH  20  21
ENDBRANCH  14  20
ENDBRANCH  13  14
ENDBRANCH  12  13
ENDBRANCH   6  12
ENDBRANCH   5   6
ENDBRANCH   4   5
ENDBRANCH   3   4
ENDBRANCH   2   3
TORSDOF 19
ENDMDL
MODEL       91
REMARK 921   NORMALIZED FREE ENERGY PREDICTED BY IDOCK:   -3.73 KCAL/MOL
REMARK 922        TOTAL FREE ENERGY PREDICTED BY IDOCK:   -9.12 KCAL/MOL
REMARK 923 INTER-LIGAND FREE ENERGY PREDICTED BY IDOCK:   -8.16 KCAL/MOL
REMARK 924 INTRA-LIGAND FREE ENERGY PREDICTED BY IDOCK:   -0.97 KCAL/MOL
REMARK 927      BINDING AFFINITY PREDICTED BY RF-SCORE:    0.00 PKD
ROOT
HETATM    1  C   UNL     1     -10.472  19.988  67.307  1.00  0.00    -0.505 C  
HETATM    2  C   UNL     1     -10.593  19.555  65.861  1.00  0.00    -0.476 C  
ENDROOT
BRANCH   2   3
HETATM    3  O   UNL     1     -10.616  18.128  65.784  1.00  0.00    -0.541 OA 
BRANCH   3   4
HETATM    4  C   UNL     1      -9.991  17.565  66.940  1.00  0.00    -0.313 C  
BRANCH   4   5
HETATM    5  C   UNL     1     -10.416  16.111  67.130  1.00  0.00    -0.305 C  
BRANCH   5   6
HETATM    6  P   UNL     1     -10.165  15.532  68.874  1.00  0.00    -0.236 P  
BRANCH   6   7
HETATM    7  C   UNL     1     -11.902  15.555  69.535  1.00  0.00    -0.372 C  
BRANCH   7   8
HETATM    8  C   UNL     1     -11.910  15.773  71.047  1.00  0.00    -0.420 C  
BRANCH   8   9
HETATM    9  O   UNL     1     -12.156  14.536  71.721  1.00  0.00    -0.340 OA 
BRANCH   9  10
HETATM   10  C   UNL     1     -13.270  14.668  72.606  1.00  0.00    -0.464 C  
HETATM   11  C   UNL     1     -13.184  15.992  73.336  1.00  0.00    -0.645 C  
ENDBRANCH   9  10
ENDBRANCH   8   9
ENDBRANCH   7   8
ENDBRANCH   6   7
BRANCH   6  12
HETATM   12  C   UNL     1     -10.002  13.700  68.614  1.00  0.00    -0.161 C  
BRANCH  12  13
HETATM   13  C   UNL     1     -10.966  13.161  67.567  1.00  0.00    -0.263 C  
BRANCH  13  14
HETATM   14  P   UNL     1     -10.987  11.310  67.486  1.00  0.00    -0.296 P  
BRANCH  14  15
HETATM   15  C   UNL     1      -9.476  10.948  66.470  1.00  0.00    -0.185 C  
BRANCH  15  16
HETATM   16  C   UNL     1      -9.227   9.441  66.375  1.00  0.00    -0.169 C  
BRANCH  16  17
HETATM   17  O   UNL     1     -10.454   8.723  66.540  1.00  0.00    -0.242 OA 
BRANCH  17  18
HETATM   18  C   UNL     1     -10.187   7.374  66.934  1.00  0.00    -0.276 C  
HETATM   19  C   UNL     1      -8.907   6.895  66.282  1.00  0.00    -0.161 C  
ENDBRANCH  17  18
ENDBRANCH  16  17
ENDBRANCH  15  16
ENDBRANCH  14  15
BRANCH  14  20
HETATM   20  C   UNL     1     -10.326  10.925  69.180  1.00  0.00    -0.208 C  
BRANCH  20  21
HETATM   21  C   UNL     1     -11.393  10.323  70.092  1.00  0.00    -0.316 C  
BRANCH  21  22
HETATM   22  O   UNL     1     -12.223  11.363  70.609  1.00  0.00    -0.358 OA 
BRANCH  22  23
HETATM   23  C   UNL     1     -13.067  10.866  71.650  1.00  0.00    -0.433 C  
HETATM   24  C   UNL     1     -13.083   9.351  71.597  1.00  0.00    -0.471 C  
ENDBRANCH  22  23
ENDBRANCH  21  22
ENDBRANCH  20  21
ENDBRANCH  14  20
ENDBRANCH  13  14
ENDBRANCH  12  13
ENDBRANCH   6  12
ENDBRANCH   5   6
ENDBRANCH   4   5
ENDBRANCH   3   4
ENDBRANCH   2   3
TORSDOF 19
ENDMDL
MODEL       92
REMARK 921   NORMALIZED FREE ENERGY PREDICTED BY IDOCK:   -3.73 KCAL/MOL
REMARK 922        TOTAL FREE ENERGY PREDICTED BY IDOCK:   -9.12 KCAL/MOL
REMARK 923 INTER-LIGAND FREE ENERGY PREDICTED BY IDOCK:   -8.24 KCAL/MOL
REMARK 924 INTRA-LIGAND FREE ENERGY PREDICTED BY IDOCK:   -0.88 KCAL/MOL
REMARK 927      BINDING AFFINITY PREDICTED BY RF-SCORE:    0.00 PKD
ROOT
HETATM    1  C   UNL     1     -10.522   5.335  66.572  1.00  0.00    -0.354 C  
HETATM    2  C   UNL     1     -10.916   6.674  67.159  1.00  0.00    -0.408 C  
ENDROOT
BRANCH   2   3
HETATM    3  O   UNL     1      -9.743   7.437  67.453  1.00  0.00    -0.139 OA 
BRANCH   3   4
HETATM    4  C   UNL     1      -9.560   8.454  66.465  1.00  0.00    -0.236 C  
BRANCH   4   5
HETATM    5  C   UNL     1      -9.113   9.762  67.114  1.00  0.00    -0.135 C  
BRANCH   5   6
HETATM    6  P   UNL     1     -10.464  10.543  68.116  1.00  0.00    -0.221 P  
BRANCH   6   7
HETATM    7  C   UNL     1     -10.018  10.001  69.838  1.00  0.00    -0.237 C  
BRANCH   7   8
HETATM    8  C   UNL     1     -11.267   9.850  70.706  1.00  0.00    -0.353 C  
BRANCH   8   9
HETATM    9  O   UNL     1     -10.931   9.227  71.948  1.00  0.00    -0.363 OA 
BRANCH   9  10
HETATM   10  C   UNL     1     -11.776   8.098  72.180  1.00  0.00    -0.359 C  
HETATM   11  C   UNL     1     -11.301   6.929  71.342  1.00  0.00    -0.308 C  
ENDBRANCH   9  10
ENDBRANCH   8   9
ENDBRANCH   7   8
ENDBRANCH   6   7
BRANCH   6  12
HETATM   12  C   UNL     1      -9.856  12.294  68.221  1.00  0.00    -0.217 C  
BRANCH  12  13
HETATM   13  C   UNL     1     -10.952  13.281  68.594  1.00  0.00    -0.264 C  
BRANCH  13  14
HETATM   14  P   UNL     1     -10.310  14.990  68.915  1.00  0.00    -0.256 P  
BRANCH  14  15
HETATM   15  C   UNL     1     -10.263  15.714  67.206  1.00  0.00    -0.266 C  
BRANCH  15  16
HETATM   16  C   UNL     1     -11.096  14.877  66.232  1.00  0.00    -0.340 C  
BRANCH  16  17
HETATM   17  O   UNL     1     -10.359  14.630  65.031  1.00  0.00    -0.403 OA 
BRANCH  17  18
HETATM   18  C   UNL     1     -10.743  13.374  64.466  1.00  0.00    -0.419 C  
HETATM   19  C   UNL     1     -12.123  12.992  64.959  1.00  0.00    -0.470 C  
ENDBRANCH  17  18
ENDBRANCH  16  17
ENDBRANCH  15  16
ENDBRANCH  14  15
BRANCH  14  20
HETATM   20  C   UNL     1     -11.866  15.784  69.549  1.00  0.00    -0.347 C  
BRANCH  20  21
HETATM   21  C   UNL     1     -12.251  15.272  70.935  1.00  0.00    -0.355 C  
BRANCH  21  22
HETATM   22  O   UNL     1     -13.551  15.752  71.278  1.00  0.00    -0.561 OA 
BRANCH  22  23
HETATM   23  C   UNL     1     -13.799  15.585  72.677  1.00  0.00    -0.564 C  
HETATM   24  C   UNL     1     -12.547  15.947  73.450  1.00  0.00    -0.666 C  
ENDBRANCH  22  23
ENDBRANCH  21  22
ENDBRANCH  20  21
ENDBRANCH  14  20
ENDBRANCH  13  14
ENDBRANCH  12  13
ENDBRANCH   6  12
ENDBRANCH   5   6
ENDBRANCH   4   5
ENDBRANCH   3   4
ENDBRANCH   2   3
TORSDOF 19
ENDMDL
MODEL       93
REMARK 921   NORMALIZED FREE ENERGY PREDICTED BY IDOCK:   -3.72 KCAL/MOL
REMARK 922        TOTAL FREE ENERGY PREDICTED BY IDOCK:   -9.11 KCAL/MOL
REMARK 923 INTER-LIGAND FREE ENERGY PREDICTED BY IDOCK:   -7.92 KCAL/MOL
REMARK 924 INTRA-LIGAND FREE ENERGY PREDICTED BY IDOCK:   -1.19 KCAL/MOL
REMARK 927      BINDING AFFINITY PREDICTED BY RF-SCORE:    0.00 PKD
ROOT
HETATM    1  C   UNL     1      -8.838  16.345  69.011  1.00  0.00    -0.240 C  
HETATM    2  C   UNL     1      -9.695  17.530  68.616  1.00  0.00    -0.319 C  
ENDROOT
BRANCH   2   3
HETATM    3  O   UNL     1     -10.578  17.155  67.556  1.00  0.00    -0.347 OA 
BRANCH   3   4
HETATM    4  C   UNL     1      -9.826  16.678  66.438  1.00  0.00    -0.292 C  
BRANCH   4   5
HETATM    5  C   UNL     1     -10.589  15.579  65.702  1.00  0.00    -0.373 C  
BRANCH   5   6
HETATM    6  P   UNL     1     -11.416  14.400  66.869  1.00  0.00    -0.384 P  
BRANCH   6   7
HETATM    7  C   UNL     1     -12.638  13.555  65.752  1.00  0.00    -0.434 C  
BRANCH   7   8
HETATM    8  C   UNL     1     -12.300  13.804  64.282  1.00  0.00    -0.337 C  
BRANCH   8   9
HETATM    9  O   UNL     1     -12.685  12.677  63.491  1.00  0.00    -0.719 OA 
BRANCH   9  10
HETATM   10  C   UNL     1     -11.681  11.662  63.554  1.00  0.00    -0.279 C  
HETATM   11  C   UNL     1     -10.317  12.285  63.341  1.00  0.00    -0.395 C  
ENDBRANCH   9  10
ENDBRANCH   8   9
ENDBRANCH   7   8
ENDBRANCH   6   7
BRANCH   6  12
HETATM   12  C   UNL     1     -10.150  13.044  66.953  1.00  0.00    -0.243 C  
BRANCH  12  13
HETATM   13  C   UNL     1     -10.768  11.663  67.114  1.00  0.00    -0.247 C  
BRANCH  13  14
HETATM   14  P   UNL     1     -10.513  10.946  68.803  1.00  0.00    -0.223 P  
BRANCH  14  15
HETATM   15  C   UNL     1     -12.220  11.040  69.527  1.00  0.00    -0.282 C  
BRANCH  15  16
HETATM   16  C   UNL     1     -12.244  11.951  70.757  1.00  0.00    -0.303 C  
BRANCH  16  17
HETATM   17  O   UNL     1     -12.244  13.325  70.359  1.00  0.00    -0.346 OA 
BRANCH  17  18
HETATM   18  C   UNL     1     -12.723  14.149  71.425  1.00  0.00    -0.364 C  
HETATM   19  C   UNL     1     -13.146  15.497  70.879  1.00  0.00    -0.508 C  
ENDBRANCH  17  18
ENDBRANCH  16  17
ENDBRANCH  15  16
ENDBRANCH  14  15
BRANCH  14  20
HETATM   20  C   UNL     1     -10.459   9.141  68.360  1.00  0.00    -0.199 C  
BRANCH  20  21
HETATM   21  C   UNL     1     -10.005   8.274  69.532  1.00  0.00    -0.187 C  
BRANCH  21  22
HETATM   22  O   UNL     1     -11.074   7.416  69.934  1.00  0.00    -0.251 OA 
BRANCH  22  23
HETATM   23  C   UNL     1     -11.558   7.784  71.228  1.00  0.00    -0.277 C  
HETATM   24  C   UNL     1     -11.868   6.528  72.018  1.00  0.00    -0.374 C  
ENDBRANCH  22  23
ENDBRANCH  21  22
ENDBRANCH  20  21
ENDBRANCH  14  20
ENDBRANCH  13  14
ENDBRANCH  12  13
ENDBRANCH   6  12
ENDBRANCH   5   6
ENDBRANCH   4   5
ENDBRANCH   3   4
ENDBRANCH   2   3
TORSDOF 19
ENDMDL
MODEL       94
REMARK 921   NORMALIZED FREE ENERGY PREDICTED BY IDOCK:   -3.70 KCAL/MOL
REMARK 922        TOTAL FREE ENERGY PREDICTED BY IDOCK:   -9.06 KCAL/MOL
REMARK 923 INTER-LIGAND FREE ENERGY PREDICTED BY IDOCK:   -7.75 KCAL/MOL
REMARK 924 INTRA-LIGAND FREE ENERGY PREDICTED BY IDOCK:   -1.31 KCAL/MOL
REMARK 927      BINDING AFFINITY PREDICTED BY RF-SCORE:    0.00 PKD
ROOT
HETATM    1  C   UNL     1      -6.328  13.338  67.592  1.00  0.00    -0.161 C  
HETATM    2  C   UNL     1      -7.591  12.580  67.943  1.00  0.00    -0.133 C  
ENDROOT
BRANCH   2   3
HETATM    3  O   UNL     1      -8.070  11.880  66.791  1.00  0.00    -0.163 OA 
BRANCH   3   4
HETATM    4  C   UNL     1      -9.165  11.034  67.154  1.00  0.00    -0.152 C  
BRANCH   4   5
HETATM    5  C   UNL     1      -9.699  11.404  68.535  1.00  0.00    -0.197 C  
BRANCH   5   6
HETATM    6  P   UNL     1     -11.522  11.745  68.511  1.00  0.00    -0.344 P  
BRANCH   6   7
HETATM    7  C   UNL     1     -11.921  11.796  70.326  1.00  0.00    -0.343 C  
BRANCH   7   8
HETATM    8  C   UNL     1     -12.567  13.127  70.708  1.00  0.00    -0.260 C  
BRANCH   8   9
HETATM    9  O   UNL     1     -13.395  12.959  71.862  1.00  0.00    -0.458 OA 
BRANCH   9  10
HETATM   10  C   UNL     1     -13.720  14.231  72.428  1.00  0.00    -0.516 C  
HETATM   11  C   UNL     1     -13.768  15.275  71.331  1.00  0.00    -0.602 C  
ENDBRANCH   9  10
ENDBRANCH   8   9
ENDBRANCH   7   8
ENDBRANCH   6   7
BRANCH   6  12
HETATM   12  C   UNL     1     -11.532  13.574  68.184  1.00  0.00    -0.303 C  
BRANCH  12  13
HETATM   13  C   UNL     1     -12.249  13.942  66.894  1.00  0.00    -0.377 C  
BRANCH  13  14
HETATM   14  P   UNL     1     -11.200  14.947  65.744  1.00  0.00    -0.276 P  
BRANCH  14  15
HETATM   15  C   UNL     1      -9.649  15.182  66.737  1.00  0.00    -0.245 C  
BRANCH  15  16
HETATM   16  C   UNL     1      -8.974  16.512  66.393  1.00  0.00    -0.305 C  
BRANCH  16  17
HETATM   17  O   UNL     1      -9.700  17.602  66.970  1.00  0.00    -0.273 OA 
BRANCH  17  18
HETATM   18  C   UNL     1      -8.917  18.233  67.987  1.00  0.00    -0.290 C  
HETATM   19  C   UNL     1      -9.806  19.110  68.845  1.00  0.00    -0.487 C  
ENDBRANCH  17  18
ENDBRANCH  16  17
ENDBRANCH  15  16
ENDBRANCH  14  15
BRANCH  14  20
HETATM   20  C   UNL     1     -10.635  13.599  64.594  1.00  0.00    -0.430 C  
BRANCH  20  21
HETATM   21  C   UNL     1     -11.575  12.395  64.612  1.00  0.00    -0.343 C  
BRANCH  21  22
HETATM   22  O   UNL     1     -11.331  11.582  63.465  1.00  0.00    -0.408 OA 
BRANCH  22  23
HETATM   23  C   UNL     1      -9.932  11.513  63.180  1.00  0.00    -0.377 C  
HETATM   24  C   UNL     1      -9.444  10.100  63.427  1.00  0.00    -0.308 C  
ENDBRANCH  22  23
ENDBRANCH  21  22
ENDBRANCH  20  21
ENDBRANCH  14  20
ENDBRANCH  13  14
ENDBRANCH  12  13
ENDBRANCH   6  12
ENDBRANCH   5   6
ENDBRANCH   4   5
ENDBRANCH   3   4
ENDBRANCH   2   3
TORSDOF 19
ENDMDL
MODEL       95
REMARK 921   NORMALIZED FREE ENERGY PREDICTED BY IDOCK:   -3.68 KCAL/MOL
REMARK 922        TOTAL FREE ENERGY PREDICTED BY IDOCK:   -9.01 KCAL/MOL
REMARK 923 INTER-LIGAND FREE ENERGY PREDICTED BY IDOCK:   -8.09 KCAL/MOL
REMARK 924 INTRA-LIGAND FREE ENERGY PREDICTED BY IDOCK:   -0.92 KCAL/MOL
REMARK 927      BINDING AFFINITY PREDICTED BY RF-SCORE:    0.00 PKD
ROOT
HETATM    1  C   UNL     1     -10.287  20.006  67.453  1.00  0.00    -0.533 C  
HETATM    2  C   UNL     1     -10.461  19.658  65.990  1.00  0.00    -0.523 C  
ENDROOT
BRANCH   2   3
HETATM    3  O   UNL     1     -10.206  18.265  65.791  1.00  0.00    -0.576 OA 
BRANCH   3   4
HETATM    4  C   UNL     1      -9.676  17.689  66.987  1.00  0.00    -0.292 C  
BRANCH   4   5
HETATM    5  C   UNL     1      -9.814  16.169  66.962  1.00  0.00    -0.245 C  
BRANCH   5   6
HETATM    6  P   UNL     1      -9.983  15.453  68.664  1.00  0.00    -0.227 P  
BRANCH   6   7
HETATM    7  C   UNL     1     -11.779  15.767  69.029  1.00  0.00    -0.396 C  
BRANCH   7   8
HETATM    8  C   UNL     1     -12.035  15.795  70.536  1.00  0.00    -0.371 C  
BRANCH   8   9
HETATM    9  O   UNL     1     -13.439  15.730  70.798  1.00  0.00    -0.520 OA 
BRANCH   9  10
HETATM   10  C   UNL     1     -13.675  15.583  72.199  1.00  0.00    -0.515 C  
HETATM   11  C   UNL     1     -12.449  16.031  72.968  1.00  0.00    -0.614 C  
ENDBRANCH   9  10
ENDBRANCH   8   9
ENDBRANCH   7   8
ENDBRANCH   6   7
BRANCH   6  12
HETATM   12  C   UNL     1     -10.103  13.642  68.272  1.00  0.00    -0.240 C  
BRANCH  12  13
HETATM   13  C   UNL     1     -11.526  13.191  67.978  1.00  0.00    -0.311 C  
BRANCH  13  14
HETATM   14  P   UNL     1     -11.838  11.425  68.441  1.00  0.00    -0.083 P  
BRANCH  14  15
HETATM   15  C   UNL     1     -10.195  10.635  68.091  1.00  0.00    -0.168 C  
BRANCH  15  16
HETATM   16  C   UNL     1      -9.799   9.672  69.213  1.00  0.00    -0.189 C  
BRANCH  16  17
HETATM   17  O   UNL     1      -8.476   9.961  69.674  1.00  0.00    -0.157 OA 
BRANCH  17  18
HETATM   18  C   UNL     1      -7.983   8.882  70.472  1.00  0.00    -0.126 C  
HETATM   19  C   UNL     1      -9.142   8.171  71.141  1.00  0.00    -0.183 C  
ENDBRANCH  17  18
ENDBRANCH  16  17
ENDBRANCH  15  16
ENDBRANCH  14  15
BRANCH  14  20
HETATM   20  C   UNL     1     -11.727  11.573  70.291  1.00  0.00    -0.289 C  
BRANCH  20  21
HETATM   21  C   UNL     1     -12.878  10.859  70.997  1.00  0.00    -0.376 C  
BRANCH  21  22
HETATM   22  O   UNL     1     -12.434   9.588  71.470  1.00  0.00    -0.328 OA 
BRANCH  22  23
HETATM   23  C   UNL     1     -13.548   8.753  71.799  1.00  0.00    -0.410 C  
HETATM   24  C   UNL     1     -13.136   7.301  71.667  1.00  0.00    -0.417 C  
ENDBRANCH  22  23
ENDBRANCH  21  22
ENDBRANCH  20  21
ENDBRANCH  14  20
ENDBRANCH  13  14
ENDBRANCH  12  13
ENDBRANCH   6  12
ENDBRANCH   5   6
ENDBRANCH   4   5
ENDBRANCH   3   4
ENDBRANCH   2   3
TORSDOF 19
ENDMDL
MODEL       96
REMARK 921   NORMALIZED FREE ENERGY PREDICTED BY IDOCK:   -3.67 KCAL/MOL
REMARK 922        TOTAL FREE ENERGY PREDICTED BY IDOCK:   -9.00 KCAL/MOL
REMARK 923 INTER-LIGAND FREE ENERGY PREDICTED BY IDOCK:   -7.93 KCAL/MOL
REMARK 924 INTRA-LIGAND FREE ENERGY PREDICTED BY IDOCK:   -1.07 KCAL/MOL
REMARK 927      BINDING AFFINITY PREDICTED BY RF-SCORE:    0.00 PKD
ROOT
HETATM    1  C   UNL     1     -13.789  14.186  72.302  1.00  0.00    -0.643 C  
HETATM    2  C   UNL     1     -13.380  15.336  71.404  1.00  0.00    -0.491 C  
ENDROOT
BRANCH   2   3
HETATM    3  O   UNL     1     -12.807  14.826  70.198  1.00  0.00    -0.273 OA 
BRANCH   3   4
HETATM    4  C   UNL     1     -11.458  15.284  70.065  1.00  0.00    -0.292 C  
BRANCH   4   5
HETATM    5  C   UNL     1     -10.714  14.470  69.009  1.00  0.00    -0.251 C  
BRANCH   5   6
HETATM    6  P   UNL     1     -11.827  13.274  68.134  1.00  0.00    -0.262 P  
BRANCH   6   7
HETATM    7  C   UNL     1     -12.266  14.221  66.595  1.00  0.00    -0.381 C  
BRANCH   7   8
HETATM    8  C   UNL     1     -11.873  13.441  65.341  1.00  0.00    -0.353 C  
BRANCH   8   9
HETATM    9  O   UNL     1     -13.001  12.724  64.834  1.00  0.00    -0.805 OA 
BRANCH   9  10
HETATM   10  C   UNL     1     -12.659  12.058  63.617  1.00  0.00    -0.490 C  
HETATM   11  C   UNL     1     -11.153  11.913  63.526  1.00  0.00    -0.506 C  
ENDBRANCH   9  10
ENDBRANCH   8   9
ENDBRANCH   7   8
ENDBRANCH   6   7
BRANCH   6  12
HETATM   12  C   UNL     1     -10.581  12.116  67.389  1.00  0.00    -0.226 C  
BRANCH  12  13
HETATM   13  C   UNL     1     -11.057  10.671  67.360  1.00  0.00    -0.272 C  
BRANCH  13  14
HETATM   14  P   UNL     1      -9.832   9.490  68.094  1.00  0.00    -0.168 P  
BRANCH  14  15
HETATM   15  C   UNL     1     -10.806   8.735  69.483  1.00  0.00    -0.142 C  
BRANCH  15  16
HETATM   16  C   UNL     1     -10.072   8.894  70.817  1.00  0.00    -0.226 C  
BRANCH  16  17
HETATM   17  O   UNL     1     -10.951   9.436  71.807  1.00  0.00    -0.363 OA 
BRANCH  17  18
HETATM   18  C   UNL     1     -12.012   8.518  72.081  1.00  0.00    -0.383 C  
HETATM   19  C   UNL     1     -13.325   9.268  72.171  1.00  0.00    -0.537 C  
ENDBRANCH  17  18
ENDBRANCH  16  17
ENDBRANCH  15  16
ENDBRANCH  14  15
BRANCH  14  20
HETATM   20  C   UNL     1      -9.950   8.117  66.846  1.00  0.00    -0.273 C  
BRANCH  20  21
HETATM   21  C   UNL     1      -8.699   8.020  65.976  1.00  0.00    -0.157 C  
BRANCH  21  22
HETATM   22  O   UNL     1      -7.959   9.237  66.064  1.00  0.00    -0.107 OA 
BRANCH  22  23
HETATM   23  C   UNL     1      -8.067   9.984  64.850  1.00  0.00    -0.154 C  
HETATM   24  C   UNL     1      -8.281   9.026  63.695  1.00  0.00    -0.177 C  
ENDBRANCH  22  23
ENDBRANCH  21  22
ENDBRANCH  20  21
ENDBRANCH  14  20
ENDBRANCH  13  14
ENDBRANCH  12  13
ENDBRANCH   6  12
ENDBRANCH   5   6
ENDBRANCH   4   5
ENDBRANCH   3   4
ENDBRANCH   2   3
TORSDOF 19
ENDMDL
MODEL       97
REMARK 921   NORMALIZED FREE ENERGY PREDICTED BY IDOCK:   -3.67 KCAL/MOL
REMARK 922        TOTAL FREE ENERGY PREDICTED BY IDOCK:   -8.99 KCAL/MOL
REMARK 923 INTER-LIGAND FREE ENERGY PREDICTED BY IDOCK:   -7.86 KCAL/MOL
REMARK 924 INTRA-LIGAND FREE ENERGY PREDICTED BY IDOCK:   -1.13 KCAL/MOL
REMARK 927      BINDING AFFINITY PREDICTED BY RF-SCORE:    0.00 PKD
ROOT
HETATM    1  C   UNL     1      -6.540  14.831  67.500  1.00  0.00    -0.123 C  
HETATM    2  C   UNL     1      -6.558  13.464  68.152  1.00  0.00    -0.118 C  
ENDROOT
BRANCH   2   3
HETATM    3  O   UNL     1      -6.958  12.478  67.197  1.00  0.00    -0.141 OA 
BRANCH   3   4
HETATM    4  C   UNL     1      -7.874  11.558  67.797  1.00  0.00    -0.126 C  
BRANCH   4   5
HETATM    5  C   UNL     1      -9.183  12.256  68.156  1.00  0.00    -0.197 C  
BRANCH   5   6
HETATM    6  P   UNL     1     -10.607  11.634  67.144  1.00  0.00    -0.257 P  
BRANCH   6   7
HETATM    7  C   UNL     1     -11.745  10.972  68.458  1.00  0.00    -0.278 C  
BRANCH   7   8
HETATM    8  C   UNL     1     -10.988  10.076  69.437  1.00  0.00    -0.244 C  
BRANCH   8   9
HETATM    9  O   UNL     1     -11.206  10.519  70.779  1.00  0.00    -0.300 OA 
BRANCH   9  10
HETATM   10  C   UNL     1     -12.585  10.831  70.979  1.00  0.00    -0.420 C  
HETATM   11  C   UNL     1     -13.281   9.656  71.635  1.00  0.00    -0.499 C  
ENDBRANCH   9  10
ENDBRANCH   8   9
ENDBRANCH   7   8
ENDBRANCH   6   7
BRANCH   6  12
HETATM   12  C   UNL     1     -11.504  13.220  66.788  1.00  0.00    -0.350 C  
BRANCH  12  13
HETATM   13  C   UNL     1     -10.659  14.455  67.063  1.00  0.00    -0.274 C  
BRANCH  13  14
HETATM   14  P   UNL     1     -11.359  15.530  68.401  1.00  0.00    -0.349 P  
BRANCH  14  15
HETATM   15  C   UNL     1     -12.007  14.276  69.607  1.00  0.00    -0.336 C  
BRANCH  15  16
HETATM   16  C   UNL     1     -12.797  14.953  70.730  1.00  0.00    -0.372 C  
BRANCH  16  17
HETATM   17  O   UNL     1     -12.152  14.742  71.989  1.00  0.00    -0.353 OA 
BRANCH  17  18
HETATM   18  C   UNL     1     -13.104  14.827  73.052  1.00  0.00    -0.513 C  
HETATM   19  C   UNL     1     -12.640  15.844  74.075  1.00  0.00    -0.755 C  
ENDBRANCH  17  18
ENDBRANCH  16  17
ENDBRANCH  15  16
ENDBRANCH  14  15
BRANCH  14  20
HETATM   20  C   UNL     1      -9.782  16.007  69.261  1.00  0.00    -0.257 C  
BRANCH  20  21
HETATM   21  C   UNL     1      -9.185  17.295  68.699  1.00  0.00    -0.266 C  
BRANCH  21  22
HETATM   22  O   UNL     1     -10.180  18.318  68.688  1.00  0.00    -0.380 OA 
BRANCH  22  23
HETATM   23  C   UNL     1      -9.575  19.613  68.727  1.00  0.00    -0.368 C  
HETATM   24  C   UNL     1      -9.861  20.335  67.425  1.00  0.00    -0.586 C  
ENDBRANCH  22  23
ENDBRANCH  21  22
ENDBRANCH  20  21
ENDBRANCH  14  20
ENDBRANCH  13  14
ENDBRANCH  12  13
ENDBRANCH   6  12
ENDBRANCH   5   6
ENDBRANCH   4   5
ENDBRANCH   3   4
ENDBRANCH   2   3
TORSDOF 19
ENDMDL
MODEL       98
REMARK 921   NORMALIZED FREE ENERGY PREDICTED BY IDOCK:   -3.67 KCAL/MOL
REMARK 922        TOTAL FREE ENERGY PREDICTED BY IDOCK:   -8.99 KCAL/MOL
REMARK 923 INTER-LIGAND FREE ENERGY PREDICTED BY IDOCK:   -8.15 KCAL/MOL
REMARK 924 INTRA-LIGAND FREE ENERGY PREDICTED BY IDOCK:   -0.84 KCAL/MOL
REMARK 927      BINDING AFFINITY PREDICTED BY RF-SCORE:    0.00 PKD
ROOT
HETATM    1  C   UNL     1      -5.653  12.589  70.663  1.00  0.00    -0.175 C  
HETATM    2  C   UNL     1      -5.939  11.371  69.808  1.00  0.00    -0.112 C  
ENDROOT
BRANCH   2   3
HETATM    3  O   UNL     1      -6.916  10.548  70.451  1.00  0.00    -0.277 OA 
BRANCH   3   4
HETATM    4  C   UNL     1      -7.918  10.154  69.510  1.00  0.00    -0.165 C  
BRANCH   4   5
HETATM    5  C   UNL     1      -9.074   9.449  70.216  1.00  0.00    -0.245 C  
BRANCH   5   6
HETATM    6  P   UNL     1     -10.705   9.797  69.406  1.00  0.00    -0.222 P  
BRANCH   6   7
HETATM    7  C   UNL     1     -11.666  10.562  70.801  1.00  0.00    -0.356 C  
BRANCH   7   8
HETATM    8  C   UNL     1     -12.433   9.498  71.586  1.00  0.00    -0.391 C  
BRANCH   8   9
HETATM    9  O   UNL     1     -12.269   8.218  70.970  1.00  0.00    -0.275 OA 
BRANCH   9  10
HETATM   10  C   UNL     1     -12.766   7.189  71.828  1.00  0.00    -0.339 C  
HETATM   11  C   UNL     1     -11.701   6.128  72.015  1.00  0.00    -0.354 C  
ENDBRANCH   9  10
ENDBRANCH   8   9
ENDBRANCH   7   8
ENDBRANCH   6   7
BRANCH   6  12
HETATM   12  C   UNL     1     -10.308  11.352  68.471  1.00  0.00    -0.205 C  
BRANCH  12  13
HETATM   13  C   UNL     1     -11.213  12.517  68.845  1.00  0.00    -0.281 C  
BRANCH  13  14
HETATM   14  P   UNL     1     -10.557  14.155  68.278  1.00  0.00    -0.263 P  
BRANCH  14  15
HETATM   15  C   UNL     1     -10.989  14.143  66.473  1.00  0.00    -0.309 C  
BRANCH  15  16
HETATM   16  C   UNL     1     -12.459  13.771  66.263  1.00  0.00    -0.391 C  
BRANCH  16  17
HETATM   17  O   UNL     1     -12.564  12.600  65.447  1.00  0.00    -0.641 OA 
BRANCH  17  18
HETATM   18  C   UNL     1     -12.082  12.873  64.129  1.00  0.00    -0.432 C  
HETATM   19  C   UNL     1     -11.123  11.781  63.700  1.00  0.00    -0.518 C  
ENDBRANCH  17  18
ENDBRANCH  16  17
ENDBRANCH  15  16
ENDBRANCH  14  15
BRANCH  14  20
HETATM   20  C   UNL     1     -11.909  15.259  68.917  1.00  0.00    -0.320 C  
BRANCH  20  21
HETATM   21  C   UNL     1     -12.072  15.154  70.432  1.00  0.00    -0.328 C  
BRANCH  21  22
HETATM   22  O   UNL     1     -13.235  14.384  70.736  1.00  0.00    -0.353 OA 
BRANCH  22  23
HETATM   23  C   UNL     1     -14.160  15.150  71.514  1.00  0.00    -0.540 C  
HETATM   24  C   UNL     1     -13.447  15.700  72.733  1.00  0.00    -0.662 C  
ENDBRANCH  22  23
ENDBRANCH  21  22
ENDBRANCH  20  21
ENDBRANCH  14  20
ENDBRANCH  13  14
ENDBRANCH  12  13
ENDBRANCH   6  12
ENDBRANCH   5   6
ENDBRANCH   4   5
ENDBRANCH   3   4
ENDBRANCH   2   3
TORSDOF 19
ENDMDL
MODEL       99
REMARK 921   NORMALIZED FREE ENERGY PREDICTED BY IDOCK:   -3.67 KCAL/MOL
REMARK 922        TOTAL FREE ENERGY PREDICTED BY IDOCK:   -8.99 KCAL/MOL
REMARK 923 INTER-LIGAND FREE ENERGY PREDICTED BY IDOCK:   -7.95 KCAL/MOL
REMARK 924 INTRA-LIGAND FREE ENERGY PREDICTED BY IDOCK:   -1.04 KCAL/MOL
REMARK 927      BINDING AFFINITY PREDICTED BY RF-SCORE:    0.00 PKD
ROOT
HETATM    1  C   UNL     1     -10.467  20.046  66.043  1.00  0.00    -0.523 C  
HETATM    2  C   UNL     1     -10.676  19.329  67.360  1.00  0.00    -0.486 C  
ENDROOT
BRANCH   2   3
HETATM    3  O   UNL     1     -10.856  17.930  67.125  1.00  0.00    -0.284 OA 
BRANCH   3   4
HETATM    4  C   UNL     1      -9.845  17.450  66.234  1.00  0.00    -0.279 C  
BRANCH   4   5
HETATM    5  C   UNL     1      -9.721  15.931  66.326  1.00  0.00    -0.306 C  
BRANCH   5   6
HETATM    6  P   UNL     1      -8.242  15.409  67.314  1.00  0.00    -0.229 P  
BRANCH   6   7
HETATM    7  C   UNL     1      -8.304  16.595  68.744  1.00  0.00    -0.252 C  
BRANCH   7   8
HETATM    8  C   UNL     1      -7.161  17.608  68.666  1.00  0.00    -0.255 C  
BRANCH   8   9
HETATM    9  O   UNL     1      -7.665  18.934  68.848  1.00  0.00    -0.325 OA 
BRANCH   9  10
HETATM   10  C   UNL     1      -6.636  19.893  68.597  1.00  0.00    -0.299 C  
HETATM   11  C   UNL     1      -7.001  20.721  67.382  1.00  0.00    -0.418 C  
ENDBRANCH   9  10
ENDBRANCH   8   9
ENDBRANCH   7   8
ENDBRANCH   6   7
BRANCH   6  12
HETATM   12  C   UNL     1      -8.911  13.910  68.182  1.00  0.00    -0.184 C  
BRANCH  12  13
HETATM   13  C   UNL     1      -9.890  13.117  67.328  1.00  0.00    -0.232 C  
BRANCH  13  14
HETATM   14  P   UNL     1     -11.550  12.916  68.126  1.00  0.00    -0.357 P  
BRANCH  14  15
HETATM   15  C   UNL     1     -11.203  11.642  69.430  1.00  0.00    -0.246 C  
BRANCH  15  16
HETATM   16  C   UNL     1     -10.668  10.350  68.806  1.00  0.00    -0.225 C  
BRANCH  16  17
HETATM   17  O   UNL     1     -10.876   9.246  69.692  1.00  0.00    -0.232 OA 
BRANCH  17  18
HETATM   18  C   UNL     1     -11.719   9.637  70.779  1.00  0.00    -0.314 C  
HETATM   19  C   UNL     1     -11.238   8.985  72.059  1.00  0.00    -0.379 C  
ENDBRANCH  17  18
ENDBRANCH  16  17
ENDBRANCH  15  16
ENDBRANCH  14  15
BRANCH  14  20
HETATM   20  C   UNL     1     -11.566  14.447  69.180  1.00  0.00    -0.307 C  
BRANCH  20  21
HETATM   21  C   UNL     1     -12.372  14.255  70.463  1.00  0.00    -0.360 C  
BRANCH  21  22
HETATM   22  O   UNL     1     -12.568  15.519  71.098  1.00  0.00    -0.384 OA 
BRANCH  22  23
HETATM   23  C   UNL     1     -11.934  15.544  72.380  1.00  0.00    -0.451 C  
HETATM   24  C   UNL     1     -12.918  15.068  73.430  1.00  0.00    -0.622 C  
ENDBRANCH  22  23
ENDBRANCH  21  22
ENDBRANCH  20  21
ENDBRANCH  14  20
ENDBRANCH  13  14
ENDBRANCH  12  13
ENDBRANCH   6  12
ENDBRANCH   5   6
ENDBRANCH   4   5
ENDBRANCH   3   4
ENDBRANCH   2   3
TORSDOF 19
ENDMDL
MODEL      100
REMARK 921   NORMALIZED FREE ENERGY PREDICTED BY IDOCK:   -3.67 KCAL/MOL
REMARK 922        TOTAL FREE ENERGY PREDICTED BY IDOCK:   -8.99 KCAL/MOL
REMARK 923 INTER-LIGAND FREE ENERGY PREDICTED BY IDOCK:   -8.13 KCAL/MOL
REMARK 924 INTRA-LIGAND FREE ENERGY PREDICTED BY IDOCK:   -0.86 KCAL/MOL
REMARK 927      BINDING AFFINITY PREDICTED BY RF-SCORE:    0.00 PKD
ROOT
HETATM    1  C   UNL     1      -8.448   5.798  68.937  1.00  0.00    -0.104 C  
HETATM    2  C   UNL     1      -9.567   6.466  69.709  1.00  0.00    -0.151 C  
ENDROOT
BRANCH   2   3
HETATM    3  O   UNL     1      -9.228   7.831  69.967  1.00  0.00    -0.153 OA 
BRANCH   3   4
HETATM    4  C   UNL     1      -9.908   8.688  69.046  1.00  0.00    -0.182 C  
BRANCH   4   5
HETATM    5  C   UNL     1     -10.081  10.085  69.634  1.00  0.00    -0.236 C  
BRANCH   5   6
HETATM    6  P   UNL     1     -11.736  10.816  69.226  1.00  0.00    -0.251 P  
BRANCH   6   7
HETATM    7  C   UNL     1     -12.364  11.294  70.910  1.00  0.00    -0.388 C  
BRANCH   7   8
HETATM    8  C   UNL     1     -12.674  12.789  70.975  1.00  0.00    -0.243 C  
BRANCH   8   9
HETATM    9  O   UNL     1     -13.609  13.053  72.024  1.00  0.00    -0.482 OA 
BRANCH   9  10
HETATM   10  C   UNL     1     -13.484  14.404  72.470  1.00  0.00    -0.497 C  
HETATM   11  C   UNL     1     -13.537  15.338  71.278  1.00  0.00    -0.584 C  
ENDBRANCH   9  10
ENDBRANCH   8   9
ENDBRANCH   7   8
ENDBRANCH   6   7
BRANCH   6  12
HETATM   12  C   UNL     1     -11.238  12.505  68.638  1.00  0.00    -0.278 C  
BRANCH  12  13
HETATM   13  C   UNL     1     -10.010  12.483  67.739  1.00  0.00    -0.210 C  
BRANCH  13  14
HETATM   14  P   UNL     1      -9.741  14.080  66.839  1.00  0.00    -0.287 P  
BRANCH  14  15
HETATM   15  C   UNL     1     -11.439  14.450  66.188  1.00  0.00    -0.357 C  
BRANCH  15  16
HETATM   16  C   UNL     1     -11.577  14.004  64.730  1.00  0.00    -0.381 C  
BRANCH  16  17
HETATM   17  O   UNL     1     -10.413  13.279  64.320  1.00  0.00    -0.424 OA 
BRANCH  17  18
HETATM   18  C   UNL     1     -10.792  12.112  63.586  1.00  0.00    -0.464 C  
HETATM   19  C   UNL     1     -12.302  11.992  63.559  1.00  0.00    -0.661 C  
ENDBRANCH  17  18
ENDBRANCH  16  17
ENDBRANCH  15  16
ENDBRANCH  14  15
BRANCH  14  20
HETATM   20  C   UNL     1      -9.701  15.242  68.290  1.00  0.00    -0.210 C  
BRANCH  20  21
HETATM   21  C   UNL     1     -10.958  16.106  68.371  1.00  0.00    -0.341 C  
BRANCH  21  22
HETATM   22  O   UNL     1     -10.654  17.330  69.039  1.00  0.00    -0.323 OA 
BRANCH  22  23
HETATM   23  C   UNL     1     -10.227  18.324  68.103  1.00  0.00    -0.387 C  
HETATM   24  C   UNL     1     -10.112  19.658  68.813  1.00  0.00    -0.532 C  
ENDBRANCH  22  23
ENDBRANCH  21  22
ENDBRANCH  20  21
ENDBRANCH  14  20
ENDBRANCH  13  14
ENDBRANCH  12  13
ENDBRANCH   6  12
ENDBRANCH   5   6
ENDBRANCH   4   5
ENDBRANCH   3   4
ENDBRANCH   2   3
TORSDOF 19
ENDMDL
MODEL      101
REMARK 921   NORMALIZED FREE ENERGY PREDICTED BY IDOCK:   -3.66 KCAL/MOL
REMARK 922        TOTAL FREE ENERGY PREDICTED BY IDOCK:   -8.99 KCAL/MOL
REMARK 923 INTER-LIGAND FREE ENERGY PREDICTED BY IDOCK:   -7.86 KCAL/MOL
REMARK 924 INTRA-LIGAND FREE ENERGY PREDICTED BY IDOCK:   -1.12 KCAL/MOL
REMARK 927      BINDING AFFINITY PREDICTED BY RF-SCORE:    0.00 PKD
ROOT
HETATM    1  C   UNL     1      -9.567   8.438  67.044  1.00  0.00    -0.248 C  
HETATM    2  C   UNL     1      -9.499   9.146  65.707  1.00  0.00    -0.254 C  
ENDROOT
BRANCH   2   3
HETATM    3  O   UNL     1     -10.411  10.248  65.698  1.00  0.00    -0.243 OA 
BRANCH   3   4
HETATM    4  C   UNL     1      -9.780  11.399  65.130  1.00  0.00    -0.244 C  
BRANCH   4   5
HETATM    5  C   UNL     1     -10.073  12.642  65.967  1.00  0.00    -0.262 C  
BRANCH   5   6
HETATM    6  P   UNL     1     -11.621  12.460  66.972  1.00  0.00    -0.306 P  
BRANCH   6   7
HETATM    7  C   UNL     1     -10.939  11.956  68.627  1.00  0.00    -0.228 C  
BRANCH   7   8
HETATM    8  C   UNL     1     -11.789  10.854  69.257  1.00  0.00    -0.324 C  
BRANCH   8   9
HETATM    9  O   UNL     1     -11.303  10.544  70.566  1.00  0.00    -0.312 OA 
BRANCH   9  10
HETATM   10  C   UNL     1     -12.258   9.752  71.274  1.00  0.00    -0.374 C  
HETATM   11  C   UNL     1     -11.716   8.349  71.456  1.00  0.00    -0.341 C  
ENDBRANCH   9  10
ENDBRANCH   8   9
ENDBRANCH   7   8
ENDBRANCH   6   7
BRANCH   6  12
HETATM   12  C   UNL     1     -11.994  14.236  67.366  1.00  0.00    -0.391 C  
BRANCH  12  13
HETATM   13  C   UNL     1     -10.754  15.118  67.364  1.00  0.00    -0.286 C  
BRANCH  13  14
HETATM   14  P   UNL     1     -10.809  16.448  68.653  1.00  0.00    -0.339 P  
BRANCH  14  15
HETATM   15  C   UNL     1     -10.911  15.463  70.224  1.00  0.00    -0.311 C  
BRANCH  15  16
HETATM   16  C   UNL     1     -11.723  16.208  71.286  1.00  0.00    -0.425 C  
BRANCH  16  17
HETATM   17  O   UNL     1     -12.587  15.301  71.978  1.00  0.00    -0.309 OA 
BRANCH  17  18
HETATM   18  C   UNL     1     -12.650  14.052  71.284  1.00  0.00    -0.367 C  
HETATM   19  C   UNL     1     -13.471  13.063  72.086  1.00  0.00    -0.638 C  
ENDBRANCH  17  18
ENDBRANCH  16  17
ENDBRANCH  15  16
ENDBRANCH  14  15
BRANCH  14  20
HETATM   20  C   UNL     1      -9.008  16.909  68.688  1.00  0.00    -0.266 C  
BRANCH  20  21
HETATM   21  C   UNL     1      -8.793  18.408  68.489  1.00  0.00    -0.314 C  
BRANCH  21  22
HETATM   22  O   UNL     1      -7.788  18.619  67.498  1.00  0.00    -0.228 OA 
BRANCH  22  23
HETATM   23  C   UNL     1      -8.065  19.799  66.739  1.00  0.00    -0.304 C  
HETATM   24  C   UNL     1      -9.465  20.281  67.064  1.00  0.00    -0.546 C  
ENDBRANCH  22  23
ENDBRANCH  21  22
ENDBRANCH  20  21
ENDBRANCH  14  20
ENDBRANCH  13  14
ENDBRANCH  12  13
ENDBRANCH   6  12
ENDBRANCH   5   6
ENDBRANCH   4   5
ENDBRANCH   3   4
ENDBRANCH   2   3
TORSDOF 19
ENDMDL
MODEL      102
REMARK 921   NORMALIZED FREE ENERGY PREDICTED BY IDOCK:   -3.66 KCAL/MOL
REMARK 922        TOTAL FREE ENERGY PREDICTED BY IDOCK:   -8.97 KCAL/MOL
REMARK 923 INTER-LIGAND FREE ENERGY PREDICTED BY IDOCK:   -7.97 KCAL/MOL
REMARK 924 INTRA-LIGAND FREE ENERGY PREDICTED BY IDOCK:   -1.00 KCAL/MOL
REMARK 927      BINDING AFFINITY PREDICTED BY RF-SCORE:    0.00 PKD
ROOT
HETATM    1  C   UNL     1     -11.089   5.955  71.873  1.00  0.00    -0.325 C  
HETATM    2  C   UNL     1     -11.700   6.641  70.669  1.00  0.00    -0.394 C  
ENDROOT
BRANCH   2   3
HETATM    3  O   UNL     1     -11.888   8.031  70.949  1.00  0.00    -0.288 OA 
BRANCH   3   4
HETATM    4  C   UNL     1     -10.685   8.752  70.672  1.00  0.00    -0.225 C  
BRANCH   4   5
HETATM    5  C   UNL     1     -10.997  10.196  70.286  1.00  0.00    -0.317 C  
BRANCH   5   6
HETATM    6  P   UNL     1     -10.296  10.644  68.629  1.00  0.00    -0.213 P  
BRANCH   6   7
HETATM    7  C   UNL     1     -10.603   9.091  67.655  1.00  0.00    -0.231 C  
BRANCH   7   8
HETATM    8  C   UNL     1      -9.668   9.007  66.449  1.00  0.00    -0.268 C  
BRANCH   8   9
HETATM    9  O   UNL     1      -8.820  10.157  66.402  1.00  0.00    -0.141 OA 
BRANCH   9  10
HETATM   10  C   UNL     1      -8.614  10.565  65.049  1.00  0.00    -0.176 C  
HETATM   11  C   UNL     1      -9.922  10.480  64.289  1.00  0.00    -0.398 C  
ENDBRANCH   9  10
ENDBRANCH   8   9
ENDBRANCH   7   8
ENDBRANCH   6   7
BRANCH   6  12
HETATM   12  C   UNL     1     -11.674  11.674  67.932  1.00  0.00    -0.259 C  
BRANCH  12  13
HETATM   13  C   UNL     1     -11.187  12.738  66.960  1.00  0.00    -0.292 C  
BRANCH  13  14
HETATM   14  P   UNL     1     -11.636  14.458  67.483  1.00  0.00    -0.389 P  
BRANCH  14  15
HETATM   15  C   UNL     1     -11.235  14.430  69.295  1.00  0.00    -0.275 C  
BRANCH  15  16
HETATM   16  C   UNL     1     -12.218  15.296  70.088  1.00  0.00    -0.364 C  
BRANCH  16  17
HETATM   17  O   UNL     1     -11.874  15.296  71.477  1.00  0.00    -0.315 OA 
BRANCH  17  18
HETATM   18  C   UNL     1     -13.008  15.660  72.267  1.00  0.00    -0.447 C  
HETATM   19  C   UNL     1     -12.693  15.459  73.735  1.00  0.00    -0.723 C  
ENDBRANCH  17  18
ENDBRANCH  16  17
ENDBRANCH  15  16
ENDBRANCH  14  15
BRANCH  14  20
HETATM   20  C   UNL     1     -10.146  15.368  66.846  1.00  0.00    -0.257 C  
BRANCH  20  21
HETATM   21  C   UNL     1     -10.481  16.794  66.415  1.00  0.00    -0.269 C  
BRANCH  21  22
HETATM   22  O   UNL     1     -10.654  17.614  67.570  1.00  0.00    -0.366 OA 
BRANCH  22  23
HETATM   23  C   UNL     1     -10.707  18.996  67.206  1.00  0.00    -0.470 C  
HETATM   24  C   UNL     1     -10.200  19.834  68.363  1.00  0.00    -0.568 C  
ENDBRANCH  22  23
ENDBRANCH  21  22
ENDBRANCH  20  21
ENDBRANCH  14  20
ENDBRANCH  13  14
ENDBRANCH  12  13
ENDBRANCH   6  12
ENDBRANCH   5   6
ENDBRANCH   4   5
ENDBRANCH   3   4
ENDBRANCH   2   3
TORSDOF 19
ENDMDL
MODEL      103
REMARK 921   NORMALIZED FREE ENERGY PREDICTED BY IDOCK:   -3.65 KCAL/MOL
REMARK 922        TOTAL FREE ENERGY PREDICTED BY IDOCK:   -8.96 KCAL/MOL
REMARK 923 INTER-LIGAND FREE ENERGY PREDICTED BY IDOCK:   -8.18 KCAL/MOL
REMARK 924 INTRA-LIGAND FREE ENERGY PREDICTED BY IDOCK:   -0.78 KCAL/MOL
REMARK 927      BINDING AFFINITY PREDICTED BY RF-SCORE:    0.00 PKD
ROOT
HETATM    1  C   UNL     1     -12.160   9.635  71.368  1.00  0.00    -0.472 C  
HETATM    2  C   UNL     1     -11.301   8.394  71.491  1.00  0.00    -0.276 C  
ENDROOT
BRANCH   2   3
HETATM    3  O   UNL     1     -10.049   8.606  70.832  1.00  0.00    -0.191 OA 
BRANCH   3   4
HETATM    4  C   UNL     1     -10.094   9.819  70.075  1.00  0.00    -0.257 C  
BRANCH   4   5
HETATM    5  C   UNL     1      -9.090   9.775  68.926  1.00  0.00    -0.148 C  
BRANCH   5   6
HETATM    6  P   UNL     1      -8.917  11.419  68.086  1.00  0.00    -0.178 P  
BRANCH   6   7
HETATM    7  C   UNL     1      -9.075  10.947  66.294  1.00  0.00    -0.176 C  
BRANCH   7   8
HETATM    8  C   UNL     1     -10.438  11.358  65.738  1.00  0.00    -0.262 C  
BRANCH   8   9
HETATM    9  O   UNL     1     -10.524  11.026  64.350  1.00  0.00    -0.336 OA 
BRANCH   9  10
HETATM   10  C   UNL     1     -10.824  12.191  63.579  1.00  0.00    -0.458 C  
HETATM   11  C   UNL     1     -12.321  12.428  63.583  1.00  0.00    -0.647 C  
ENDBRANCH   9  10
ENDBRANCH   8   9
ENDBRANCH   7   8
ENDBRANCH   6   7
BRANCH   6  12
HETATM   12  C   UNL     1     -10.620  12.118  68.330  1.00  0.00    -0.217 C  
BRANCH  12  13
HETATM   13  C   UNL     1     -10.622  13.409  69.135  1.00  0.00    -0.001 C  
BRANCH  13  14
HETATM   14  P   UNL     1     -11.980  14.569  68.643  1.00  0.00    -0.179 P  
BRANCH  14  15
HETATM   15  C   UNL     1     -12.252  15.534  70.206  1.00  0.00    -0.400 C  
BRANCH  15  16
HETATM   16  C   UNL     1     -13.541  15.094  70.904  1.00  0.00    -0.338 C  
BRANCH  16  17
HETATM   17  O   UNL     1     -13.264  14.679  72.245  1.00  0.00    -0.327 OA 
BRANCH  17  18
HETATM   18  C   UNL     1     -13.262  15.808  73.122  1.00  0.00    -0.591 C  
HETATM   19  C   UNL     1     -12.325  15.551  74.284  1.00  0.00    -0.815 C  
ENDBRANCH  17  18
ENDBRANCH  16  17
ENDBRANCH  15  16
ENDBRANCH  14  15
BRANCH  14  20
HETATM   20  C   UNL     1     -10.985  15.808  67.678  1.00  0.00    -0.302 C  
BRANCH  20  21
HETATM   21  C   UNL     1     -10.667  17.056  68.499  1.00  0.00    -0.352 C  
BRANCH  21  22
HETATM   22  O   UNL     1     -10.810  18.216  67.680  1.00  0.00    -0.392 OA 
BRANCH  22  23
HETATM   23  C   UNL     1      -9.543  18.844  67.466  1.00  0.00    -0.305 C  
HETATM   24  C   UNL     1      -9.723  20.019  66.526  1.00  0.00    -0.564 C  
ENDBRANCH  22  23
ENDBRANCH  21  22
ENDBRANCH  20  21
ENDBRANCH  14  20
ENDBRANCH  13  14
ENDBRANCH  12  13
ENDBRANCH   6  12
ENDBRANCH   5   6
ENDBRANCH   4   5
ENDBRANCH   3   4
ENDBRANCH   2   3
TORSDOF 19
ENDMDL
MODEL      104
REMARK 921   NORMALIZED FREE ENERGY PREDICTED BY IDOCK:   -3.65 KCAL/MOL
REMARK 922        TOTAL FREE ENERGY PREDICTED BY IDOCK:   -8.96 KCAL/MOL
REMARK 923 INTER-LIGAND FREE ENERGY PREDICTED BY IDOCK:   -8.03 KCAL/MOL
REMARK 924 INTRA-LIGAND FREE ENERGY PREDICTED BY IDOCK:   -0.93 KCAL/MOL
REMARK 927      BINDING AFFINITY PREDICTED BY RF-SCORE:    0.00 PKD
ROOT
HETATM    1  C   UNL     1     -10.514  18.825  67.228  1.00  0.00    -0.489 C  
HETATM    2  C   UNL     1      -9.290  18.041  67.658  1.00  0.00    -0.259 C  
ENDROOT
BRANCH   2   3
HETATM    3  O   UNL     1      -9.636  17.151  68.722  1.00  0.00    -0.266 OA 
BRANCH   3   4
HETATM    4  C   UNL     1     -10.773  16.366  68.354  1.00  0.00    -0.327 C  
BRANCH   4   5
HETATM    5  C   UNL     1     -11.035  15.276  69.390  1.00  0.00    -0.271 C  
BRANCH   5   6
HETATM    6  P   UNL     1     -11.977  13.847  68.678  1.00  0.00    -0.232 P  
BRANCH   6   7
HETATM    7  C   UNL     1     -12.031  14.290  66.873  1.00  0.00    -0.438 C  
BRANCH   7   8
HETATM    8  C   UNL     1     -11.502  13.144  66.012  1.00  0.00    -0.335 C  
BRANCH   8   9
HETATM    9  O   UNL     1     -12.584  12.492  65.342  1.00  0.00    -0.656 OA 
BRANCH   9  10
HETATM   10  C   UNL     1     -12.328  12.425  63.937  1.00  0.00    -0.508 C  
HETATM   11  C   UNL     1     -10.833  12.440  63.694  1.00  0.00    -0.509 C  
ENDBRANCH   9  10
ENDBRANCH   8   9
ENDBRANCH   7   8
ENDBRANCH   6   7
BRANCH   6  12
HETATM   12  C   UNL     1     -10.645  12.555  68.597  1.00  0.00    -0.216 C  
BRANCH  12  13
HETATM   13  C   UNL     1     -10.968  11.317  69.420  1.00  0.00    -0.228 C  
BRANCH  13  14
HETATM   14  P   UNL     1      -9.917   9.857  68.975  1.00  0.00    -0.214 P  
BRANCH  14  15
HETATM   15  C   UNL     1     -10.476   8.586  70.208  1.00  0.00    -0.220 C  
BRANCH  15  16
HETATM   16  C   UNL     1     -10.250   9.075  71.641  1.00  0.00    -0.348 C  
BRANCH  16  17
HETATM   17  O   UNL     1     -11.360   8.715  72.470  1.00  0.00    -0.340 OA 
BRANCH  17  18
HETATM   18  C   UNL     1     -12.570   8.730  71.709  1.00  0.00    -0.356 C  
HETATM   19  C   UNL     1     -13.341  10.001  71.999  1.00  0.00    -0.513 C  
ENDBRANCH  17  18
ENDBRANCH  16  17
ENDBRANCH  15  16
ENDBRANCH  14  15
BRANCH  14  20
HETATM   20  C   UNL     1     -10.839   9.266  67.474  1.00  0.00    -0.112 C  
BRANCH  20  21
HETATM   21  C   UNL     1     -10.315   7.924  66.966  1.00  0.00    -0.341 C  
BRANCH  21  22
HETATM   22  O   UNL     1     -11.257   6.896  67.272  1.00  0.00    -0.317 OA 
BRANCH  22  23
HETATM   23  C   UNL     1     -10.585   5.677  67.603  1.00  0.00    -0.204 C  
HETATM   24  C   UNL     1     -10.290   4.911  66.329  1.00  0.00    -0.336 C  
ENDBRANCH  22  23
ENDBRANCH  21  22
ENDBRANCH  20  21
ENDBRANCH  14  20
ENDBRANCH  13  14
ENDBRANCH  12  13
ENDBRANCH   6  12
ENDBRANCH   5   6
ENDBRANCH   4   5
ENDBRANCH   3   4
ENDBRANCH   2   3
TORSDOF 19
ENDMDL
MODEL      105
REMARK 921   NORMALIZED FREE ENERGY PREDICTED BY IDOCK:   -3.65 KCAL/MOL
REMARK 922        TOTAL FREE ENERGY PREDICTED BY IDOCK:   -8.94 KCAL/MOL
REMARK 923 INTER-LIGAND FREE ENERGY PREDICTED BY IDOCK:   -7.69 KCAL/MOL
REMARK 924 INTRA-LIGAND FREE ENERGY PREDICTED BY IDOCK:   -1.25 KCAL/MOL
REMARK 927      BINDING AFFINITY PREDICTED BY RF-SCORE:    0.00 PKD
ROOT
HETATM    1  C   UNL     1     -12.106  12.530  63.240  1.00  0.00    -0.525 C  
HETATM    2  C   UNL     1     -10.735  12.658  63.871  1.00  0.00    -0.431 C  
ENDROOT
BRANCH   2   3
HETATM    3  O   UNL     1     -10.824  13.436  65.068  1.00  0.00    -0.298 OA 
BRANCH   3   4
HETATM    4  C   UNL     1     -12.190  13.554  65.473  1.00  0.00    -0.451 C  
BRANCH   4   5
HETATM    5  C   UNL     1     -12.289  14.184  66.860  1.00  0.00    -0.258 C  
BRANCH   5   6
HETATM    6  P   UNL     1     -10.907  13.645  67.973  1.00  0.00    -0.262 P  
BRANCH   6   7
HETATM    7  C   UNL     1     -11.249  14.637  69.508  1.00  0.00    -0.269 C  
BRANCH   7   8
HETATM    8  C   UNL     1     -12.461  14.086  70.259  1.00  0.00    -0.338 C  
BRANCH   8   9
HETATM    9  O   UNL     1     -13.245  15.161  70.784  1.00  0.00    -0.412 OA 
BRANCH   9  10
HETATM   10  C   UNL     1     -14.241  14.656  71.675  1.00  0.00    -0.506 C  
HETATM   11  C   UNL     1     -13.752  13.368  72.305  1.00  0.00    -0.705 C  
ENDBRANCH   9  10
ENDBRANCH   8   9
ENDBRANCH   7   8
ENDBRANCH   6   7
BRANCH   6  12
HETATM   12  C   UNL     1     -11.552  12.007  68.565  1.00  0.00    -0.309 C  
BRANCH  12  13
HETATM   13  C   UNL     1     -11.278  10.873  67.588  1.00  0.00    -0.309 C  
BRANCH  13  14
HETATM   14  P   UNL     1     -10.330   9.475  68.349  1.00  0.00    -0.212 P  
BRANCH  14  15
HETATM   15  C   UNL     1      -8.575   9.935  67.954  1.00  0.00    -0.125 C  
BRANCH  15  16
HETATM   16  C   UNL     1      -7.942  10.724  69.103  1.00  0.00    -0.134 C  
BRANCH  16  17
HETATM   17  O   UNL     1      -7.771  12.094  68.730  1.00  0.00    -0.109 OA 
BRANCH  17  18
HETATM   18  C   UNL     1      -6.388  12.455  68.796  1.00  0.00    -0.078 C  
HETATM   19  C   UNL     1      -5.819  12.554  67.395  1.00  0.00    -0.137 C  
ENDBRANCH  17  18
ENDBRANCH  16  17
ENDBRANCH  15  16
ENDBRANCH  14  15
BRANCH  14  20
HETATM   20  C   UNL     1     -10.397   9.998  70.132  1.00  0.00    -0.266 C  
BRANCH  20  21
HETATM   21  C   UNL     1     -10.413   8.803  71.083  1.00  0.00    -0.245 C  
BRANCH  21  22
HETATM   22  O   UNL     1     -11.373   9.027  72.115  1.00  0.00    -0.357 OA 
BRANCH  22  23
HETATM   23  C   UNL     1     -12.511   9.728  71.605  1.00  0.00    -0.410 C  
HETATM   24  C   UNL     1     -13.764   9.188  72.265  1.00  0.00    -0.548 C  
ENDBRANCH  22  23
ENDBRANCH  21  22
ENDBRANCH  20  21
ENDBRANCH  14  20
ENDBRANCH  13  14
ENDBRANCH  12  13
ENDBRANCH   6  12
ENDBRANCH   5   6
ENDBRANCH   4   5
ENDBRANCH   3   4
ENDBRANCH   2   3
TORSDOF 19
ENDMDL
MODEL      106
REMARK 921   NORMALIZED FREE ENERGY PREDICTED BY IDOCK:   -3.64 KCAL/MOL
REMARK 922        TOTAL FREE ENERGY PREDICTED BY IDOCK:   -8.93 KCAL/MOL
REMARK 923 INTER-LIGAND FREE ENERGY PREDICTED BY IDOCK:   -7.84 KCAL/MOL
REMARK 924 INTRA-LIGAND FREE ENERGY PREDICTED BY IDOCK:   -1.09 KCAL/MOL
REMARK 927      BINDING AFFINITY PREDICTED BY RF-SCORE:    0.00 PKD
ROOT
HETATM    1  C   UNL     1      -9.023  11.238  62.546  1.00  0.00    -0.287 C  
HETATM    2  C   UNL     1      -9.917  10.467  63.496  1.00  0.00    -0.214 C  
ENDROOT
BRANCH   2   3
HETATM    3  O   UNL     1     -10.672  11.380  64.297  1.00  0.00    -0.323 OA 
BRANCH   3   4
HETATM    4  C   UNL     1     -11.807  11.849  63.566  1.00  0.00    -0.460 C  
BRANCH   4   5
HETATM    5  C   UNL     1     -12.019  13.343  63.799  1.00  0.00    -0.461 C  
BRANCH   5   6
HETATM    6  P   UNL     1     -10.932  14.002  65.148  1.00  0.00    -0.402 P  
BRANCH   6   7
HETATM    7  C   UNL     1     -11.109  15.838  64.915  1.00  0.00    -0.399 C  
BRANCH   7   8
HETATM    8  C   UNL     1     -10.011  16.594  65.664  1.00  0.00    -0.167 C  
BRANCH   8   9
HETATM    9  O   UNL     1     -10.581  17.371  66.720  1.00  0.00    -0.289 OA 
BRANCH   9  10
HETATM   10  C   UNL     1     -10.513  18.762  66.404  1.00  0.00    -0.429 C  
HETATM   11  C   UNL     1     -10.541  19.574  67.682  1.00  0.00    -0.566 C  
ENDBRANCH   9  10
ENDBRANCH   8   9
ENDBRANCH   7   8
ENDBRANCH   6   7
BRANCH   6  12
HETATM   12  C   UNL     1     -12.046  13.811  66.621  1.00  0.00    -0.429 C  
BRANCH  12  13
HETATM   13  C   UNL     1     -11.302  13.380  67.877  1.00  0.00    -0.289 C  
BRANCH  13  14
HETATM   14  P   UNL     1     -11.172  11.539  68.046  1.00  0.00    -0.313 P  
BRANCH  14  15
HETATM   15  C   UNL     1      -9.339  11.292  68.205  1.00  0.00    -0.180 C  
BRANCH  15  16
HETATM   16  C   UNL     1      -8.571  12.377  67.445  1.00  0.00    -0.181 C  
BRANCH  16  17
HETATM   17  O   UNL     1      -7.807  13.175  68.354  1.00  0.00    -0.133 OA 
BRANCH  17  18
HETATM   18  C   UNL     1      -7.774  14.534  67.910  1.00  0.00    -0.140 C  
HETATM   19  C   UNL     1      -8.089  15.457  69.069  1.00  0.00    -0.213 C  
ENDBRANCH  17  18
ENDBRANCH  16  17
ENDBRANCH  15  16
ENDBRANCH  14  15
BRANCH  14  20
HETATM   20  C   UNL     1     -11.669  11.364  69.829  1.00  0.00    -0.344 C  
BRANCH  20  21
HETATM   21  C   UNL     1     -11.360   9.973  70.379  1.00  0.00    -0.320 C  
BRANCH  21  22
HETATM   22  O   UNL     1     -11.876   9.857  71.705  1.00  0.00    -0.379 OA 
BRANCH  22  23
HETATM   23  C   UNL     1     -13.263  10.203  71.740  1.00  0.00    -0.438 C  
HETATM   24  C   UNL     1     -14.051   9.040  72.307  1.00  0.00    -0.485 C  
ENDBRANCH  22  23
ENDBRANCH  21  22
ENDBRANCH  20  21
ENDBRANCH  14  20
ENDBRANCH  13  14
ENDBRANCH  12  13
ENDBRANCH   6  12
ENDBRANCH   5   6
ENDBRANCH   4   5
ENDBRANCH   3   4
ENDBRANCH   2   3
TORSDOF 19
ENDMDL
MODEL      107
REMARK 921   NORMALIZED FREE ENERGY PREDICTED BY IDOCK:   -3.64 KCAL/MOL
REMARK 922        TOTAL FREE ENERGY PREDICTED BY IDOCK:   -8.93 KCAL/MOL
REMARK 923 INTER-LIGAND FREE ENERGY PREDICTED BY IDOCK:   -7.55 KCAL/MOL
REMARK 924 INTRA-LIGAND FREE ENERGY PREDICTED BY IDOCK:   -1.38 KCAL/MOL
REMARK 927      BINDING AFFINITY PREDICTED BY RF-SCORE:    0.00 PKD
ROOT
HETATM    1  C   UNL     1      -9.457  10.438  63.495  1.00  0.00    -0.356 C  
HETATM    2  C   UNL     1     -10.135  10.303  64.842  1.00  0.00    -0.276 C  
ENDROOT
BRANCH   2   3
HETATM    3  O   UNL     1      -9.267  10.788  65.871  1.00  0.00    -0.176 OA 
BRANCH   3   4
HETATM    4  C   UNL     1     -10.038  11.331  66.946  1.00  0.00    -0.212 C  
BRANCH   4   5
HETATM    5  C   UNL     1     -11.179  12.193  66.410  1.00  0.00    -0.331 C  
BRANCH   5   6
HETATM    6  P   UNL     1     -10.857  14.004  66.648  1.00  0.00    -0.304 P  
BRANCH   6   7
HETATM    7  C   UNL     1     -12.156  14.458  67.898  1.00  0.00    -0.245 C  
BRANCH   7   8
HETATM    8  C   UNL     1     -11.553  14.567  69.299  1.00  0.00    -0.302 C  
BRANCH   8   9
HETATM    9  O   UNL     1     -12.527  14.210  70.283  1.00  0.00    -0.342 OA 
BRANCH   9  10
HETATM   10  C   UNL     1     -13.018  15.379  70.942  1.00  0.00    -0.478 C  
HETATM   11  C   UNL     1     -11.934  15.950  71.833  1.00  0.00    -0.588 C  
ENDBRANCH   9  10
ENDBRANCH   8   9
ENDBRANCH   7   8
ENDBRANCH   6   7
BRANCH   6  12
HETATM   12  C   UNL     1      -9.393  13.954  67.789  1.00  0.00    -0.204 C  
BRANCH  12  13
HETATM   13  C   UNL     1      -8.162  14.631  67.205  1.00  0.00    -0.212 C  
BRANCH  13  14
HETATM   14  P   UNL     1      -8.494  16.358  66.620  1.00  0.00    -0.328 P  
BRANCH  14  15
HETATM   15  C   UNL     1      -9.110  17.181  68.166  1.00  0.00    -0.247 C  
BRANCH  15  16
HETATM   16  C   UNL     1     -10.460  17.861  67.924  1.00  0.00    -0.396 C  
BRANCH  16  17
HETATM   17  O   UNL     1     -10.381  19.253  68.249  1.00  0.00    -0.404 OA 
BRANCH  17  18
HETATM   18  C   UNL     1      -9.946  20.001  67.111  1.00  0.00    -0.441 C  
HETATM   19  C   UNL     1     -10.712  19.555  65.882  1.00  0.00    -0.518 C  
ENDBRANCH  17  18
ENDBRANCH  16  17
ENDBRANCH  15  16
ENDBRANCH  14  15
BRANCH  14  20
HETATM   20  C   UNL     1      -6.753  17.007  66.590  1.00  0.00    -0.238 C  
BRANCH  20  21
HETATM   21  C   UNL     1      -6.622  18.341  67.324  1.00  0.00    -0.186 C  
BRANCH  21  22
HETATM   22  O   UNL     1      -5.461  18.319  68.153  1.00  0.00    -0.162 OA 
BRANCH  22  23
HETATM   23  C   UNL     1      -5.811  18.551  69.520  1.00  0.00    -0.246 C  
HETATM   24  C   UNL     1      -6.715  19.765  69.602  1.00  0.00    -0.351 C  
ENDBRANCH  22  23
ENDBRANCH  21  22
ENDBRANCH  20  21
ENDBRANCH  14  20
ENDBRANCH  13  14
ENDBRANCH  12  13
ENDBRANCH   6  12
ENDBRANCH   5   6
ENDBRANCH   4   5
ENDBRANCH   3   4
ENDBRANCH   2   3
TORSDOF 19
ENDMDL
MODEL      108
REMARK 921   NORMALIZED FREE ENERGY PREDICTED BY IDOCK:   -3.64 KCAL/MOL
REMARK 922        TOTAL FREE ENERGY PREDICTED BY IDOCK:   -8.92 KCAL/MOL
REMARK 923 INTER-LIGAND FREE ENERGY PREDICTED BY IDOCK:   -7.76 KCAL/MOL
REMARK 924 INTRA-LIGAND FREE ENERGY PREDICTED BY IDOCK:   -1.17 KCAL/MOL
REMARK 927      BINDING AFFINITY PREDICTED BY RF-SCORE:    0.00 PKD
ROOT
HETATM    1  C   UNL     1     -10.768  19.659  67.360  1.00  0.00    -0.563 C  
HETATM    2  C   UNL     1     -10.622  19.610  65.854  1.00  0.00    -0.466 C  
ENDROOT
BRANCH   2   3
HETATM    3  O   UNL     1     -10.700  18.254  65.404  1.00  0.00    -0.610 OA 
BRANCH   3   4
HETATM    4  C   UNL     1     -10.101  17.384  66.368  1.00  0.00    -0.327 C  
BRANCH   4   5
HETATM    5  C   UNL     1     -10.438  15.927  66.063  1.00  0.00    -0.345 C  
BRANCH   5   6
HETATM    6  P   UNL     1     -10.230  14.836  67.548  1.00  0.00    -0.233 P  
BRANCH   6   7
HETATM    7  C   UNL     1     -11.672  15.351  68.601  1.00  0.00    -0.354 C  
BRANCH   7   8
HETATM    8  C   UNL     1     -11.218  15.703  70.018  1.00  0.00    -0.325 C  
BRANCH   8   9
HETATM    9  O   UNL     1     -12.337  15.703  70.908  1.00  0.00    -0.381 OA 
BRANCH   9  10
HETATM   10  C   UNL     1     -11.893  15.823  72.261  1.00  0.00    -0.498 C  
HETATM   11  C   UNL     1     -12.990  15.360  73.197  1.00  0.00    -0.628 C  
ENDBRANCH   9  10
ENDBRANCH   8   9
ENDBRANCH   7   8
ENDBRANCH   6   7
BRANCH   6  12
HETATM   12  C   UNL     1     -10.924  13.237  66.908  1.00  0.00    -0.283 C  
BRANCH  12  13
HETATM   13  C   UNL     1     -11.545  12.380  68.001  1.00  0.00    -0.347 C  
BRANCH  13  14
HETATM   14  P   UNL     1     -11.144  10.579  67.826  1.00  0.00    -0.181 P  
BRANCH  14  15
HETATM   15  C   UNL     1      -9.872  10.594  66.475  1.00  0.00    -0.204 C  
BRANCH  15  16
HETATM   16  C   UNL     1      -8.467  10.373  67.042  1.00  0.00    -0.127 C  
BRANCH  16  17
HETATM   17  O   UNL     1      -7.710  11.585  66.982  1.00  0.00    -0.144 OA 
BRANCH  17  18
HETATM   18  C   UNL     1      -6.534  11.474  67.789  1.00  0.00    -0.064 C  
HETATM   19  C   UNL     1      -6.339  10.032  68.211  1.00  0.00    -0.053 C  
ENDBRANCH  17  18
ENDBRANCH  16  17
ENDBRANCH  15  16
ENDBRANCH  14  15
BRANCH  14  20
HETATM   20  C   UNL     1     -10.033  10.372  69.301  1.00  0.00    -0.228 C  
BRANCH  20  21
HETATM   21  C   UNL     1     -10.816  10.049  70.572  1.00  0.00    -0.314 C  
BRANCH  21  22
HETATM   22  O   UNL     1     -12.199   9.889  70.255  1.00  0.00    -0.176 OA 
BRANCH  22  23
HETATM   23  C   UNL     1     -13.019  10.257  71.367  1.00  0.00    -0.440 C  
HETATM   24  C   UNL     1     -12.923  11.755  71.581  1.00  0.00    -0.467 C  
ENDBRANCH  22  23
ENDBRANCH  21  22
ENDBRANCH  20  21
ENDBRANCH  14  20
ENDBRANCH  13  14
ENDBRANCH  12  13
ENDBRANCH   6  12
ENDBRANCH   5   6
ENDBRANCH   4   5
ENDBRANCH   3   4
ENDBRANCH   2   3
TORSDOF 19
ENDMDL
MODEL      109
REMARK 921   NORMALIZED FREE ENERGY PREDICTED BY IDOCK:   -3.63 KCAL/MOL
REMARK 922        TOTAL FREE ENERGY PREDICTED BY IDOCK:   -8.92 KCAL/MOL
REMARK 923 INTER-LIGAND FREE ENERGY PREDICTED BY IDOCK:   -7.97 KCAL/MOL
REMARK 924 INTRA-LIGAND FREE ENERGY PREDICTED BY IDOCK:   -0.95 KCAL/MOL
REMARK 927      BINDING AFFINITY PREDICTED BY RF-SCORE:    0.00 PKD
ROOT
HETATM    1  C   UNL     1      -8.694   7.663  65.761  1.00  0.00    -0.151 C  
HETATM    2  C   UNL     1      -9.747   7.931  66.816  1.00  0.00    -0.234 C  
ENDROOT
BRANCH   2   3
HETATM    3  O   UNL     1     -10.138   9.306  66.770  1.00  0.00    -0.225 OA 
BRANCH   3   4
HETATM    4  C   UNL     1     -10.775   9.675  67.996  1.00  0.00    -0.232 C  
BRANCH   4   5
HETATM    5  C   UNL     1     -11.488  11.017  67.852  1.00  0.00    -0.282 C  
BRANCH   5   6
HETATM    6  P   UNL     1     -10.423  12.289  67.023  1.00  0.00    -0.223 P  
BRANCH   6   7
HETATM    7  C   UNL     1     -11.691  13.343  66.164  1.00  0.00    -0.368 C  
BRANCH   7   8
HETATM    8  C   UNL     1     -11.517  13.284  64.647  1.00  0.00    -0.342 C  
BRANCH   8   9
HETATM    9  O   UNL     1     -11.446  11.923  64.212  1.00  0.00    -0.350 OA 
BRANCH   9  10
HETATM   10  C   UNL     1     -10.434  11.775  63.214  1.00  0.00    -0.388 C  
HETATM   11  C   UNL     1      -9.530  10.615  63.578  1.00  0.00    -0.344 C  
ENDBRANCH   9  10
ENDBRANCH   8   9
ENDBRANCH   7   8
ENDBRANCH   6   7
BRANCH   6  12
HETATM   12  C   UNL     1     -10.055  13.421  68.448  1.00  0.00    -0.244 C  
BRANCH  12  13
HETATM   13  C   UNL     1      -9.574  14.795  68.006  1.00  0.00    -0.209 C  
BRANCH  13  14
HETATM   14  P   UNL     1     -10.249  16.170  69.049  1.00  0.00    -0.287 P  
BRANCH  14  15
HETATM   15  C   UNL     1     -10.651  17.461  67.776  1.00  0.00    -0.371 C  
BRANCH  15  16
HETATM   16  C   UNL     1      -9.479  18.428  67.588  1.00  0.00    -0.272 C  
BRANCH  16  17
HETATM   17  O   UNL     1      -8.490  18.215  68.600  1.00  0.00    -0.307 OA 
BRANCH  17  18
HETATM   18  C   UNL     1      -7.742  19.413  68.820  1.00  0.00    -0.362 C  
HETATM   19  C   UNL     1      -6.267  19.083  68.923  1.00  0.00    -0.270 C  
ENDBRANCH  17  18
ENDBRANCH  16  17
ENDBRANCH  15  16
ENDBRANCH  14  15
BRANCH  14  20
HETATM   20  C   UNL     1     -11.954  15.500  69.365  1.00  0.00    -0.336 C  
BRANCH  20  21
HETATM   21  C   UNL     1     -12.367  15.641  70.829  1.00  0.00    -0.419 C  
BRANCH  21  22
HETATM   22  O   UNL     1     -13.789  15.575  70.933  1.00  0.00    -0.512 OA 
BRANCH  22  23
HETATM   23  C   UNL     1     -14.185  15.301  72.280  1.00  0.00    -0.547 C  
HETATM   24  C   UNL     1     -13.143  15.860  73.227  1.00  0.00    -0.694 C  
ENDBRANCH  22  23
ENDBRANCH  21  22
ENDBRANCH  20  21
ENDBRANCH  14  20
ENDBRANCH  13  14
ENDBRANCH  12  13
ENDBRANCH   6  12
ENDBRANCH   5   6
ENDBRANCH   4   5
ENDBRANCH   3   4
ENDBRANCH   2   3
TORSDOF 19
ENDMDL
MODEL      110
REMARK 921   NORMALIZED FREE ENERGY PREDICTED BY IDOCK:   -3.63 KCAL/MOL
REMARK 922        TOTAL FREE ENERGY PREDICTED BY IDOCK:   -8.91 KCAL/MOL
REMARK 923 INTER-LIGAND FREE ENERGY PREDICTED BY IDOCK:   -7.74 KCAL/MOL
REMARK 924 INTRA-LIGAND FREE ENERGY PREDICTED BY IDOCK:   -1.17 KCAL/MOL
REMARK 927      BINDING AFFINITY PREDICTED BY RF-SCORE:    0.00 PKD
ROOT
HETATM    1  C   UNL     1     -10.213   5.350  69.135  1.00  0.00    -0.302 C  
HETATM    2  C   UNL     1     -11.186   6.441  69.533  1.00  0.00    -0.412 C  
ENDROOT
BRANCH   2   3
HETATM    3  O   UNL     1     -10.467   7.575  70.024  1.00  0.00    -0.217 OA 
BRANCH   3   4
HETATM    4  C   UNL     1     -11.263   8.284  70.976  1.00  0.00    -0.259 C  
BRANCH   4   5
HETATM    5  C   UNL     1     -10.986   9.784  70.902  1.00  0.00    -0.341 C  
BRANCH   5   6
HETATM    6  P   UNL     1     -12.433  10.731  70.234  1.00  0.00    -0.202 P  
BRANCH   6   7
HETATM    7  C   UNL     1     -13.215  11.377  71.792  1.00  0.00    -0.367 C  
BRANCH   7   8
HETATM    8  C   UNL     1     -13.013  12.886  71.921  1.00  0.00    -0.301 C  
BRANCH   8   9
HETATM    9  O   UNL     1     -14.156  13.485  72.538  1.00  0.00    -0.731 OA 
BRANCH   9  10
HETATM   10  C   UNL     1     -14.083  14.908  72.438  1.00  0.00    -0.455 C  
HETATM   11  C   UNL     1     -13.365  15.290  71.159  1.00  0.00    -0.568 C  
ENDBRANCH   9  10
ENDBRANCH   8   9
ENDBRANCH   7   8
ENDBRANCH   6   7
BRANCH   6  12
HETATM   12  C   UNL     1     -11.603  12.297  69.682  1.00  0.00    -0.278 C  
BRANCH  12  13
HETATM   13  C   UNL     1     -10.631  12.080  68.531  1.00  0.00    -0.231 C  
BRANCH  13  14
HETATM   14  P   UNL     1     -11.442  12.184  66.868  1.00  0.00    -0.304 P  
BRANCH  14  15
HETATM   15  C   UNL     1     -11.997  13.955  66.817  1.00  0.00    -0.438 C  
BRANCH  15  16
HETATM   16  C   UNL     1     -10.949  14.838  66.135  1.00  0.00    -0.332 C  
BRANCH  16  17
HETATM   17  O   UNL     1     -10.232  15.602  67.109  1.00  0.00    -0.259 OA 
BRANCH  17  18
HETATM   18  C   UNL     1     -11.032  15.786  68.279  1.00  0.00    -0.325 C  
HETATM   19  C   UNL     1     -10.507  16.961  69.078  1.00  0.00    -0.341 C  
ENDBRANCH  17  18
ENDBRANCH  16  17
ENDBRANCH  15  16
ENDBRANCH  14  15
BRANCH  14  20
HETATM   20  C   UNL     1      -9.926  12.299  65.799  1.00  0.00    -0.254 C  
BRANCH  20  21
HETATM   21  C   UNL     1      -8.754  11.504  66.372  1.00  0.00    -0.179 C  
BRANCH  21  22
HETATM   22  O   UNL     1      -8.348  10.508  65.434  1.00  0.00    -0.162 OA 
BRANCH  22  23
HETATM   23  C   UNL     1      -9.339   9.483  65.323  1.00  0.00    -0.253 C  
HETATM   24  C   UNL     1      -9.120   8.460  66.421  1.00  0.00    -0.231 C  
ENDBRANCH  22  23
ENDBRANCH  21  22
ENDBRANCH  20  21
ENDBRANCH  14  20
ENDBRANCH  13  14
ENDBRANCH  12  13
ENDBRANCH   6  12
ENDBRANCH   5   6
ENDBRANCH   4   5
ENDBRANCH   3   4
ENDBRANCH   2   3
TORSDOF 19
ENDMDL
MODEL      111
REMARK 921   NORMALIZED FREE ENERGY PREDICTED BY IDOCK:   -3.62 KCAL/MOL
REMARK 922        TOTAL FREE ENERGY PREDICTED BY IDOCK:   -8.90 KCAL/MOL
REMARK 923 INTER-LIGAND FREE ENERGY PREDICTED BY IDOCK:   -7.71 KCAL/MOL
REMARK 924 INTRA-LIGAND FREE ENERGY PREDICTED BY IDOCK:   -1.19 KCAL/MOL
REMARK 927      BINDING AFFINITY PREDICTED BY RF-SCORE:    0.00 PKD
ROOT
HETATM    1  C   UNL     1      -8.625  19.761  67.574  1.00  0.00    -0.377 C  
HETATM    2  C   UNL     1      -9.712  20.025  66.552  1.00  0.00    -0.443 C  
ENDROOT
BRANCH   2   3
HETATM    3  O   UNL     1      -9.943  18.846  65.776  1.00  0.00    -0.483 OA 
BRANCH   3   4
HETATM    4  C   UNL     1     -10.144  17.724  66.640  1.00  0.00    -0.350 C  
BRANCH   4   5
HETATM    5  C   UNL     1      -9.892  16.416  65.893  1.00  0.00    -0.315 C  
BRANCH   5   6
HETATM    6  P   UNL     1     -10.938  15.029  66.540  1.00  0.00    -0.292 P  
BRANCH   6   7
HETATM    7  C   UNL     1     -11.805  14.458  64.997  1.00  0.00    -0.400 C  
BRANCH   7   8
HETATM    8  C   UNL     1     -12.642  13.208  65.269  1.00  0.00    -0.472 C  
BRANCH   8   9
HETATM    9  O   UNL     1     -12.139  12.105  64.511  1.00  0.00    -0.376 OA 
BRANCH   9  10
HETATM   10  C   UNL     1     -11.265  12.569  63.481  1.00  0.00    -0.462 C  
HETATM   11  C   UNL     1     -10.105  11.606  63.329  1.00  0.00    -0.454 C  
ENDBRANCH   9  10
ENDBRANCH   8   9
ENDBRANCH   7   8
ENDBRANCH   6   7
BRANCH   6  12
HETATM   12  C   UNL     1      -9.681  13.667  66.659  1.00  0.00    -0.284 C  
BRANCH  12  13
HETATM   13  C   UNL     1      -9.315  13.322  68.095  1.00  0.00    -0.220 C  
BRANCH  13  14
HETATM   14  P   UNL     1      -9.818  11.605  68.579  1.00  0.00    -0.122 P  
BRANCH  14  15
HETATM   15  C   UNL     1     -11.641  11.803  68.870  1.00  0.00    -0.309 C  
BRANCH  15  16
HETATM   16  C   UNL     1     -11.913  12.408  70.250  1.00  0.00    -0.289 C  
BRANCH  16  17
HETATM   17  O   UNL     1     -12.355  13.763  70.120  1.00  0.00    -0.335 OA 
BRANCH  17  18
HETATM   18  C   UNL     1     -12.724  14.286  71.398  1.00  0.00    -0.352 C  
HETATM   19  C   UNL     1     -13.510  13.246  72.169  1.00  0.00    -0.655 C  
ENDBRANCH  17  18
ENDBRANCH  16  17
ENDBRANCH  15  16
ENDBRANCH  14  15
BRANCH  14  20
HETATM   20  C   UNL     1      -9.854  10.815  66.897  1.00  0.00    -0.187 C  
BRANCH  20  21
HETATM   21  C   UNL     1     -10.854   9.664  66.821  1.00  0.00     0.019 C  
BRANCH  21  22
HETATM   22  O   UNL     1     -10.182   8.472  66.415  1.00  0.00    -0.273 OA 
BRANCH  22  23
HETATM   23  C   UNL     1      -9.667   7.770  67.550  1.00  0.00    -0.158 C  
HETATM   24  C   UNL     1      -8.648   6.750  67.082  1.00  0.00    -0.120 C  
ENDBRANCH  22  23
ENDBRANCH  21  22
ENDBRANCH  20  21
ENDBRANCH  14  20
ENDBRANCH  13  14
ENDBRANCH  12  13
ENDBRANCH   6  12
ENDBRANCH   5   6
ENDBRANCH   4   5
ENDBRANCH   3   4
ENDBRANCH   2   3
TORSDOF 19
ENDMDL
MODEL      112
REMARK 921   NORMALIZED FREE ENERGY PREDICTED BY IDOCK:   -3.62 KCAL/MOL
REMARK 922        TOTAL FREE ENERGY PREDICTED BY IDOCK:   -8.90 KCAL/MOL
REMARK 923 INTER-LIGAND FREE ENERGY PREDICTED BY IDOCK:   -8.17 KCAL/MOL
REMARK 924 INTRA-LIGAND FREE ENERGY PREDICTED BY IDOCK:   -0.73 KCAL/MOL
REMARK 927      BINDING AFFINITY PREDICTED BY RF-SCORE:    0.00 PKD
ROOT
HETATM    1  C   UNL     1     -10.863  11.472  63.535  1.00  0.00    -0.473 C  
HETATM    2  C   UNL     1     -12.334  11.795  63.378  1.00  0.00    -0.361 C  
ENDROOT
BRANCH   2   3
HETATM    3  O   UNL     1     -12.532  13.207  63.476  1.00  0.00    -0.714 OA 
BRANCH   3   4
HETATM    4  C   UNL     1     -11.554  13.779  64.348  1.00  0.00    -0.395 C  
BRANCH   4   5
HETATM    5  C   UNL     1     -12.180  14.158  65.688  1.00  0.00    -0.435 C  
BRANCH   5   6
HETATM    6  P   UNL     1     -10.983  13.984  67.093  1.00  0.00    -0.311 P  
BRANCH   6   7
HETATM    7  C   UNL     1     -10.816  15.744  67.669  1.00  0.00    -0.310 C  
BRANCH   7   8
HETATM    8  C   UNL     1     -10.859  15.828  69.194  1.00  0.00    -0.254 C  
BRANCH   8   9
HETATM    9  O   UNL     1      -9.544  15.670  69.733  1.00  0.00    -0.281 OA 
BRANCH   9  10
HETATM   10  C   UNL     1      -8.589  16.344  68.912  1.00  0.00    -0.250 C  
HETATM   11  C   UNL     1      -7.233  15.686  69.070  1.00  0.00    -0.160 C  
ENDBRANCH   9  10
ENDBRANCH   8   9
ENDBRANCH   7   8
ENDBRANCH   6   7
BRANCH   6  12
HETATM   12  C   UNL     1     -12.108  13.369  68.437  1.00  0.00    -0.235 C  
BRANCH  12  13
HETATM   13  C   UNL     1     -11.384  12.532  69.480  1.00  0.00    -0.171 C  
BRANCH  13  14
HETATM   14  P   UNL     1     -12.199  10.897  69.792  1.00  0.00    -0.165 P  
BRANCH  14  15
HETATM   15  C   UNL     1     -10.796   9.885  70.467  1.00  0.00    -0.326 C  
BRANCH  15  16
HETATM   16  C   UNL     1     -11.272   8.978  71.604  1.00  0.00    -0.361 C  
BRANCH  16  17
HETATM   17  O   UNL     1     -11.464   7.642  71.127  1.00  0.00    -0.266 OA 
BRANCH  17  18
HETATM   18  C   UNL     1     -10.383   7.263  70.272  1.00  0.00    -0.210 C  
HETATM   19  C   UNL     1     -10.911   6.432  69.120  1.00  0.00    -0.382 C  
ENDBRANCH  17  18
ENDBRANCH  16  17
ENDBRANCH  15  16
ENDBRANCH  14  15
BRANCH  14  20
HETATM   20  C   UNL     1     -13.087  11.298  71.375  1.00  0.00    -0.295 C  
BRANCH  20  21
HETATM   21  C   UNL     1     -12.853  12.741  71.817  1.00  0.00    -0.237 C  
BRANCH  21  22
HETATM   22  O   UNL     1     -14.031  13.246  72.446  1.00  0.00    -0.608 OA 
BRANCH  22  23
HETATM   23  C   UNL     1     -13.909  14.648  72.699  1.00  0.00    -0.390 C  
HETATM   24  C   UNL     1     -13.803  15.383  71.378  1.00  0.00    -0.577 C  
ENDBRANCH  22  23
ENDBRANCH  21  22
ENDBRANCH  20  21
ENDBRANCH  14  20
ENDBRANCH  13  14
ENDBRANCH  12  13
ENDBRANCH   6  12
ENDBRANCH   5   6
ENDBRANCH   4   5
ENDBRANCH   3   4
ENDBRANCH   2   3
TORSDOF 19
ENDMDL
MODEL      113
REMARK 921   NORMALIZED FREE ENERGY PREDICTED BY IDOCK:   -3.61 KCAL/MOL
REMARK 922        TOTAL FREE ENERGY PREDICTED BY IDOCK:   -8.88 KCAL/MOL
REMARK 923 INTER-LIGAND FREE ENERGY PREDICTED BY IDOCK:   -7.57 KCAL/MOL
REMARK 924 INTRA-LIGAND FREE ENERGY PREDICTED BY IDOCK:   -1.30 KCAL/MOL
REMARK 927      BINDING AFFINITY PREDICTED BY RF-SCORE:    0.00 PKD
ROOT
HETATM    1  C   UNL     1      -9.898  20.263  66.778  1.00  0.00    -0.586 C  
HETATM    2  C   UNL     1      -8.754  20.559  67.726  1.00  0.00    -0.086 C  
ENDROOT
BRANCH   2   3
HETATM    3  O   UNL     1      -7.680  19.646  67.487  1.00  0.00    -0.254 OA 
BRANCH   3   4
HETATM    4  C   UNL     1      -7.972  18.834  66.347  1.00  0.00    -0.282 C  
BRANCH   4   5
HETATM    5  C   UNL     1      -7.085  17.592  66.327  1.00  0.00    -0.305 C  
BRANCH   5   6
HETATM    6  P   UNL     1      -7.958  16.098  66.994  1.00  0.00    -0.269 P  
BRANCH   6   7
HETATM    7  C   UNL     1      -7.664  16.272  68.822  1.00  0.00    -0.202 C  
BRANCH   7   8
HETATM    8  C   UNL     1      -7.257  14.936  69.442  1.00  0.00    -0.182 C  
BRANCH   8   9
HETATM    9  O   UNL     1      -7.189  13.925  68.432  1.00  0.00    -0.092 OA 
BRANCH   9  10
HETATM   10  C   UNL     1      -6.728  12.695  68.994  1.00  0.00    -0.097 C  
HETATM   11  C   UNL     1      -5.838  12.984  70.185  1.00  0.00    -0.153 C  
ENDBRANCH   9  10
ENDBRANCH   8   9
ENDBRANCH   7   8
ENDBRANCH   6   7
BRANCH   6  12
HETATM   12  C   UNL     1      -9.723  16.674  66.951  1.00  0.00    -0.254 C  
BRANCH  12  13
HETATM   13  C   UNL     1     -10.358  16.746  68.332  1.00  0.00    -0.319 C  
BRANCH  13  14
HETATM   14  P   UNL     1     -11.661  15.455  68.598  1.00  0.00    -0.313 P  
BRANCH  14  15
HETATM   15  C   UNL     1     -10.691  13.882  68.421  1.00  0.00    -0.257 C  
BRANCH  15  16
HETATM   16  C   UNL     1     -11.615  12.700  68.113  1.00  0.00    -0.338 C  
BRANCH  16  17
HETATM   17  O   UNL     1     -12.317  12.924  66.887  1.00  0.00    -0.384 OA 
BRANCH  17  18
HETATM   18  C   UNL     1     -11.415  12.855  65.780  1.00  0.00    -0.337 C  
HETATM   19  C   UNL     1     -11.723  13.967  64.799  1.00  0.00    -0.399 C  
ENDBRANCH  17  18
ENDBRANCH  16  17
ENDBRANCH  15  16
ENDBRANCH  14  15
BRANCH  14  20
HETATM   20  C   UNL     1     -11.793  15.536  70.450  1.00  0.00    -0.351 C  
BRANCH  20  21
HETATM   21  C   UNL     1     -13.208  15.237  70.941  1.00  0.00    -0.450 C  
BRANCH  21  22
HETATM   22  O   UNL     1     -13.375  15.751  72.262  1.00  0.00    -0.453 OA 
BRANCH  22  23
HETATM   23  C   UNL     1     -12.190  15.552  73.036  1.00  0.00    -0.454 C  
HETATM   24  C   UNL     1     -12.504  15.801  74.498  1.00  0.00    -0.755 C  
ENDBRANCH  22  23
ENDBRANCH  21  22
ENDBRANCH  20  21
ENDBRANCH  14  20
ENDBRANCH  13  14
ENDBRANCH  12  13
ENDBRANCH   6  12
ENDBRANCH   5   6
ENDBRANCH   4   5
ENDBRANCH   3   4
ENDBRANCH   2   3
TORSDOF 19
ENDMDL
MODEL      114
REMARK 921   NORMALIZED FREE ENERGY PREDICTED BY IDOCK:   -3.60 KCAL/MOL
REMARK 922        TOTAL FREE ENERGY PREDICTED BY IDOCK:   -8.84 KCAL/MOL
REMARK 923 INTER-LIGAND FREE ENERGY PREDICTED BY IDOCK:   -7.72 KCAL/MOL
REMARK 924 INTRA-LIGAND FREE ENERGY PREDICTED BY IDOCK:   -1.12 KCAL/MOL
REMARK 927      BINDING AFFINITY PREDICTED BY RF-SCORE:    0.00 PKD
ROOT
HETATM    1  C   UNL     1     -11.442  12.265  63.536  1.00  0.00    -0.558 C  
HETATM    2  C   UNL     1     -10.113  11.600  63.243  1.00  0.00    -0.423 C  
ENDROOT
BRANCH   2   3
HETATM    3  O   UNL     1     -10.006  10.386  63.991  1.00  0.00    -0.323 OA 
BRANCH   3   4
HETATM    4  C   UNL     1      -9.354  10.636  65.239  1.00  0.00    -0.214 C  
BRANCH   4   5
HETATM    5  C   UNL     1     -10.108   9.966  66.385  1.00  0.00    -0.240 C  
BRANCH   5   6
HETATM    6  P   UNL     1     -11.019  11.192  67.436  1.00  0.00    -0.295 P  
BRANCH   6   7
HETATM    7  C   UNL     1     -10.260  10.896  69.107  1.00  0.00    -0.195 C  
BRANCH   7   8
HETATM    8  C   UNL     1     -11.252  10.210  70.046  1.00  0.00    -0.299 C  
BRANCH   8   9
HETATM    9  O   UNL     1     -12.396  11.044  70.247  1.00  0.00    -0.309 OA 
BRANCH   9  10
HETATM   10  C   UNL     1     -12.919  10.857  71.564  1.00  0.00    -0.451 C  
HETATM   11  C   UNL     1     -13.358   9.417  71.735  1.00  0.00    -0.489 C  
ENDBRANCH   9  10
ENDBRANCH   8   9
ENDBRANCH   7   8
ENDBRANCH   6   7
BRANCH   6  12
HETATM   12  C   UNL     1     -10.118  12.758  67.007  1.00  0.00    -0.240 C  
BRANCH  12  13
HETATM   13  C   UNL     1      -9.710  13.563  68.233  1.00  0.00    -0.224 C  
BRANCH  13  14
HETATM   14  P   UNL     1      -9.526  15.373  67.884  1.00  0.00    -0.198 P  
BRANCH  14  15
HETATM   15  C   UNL     1      -7.685  15.598  67.952  1.00  0.00    -0.131 C  
BRANCH  15  16
HETATM   16  C   UNL     1      -7.299  16.652  68.992  1.00  0.00    -0.228 C  
BRANCH  16  17
HETATM   17  O   UNL     1      -7.956  17.891  68.712  1.00  0.00    -0.292 OA 
BRANCH  17  18
HETATM   18  C   UNL     1      -7.099  18.743  67.947  1.00  0.00    -0.237 C  
HETATM   19  C   UNL     1      -6.039  19.343  68.848  1.00  0.00    -0.272 C  
ENDBRANCH  17  18
ENDBRANCH  16  17
ENDBRANCH  15  16
ENDBRANCH  14  15
BRANCH  14  20
HETATM   20  C   UNL     1      -9.772  15.352  66.041  1.00  0.00    -0.338 C  
BRANCH  20  21
HETATM   21  C   UNL     1     -10.535  16.580  65.547  1.00  0.00    -0.301 C  
BRANCH  21  22
HETATM   22  O   UNL     1      -9.768  17.755  65.804  1.00  0.00    -0.534 OA 
BRANCH  22  23
HETATM   23  C   UNL     1     -10.610  18.910  65.847  1.00  0.00    -0.373 C  
HETATM   24  C   UNL     1     -10.798  19.336  67.289  1.00  0.00    -0.554 C  
ENDBRANCH  22  23
ENDBRANCH  21  22
ENDBRANCH  20  21
ENDBRANCH  14  20
ENDBRANCH  13  14
ENDBRANCH  12  13
ENDBRANCH   6  12
ENDBRANCH   5   6
ENDBRANCH   4   5
ENDBRANCH   3   4
ENDBRANCH   2   3
TORSDOF 19
ENDMDL
MODEL      115
REMARK 921   NORMALIZED FREE ENERGY PREDICTED BY IDOCK:   -3.59 KCAL/MOL
REMARK 922        TOTAL FREE ENERGY PREDICTED BY IDOCK:   -8.84 KCAL/MOL
REMARK 923 INTER-LIGAND FREE ENERGY PREDICTED BY IDOCK:   -7.92 KCAL/MOL
REMARK 924 INTRA-LIGAND FREE ENERGY PREDICTED BY IDOCK:   -0.91 KCAL/MOL
REMARK 927      BINDING AFFINITY PREDICTED BY RF-SCORE:    0.00 PKD
ROOT
HETATM    1  C   UNL     1      -6.429  13.463  68.111  1.00  0.00    -0.119 C  
HETATM    2  C   UNL     1      -7.272  12.309  67.608  1.00  0.00    -0.128 C  
ENDROOT
BRANCH   2   3
HETATM    3  O   UNL     1      -7.773  11.557  68.717  1.00  0.00    -0.134 OA 
BRANCH   3   4
HETATM    4  C   UNL     1      -8.854  10.723  68.293  1.00  0.00    -0.139 C  
BRANCH   4   5
HETATM    5  C   UNL     1      -9.741  10.346  69.477  1.00  0.00    -0.170 C  
BRANCH   5   6
HETATM    6  P   UNL     1     -11.539  10.625  69.120  1.00  0.00    -0.207 P  
BRANCH   6   7
HETATM    7  C   UNL     1     -12.030  11.756  70.512  1.00  0.00    -0.289 C  
BRANCH   7   8
HETATM    8  C   UNL     1     -12.791  10.993  71.596  1.00  0.00    -0.435 C  
BRANCH   8   9
HETATM    9  O   UNL     1     -13.535   9.919  71.013  1.00  0.00    -0.363 OA 
BRANCH   9  10
HETATM   10  C   UNL     1     -13.688   8.855  71.953  1.00  0.00    -0.439 C  
HETATM   11  C   UNL     1     -12.332   8.254  72.264  1.00  0.00    -0.410 C  
ENDBRANCH   9  10
ENDBRANCH   8   9
ENDBRANCH   7   8
ENDBRANCH   6   7
BRANCH   6  12
HETATM   12  C   UNL     1     -11.436  11.894  67.769  1.00  0.00    -0.319 C  
BRANCH  12  13
HETATM   13  C   UNL     1     -11.478  13.323  68.292  1.00  0.00    -0.316 C  
BRANCH  13  14
HETATM   14  P   UNL     1     -10.323  14.458  67.391  1.00  0.00    -0.253 P  
BRANCH  14  15
HETATM   15  C   UNL     1     -11.162  14.640  65.745  1.00  0.00    -0.336 C  
BRANCH  15  16
HETATM   16  C   UNL     1     -12.660  14.341  65.857  1.00  0.00    -0.352 C  
BRANCH  16  17
HETATM   17  O   UNL     1     -13.089  13.533  64.757  1.00  0.00    -0.680 OA 
BRANCH  17  18
HETATM   18  C   UNL     1     -11.967  13.151  63.957  1.00  0.00    -0.460 C  
HETATM   19  C   UNL     1     -12.284  11.870  63.212  1.00  0.00    -0.487 C  
ENDBRANCH  17  18
ENDBRANCH  16  17
ENDBRANCH  15  16
ENDBRANCH  14  15
BRANCH  14  20
HETATM   20  C   UNL     1     -10.814  16.071  68.174  1.00  0.00    -0.322 C  
BRANCH  20  21
HETATM   21  C   UNL     1      -9.859  17.205  67.805  1.00  0.00    -0.274 C  
BRANCH  21  22
HETATM   22  O   UNL     1     -10.314  18.424  68.393  1.00  0.00    -0.367 OA 
BRANCH  22  23
HETATM   23  C   UNL     1     -10.850  19.298  67.396  1.00  0.00    -0.446 C  
HETATM   24  C   UNL     1      -9.865  19.405  66.249  1.00  0.00    -0.477 C  
ENDBRANCH  22  23
ENDBRANCH  21  22
ENDBRANCH  20  21
ENDBRANCH  14  20
ENDBRANCH  13  14
ENDBRANCH  12  13
ENDBRANCH   6  12
ENDBRANCH   5   6
ENDBRANCH   4   5
ENDBRANCH   3   4
ENDBRANCH   2   3
TORSDOF 19
ENDMDL
MODEL      116
REMARK 921   NORMALIZED FREE ENERGY PREDICTED BY IDOCK:   -3.59 KCAL/MOL
REMARK 922        TOTAL FREE ENERGY PREDICTED BY IDOCK:   -8.83 KCAL/MOL
REMARK 923 INTER-LIGAND FREE ENERGY PREDICTED BY IDOCK:   -7.76 KCAL/MOL
REMARK 924 INTRA-LIGAND FREE ENERGY PREDICTED BY IDOCK:   -1.06 KCAL/MOL
REMARK 927      BINDING AFFINITY PREDICTED BY RF-SCORE:    0.00 PKD
ROOT
HETATM    1  C   UNL     1      -8.250  16.845  68.319  1.00  0.00    -0.222 C  
HETATM    2  C   UNL     1      -9.655  17.358  68.080  1.00  0.00    -0.287 C  
ENDROOT
BRANCH   2   3
HETATM    3  O   UNL     1     -10.349  16.471  67.199  1.00  0.00    -0.291 OA 
BRANCH   3   4
HETATM    4  C   UNL     1      -9.413  15.683  66.459  1.00  0.00    -0.274 C  
BRANCH   4   5
HETATM    5  C   UNL     1      -9.989  14.302  66.156  1.00  0.00    -0.314 C  
BRANCH   5   6
HETATM    6  P   UNL     1     -11.605  14.014  67.019  1.00  0.00    -0.410 P  
BRANCH   6   7
HETATM    7  C   UNL     1     -12.786  13.916  65.586  1.00  0.00    -0.495 C  
BRANCH   7   8
HETATM    8  C   UNL     1     -12.078  14.234  64.269  1.00  0.00    -0.441 C  
BRANCH   8   9
HETATM    9  O   UNL     1     -12.500  13.323  63.251  1.00  0.00    -0.736 OA 
BRANCH   9  10
HETATM   10  C   UNL     1     -12.150  11.985  63.608  1.00  0.00    -0.527 C  
HETATM   11  C   UNL     1     -10.645  11.824  63.559  1.00  0.00    -0.499 C  
ENDBRANCH   9  10
ENDBRANCH   8   9
ENDBRANCH   7   8
ENDBRANCH   6   7
BRANCH   6  12
HETATM   12  C   UNL     1     -11.484  12.198  67.391  1.00  0.00    -0.345 C  
BRANCH  12  13
HETATM   13  C   UNL     1     -10.683  11.903  68.650  1.00  0.00    -0.235 C  
BRANCH  13  14
HETATM   14  P   UNL     1     -10.999  10.207  69.328  1.00  0.00    -0.220 P  
BRANCH  14  15
HETATM   15  C   UNL     1      -9.337   9.750  70.019  1.00  0.00    -0.235 C  
BRANCH  15  16
HETATM   16  C   UNL     1      -9.358   8.336  70.605  1.00  0.00    -0.156 C  
BRANCH  16  17
HETATM   17  O   UNL     1      -8.098   7.691  70.395  1.00  0.00    -0.109 OA 
BRANCH  17  18
HETATM   18  C   UNL     1      -8.263   6.271  70.401  1.00  0.00    -0.121 C  
HETATM   19  C   UNL     1      -9.398   5.884  69.476  1.00  0.00    -0.156 C  
ENDBRANCH  17  18
ENDBRANCH  16  17
ENDBRANCH  15  16
ENDBRANCH  14  15
BRANCH  14  20
HETATM   20  C   UNL     1     -11.876  10.669  70.901  1.00  0.00    -0.331 C  
BRANCH  20  21
HETATM   21  C   UNL     1     -13.096   9.789  71.160  1.00  0.00    -0.346 C  
BRANCH  21  22
HETATM   22  O   UNL     1     -12.730   8.702  72.010  1.00  0.00    -0.332 OA 
BRANCH  22  23
HETATM   23  C   UNL     1     -13.116   7.453  71.429  1.00  0.00    -0.350 C  
HETATM   24  C   UNL     1     -12.166   6.371  71.901  1.00  0.00    -0.332 C  
ENDBRANCH  22  23
ENDBRANCH  21  22
ENDBRANCH  20  21
ENDBRANCH  14  20
ENDBRANCH  13  14
ENDBRANCH  12  13
ENDBRANCH   6  12
ENDBRANCH   5   6
ENDBRANCH   4   5
ENDBRANCH   3   4
ENDBRANCH   2   3
TORSDOF 19
ENDMDL
MODEL      117
REMARK 921   NORMALIZED FREE ENERGY PREDICTED BY IDOCK:   -3.59 KCAL/MOL
REMARK 922        TOTAL FREE ENERGY PREDICTED BY IDOCK:   -8.82 KCAL/MOL
REMARK 923 INTER-LIGAND FREE ENERGY PREDICTED BY IDOCK:   -7.75 KCAL/MOL
REMARK 924 INTRA-LIGAND FREE ENERGY PREDICTED BY IDOCK:   -1.07 KCAL/MOL
REMARK 927      BINDING AFFINITY PREDICTED BY RF-SCORE:    0.00 PKD
ROOT
HETATM    1  C   UNL     1     -10.164  19.798  68.527  1.00  0.00    -0.547 C  
HETATM    2  C   UNL     1      -9.887  20.414  67.171  1.00  0.00    -0.461 C  
ENDROOT
BRANCH   2   3
HETATM    3  O   UNL     1     -10.227  19.484  66.139  1.00  0.00    -0.428 OA 
BRANCH   3   4
HETATM    4  C   UNL     1     -10.604  18.231  66.715  1.00  0.00    -0.312 C  
BRANCH   4   5
HETATM    5  C   UNL     1     -10.768  17.167  65.633  1.00  0.00    -0.136 C  
BRANCH   5   6
HETATM    6  P   UNL     1      -9.579  15.760  65.849  1.00  0.00    -0.281 P  
BRANCH   6   7
HETATM    7  C   UNL     1      -8.002  16.657  66.257  1.00  0.00    -0.305 C  
BRANCH   7   8
HETATM    8  C   UNL     1      -7.283  15.994  67.432  1.00  0.00    -0.187 C  
BRANCH   8   9
HETATM    9  O   UNL     1      -7.239  16.886  68.549  1.00  0.00    -0.179 OA 
BRANCH   9  10
HETATM   10  C   UNL     1      -6.309  16.412  69.524  1.00  0.00    -0.203 C  
HETATM   11  C   UNL     1      -6.636  14.976  69.879  1.00  0.00    -0.170 C  
ENDBRANCH   9  10
ENDBRANCH   8   9
ENDBRANCH   7   8
ENDBRANCH   6   7
BRANCH   6  12
HETATM   12  C   UNL     1     -10.015  15.193  67.562  1.00  0.00    -0.225 C  
BRANCH  12  13
HETATM   13  C   UNL     1     -11.482  14.815  67.707  1.00  0.00    -0.345 C  
BRANCH  13  14
HETATM   14  P   UNL     1     -11.752  12.986  67.823  1.00  0.00    -0.322 P  
BRANCH  14  15
HETATM   15  C   UNL     1     -10.050  12.320  67.496  1.00  0.00    -0.201 C  
BRANCH  15  16
HETATM   16  C   UNL     1     -10.029  11.467  66.225  1.00  0.00    -0.224 C  
BRANCH  16  17
HETATM   17  O   UNL     1     -10.040  12.302  65.064  1.00  0.00    -0.271 OA 
BRANCH  17  18
HETATM   18  C   UNL     1     -10.687  11.632  63.979  1.00  0.00    -0.384 C  
HETATM   19  C   UNL     1     -12.010  12.305  63.679  1.00  0.00    -0.633 C  
ENDBRANCH  17  18
ENDBRANCH  16  17
ENDBRANCH  15  16
ENDBRANCH  14  15
BRANCH  14  20
HETATM   20  C   UNL     1     -11.809  12.805  69.672  1.00  0.00    -0.317 C  
BRANCH  20  21
HETATM   21  C   UNL     1     -12.303  14.075  70.361  1.00  0.00    -0.359 C  
BRANCH  21  22
HETATM   22  O   UNL     1     -12.047  13.990  71.762  1.00  0.00    -0.196 OA 
BRANCH  22  23
HETATM   23  C   UNL     1     -12.056  15.289  72.359  1.00  0.00    -0.405 C  
HETATM   24  C   UNL     1     -13.479  15.652  72.736  1.00  0.00    -0.662 C  
ENDBRANCH  22  23
ENDBRANCH  21  22
ENDBRANCH  20  21
ENDBRANCH  14  20
ENDBRANCH  13  14
ENDBRANCH  12  13
ENDBRANCH   6  12
ENDBRANCH   5   6
ENDBRANCH   4   5
ENDBRANCH   3   4
ENDBRANCH   2   3
TORSDOF 19
ENDMDL
MODEL      118
REMARK 921   NORMALIZED FREE ENERGY PREDICTED BY IDOCK:   -3.59 KCAL/MOL
REMARK 922        TOTAL FREE ENERGY PREDICTED BY IDOCK:   -8.82 KCAL/MOL
REMARK 923 INTER-LIGAND FREE ENERGY PREDICTED BY IDOCK:   -7.80 KCAL/MOL
REMARK 924 INTRA-LIGAND FREE ENERGY PREDICTED BY IDOCK:   -1.02 KCAL/MOL
REMARK 927      BINDING AFFINITY PREDICTED BY RF-SCORE:    0.00 PKD
ROOT
HETATM    1  C   UNL     1      -5.538  12.215  67.370  1.00  0.00    -0.128 C  
HETATM    2  C   UNL     1      -7.015  12.404  67.648  1.00  0.00    -0.132 C  
ENDROOT
BRANCH   2   3
HETATM    3  O   UNL     1      -7.298  12.067  69.009  1.00  0.00    -0.096 OA 
BRANCH   3   4
HETATM    4  C   UNL     1      -8.084  10.874  69.064  1.00  0.00    -0.126 C  
BRANCH   4   5
HETATM    5  C   UNL     1      -8.980  10.761  67.833  1.00  0.00    -0.139 C  
BRANCH   5   6
HETATM    6  P   UNL     1     -10.674  10.137  68.256  1.00  0.00    -0.243 P  
BRANCH   6   7
HETATM    7  C   UNL     1     -10.624  10.136  70.114  1.00  0.00    -0.281 C  
BRANCH   7   8
HETATM    8  C   UNL     1     -11.863  10.817  70.696  1.00  0.00    -0.360 C  
BRANCH   8   9
HETATM    9  O   UNL     1     -12.852   9.839  71.028  1.00  0.00    -0.323 OA 
BRANCH   9  10
HETATM   10  C   UNL     1     -12.290   8.831  71.870  1.00  0.00    -0.363 C  
HETATM   11  C   UNL     1     -12.878   7.483  71.509  1.00  0.00    -0.397 C  
ENDBRANCH   9  10
ENDBRANCH   8   9
ENDBRANCH   7   8
ENDBRANCH   6   7
BRANCH   6  12
HETATM   12  C   UNL     1     -11.685  11.676  68.016  1.00  0.00    -0.281 C  
BRANCH  12  13
HETATM   13  C   UNL     1     -10.872  12.840  67.469  1.00  0.00    -0.239 C  
BRANCH  13  14
HETATM   14  P   UNL     1     -11.908  14.326  67.077  1.00  0.00    -0.383 P  
BRANCH  14  15
HETATM   15  C   UNL     1     -11.589  15.420  68.543  1.00  0.00    -0.359 C  
BRANCH  15  16
HETATM   16  C   UNL     1     -12.018  14.733  69.843  1.00  0.00    -0.328 C  
BRANCH  16  17
HETATM   17  O   UNL     1     -12.482  15.702  70.788  1.00  0.00    -0.415 OA 
BRANCH  17  18
HETATM   18  C   UNL     1     -13.584  15.178  71.533  1.00  0.00    -0.477 C  
HETATM   19  C   UNL     1     -13.398  15.487  73.004  1.00  0.00    -0.650 C  
ENDBRANCH  17  18
ENDBRANCH  16  17
ENDBRANCH  15  16
ENDBRANCH  14  15
BRANCH  14  20
HETATM   20  C   UNL     1     -10.801  15.146  65.828  1.00  0.00    -0.353 C  
BRANCH  20  21
HETATM   21  C   UNL     1     -10.253  16.480  66.331  1.00  0.00    -0.316 C  
BRANCH  21  22
HETATM   22  O   UNL     1     -10.555  17.507  65.386  1.00  0.00    -0.648 OA 
BRANCH  22  23
HETATM   23  C   UNL     1     -10.471  18.797  65.998  1.00  0.00    -0.432 C  
HETATM   24  C   UNL     1      -9.547  18.719  67.197  1.00  0.00    -0.328 C  
ENDBRANCH  22  23
ENDBRANCH  21  22
ENDBRANCH  20  21
ENDBRANCH  14  20
ENDBRANCH  13  14
ENDBRANCH  12  13
ENDBRANCH   6  12
ENDBRANCH   5   6
ENDBRANCH   4   5
ENDBRANCH   3   4
ENDBRANCH   2   3
TORSDOF 19
ENDMDL
MODEL      119
REMARK 921   NORMALIZED FREE ENERGY PREDICTED BY IDOCK:   -3.58 KCAL/MOL
REMARK 922        TOTAL FREE ENERGY PREDICTED BY IDOCK:   -8.81 KCAL/MOL
REMARK 923 INTER-LIGAND FREE ENERGY PREDICTED BY IDOCK:   -7.85 KCAL/MOL
REMARK 924 INTRA-LIGAND FREE ENERGY PREDICTED BY IDOCK:   -0.97 KCAL/MOL
REMARK 927      BINDING AFFINITY PREDICTED BY RF-SCORE:    0.00 PKD
ROOT
HETATM    1  C   UNL     1      -7.621  10.042  63.336  1.00  0.00    -0.142 C  
HETATM    2  C   UNL     1      -9.117  10.264  63.419  1.00  0.00    -0.262 C  
ENDROOT
BRANCH   2   3
HETATM    3  O   UNL     1      -9.457  11.502  62.791  1.00  0.00    -0.373 OA 
BRANCH   3   4
HETATM    4  C   UNL     1     -10.549  12.117  63.480  1.00  0.00    -0.458 C  
BRANCH   4   5
HETATM    5  C   UNL     1     -10.225  12.285  64.962  1.00  0.00    -0.285 C  
BRANCH   5   6
HETATM    6  P   UNL     1     -11.708  12.806  65.947  1.00  0.00    -0.442 P  
BRANCH   6   7
HETATM    7  C   UNL     1     -11.401  11.956  67.572  1.00  0.00    -0.314 C  
BRANCH   7   8
HETATM    8  C   UNL     1     -10.704  10.612  67.364  1.00  0.00    -0.276 C  
BRANCH   8   9
HETATM    9  O   UNL     1      -9.852  10.321  68.475  1.00  0.00    -0.155 OA 
BRANCH   9  10
HETATM   10  C   UNL     1      -8.554  10.879  68.263  1.00  0.00    -0.139 C  
HETATM   11  C   UNL     1      -7.866  10.143  67.131  1.00  0.00    -0.099 C  
ENDBRANCH   9  10
ENDBRANCH   8   9
ENDBRANCH   7   8
ENDBRANCH   6   7
BRANCH   6  12
HETATM   12  C   UNL     1     -11.211  14.525  66.447  1.00  0.00    -0.341 C  
BRANCH  12  13
HETATM   13  C   UNL     1     -11.715  14.910  67.829  1.00  0.00    -0.317 C  
BRANCH  13  14
HETATM   14  P   UNL     1     -10.366  15.498  68.955  1.00  0.00    -0.267 P  
BRANCH  14  15
HETATM   15  C   UNL     1     -10.609  17.338  68.924  1.00  0.00    -0.276 C  
BRANCH  15  16
HETATM   16  C   UNL     1      -9.435  18.035  68.232  1.00  0.00    -0.302 C  
BRANCH  16  17
HETATM   17  O   UNL     1      -9.632  19.452  68.223  1.00  0.00    -0.336 OA 
BRANCH  17  18
HETATM   18  C   UNL     1      -9.316  19.986  66.935  1.00  0.00    -0.393 C  
HETATM   19  C   UNL     1     -10.436  19.675  65.964  1.00  0.00    -0.622 C  
ENDBRANCH  17  18
ENDBRANCH  16  17
ENDBRANCH  15  16
ENDBRANCH  14  15
BRANCH  14  20
HETATM   20  C   UNL     1     -11.149  15.106  70.595  1.00  0.00    -0.263 C  
BRANCH  20  21
HETATM   21  C   UNL     1     -12.523  14.459  70.438  1.00  0.00    -0.357 C  
BRANCH  21  22
HETATM   22  O   UNL     1     -12.858  13.752  71.633  1.00  0.00    -0.341 OA 
BRANCH  22  23
HETATM   23  C   UNL     1     -14.146  14.148  72.111  1.00  0.00    -0.549 C  
HETATM   24  C   UNL     1     -14.061  15.561  72.653  1.00  0.00    -0.536 C  
ENDBRANCH  22  23
ENDBRANCH  21  22
ENDBRANCH  20  21
ENDBRANCH  14  20
ENDBRANCH  13  14
ENDBRANCH  12  13
ENDBRANCH   6  12
ENDBRANCH   5   6
ENDBRANCH   4   5
ENDBRANCH   3   4
ENDBRANCH   2   3
TORSDOF 19
ENDMDL
MODEL      120
REMARK 921   NORMALIZED FREE ENERGY PREDICTED BY IDOCK:   -3.58 KCAL/MOL
REMARK 922        TOTAL FREE ENERGY PREDICTED BY IDOCK:   -8.81 KCAL/MOL
REMARK 923 INTER-LIGAND FREE ENERGY PREDICTED BY IDOCK:   -7.95 KCAL/MOL
REMARK 924 INTRA-LIGAND FREE ENERGY PREDICTED BY IDOCK:   -0.87 KCAL/MOL
REMARK 927      BINDING AFFINITY PREDICTED BY RF-SCORE:    0.00 PKD
ROOT
HETATM    1  C   UNL     1      -6.987  10.811  66.935  1.00  0.00    -0.109 C  
HETATM    2  C   UNL     1      -7.451  10.104  65.679  1.00  0.00    -0.144 C  
ENDROOT
BRANCH   2   3
HETATM    3  O   UNL     1      -8.651   9.375  65.950  1.00  0.00    -0.131 OA 
BRANCH   3   4
HETATM    4  C   UNL     1      -9.684  10.271  66.370  1.00  0.00    -0.201 C  
BRANCH   4   5
HETATM    5  C   UNL     1     -10.690   9.553  67.265  1.00  0.00    -0.199 C  
BRANCH   5   6
HETATM    6  P   UNL     1     -11.227  10.604  68.695  1.00  0.00    -0.267 P  
BRANCH   6   7
HETATM    7  C   UNL     1     -10.156   9.951  70.068  1.00  0.00    -0.260 C  
BRANCH   7   8
HETATM    8  C   UNL     1     -11.006   9.468  71.243  1.00  0.00    -0.370 C  
BRANCH   8   9
HETATM    9  O   UNL     1     -11.701   8.269  70.888  1.00  0.00    -0.280 OA 
BRANCH   9  10
HETATM   10  C   UNL     1     -10.788   7.174  70.805  1.00  0.00    -0.244 C  
HETATM   11  C   UNL     1     -11.193   6.263  69.664  1.00  0.00    -0.506 C  
ENDBRANCH   9  10
ENDBRANCH   8   9
ENDBRANCH   7   8
ENDBRANCH   6   7
BRANCH   6  12
HETATM   12  C   UNL     1     -10.293  12.171  68.350  1.00  0.00    -0.229 C  
BRANCH  12  13
HETATM   13  C   UNL     1     -11.183  13.405  68.347  1.00  0.00    -0.279 C  
BRANCH  13  14
HETATM   14  P   UNL     1     -10.280  14.952  68.820  1.00  0.00    -0.251 P  
BRANCH  14  15
HETATM   15  C   UNL     1     -10.010  15.763  67.172  1.00  0.00    -0.242 C  
BRANCH  15  16
HETATM   16  C   UNL     1     -10.178  17.281  67.274  1.00  0.00    -0.320 C  
BRANCH  16  17
HETATM   17  O   UNL     1      -9.778  17.910  66.053  1.00  0.00    -0.505 OA 
BRANCH  17  18
HETATM   18  C   UNL     1      -9.824  19.332  66.190  1.00  0.00    -0.367 C  
HETATM   19  C   UNL     1     -10.712  19.703  67.360  1.00  0.00    -0.563 C  
ENDBRANCH  17  18
ENDBRANCH  16  17
ENDBRANCH  15  16
ENDBRANCH  14  15
BRANCH  14  20
HETATM   20  C   UNL     1     -11.713  15.963  69.436  1.00  0.00    -0.343 C  
BRANCH  20  21
HETATM   21  C   UNL     1     -12.243  15.455  70.776  1.00  0.00    -0.381 C  
BRANCH  21  22
HETATM   22  O   UNL     1     -13.663  15.595  70.812  1.00  0.00    -0.490 OA 
BRANCH  22  23
HETATM   23  C   UNL     1     -14.189  15.102  72.047  1.00  0.00    -0.577 C  
HETATM   24  C   UNL     1     -13.720  13.675  72.252  1.00  0.00    -0.687 C  
ENDBRANCH  22  23
ENDBRANCH  21  22
ENDBRANCH  20  21
ENDBRANCH  14  20
ENDBRANCH  13  14
ENDBRANCH  12  13
ENDBRANCH   6  12
ENDBRANCH   5   6
ENDBRANCH   4   5
ENDBRANCH   3   4
ENDBRANCH   2   3
TORSDOF 19
ENDMDL
MODEL      121
REMARK 921   NORMALIZED FREE ENERGY PREDICTED BY IDOCK:   -3.56 KCAL/MOL
REMARK 922        TOTAL FREE ENERGY PREDICTED BY IDOCK:   -8.76 KCAL/MOL
REMARK 923 INTER-LIGAND FREE ENERGY PREDICTED BY IDOCK:   -7.65 KCAL/MOL
REMARK 924 INTRA-LIGAND FREE ENERGY PREDICTED BY IDOCK:   -1.12 KCAL/MOL
REMARK 927      BINDING AFFINITY PREDICTED BY RF-SCORE:    0.00 PKD
ROOT
HETATM    1  C   UNL     1     -14.365  14.620  71.795  1.00  0.00    -0.638 C  
HETATM    2  C   UNL     1     -13.827  13.366  72.453  1.00  0.00    -0.564 C  
ENDROOT
BRANCH   2   3
HETATM    3  O   UNL     1     -13.132  12.574  71.487  1.00  0.00    -0.381 OA 
BRANCH   3   4
HETATM    4  C   UNL     1     -13.088  11.209  71.913  1.00  0.00    -0.408 C  
BRANCH   4   5
HETATM    5  C   UNL     1     -12.769  10.287  70.739  1.00  0.00    -0.346 C  
BRANCH   5   6
HETATM    6  P   UNL     1     -11.228   9.297  71.027  1.00  0.00    -0.383 P  
BRANCH   6   7
HETATM    7  C   UNL     1     -11.710   7.638  70.338  1.00  0.00    -0.059 C  
BRANCH   7   8
HETATM    8  C   UNL     1     -11.922   6.620  71.458  1.00  0.00    -0.352 C  
BRANCH   8   9
HETATM    9  O   UNL     1     -10.800   5.737  71.540  1.00  0.00    -0.251 OA 
BRANCH   9  10
HETATM   10  C   UNL     1     -10.433   5.282  70.237  1.00  0.00    -0.261 C  
HETATM   11  C   UNL     1      -9.516   4.082  70.360  1.00  0.00    -0.252 C  
ENDBRANCH   9  10
ENDBRANCH   8   9
ENDBRANCH   7   8
ENDBRANCH   6   7
BRANCH   6  12
HETATM   12  C   UNL     1     -10.170   9.875  69.614  1.00  0.00    -0.237 C  
BRANCH  12  13
HETATM   13  C   UNL     1     -10.953  10.651  68.565  1.00  0.00    -0.248 C  
BRANCH  13  14
HETATM   14  P   UNL     1     -10.172  12.274  68.130  1.00  0.00    -0.217 P  
BRANCH  14  15
HETATM   15  C   UNL     1      -8.928  11.774  66.845  1.00  0.00    -0.195 C  
BRANCH  15  16
HETATM   16  C   UNL     1      -9.502  10.704  65.914  1.00  0.00    -0.196 C  
BRANCH  16  17
HETATM   17  O   UNL     1      -9.201  11.017  64.551  1.00  0.00    -0.206 OA 
BRANCH  17  18
HETATM   18  C   UNL     1      -9.111   9.819  63.776  1.00  0.00    -0.230 C  
HETATM   19  C   UNL     1      -8.363   8.760  64.560  1.00  0.00    -0.171 C  
ENDBRANCH  17  18
ENDBRANCH  16  17
ENDBRANCH  15  16
ENDBRANCH  14  15
BRANCH  14  20
HETATM   20  C   UNL     1     -11.501  12.964  67.029  1.00  0.00    -0.339 C  
BRANCH  20  21
HETATM   21  C   UNL     1     -10.961  14.018  66.065  1.00  0.00    -0.298 C  
BRANCH  21  22
HETATM   22  O   UNL     1     -11.256  13.634  64.722  1.00  0.00    -0.331 OA 
BRANCH  22  23
HETATM   23  C   UNL     1     -12.399  12.774  64.681  1.00  0.00    -0.459 C  
HETATM   24  C   UNL     1     -12.413  12.030  63.361  1.00  0.00    -0.625 C  
ENDBRANCH  22  23
ENDBRANCH  21  22
ENDBRANCH  20  21
ENDBRANCH  14  20
ENDBRANCH  13  14
ENDBRANCH  12  13
ENDBRANCH   6  12
ENDBRANCH   5   6
ENDBRANCH   4   5
ENDBRANCH   3   4
ENDBRANCH   2   3
TORSDOF 19
ENDMDL
MODEL      122
REMARK 921   NORMALIZED FREE ENERGY PREDICTED BY IDOCK:   -3.56 KCAL/MOL
REMARK 922        TOTAL FREE ENERGY PREDICTED BY IDOCK:   -8.76 KCAL/MOL
REMARK 923 INTER-LIGAND FREE ENERGY PREDICTED BY IDOCK:   -7.59 KCAL/MOL
REMARK 924 INTRA-LIGAND FREE ENERGY PREDICTED BY IDOCK:   -1.17 KCAL/MOL
REMARK 927      BINDING AFFINITY PREDICTED BY RF-SCORE:    0.00 PKD
ROOT
HETATM    1  C   UNL     1      -9.616  19.015  67.051  1.00  0.00    -0.364 C  
HETATM    2  C   UNL     1     -10.450  18.373  65.962  1.00  0.00    -0.374 C  
ENDROOT
BRANCH   2   3
HETATM    3  O   UNL     1      -9.884  17.110  65.601  1.00  0.00    -0.552 OA 
BRANCH   3   4
HETATM    4  C   UNL     1     -10.875  16.292  64.972  1.00  0.00    -0.320 C  
BRANCH   4   5
HETATM    5  C   UNL     1     -10.437  14.830  64.958  1.00  0.00    -0.416 C  
BRANCH   5   6
HETATM    6  P   UNL     1     -11.858  13.678  64.652  1.00  0.00    -0.442 P  
BRANCH   6   7
HETATM    7  C   UNL     1     -11.019  12.267  63.779  1.00  0.00    -0.435 C  
BRANCH   7   8
HETATM    8  C   UNL     1     -10.043  11.549  64.710  1.00  0.00    -0.269 C  
BRANCH   8   9
HETATM    9  O   UNL     1      -9.755  10.241  64.209  1.00  0.00    -0.304 OA 
BRANCH   9  10
HETATM   10  C   UNL     1      -9.155   9.440  65.229  1.00  0.00    -0.232 C  
HETATM   11  C   UNL     1     -10.140   9.243  66.363  1.00  0.00    -0.337 C  
ENDBRANCH   9  10
ENDBRANCH   8   9
ENDBRANCH   7   8
ENDBRANCH   6   7
BRANCH   6  12
HETATM   12  C   UNL     1     -12.037  12.889  66.323  1.00  0.00    -0.365 C  
BRANCH  12  13
HETATM   13  C   UNL     1     -12.332  13.896  67.426  1.00  0.00    -0.117 C  
BRANCH  13  14
HETATM   14  P   UNL     1     -11.093  13.848  68.802  1.00  0.00    -0.287 P  
BRANCH  14  15
HETATM   15  C   UNL     1     -12.033  12.971  70.141  1.00  0.00    -0.303 C  
BRANCH  15  16
HETATM   16  C   UNL     1     -12.574  13.965  71.172  1.00  0.00    -0.370 C  
BRANCH  16  17
HETATM   17  O   UNL     1     -12.060  15.275  70.918  1.00  0.00    -0.289 OA 
BRANCH  17  18
HETATM   18  C   UNL     1     -11.949  16.008  72.140  1.00  0.00    -0.538 C  
HETATM   19  C   UNL     1     -12.815  15.364  73.203  1.00  0.00    -0.606 C  
ENDBRANCH  17  18
ENDBRANCH  16  17
ENDBRANCH  15  16
ENDBRANCH  14  15
BRANCH  14  20
HETATM   20  C   UNL     1     -10.026  12.449  68.200  1.00  0.00    -0.215 C  
BRANCH  20  21
HETATM   21  C   UNL     1      -8.545  12.822  68.177  1.00  0.00    -0.185 C  
BRANCH  21  22
HETATM   22  O   UNL     1      -7.810  11.818  67.478  1.00  0.00    -0.131 OA 
BRANCH  22  23
HETATM   23  C   UNL     1      -6.525  11.624  68.075  1.00  0.00    -0.055 C  
HETATM   24  C   UNL     1      -5.497  12.439  67.317  1.00  0.00    -0.087 C  
ENDBRANCH  22  23
ENDBRANCH  21  22
ENDBRANCH  20  21
ENDBRANCH  14  20
ENDBRANCH  13  14
ENDBRANCH  12  13
ENDBRANCH   6  12
ENDBRANCH   5   6
ENDBRANCH   4   5
ENDBRANCH   3   4
ENDBRANCH   2   3
TORSDOF 19
ENDMDL
MODEL      123
REMARK 921   NORMALIZED FREE ENERGY PREDICTED BY IDOCK:   -3.56 KCAL/MOL
REMARK 922        TOTAL FREE ENERGY PREDICTED BY IDOCK:   -8.76 KCAL/MOL
REMARK 923 INTER-LIGAND FREE ENERGY PREDICTED BY IDOCK:   -7.67 KCAL/MOL
REMARK 924 INTRA-LIGAND FREE ENERGY PREDICTED BY IDOCK:   -1.08 KCAL/MOL
REMARK 927      BINDING AFFINITY PREDICTED BY RF-SCORE:    0.00 PKD
ROOT
HETATM    1  C   UNL     1     -13.244   8.550  72.180  1.00  0.00    -0.384 C  
HETATM    2  C   UNL     1     -11.749   8.379  72.009  1.00  0.00    -0.352 C  
ENDROOT
BRANCH   2   3
HETATM    3  O   UNL     1     -11.323   9.023  70.805  1.00  0.00    -0.261 OA 
BRANCH   3   4
HETATM    4  C   UNL     1     -11.696  10.403  70.831  1.00  0.00    -0.360 C  
BRANCH   4   5
HETATM    5  C   UNL     1     -11.906  10.932  69.414  1.00  0.00    -0.328 C  
BRANCH   5   6
HETATM    6  P   UNL     1     -10.302  11.309  68.564  1.00  0.00    -0.215 P  
BRANCH   6   7
HETATM    7  C   UNL     1     -10.454  10.305  67.007  1.00  0.00    -0.244 C  
BRANCH   7   8
HETATM    8  C   UNL     1     -10.568   8.814  67.325  1.00  0.00    -0.233 C  
BRANCH   8   9
HETATM    9  O   UNL     1      -9.521   8.419  68.215  1.00  0.00    -0.138 OA 
BRANCH   9  10
HETATM   10  C   UNL     1      -9.553   7.006  68.421  1.00  0.00    -0.135 C  
HETATM   11  C   UNL     1     -10.950   6.486  68.148  1.00  0.00    -0.365 C  
ENDBRANCH   9  10
ENDBRANCH   8   9
ENDBRANCH   7   8
ENDBRANCH   6   7
BRANCH   6  12
HETATM   12  C   UNL     1     -10.671  12.980  67.842  1.00  0.00    -0.235 C  
BRANCH  12  13
HETATM   13  C   UNL     1      -9.626  14.025  68.200  1.00  0.00    -0.220 C  
BRANCH  13  14
HETATM   14  P   UNL     1     -10.277  15.346  69.325  1.00  0.00    -0.279 P  
BRANCH  14  15
HETATM   15  C   UNL     1     -10.535  16.763  68.153  1.00  0.00    -0.332 C  
BRANCH  15  16
HETATM   16  C   UNL     1     -10.214  16.349  66.714  1.00  0.00    -0.285 C  
BRANCH  16  17
HETATM   17  O   UNL     1     -11.398  15.900  66.049  1.00  0.00    -0.014 OA 
BRANCH  17  18
HETATM   18  C   UNL     1     -11.058  15.231  64.832  1.00  0.00    -0.424 C  
HETATM   19  C   UNL     1     -12.127  14.212  64.494  1.00  0.00    -0.489 C  
ENDBRANCH  17  18
ENDBRANCH  16  17
ENDBRANCH  15  16
ENDBRANCH  14  15
BRANCH  14  20
HETATM   20  C   UNL     1     -12.032  14.758  69.497  1.00  0.00    -0.311 C  
BRANCH  20  21
HETATM   21  C   UNL     1     -12.760  15.445  70.651  1.00  0.00    -0.437 C  
BRANCH  21  22
HETATM   22  O   UNL     1     -12.186  15.034  71.891  1.00  0.00    -0.318 OA 
BRANCH  22  23
HETATM   23  C   UNL     1     -13.130  15.170  72.956  1.00  0.00    -0.502 C  
HETATM   24  C   UNL     1     -12.405  15.616  74.210  1.00  0.00    -0.813 C  
ENDBRANCH  22  23
ENDBRANCH  21  22
ENDBRANCH  20  21
ENDBRANCH  14  20
ENDBRANCH  13  14
ENDBRANCH  12  13
ENDBRANCH   6  12
ENDBRANCH   5   6
ENDBRANCH   4   5
ENDBRANCH   3   4
ENDBRANCH   2   3
TORSDOF 19
ENDMDL
MODEL      124
REMARK 921   NORMALIZED FREE ENERGY PREDICTED BY IDOCK:   -3.55 KCAL/MOL
REMARK 922        TOTAL FREE ENERGY PREDICTED BY IDOCK:   -8.75 KCAL/MOL
REMARK 923 INTER-LIGAND FREE ENERGY PREDICTED BY IDOCK:   -7.36 KCAL/MOL
REMARK 924 INTRA-LIGAND FREE ENERGY PREDICTED BY IDOCK:   -1.39 KCAL/MOL
REMARK 927      BINDING AFFINITY PREDICTED BY RF-SCORE:    0.00 PKD
ROOT
HETATM    1  C   UNL     1      -8.883  15.232  68.372  1.00  0.00    -0.179 C  
HETATM    2  C   UNL     1      -9.822  16.378  68.056  1.00  0.00    -0.238 C  
ENDROOT
BRANCH   2   3
HETATM    3  O   UNL     1     -10.544  16.094  66.854  1.00  0.00    -0.309 OA 
BRANCH   3   4
HETATM    4  C   UNL     1      -9.693  15.426  65.919  1.00  0.00    -0.357 C  
BRANCH   4   5
HETATM    5  C   UNL     1     -10.498  14.470  65.043  1.00  0.00    -0.429 C  
BRANCH   5   6
HETATM    6  P   UNL     1     -11.958  13.762  65.940  1.00  0.00    -0.460 P  
BRANCH   6   7
HETATM    7  C   UNL     1     -12.644  12.583  64.676  1.00  0.00    -0.426 C  
BRANCH   7   8
HETATM    8  C   UNL     1     -11.763  12.546  63.427  1.00  0.00    -0.488 C  
BRANCH   8   9
HETATM    9  O   UNL     1     -11.175  11.251  63.278  1.00  0.00    -0.238 OA 
BRANCH   9  10
HETATM   10  C   UNL     1      -9.754  11.362  63.172  1.00  0.00    -0.393 C  
HETATM   11  C   UNL     1      -9.100  10.579  64.292  1.00  0.00    -0.256 C  
ENDBRANCH   9  10
ENDBRANCH   8   9
ENDBRANCH   7   8
ENDBRANCH   6   7
BRANCH   6  12
HETATM   12  C   UNL     1     -11.125  12.519  67.040  1.00  0.00    -0.281 C  
BRANCH  12  13
HETATM   13  C   UNL     1     -11.595  12.596  68.485  1.00  0.00    -0.323 C  
BRANCH  13  14
HETATM   14  P   UNL     1     -11.883  10.930  69.243  1.00  0.00    -0.245 P  
BRANCH  14  15
HETATM   15  C   UNL     1     -10.150  10.322  69.514  1.00  0.00    -0.235 C  
BRANCH  15  16
HETATM   16  C   UNL     1      -9.758   9.291  68.453  1.00  0.00    -0.154 C  
BRANCH  16  17
HETATM   17  O   UNL     1      -8.567   9.702  67.776  1.00  0.00    -0.125 OA 
BRANCH  17  18
HETATM   18  C   UNL     1      -7.890   8.565  67.234  1.00  0.00    -0.098 C  
HETATM   19  C   UNL     1      -6.421   8.887  67.045  1.00  0.00    -0.061 C  
ENDBRANCH  17  18
ENDBRANCH  16  17
ENDBRANCH  15  16
ENDBRANCH  14  15
BRANCH  14  20
HETATM   20  C   UNL     1     -12.305  11.456  70.976  1.00  0.00    -0.343 C  
BRANCH  20  21
HETATM   21  C   UNL     1     -13.125  10.400  71.715  1.00  0.00    -0.462 C  
BRANCH  21  22
HETATM   22  O   UNL     1     -12.277   9.315  72.093  1.00  0.00    -0.359 OA 
BRANCH  22  23
HETATM   23  C   UNL     1     -12.881   8.062  71.760  1.00  0.00    -0.332 C  
HETATM   24  C   UNL     1     -14.386   8.233  71.711  1.00  0.00    -0.574 C  
ENDBRANCH  22  23
ENDBRANCH  21  22
ENDBRANCH  20  21
ENDBRANCH  14  20
ENDBRANCH  13  14
ENDBRANCH  12  13
ENDBRANCH   6  12
ENDBRANCH   5   6
ENDBRANCH   4   5
ENDBRANCH   3   4
ENDBRANCH   2   3
TORSDOF 19
ENDMDL
MODEL      125
REMARK 921   NORMALIZED FREE ENERGY PREDICTED BY IDOCK:   -3.55 KCAL/MOL
REMARK 922        TOTAL FREE ENERGY PREDICTED BY IDOCK:   -8.74 KCAL/MOL
REMARK 923 INTER-LIGAND FREE ENERGY PREDICTED BY IDOCK:   -7.53 KCAL/MOL
REMARK 924 INTRA-LIGAND FREE ENERGY PREDICTED BY IDOCK:   -1.21 KCAL/MOL
REMARK 927      BINDING AFFINITY PREDICTED BY RF-SCORE:    0.00 PKD
ROOT
HETATM    1  C   UNL     1     -10.861   5.779  69.811  1.00  0.00    -0.419 C  
HETATM    2  C   UNL     1      -9.874   6.621  69.029  1.00  0.00    -0.144 C  
ENDROOT
BRANCH   2   3
HETATM    3  O   UNL     1     -10.456   7.891  68.726  1.00  0.00    -0.207 OA 
BRANCH   3   4
HETATM    4  C   UNL     1      -9.528   8.692  67.989  1.00  0.00    -0.140 C  
BRANCH   4   5
HETATM    5  C   UNL     1     -10.263   9.718  67.131  1.00  0.00    -0.228 C  
BRANCH   5   6
HETATM    6  P   UNL     1      -9.190  11.170  66.705  1.00  0.00    -0.185 P  
BRANCH   6   7
HETATM    7  C   UNL     1      -9.187  11.105  64.846  1.00  0.00    -0.155 C  
BRANCH   7   8
HETATM    8  C   UNL     1     -10.609  10.978  64.300  1.00  0.00    -0.331 C  
BRANCH   8   9
HETATM    9  O   UNL     1     -10.916  12.095  63.461  1.00  0.00    -0.411 OA 
BRANCH   9  10
HETATM   10  C   UNL     1     -12.183  12.650  63.819  1.00  0.00    -0.514 C  
HETATM   11  C   UNL     1     -12.045  14.147  64.008  1.00  0.00    -0.382 C  
ENDBRANCH   9  10
ENDBRANCH   8   9
ENDBRANCH   7   8
ENDBRANCH   6   7
BRANCH   6  12
HETATM   12  C   UNL     1     -10.392  12.569  66.922  1.00  0.00    -0.229 C  
BRANCH  12  13
HETATM   13  C   UNL     1     -11.465  12.274  67.959  1.00  0.00    -0.321 C  
BRANCH  13  14
HETATM   14  P   UNL     1     -11.212  13.197  69.546  1.00  0.00     0.081 P  
BRANCH  14  15
HETATM   15  C   UNL     1     -12.278  14.696  69.298  1.00  0.00    -0.212 C  
BRANCH  15  16
HETATM   16  C   UNL     1     -12.743  15.267  70.640  1.00  0.00    -0.416 C  
BRANCH  16  17
HETATM   17  O   UNL     1     -11.626  15.764  71.383  1.00  0.00    -0.371 OA 
BRANCH  17  18
HETATM   18  C   UNL     1     -12.024  16.085  72.718  1.00  0.00    -0.518 C  
HETATM   19  C   UNL     1     -13.443  15.612  72.956  1.00  0.00    -0.654 C  
ENDBRANCH  17  18
ENDBRANCH  16  17
ENDBRANCH  15  16
ENDBRANCH  14  15
BRANCH  14  20
HETATM   20  C   UNL     1     -12.324  12.201  70.654  1.00  0.00    -0.295 C  
BRANCH  20  21
HETATM   21  C   UNL     1     -12.342  10.722  70.275  1.00  0.00    -0.341 C  
BRANCH  21  22
HETATM   22  O   UNL     1     -11.369  10.018  71.047  1.00  0.00    -0.347 OA 
BRANCH  22  23
HETATM   23  C   UNL     1     -11.975   8.934  71.756  1.00  0.00    -0.359 C  
HETATM   24  C   UNL     1     -10.897   8.148  72.476  1.00  0.00    -0.431 C  
ENDBRANCH  22  23
ENDBRANCH  21  22
ENDBRANCH  20  21
ENDBRANCH  14  20
ENDBRANCH  13  14
ENDBRANCH  12  13
ENDBRANCH   6  12
ENDBRANCH   5   6
ENDBRANCH   4   5
ENDBRANCH   3   4
ENDBRANCH   2   3
TORSDOF 19
ENDMDL
MODEL      126
REMARK 921   NORMALIZED FREE ENERGY PREDICTED BY IDOCK:   -3.55 KCAL/MOL
REMARK 922        TOTAL FREE ENERGY PREDICTED BY IDOCK:   -8.74 KCAL/MOL
REMARK 923 INTER-LIGAND FREE ENERGY PREDICTED BY IDOCK:   -7.75 KCAL/MOL
REMARK 924 INTRA-LIGAND FREE ENERGY PREDICTED BY IDOCK:   -0.99 KCAL/MOL
REMARK 927      BINDING AFFINITY PREDICTED BY RF-SCORE:    0.00 PKD
ROOT
HETATM    1  C   UNL     1     -10.688  19.570  67.186  1.00  0.00    -0.599 C  
HETATM    2  C   UNL     1      -9.323  20.174  66.927  1.00  0.00    -0.394 C  
ENDROOT
BRANCH   2   3
HETATM    3  O   UNL     1      -8.377  19.136  66.659  1.00  0.00    -0.275 OA 
BRANCH   3   4
HETATM    4  C   UNL     1      -9.061  17.908  66.393  1.00  0.00    -0.235 C  
BRANCH   4   5
HETATM    5  C   UNL     1      -8.085  16.734  66.404  1.00  0.00    -0.320 C  
BRANCH   5   6
HETATM    6  P   UNL     1      -8.233  15.716  67.947  1.00  0.00    -0.159 P  
BRANCH   6   7
HETATM    7  C   UNL     1      -7.050  16.585  69.088  1.00  0.00    -0.227 C  
BRANCH   7   8
HETATM    8  C   UNL     1      -6.059  15.598  69.705  1.00  0.00    -0.157 C  
BRANCH   8   9
HETATM    9  O   UNL     1      -6.270  14.289  69.170  1.00  0.00    -0.090 OA 
BRANCH   9  10
HETATM   10  C   UNL     1      -6.026  13.299  70.171  1.00  0.00    -0.139 C  
HETATM   11  C   UNL     1      -5.548  13.972  71.441  1.00  0.00    -0.232 C  
ENDBRANCH   9  10
ENDBRANCH   8   9
ENDBRANCH   7   8
ENDBRANCH   6   7
BRANCH   6  12
HETATM   12  C   UNL     1      -9.819  16.378  68.653  1.00  0.00    -0.234 C  
BRANCH  12  13
HETATM   13  C   UNL     1     -10.388  15.501  69.758  1.00  0.00    -0.309 C  
BRANCH  13  14
HETATM   14  P   UNL     1     -12.136  14.975  69.439  1.00  0.00    -0.168 P  
BRANCH  14  15
HETATM   15  C   UNL     1     -11.908  13.579  68.236  1.00  0.00    -0.366 C  
BRANCH  15  16
HETATM   16  C   UNL     1     -12.188  14.039  66.803  1.00  0.00    -0.404 C  
BRANCH  16  17
HETATM   17  O   UNL     1     -12.499  12.917  65.972  1.00  0.00    -0.509 OA 
BRANCH  17  18
HETATM   18  C   UNL     1     -11.584  12.845  64.876  1.00  0.00    -0.327 C  
HETATM   19  C   UNL     1     -12.317  12.397  63.628  1.00  0.00    -0.647 C  
ENDBRANCH  17  18
ENDBRANCH  16  17
ENDBRANCH  15  16
ENDBRANCH  14  15
BRANCH  14  20
HETATM   20  C   UNL     1     -12.448  14.003  70.992  1.00  0.00    -0.371 C  
BRANCH  20  21
HETATM   21  C   UNL     1     -12.478  12.498  70.735  1.00  0.00    -0.268 C  
BRANCH  21  22
HETATM   22  O   UNL     1     -13.245  11.854  71.751  1.00  0.00    -0.454 OA 
BRANCH  22  23
HETATM   23  C   UNL     1     -13.020  10.442  71.737  1.00  0.00    -0.475 C  
HETATM   24  C   UNL     1     -11.601  10.170  71.279  1.00  0.00    -0.387 C  
ENDBRANCH  22  23
ENDBRANCH  21  22
ENDBRANCH  20  21
ENDBRANCH  14  20
ENDBRANCH  13  14
ENDBRANCH  12  13
ENDBRANCH   6  12
ENDBRANCH   5   6
ENDBRANCH   4   5
ENDBRANCH   3   4
ENDBRANCH   2   3
TORSDOF 19
ENDMDL
MODEL      127
REMARK 921   NORMALIZED FREE ENERGY PREDICTED BY IDOCK:   -3.54 KCAL/MOL
REMARK 922        TOTAL FREE ENERGY PREDICTED BY IDOCK:   -8.73 KCAL/MOL
REMARK 923 INTER-LIGAND FREE ENERGY PREDICTED BY IDOCK:   -7.78 KCAL/MOL
REMARK 924 INTRA-LIGAND FREE ENERGY PREDICTED BY IDOCK:   -0.95 KCAL/MOL
REMARK 927      BINDING AFFINITY PREDICTED BY RF-SCORE:    0.00 PKD
ROOT
HETATM    1  C   UNL     1      -9.904   5.664  68.137  1.00  0.00    -0.170 C  
HETATM    2  C   UNL     1     -10.986   6.155  67.197  1.00  0.00    -0.331 C  
ENDROOT
BRANCH   2   3
HETATM    3  O   UNL     1     -10.881   7.572  67.038  1.00  0.00    -0.348 OA 
BRANCH   3   4
HETATM    4  C   UNL     1      -9.563   7.920  66.607  1.00  0.00    -0.226 C  
BRANCH   4   5
HETATM    5  C   UNL     1      -9.351   9.430  66.683  1.00  0.00    -0.163 C  
BRANCH   5   6
HETATM    6  P   UNL     1     -10.777  10.296  67.493  1.00  0.00    -0.271 P  
BRANCH   6   7
HETATM    7  C   UNL     1      -9.996  10.926  69.059  1.00  0.00    -0.191 C  
BRANCH   7   8
HETATM    8  C   UNL     1      -9.113   9.856  69.700  1.00  0.00    -0.227 C  
BRANCH   8   9
HETATM    9  O   UNL     1      -9.920   8.795  70.216  1.00  0.00    -0.177 OA 
BRANCH   9  10
HETATM   10  C   UNL     1     -10.783   9.285  71.244  1.00  0.00    -0.352 C  
HETATM   11  C   UNL     1     -11.757   8.197  71.649  1.00  0.00    -0.330 C  
ENDBRANCH   9  10
ENDBRANCH   8   9
ENDBRANCH   7   8
ENDBRANCH   6   7
BRANCH   6  12
HETATM   12  C   UNL     1     -10.801  11.893  66.546  1.00  0.00    -0.278 C  
BRANCH  12  13
HETATM   13  C   UNL     1     -10.449  13.098  67.405  1.00  0.00    -0.242 C  
BRANCH  13  14
HETATM   14  P   UNL     1     -11.459  14.598  67.000  1.00  0.00    -0.334 P  
BRANCH  14  15
HETATM   15  C   UNL     1     -11.667  15.388  68.667  1.00  0.00    -0.354 C  
BRANCH  15  16
HETATM   16  C   UNL     1     -12.188  14.378  69.692  1.00  0.00    -0.307 C  
BRANCH  16  17
HETATM   17  O   UNL     1     -12.070  14.907  71.016  1.00  0.00    -0.281 OA 
BRANCH  17  18
HETATM   18  C   UNL     1     -13.167  14.471  71.822  1.00  0.00    -0.351 C  
HETATM   19  C   UNL     1     -13.347  15.414  72.994  1.00  0.00    -0.632 C  
ENDBRANCH  17  18
ENDBRANCH  16  17
ENDBRANCH  15  16
ENDBRANCH  14  15
BRANCH  14  20
HETATM   20  C   UNL     1     -10.123  15.684  66.302  1.00  0.00    -0.299 C  
BRANCH  20  21
HETATM   21  C   UNL     1     -10.200  17.111  66.839  1.00  0.00    -0.315 C  
BRANCH  21  22
HETATM   22  O   UNL     1     -10.302  18.028  65.749  1.00  0.00    -0.583 OA 
BRANCH  22  23
HETATM   23  C   UNL     1     -10.088  19.370  66.195  1.00  0.00    -0.452 C  
HETATM   24  C   UNL     1     -10.621  19.515  67.607  1.00  0.00    -0.566 C  
ENDBRANCH  22  23
ENDBRANCH  21  22
ENDBRANCH  20  21
ENDBRANCH  14  20
ENDBRANCH  13  14
ENDBRANCH  12  13
ENDBRANCH   6  12
ENDBRANCH   5   6
ENDBRANCH   4   5
ENDBRANCH   3   4
ENDBRANCH   2   3
TORSDOF 19
ENDMDL
MODEL      128
REMARK 921   NORMALIZED FREE ENERGY PREDICTED BY IDOCK:   -3.53 KCAL/MOL
REMARK 922        TOTAL FREE ENERGY PREDICTED BY IDOCK:   -8.70 KCAL/MOL
REMARK 923 INTER-LIGAND FREE ENERGY PREDICTED BY IDOCK:   -7.58 KCAL/MOL
REMARK 924 INTRA-LIGAND FREE ENERGY PREDICTED BY IDOCK:   -1.12 KCAL/MOL
REMARK 927      BINDING AFFINITY PREDICTED BY RF-SCORE:    0.00 PKD
ROOT
HETATM    1  C   UNL     1     -13.459   9.010  72.261  1.00  0.00    -0.529 C  
HETATM    2  C   UNL     1     -13.263  10.453  71.844  1.00  0.00    -0.429 C  
ENDROOT
BRANCH   2   3
HETATM    3  O   UNL     1     -13.151  10.534  70.421  1.00  0.00    -0.279 OA 
BRANCH   3   4
HETATM    4  C   UNL     1     -11.916  11.159  70.061  1.00  0.00    -0.367 C  
BRANCH   4   5
HETATM    5  C   UNL     1     -12.072  12.677  70.018  1.00  0.00    -0.269 C  
BRANCH   5   6
HETATM    6  P   UNL     1     -11.653  13.376  68.353  1.00  0.00    -0.373 P  
BRANCH   6   7
HETATM    7  C   UNL     1     -11.381  15.171  68.753  1.00  0.00    -0.300 C  
BRANCH   7   8
HETATM    8  C   UNL     1     -10.991  15.958  67.503  1.00  0.00    -0.280 C  
BRANCH   8   9
HETATM    9  O   UNL     1      -9.728  16.600  67.698  1.00  0.00    -0.244 OA 
BRANCH   9  10
HETATM   10  C   UNL     1      -9.903  17.838  68.388  1.00  0.00    -0.347 C  
HETATM   11  C   UNL     1     -10.452  18.878  67.432  1.00  0.00    -0.520 C  
ENDBRANCH   9  10
ENDBRANCH   8   9
ENDBRANCH   7   8
ENDBRANCH   6   7
BRANCH   6  12
HETATM   12  C   UNL     1      -9.875  12.864  68.194  1.00  0.00    -0.227 C  
BRANCH  12  13
HETATM   13  C   UNL     1      -9.428  12.711  66.748  1.00  0.00    -0.237 C  
BRANCH  13  14
HETATM   14  P   UNL     1      -8.856  10.996  66.344  1.00  0.00    -0.184 P  
BRANCH  14  15
HETATM   15  C   UNL     1     -10.221   9.955  67.049  1.00  0.00    -0.233 C  
BRANCH  15  16
HETATM   16  C   UNL     1      -9.693   8.592  67.503  1.00  0.00    -0.162 C  
BRANCH  16  17
HETATM   17  O   UNL     1     -10.451   8.109  68.617  1.00  0.00    -0.207 OA 
BRANCH  17  18
HETATM   18  C   UNL     1      -9.577   7.602  69.628  1.00  0.00    -0.160 C  
HETATM   19  C   UNL     1     -10.128   7.942  70.997  1.00  0.00    -0.212 C  
ENDBRANCH  17  18
ENDBRANCH  16  17
ENDBRANCH  15  16
ENDBRANCH  14  15
BRANCH  14  20
HETATM   20  C   UNL     1      -9.316  10.940  64.544  1.00  0.00    -0.223 C  
BRANCH  20  21
HETATM   21  C   UNL     1     -10.770  11.345  64.308  1.00  0.00    -0.356 C  
BRANCH  21  22
HETATM   22  O   UNL     1     -10.814  12.498  63.466  1.00  0.00    -0.440 OA 
BRANCH  22  23
HETATM   23  C   UNL     1     -12.126  13.068  63.458  1.00  0.00    -0.542 C  
HETATM   24  C   UNL     1     -12.269  14.001  64.644  1.00  0.00    -0.460 C  
ENDBRANCH  22  23
ENDBRANCH  21  22
ENDBRANCH  20  21
ENDBRANCH  14  20
ENDBRANCH  13  14
ENDBRANCH  12  13
ENDBRANCH   6  12
ENDBRANCH   5   6
ENDBRANCH   4   5
ENDBRANCH   3   4
ENDBRANCH   2   3
TORSDOF 19
ENDMDL
MODEL      129
REMARK 921   NORMALIZED FREE ENERGY PREDICTED BY IDOCK:   -3.52 KCAL/MOL
REMARK 922        TOTAL FREE ENERGY PREDICTED BY IDOCK:   -8.68 KCAL/MOL
REMARK 923 INTER-LIGAND FREE ENERGY PREDICTED BY IDOCK:   -7.53 KCAL/MOL
REMARK 924 INTRA-LIGAND FREE ENERGY PREDICTED BY IDOCK:   -1.15 KCAL/MOL
REMARK 927      BINDING AFFINITY PREDICTED BY RF-SCORE:    0.00 PKD
ROOT
HETATM    1  C   UNL     1     -13.225   9.950  71.339  1.00  0.00    -0.487 C  
HETATM    2  C   UNL     1     -11.751   9.603  71.353  1.00  0.00    -0.404 C  
ENDROOT
BRANCH   2   3
HETATM    3  O   UNL     1     -11.147  10.009  70.122  1.00  0.00    -0.265 OA 
BRANCH   3   4
HETATM    4  C   UNL     1     -10.021   9.176  69.832  1.00  0.00    -0.197 C  
BRANCH   4   5
HETATM    5  C   UNL     1      -9.659   9.255  68.351  1.00  0.00    -0.147 C  
BRANCH   5   6
HETATM    6  P   UNL     1      -8.640  10.754  67.959  1.00  0.00    -0.137 P  
BRANCH   6   7
HETATM    7  C   UNL     1      -7.994  10.340  66.266  1.00  0.00    -0.124 C  
BRANCH   7   8
HETATM    8  C   UNL     1      -8.065   8.836  66.005  1.00  0.00    -0.112 C  
BRANCH   8   9
HETATM    9  O   UNL     1      -8.308   8.587  64.617  1.00  0.00    -0.166 OA 
BRANCH   9  10
HETATM   10  C   UNL     1      -8.471   9.821  63.915  1.00  0.00    -0.184 C  
HETATM   11  C   UNL     1      -8.752   9.538  62.454  1.00  0.00    -0.236 C  
ENDBRANCH   9  10
ENDBRANCH   8   9
ENDBRANCH   7   8
ENDBRANCH   6   7
BRANCH   6  12
HETATM   12  C   UNL     1      -9.964  11.955  67.454  1.00  0.00    -0.190 C  
BRANCH  12  13
HETATM   13  C   UNL     1      -9.811  13.318  68.112  1.00  0.00    -0.231 C  
BRANCH  13  14
HETATM   14  P   UNL     1     -11.412  14.242  68.245  1.00  0.00    -0.343 P  
BRANCH  14  15
HETATM   15  C   UNL     1     -12.346  13.616  66.768  1.00  0.00    -0.305 C  
BRANCH  15  16
HETATM   16  C   UNL     1     -12.029  14.451  65.525  1.00  0.00    -0.358 C  
BRANCH  16  17
HETATM   17  O   UNL     1     -12.669  13.892  64.373  1.00  0.00    -0.656 OA 
BRANCH  17  18
HETATM   18  C   UNL     1     -12.482  12.474  64.344  1.00  0.00    -0.446 C  
HETATM   19  C   UNL     1     -11.291  12.134  63.473  1.00  0.00    -0.535 C  
ENDBRANCH  17  18
ENDBRANCH  16  17
ENDBRANCH  15  16
ENDBRANCH  14  15
BRANCH  14  20
HETATM   20  C   UNL     1     -12.229  13.240  69.581  1.00  0.00    -0.199 C  
BRANCH  20  21
HETATM   21  C   UNL     1     -12.279  13.986  70.912  1.00  0.00    -0.362 C  
BRANCH  21  22
HETATM   22  O   UNL     1     -12.514  15.374  70.675  1.00  0.00    -0.370 OA 
BRANCH  22  23
HETATM   23  C   UNL     1     -11.798  16.177  71.616  1.00  0.00    -0.487 C  
HETATM   24  C   UNL     1     -12.122  15.705  73.020  1.00  0.00    -0.590 C  
ENDBRANCH  22  23
ENDBRANCH  21  22
ENDBRANCH  20  21
ENDBRANCH  14  20
ENDBRANCH  13  14
ENDBRANCH  12  13
ENDBRANCH   6  12
ENDBRANCH   5   6
ENDBRANCH   4   5
ENDBRANCH   3   4
ENDBRANCH   2   3
TORSDOF 19
ENDMDL
MODEL      130
REMARK 921   NORMALIZED FREE ENERGY PREDICTED BY IDOCK:   -3.52 KCAL/MOL
REMARK 922        TOTAL FREE ENERGY PREDICTED BY IDOCK:   -8.68 KCAL/MOL
REMARK 923 INTER-LIGAND FREE ENERGY PREDICTED BY IDOCK:   -7.77 KCAL/MOL
REMARK 924 INTRA-LIGAND FREE ENERGY PREDICTED BY IDOCK:   -0.91 KCAL/MOL
REMARK 927      BINDING AFFINITY PREDICTED BY RF-SCORE:    0.00 PKD
ROOT
HETATM    1  C   UNL     1     -10.347  19.695  67.363  1.00  0.00    -0.581 C  
HETATM    2  C   UNL     1     -10.311  19.554  65.855  1.00  0.00    -0.470 C  
ENDROOT
BRANCH   2   3
HETATM    3  O   UNL     1     -10.665  18.219  65.486  1.00  0.00    -0.596 OA 
BRANCH   3   4
HETATM    4  C   UNL     1     -10.215  17.300  66.485  1.00  0.00    -0.325 C  
BRANCH   4   5
HETATM    5  C   UNL     1     -10.214  15.872  65.943  1.00  0.00    -0.352 C  
BRANCH   5   6
HETATM    6  P   UNL     1     -10.152  14.610  67.300  1.00  0.00    -0.238 P  
BRANCH   6   7
HETATM    7  C   UNL     1     -11.684  15.022  68.270  1.00  0.00    -0.314 C  
BRANCH   7   8
HETATM    8  C   UNL     1     -11.412  14.966  69.773  1.00  0.00    -0.295 C  
BRANCH   8   9
HETATM    9  O   UNL     1     -12.557  15.424  70.498  1.00  0.00    -0.394 OA 
BRANCH   9  10
HETATM   10  C   UNL     1     -12.721  14.661  71.695  1.00  0.00    -0.331 C  
HETATM   11  C   UNL     1     -14.086  14.942  72.290  1.00  0.00    -0.600 C  
ENDBRANCH   9  10
ENDBRANCH   8   9
ENDBRANCH   7   8
ENDBRANCH   6   7
BRANCH   6  12
HETATM   12  C   UNL     1     -10.793  13.110  66.412  1.00  0.00    -0.287 C  
BRANCH  12  13
HETATM   13  C   UNL     1     -11.749  12.282  67.259  1.00  0.00    -0.324 C  
BRANCH  13  14
HETATM   14  P   UNL     1     -11.080  10.606  67.678  1.00  0.00    -0.197 P  
BRANCH  14  15
HETATM   15  C   UNL     1      -9.449  10.605  66.790  1.00  0.00    -0.162 C  
BRANCH  15  16
HETATM   16  C   UNL     1      -9.493   9.693  65.562  1.00  0.00    -0.266 C  
BRANCH  16  17
HETATM   17  O   UNL     1      -9.696  10.465  64.375  1.00  0.00    -0.290 OA 
BRANCH  17  18
HETATM   18  C   UNL     1      -9.037   9.849  63.266  1.00  0.00    -0.266 C  
HETATM   19  C   UNL     1      -7.560   9.701  63.568  1.00  0.00    -0.123 C  
ENDBRANCH  17  18
ENDBRANCH  16  17
ENDBRANCH  15  16
ENDBRANCH  14  15
BRANCH  14  20
HETATM   20  C   UNL     1     -10.495  10.938  69.410  1.00  0.00    -0.173 C  
BRANCH  20  21
HETATM   21  C   UNL     1     -10.090   9.657  70.138  1.00  0.00    -0.262 C  
BRANCH  21  22
HETATM   22  O   UNL     1     -10.924   8.580  69.710  1.00  0.00    -0.219 OA 
BRANCH  22  23
HETATM   23  C   UNL     1     -11.295   7.757  70.818  1.00  0.00    -0.279 C  
HETATM   24  C   UNL     1     -11.993   8.610  71.859  1.00  0.00    -0.424 C  
ENDBRANCH  22  23
ENDBRANCH  21  22
ENDBRANCH  20  21
ENDBRANCH  14  20
ENDBRANCH  13  14
ENDBRANCH  12  13
ENDBRANCH   6  12
ENDBRANCH   5   6
ENDBRANCH   4   5
ENDBRANCH   3   4
ENDBRANCH   2   3
TORSDOF 19
ENDMDL
MODEL      131
REMARK 921   NORMALIZED FREE ENERGY PREDICTED BY IDOCK:   -3.51 KCAL/MOL
REMARK 922        TOTAL FREE ENERGY PREDICTED BY IDOCK:   -8.66 KCAL/MOL
REMARK 923 INTER-LIGAND FREE ENERGY PREDICTED BY IDOCK:   -7.64 KCAL/MOL
REMARK 924 INTRA-LIGAND FREE ENERGY PREDICTED BY IDOCK:   -1.02 KCAL/MOL
REMARK 927      BINDING AFFINITY PREDICTED BY RF-SCORE:    0.00 PKD
ROOT
HETATM    1  C   UNL     1      -8.590  10.893  62.355  1.00  0.00    -0.344 C  
HETATM    2  C   UNL     1      -9.552  10.421  63.425  1.00  0.00    -0.312 C  
ENDROOT
BRANCH   2   3
HETATM    3  O   UNL     1     -10.070  11.546  64.140  1.00  0.00    -0.262 OA 
BRANCH   3   4
HETATM    4  C   UNL     1     -11.376  11.873  63.659  1.00  0.00    -0.450 C  
BRANCH   4   5
HETATM    5  C   UNL     1     -11.703  13.338  63.936  1.00  0.00    -0.431 C  
BRANCH   5   6
HETATM    6  P   UNL     1     -10.857  13.968  65.460  1.00  0.00    -0.345 P  
BRANCH   6   7
HETATM    7  C   UNL     1     -10.949  15.808  65.212  1.00  0.00    -0.344 C  
BRANCH   7   8
HETATM    8  C   UNL     1      -9.949  16.533  66.112  1.00  0.00    -0.343 C  
BRANCH   8   9
HETATM    9  O   UNL     1     -10.575  16.909  67.341  1.00  0.00    -0.329 OA 
BRANCH   9  10
HETATM   10  C   UNL     1      -9.641  17.583  68.187  1.00  0.00    -0.294 C  
HETATM   11  C   UNL     1     -10.055  19.031  68.346  1.00  0.00    -0.471 C  
ENDBRANCH   9  10
ENDBRANCH   8   9
ENDBRANCH   7   8
ENDBRANCH   6   7
BRANCH   6  12
HETATM   12  C   UNL     1     -12.218  13.798  66.712  1.00  0.00    -0.397 C  
BRANCH  12  13
HETATM   13  C   UNL     1     -11.729  13.269  68.052  1.00  0.00    -0.359 C  
BRANCH  13  14
HETATM   14  P   UNL     1     -11.535  11.426  68.077  1.00  0.00    -0.269 P  
BRANCH  14  15
HETATM   15  C   UNL     1      -9.697  11.232  68.253  1.00  0.00    -0.198 C  
BRANCH  15  16
HETATM   16  C   UNL     1      -9.163  10.172  67.285  1.00  0.00    -0.138 C  
BRANCH  16  17
HETATM   17  O   UNL     1      -7.862   9.738  67.692  1.00  0.00    -0.094 OA 
BRANCH  17  18
HETATM   18  C   UNL     1      -7.730   8.327  67.502  1.00  0.00    -0.099 C  
HETATM   19  C   UNL     1      -8.689   7.596  68.419  1.00  0.00    -0.127 C  
ENDBRANCH  17  18
ENDBRANCH  16  17
ENDBRANCH  15  16
ENDBRANCH  14  15
BRANCH  14  20
HETATM   20  C   UNL     1     -12.055  11.091  69.830  1.00  0.00    -0.353 C  
BRANCH  20  21
HETATM   21  C   UNL     1     -11.087  10.153  70.549  1.00  0.00    -0.327 C  
BRANCH  21  22
HETATM   22  O   UNL     1     -11.740   9.563  71.673  1.00  0.00    -0.370 OA 
BRANCH  22  23
HETATM   23  C   UNL     1     -13.052  10.106  71.839  1.00  0.00    -0.466 C  
HETATM   24  C   UNL     1     -13.983   9.014  72.329  1.00  0.00    -0.522 C  
ENDBRANCH  22  23
ENDBRANCH  21  22
ENDBRANCH  20  21
ENDBRANCH  14  20
ENDBRANCH  13  14
ENDBRANCH  12  13
ENDBRANCH   6  12
ENDBRANCH   5   6
ENDBRANCH   4   5
ENDBRANCH   3   4
ENDBRANCH   2   3
TORSDOF 19
ENDMDL
MODEL      132
REMARK 921   NORMALIZED FREE ENERGY PREDICTED BY IDOCK:   -3.51 KCAL/MOL
REMARK 922        TOTAL FREE ENERGY PREDICTED BY IDOCK:   -8.66 KCAL/MOL
REMARK 923 INTER-LIGAND FREE ENERGY PREDICTED BY IDOCK:   -7.78 KCAL/MOL
REMARK 924 INTRA-LIGAND FREE ENERGY PREDICTED BY IDOCK:   -0.88 KCAL/MOL
REMARK 927      BINDING AFFINITY PREDICTED BY RF-SCORE:    0.00 PKD
ROOT
HETATM    1  C   UNL     1     -14.040   7.585  71.525  1.00  0.00    -0.550 C  
HETATM    2  C   UNL     1     -12.998   8.431  72.227  1.00  0.00    -0.301 C  
ENDROOT
BRANCH   2   3
HETATM    3  O   UNL     1     -11.705   8.158  71.680  1.00  0.00    -0.265 OA 
BRANCH   3   4
HETATM    4  C   UNL     1     -11.006   9.383  71.441  1.00  0.00    -0.373 C  
BRANCH   4   5
HETATM    5  C   UNL     1     -11.464  10.019  70.131  1.00  0.00    -0.277 C  
BRANCH   5   6
HETATM    6  P   UNL     1     -10.046  10.360  68.986  1.00  0.00    -0.234 P  
BRANCH   6   7
HETATM    7  C   UNL     1      -9.493   8.640  68.546  1.00  0.00    -0.142 C  
BRANCH   7   8
HETATM    8  C   UNL     1      -8.179   8.291  69.245  1.00  0.00    -0.118 C  
BRANCH   8   9
HETATM    9  O   UNL     1      -7.764   9.374  70.083  1.00  0.00    -0.099 OA 
BRANCH   9  10
HETATM   10  C   UNL     1      -6.370   9.631  69.905  1.00  0.00    -0.054 C  
HETATM   11  C   UNL     1      -6.094  11.104  70.130  1.00  0.00    -0.146 C  
ENDBRANCH   9  10
ENDBRANCH   8   9
ENDBRANCH   7   8
ENDBRANCH   6   7
BRANCH   6  12
HETATM   12  C   UNL     1     -10.951  10.760  67.415  1.00  0.00    -0.300 C  
BRANCH  12  13
HETATM   13  C   UNL     1     -10.639  12.152  66.888  1.00  0.00    -0.229 C  
BRANCH  13  14
HETATM   14  P   UNL     1     -11.777  13.453  67.557  1.00  0.00    -0.357 P  
BRANCH  14  15
HETATM   15  C   UNL     1     -10.633  14.901  67.763  1.00  0.00    -0.262 C  
BRANCH  15  16
HETATM   16  C   UNL     1     -11.340  16.062  68.467  1.00  0.00    -0.382 C  
BRANCH  16  17
HETATM   17  O   UNL     1     -10.479  17.203  68.531  1.00  0.00    -0.336 OA 
BRANCH  17  18
HETATM   18  C   UNL     1     -10.547  17.942  67.309  1.00  0.00    -0.332 C  
HETATM   19  C   UNL     1     -10.656  19.422  67.613  1.00  0.00    -0.575 C  
ENDBRANCH  17  18
ENDBRANCH  16  17
ENDBRANCH  15  16
ENDBRANCH  14  15
BRANCH  14  20
HETATM   20  C   UNL     1     -12.629  13.949  65.981  1.00  0.00    -0.423 C  
BRANCH  20  21
HETATM   21  C   UNL     1     -11.685  13.921  64.781  1.00  0.00    -0.386 C  
BRANCH  21  22
HETATM   22  O   UNL     1     -12.389  13.459  63.629  1.00  0.00    -0.680 OA 
BRANCH  22  23
HETATM   23  C   UNL     1     -12.157  12.064  63.419  1.00  0.00    -0.493 C  
HETATM   24  C   UNL     1     -10.664  11.814  63.345  1.00  0.00    -0.468 C  
ENDBRANCH  22  23
ENDBRANCH  21  22
ENDBRANCH  20  21
ENDBRANCH  14  20
ENDBRANCH  13  14
ENDBRANCH  12  13
ENDBRANCH   6  12
ENDBRANCH   5   6
ENDBRANCH   4   5
ENDBRANCH   3   4
ENDBRANCH   2   3
TORSDOF 19
ENDMDL
MODEL      133
REMARK 921   NORMALIZED FREE ENERGY PREDICTED BY IDOCK:   -3.50 KCAL/MOL
REMARK 922        TOTAL FREE ENERGY PREDICTED BY IDOCK:   -8.63 KCAL/MOL
REMARK 923 INTER-LIGAND FREE ENERGY PREDICTED BY IDOCK:   -7.67 KCAL/MOL
REMARK 924 INTRA-LIGAND FREE ENERGY PREDICTED BY IDOCK:   -0.96 KCAL/MOL
REMARK 927      BINDING AFFINITY PREDICTED BY RF-SCORE:    0.00 PKD
ROOT
HETATM    1  C   UNL     1     -11.338  11.931  63.586  1.00  0.00    -0.536 C  
HETATM    2  C   UNL     1     -12.187  13.131  63.948  1.00  0.00    -0.433 C  
ENDROOT
BRANCH   2   3
HETATM    3  O   UNL     1     -12.869  12.886  65.181  1.00  0.00    -0.702 OA 
BRANCH   3   4
HETATM    4  C   UNL     1     -12.584  13.932  66.114  1.00  0.00    -0.380 C  
BRANCH   4   5
HETATM    5  C   UNL     1     -11.128  13.866  66.571  1.00  0.00    -0.308 C  
BRANCH   5   6
HETATM    6  P   UNL     1     -10.976  13.399  68.359  1.00  0.00    -0.292 P  
BRANCH   6   7
HETATM    7  C   UNL     1     -12.371  14.364  69.122  1.00  0.00    -0.121 C  
BRANCH   7   8
HETATM    8  C   UNL     1     -12.161  14.534  70.626  1.00  0.00    -0.322 C  
BRANCH   8   9
HETATM    9  O   UNL     1     -12.685  13.404  71.328  1.00  0.00    -0.354 OA 
BRANCH   9  10
HETATM   10  C   UNL     1     -13.684  13.821  72.260  1.00  0.00    -0.575 C  
HETATM   11  C   UNL     1     -13.738  15.334  72.302  1.00  0.00    -0.614 C  
ENDBRANCH   9  10
ENDBRANCH   8   9
ENDBRANCH   7   8
ENDBRANCH   6   7
BRANCH   6  12
HETATM   12  C   UNL     1     -11.781  11.725  68.353  1.00  0.00    -0.325 C  
BRANCH  12  13
HETATM   13  C   UNL     1     -11.137  10.761  67.368  1.00  0.00    -0.296 C  
BRANCH  13  14
HETATM   14  P   UNL     1      -9.998   9.546  68.182  1.00  0.00    -0.182 P  
BRANCH  14  15
HETATM   15  C   UNL     1     -10.812   9.295  69.831  1.00  0.00    -0.234 C  
BRANCH  15  16
HETATM   16  C   UNL     1     -10.982   7.804  70.137  1.00  0.00    -0.241 C  
BRANCH  16  17
HETATM   17  O   UNL     1     -11.480   7.623  71.466  1.00  0.00    -0.254 OA 
BRANCH  17  18
HETATM   18  C   UNL     1     -10.726   8.413  72.389  1.00  0.00    -0.335 C  
HETATM   19  C   UNL     1     -10.124   7.520  73.454  1.00  0.00    -0.393 C  
ENDBRANCH  17  18
ENDBRANCH  16  17
ENDBRANCH  15  16
ENDBRANCH  14  15
BRANCH  14  20
HETATM   20  C   UNL     1     -10.547   7.993  67.321  1.00  0.00    -0.290 C  
BRANCH  20  21
HETATM   21  C   UNL     1      -9.436   7.383  66.468  1.00  0.00    -0.172 C  
BRANCH  21  22
HETATM   22  O   UNL     1      -8.356   6.978  67.309  1.00  0.00    -0.120 OA 
BRANCH  22  23
HETATM   23  C   UNL     1      -8.682   5.773  68.007  1.00  0.00    -0.103 C  
HETATM   24  C   UNL     1      -7.770   5.633  69.209  1.00  0.00    -0.088 C  
ENDBRANCH  22  23
ENDBRANCH  21  22
ENDBRANCH  20  21
ENDBRANCH  14  20
ENDBRANCH  13  14
ENDBRANCH  12  13
ENDBRANCH   6  12
ENDBRANCH   5   6
ENDBRANCH   4   5
ENDBRANCH   3   4
ENDBRANCH   2   3
TORSDOF 19
ENDMDL
MODEL      134
REMARK 921   NORMALIZED FREE ENERGY PREDICTED BY IDOCK:   -3.49 KCAL/MOL
REMARK 922        TOTAL FREE ENERGY PREDICTED BY IDOCK:   -8.61 KCAL/MOL
REMARK 923 INTER-LIGAND FREE ENERGY PREDICTED BY IDOCK:   -7.34 KCAL/MOL
REMARK 924 INTRA-LIGAND FREE ENERGY PREDICTED BY IDOCK:   -1.27 KCAL/MOL
REMARK 927      BINDING AFFINITY PREDICTED BY RF-SCORE:    0.00 PKD
ROOT
HETATM    1  C   UNL     1     -10.891  19.032  67.268  1.00  0.00    -0.494 C  
HETATM    2  C   UNL     1     -10.557  18.742  65.820  1.00  0.00    -0.271 C  
ENDROOT
BRANCH   2   3
HETATM    3  O   UNL     1     -10.013  17.424  65.704  1.00  0.00    -0.559 OA 
BRANCH   3   4
HETATM    4  C   UNL     1     -10.920  16.583  64.986  1.00  0.00    -0.210 C  
BRANCH   4   5
HETATM    5  C   UNL     1     -10.609  15.110  65.244  1.00  0.00    -0.411 C  
BRANCH   5   6
HETATM    6  P   UNL     1     -11.760  14.360  66.489  1.00  0.00    -0.348 P  
BRANCH   6   7
HETATM    7  C   UNL     1     -11.901  12.613  65.869  1.00  0.00    -0.444 C  
BRANCH   7   8
HETATM    8  C   UNL     1     -11.133  11.647  66.772  1.00  0.00    -0.309 C  
BRANCH   8   9
HETATM    9  O   UNL     1     -12.025  11.032  67.705  1.00  0.00    -0.609 OA 
BRANCH   9  10
HETATM   10  C   UNL     1     -11.312  10.622  68.874  1.00  0.00    -0.274 C  
HETATM   11  C   UNL     1     -11.917  11.283  70.095  1.00  0.00    -0.452 C  
ENDBRANCH   9  10
ENDBRANCH   8   9
ENDBRANCH   7   8
ENDBRANCH   6   7
BRANCH   6  12
HETATM   12  C   UNL     1     -10.594  14.049  67.901  1.00  0.00    -0.244 C  
BRANCH  12  13
HETATM   13  C   UNL     1     -10.147  15.328  68.594  1.00  0.00    -0.222 C  
BRANCH  13  14
HETATM   14  P   UNL     1      -8.332  15.353  68.968  1.00  0.00    -0.251 P  
BRANCH  14  15
HETATM   15  C   UNL     1      -7.603  14.668  67.404  1.00  0.00    -0.192 C  
BRANCH  15  16
HETATM   16  C   UNL     1      -6.669  13.493  67.703  1.00  0.00    -0.167 C  
BRANCH  16  17
HETATM   17  O   UNL     1      -7.429  12.311  67.976  1.00  0.00    -0.096 OA 
BRANCH  17  18
HETATM   18  C   UNL     1      -7.235  11.349  66.936  1.00  0.00    -0.144 C  
HETATM   19  C   UNL     1      -5.765  11.271  66.579  1.00  0.00    -0.145 C  
ENDBRANCH  17  18
ENDBRANCH  16  17
ENDBRANCH  15  16
ENDBRANCH  14  15
BRANCH  14  20
HETATM   20  C   UNL     1      -7.994  17.162  68.707  1.00  0.00    -0.255 C  
BRANCH  20  21
HETATM   21  C   UNL     1      -6.589  17.557  69.155  1.00  0.00    -0.246 C  
BRANCH  21  22
HETATM   22  O   UNL     1      -6.548  18.959  69.421  1.00  0.00    -0.288 OA 
BRANCH  22  23
HETATM   23  C   UNL     1      -7.457  19.662  68.570  1.00  0.00    -0.334 C  
HETATM   24  C   UNL     1      -6.679  20.639  67.712  1.00  0.00    -0.373 C  
ENDBRANCH  22  23
ENDBRANCH  21  22
ENDBRANCH  20  21
ENDBRANCH  14  20
ENDBRANCH  13  14
ENDBRANCH  12  13
ENDBRANCH   6  12
ENDBRANCH   5   6
ENDBRANCH   4   5
ENDBRANCH   3   4
ENDBRANCH   2   3
TORSDOF 19
ENDMDL
MODEL      135
REMARK 921   NORMALIZED FREE ENERGY PREDICTED BY IDOCK:   -3.48 KCAL/MOL
REMARK 922        TOTAL FREE ENERGY PREDICTED BY IDOCK:   -8.61 KCAL/MOL
REMARK 923 INTER-LIGAND FREE ENERGY PREDICTED BY IDOCK:   -7.43 KCAL/MOL
REMARK 924 INTRA-LIGAND FREE ENERGY PREDICTED BY IDOCK:   -1.18 KCAL/MOL
REMARK 927      BINDING AFFINITY PREDICTED BY RF-SCORE:    0.00 PKD
ROOT
HETATM    1  C   UNL     1      -8.507  10.198  64.315  1.00  0.00    -0.179 C  
HETATM    2  C   UNL     1      -9.706   9.772  65.136  1.00  0.00    -0.268 C  
ENDROOT
BRANCH   2   3
HETATM    3  O   UNL     1      -9.404   8.564  65.840  1.00  0.00    -0.209 OA 
BRANCH   3   4
HETATM    4  C   UNL     1      -9.758   8.700  67.219  1.00  0.00    -0.185 C  
BRANCH   4   5
HETATM    5  C   UNL     1     -10.712   9.874  67.419  1.00  0.00    -0.260 C  
BRANCH   5   6
HETATM    6  P   UNL     1     -10.154  11.005  68.778  1.00  0.00    -0.176 P  
BRANCH   6   7
HETATM    7  C   UNL     1      -8.996   9.907  69.732  1.00  0.00    -0.221 C  
BRANCH   7   8
HETATM    8  C   UNL     1      -9.707   9.264  70.923  1.00  0.00    -0.276 C  
BRANCH   8   9
HETATM    9  O   UNL     1     -10.943   9.936  71.179  1.00  0.00    -0.333 OA 
BRANCH   9  10
HETATM   10  C   UNL     1     -11.808   9.103  71.953  1.00  0.00    -0.369 C  
HETATM   11  C   UNL     1     -10.989   8.046  72.666  1.00  0.00    -0.448 C  
ENDBRANCH   9  10
ENDBRANCH   8   9
ENDBRANCH   7   8
ENDBRANCH   6   7
BRANCH   6  12
HETATM   12  C   UNL     1      -8.882  12.024  67.886  1.00  0.00    -0.174 C  
BRANCH  12  13
HETATM   13  C   UNL     1      -9.356  13.439  67.589  1.00  0.00    -0.217 C  
BRANCH  13  14
HETATM   14  P   UNL     1     -10.632  13.509  66.247  1.00  0.00    -0.296 P  
BRANCH  14  15
HETATM   15  C   UNL     1     -12.153  14.016  67.182  1.00  0.00    -0.401 C  
BRANCH  15  16
HETATM   16  C   UNL     1     -11.793  14.522  68.581  1.00  0.00    -0.320 C  
BRANCH  16  17
HETATM   17  O   UNL     1     -12.451  13.735  69.579  1.00  0.00    -0.271 OA 
BRANCH  17  18
HETATM   18  C   UNL     1     -12.141  14.232  70.884  1.00  0.00    -0.347 C  
HETATM   19  C   UNL     1     -11.945  15.733  70.825  1.00  0.00    -0.444 C  
ENDBRANCH  17  18
ENDBRANCH  16  17
ENDBRANCH  15  16
ENDBRANCH  14  15
BRANCH  14  20
HETATM   20  C   UNL     1     -10.175  15.140  65.482  1.00  0.00    -0.376 C  
BRANCH  20  21
HETATM   21  C   UNL     1      -9.008  15.810  66.204  1.00  0.00    -0.337 C  
BRANCH  21  22
HETATM   22  O   UNL     1      -8.879  17.159  65.755  1.00  0.00    -0.526 OA 
BRANCH  22  23
HETATM   23  C   UNL     1      -9.268  18.074  66.783  1.00  0.00    -0.280 C  
HETATM   24  C   UNL     1     -10.261  19.067  66.214  1.00  0.00    -0.510 C  
ENDBRANCH  22  23
ENDBRANCH  21  22
ENDBRANCH  20  21
ENDBRANCH  14  20
ENDBRANCH  13  14
ENDBRANCH  12  13
ENDBRANCH   6  12
ENDBRANCH   5   6
ENDBRANCH   4   5
ENDBRANCH   3   4
ENDBRANCH   2   3
TORSDOF 19
ENDMDL
MODEL      136
REMARK 921   NORMALIZED FREE ENERGY PREDICTED BY IDOCK:   -3.48 KCAL/MOL
REMARK 922        TOTAL FREE ENERGY PREDICTED BY IDOCK:   -8.59 KCAL/MOL
REMARK 923 INTER-LIGAND FREE ENERGY PREDICTED BY IDOCK:   -7.26 KCAL/MOL
REMARK 924 INTRA-LIGAND FREE ENERGY PREDICTED BY IDOCK:   -1.33 KCAL/MOL
REMARK 927      BINDING AFFINITY PREDICTED BY RF-SCORE:    0.00 PKD
ROOT
HETATM    1  C   UNL     1     -11.759   8.037  72.356  1.00  0.00    -0.444 C  
HETATM    2  C   UNL     1     -11.384   9.319  71.642  1.00  0.00    -0.397 C  
ENDROOT
BRANCH   2   3
HETATM    3  O   UNL     1     -12.514  10.194  71.594  1.00  0.00    -0.383 OA 
BRANCH   3   4
HETATM    4  C   UNL     1     -12.602  10.809  70.305  1.00  0.00    -0.276 C  
BRANCH   4   5
HETATM    5  C   UNL     1     -11.633  11.984  70.201  1.00  0.00    -0.143 C  
BRANCH   5   6
HETATM    6  P   UNL     1     -11.696  12.796  68.535  1.00  0.00    -0.289 P  
BRANCH   6   7
HETATM    7  C   UNL     1     -12.049  14.564  68.989  1.00  0.00    -0.251 C  
BRANCH   7   8
HETATM    8  C   UNL     1     -11.610  14.859  70.423  1.00  0.00    -0.281 C  
BRANCH   8   9
HETATM    9  O   UNL     1     -12.565  15.709  71.065  1.00  0.00    -0.425 OA 
BRANCH   9  10
HETATM   10  C   UNL     1     -13.808  15.023  71.226  1.00  0.00    -0.450 C  
HETATM   11  C   UNL     1     -13.703  14.047  72.379  1.00  0.00    -0.669 C  
ENDBRANCH   9  10
ENDBRANCH   8   9
ENDBRANCH   7   8
ENDBRANCH   6   7
BRANCH   6  12
HETATM   12  C   UNL     1      -9.885  12.972  68.162  1.00  0.00    -0.228 C  
BRANCH  12  13
HETATM   13  C   UNL     1      -9.547  12.674  66.709  1.00  0.00    -0.241 C  
BRANCH  13  14
HETATM   14  P   UNL     1      -8.588  11.103  66.495  1.00  0.00    -0.171 P  
BRANCH  14  15
HETATM   15  C   UNL     1      -9.163  10.096  67.946  1.00  0.00    -0.138 C  
BRANCH  15  16
HETATM   16  C   UNL     1      -9.929   8.855  67.482  1.00  0.00    -0.203 C  
BRANCH  16  17
HETATM   17  O   UNL     1     -10.727   8.336  68.550  1.00  0.00    -0.142 OA 
BRANCH  17  18
HETATM   18  C   UNL     1     -10.563   6.919  68.646  1.00  0.00    -0.223 C  
HETATM   19  C   UNL     1      -9.528   6.595  69.703  1.00  0.00    -0.144 C  
ENDBRANCH  17  18
ENDBRANCH  16  17
ENDBRANCH  15  16
ENDBRANCH  14  15
BRANCH  14  20
HETATM   20  C   UNL     1      -9.596  10.314  65.147  1.00  0.00    -0.277 C  
BRANCH  20  21
HETATM   21  C   UNL     1     -10.884  11.085  64.864  1.00  0.00    -0.140 C  
BRANCH  21  22
HETATM   22  O   UNL     1     -10.880  11.543  63.512  1.00  0.00    -0.392 OA 
BRANCH  22  23
HETATM   23  C   UNL     1     -11.664  12.733  63.379  1.00  0.00    -0.488 C  
HETATM   24  C   UNL     1     -12.627  12.826  64.546  1.00  0.00    -0.463 C  
ENDBRANCH  22  23
ENDBRANCH  21  22
ENDBRANCH  20  21
ENDBRANCH  14  20
ENDBRANCH  13  14
ENDBRANCH  12  13
ENDBRANCH   6  12
ENDBRANCH   5   6
ENDBRANCH   4   5
ENDBRANCH   3   4
ENDBRANCH   2   3
TORSDOF 19
ENDMDL
MODEL      137
REMARK 921   NORMALIZED FREE ENERGY PREDICTED BY IDOCK:   -3.48 KCAL/MOL
REMARK 922        TOTAL FREE ENERGY PREDICTED BY IDOCK:   -8.59 KCAL/MOL
REMARK 923 INTER-LIGAND FREE ENERGY PREDICTED BY IDOCK:   -7.55 KCAL/MOL
REMARK 924 INTRA-LIGAND FREE ENERGY PREDICTED BY IDOCK:   -1.03 KCAL/MOL
REMARK 927      BINDING AFFINITY PREDICTED BY RF-SCORE:    0.00 PKD
ROOT
HETATM    1  C   UNL     1      -5.360  12.485  67.460  1.00  0.00    -0.111 C  
HETATM    2  C   UNL     1      -6.839  12.161  67.455  1.00  0.00    -0.147 C  
ENDROOT
BRANCH   2   3
HETATM    3  O   UNL     1      -7.314  12.047  68.799  1.00  0.00    -0.108 OA 
BRANCH   3   4
HETATM    4  C   UNL     1      -8.187  10.920  68.915  1.00  0.00    -0.141 C  
BRANCH   4   5
HETATM    5  C   UNL     1      -9.073  10.794  67.678  1.00  0.00    -0.147 C  
BRANCH   5   6
HETATM    6  P   UNL     1     -10.736  10.080  68.080  1.00  0.00    -0.237 P  
BRANCH   6   7
HETATM    7  C   UNL     1     -10.546   9.668  69.883  1.00  0.00    -0.249 C  
BRANCH   7   8
HETATM    8  C   UNL     1     -11.574  10.420  70.728  1.00  0.00    -0.358 C  
BRANCH   8   9
HETATM    9  O   UNL     1     -12.632   9.539  71.115  1.00  0.00    -0.312 OA 
BRANCH   9  10
HETATM   10  C   UNL     1     -12.107   8.421  71.833  1.00  0.00    -0.342 C  
HETATM   11  C   UNL     1     -12.885   7.174  71.465  1.00  0.00    -0.434 C  
ENDBRANCH   9  10
ENDBRANCH   8   9
ENDBRANCH   7   8
ENDBRANCH   6   7
BRANCH   6  12
HETATM   12  C   UNL     1     -11.747  11.627  68.264  1.00  0.00    -0.304 C  
BRANCH  12  13
HETATM   13  C   UNL     1     -10.917  12.896  68.140  1.00  0.00    -0.248 C  
BRANCH  13  14
HETATM   14  P   UNL     1     -11.849  14.298  67.365  1.00  0.00    -0.348 P  
BRANCH  14  15
HETATM   15  C   UNL     1     -11.797  15.585  68.702  1.00  0.00    -0.300 C  
BRANCH  15  16
HETATM   16  C   UNL     1     -12.157  14.978  70.061  1.00  0.00    -0.337 C  
BRANCH  16  17
HETATM   17  O   UNL     1     -12.111  15.981  71.081  1.00  0.00    -0.413 OA 
BRANCH  17  18
HETATM   18  C   UNL     1     -12.640  15.464  72.305  1.00  0.00    -0.373 C  
HETATM   19  C   UNL     1     -14.048  14.953  72.078  1.00  0.00    -0.613 C  
ENDBRANCH  17  18
ENDBRANCH  16  17
ENDBRANCH  15  16
ENDBRANCH  14  15
BRANCH  14  20
HETATM   20  C   UNL     1     -10.522  14.959  66.243  1.00  0.00    -0.302 C  
BRANCH  20  21
HETATM   21  C   UNL     1     -10.598  14.354  64.842  1.00  0.00    -0.434 C  
BRANCH  21  22
HETATM   22  O   UNL     1     -10.086  13.022  64.869  1.00  0.00    -0.278 OA 
BRANCH  22  23
HETATM   23  C   UNL     1     -10.823  12.179  63.979  1.00  0.00    -0.383 C  
HETATM   24  C   UNL     1     -12.056  12.920  63.501  1.00  0.00    -0.633 C  
ENDBRANCH  22  23
ENDBRANCH  21  22
ENDBRANCH  20  21
ENDBRANCH  14  20
ENDBRANCH  13  14
ENDBRANCH  12  13
ENDBRANCH   6  12
ENDBRANCH   5   6
ENDBRANCH   4   5
ENDBRANCH   3   4
ENDBRANCH   2   3
TORSDOF 19
ENDMDL
MODEL      138
REMARK 921   NORMALIZED FREE ENERGY PREDICTED BY IDOCK:   -3.47 KCAL/MOL
REMARK 922        TOTAL FREE ENERGY PREDICTED BY IDOCK:   -8.58 KCAL/MOL
REMARK 923 INTER-LIGAND FREE ENERGY PREDICTED BY IDOCK:   -7.65 KCAL/MOL
REMARK 924 INTRA-LIGAND FREE ENERGY PREDICTED BY IDOCK:   -0.93 KCAL/MOL
REMARK 927      BINDING AFFINITY PREDICTED BY RF-SCORE:    0.00 PKD
ROOT
HETATM    1  C   UNL     1     -14.011  14.091  72.260  1.00  0.00    -0.651 C  
HETATM    2  C   UNL     1     -12.648  14.446  71.703  1.00  0.00    -0.353 C  
ENDROOT
BRANCH   2   3
HETATM    3  O   UNL     1     -12.756  15.592  70.854  1.00  0.00    -0.424 OA 
BRANCH   3   4
HETATM    4  C   UNL     1     -12.616  15.202  69.485  1.00  0.00     0.011 C  
BRANCH   4   5
HETATM    5  C   UNL     1     -11.265  15.649  68.932  1.00  0.00    -0.311 C  
BRANCH   5   6
HETATM    6  P   UNL     1     -10.666  14.542  67.571  1.00  0.00    -0.287 P  
BRANCH   6   7
HETATM    7  C   UNL     1      -9.888  15.763  66.405  1.00  0.00    -0.276 C  
BRANCH   7   8
HETATM    8  C   UNL     1     -10.776  15.995  65.182  1.00  0.00    -0.409 C  
BRANCH   8   9
HETATM    9  O   UNL     1     -10.992  17.396  64.990  1.00  0.00    -0.703 OA 
BRANCH   9  10
HETATM   10  C   UNL     1     -10.143  18.151  65.855  1.00  0.00    -0.167 C  
HETATM   11  C   UNL     1     -10.750  19.519  66.092  1.00  0.00    -0.528 C  
ENDBRANCH   9  10
ENDBRANCH   8   9
ENDBRANCH   7   8
ENDBRANCH   6   7
BRANCH   6  12
HETATM   12  C   UNL     1      -9.111  13.866  68.327  1.00  0.00    -0.191 C  
BRANCH  12  13
HETATM   13  C   UNL     1      -9.032  12.348  68.265  1.00  0.00    -0.178 C  
BRANCH  13  14
HETATM   14  P   UNL     1     -10.674  11.526  68.513  1.00  0.00    -0.234 P  
BRANCH  14  15
HETATM   15  C   UNL     1     -10.914  10.642  66.898  1.00  0.00    -0.161 C  
BRANCH  15  16
HETATM   16  C   UNL     1     -10.154  11.344  65.771  1.00  0.00    -0.246 C  
BRANCH  16  17
HETATM   17  O   UNL     1     -10.116  10.516  64.605  1.00  0.00    -0.328 OA 
BRANCH  17  18
HETATM   18  C   UNL     1     -10.138  11.322  63.424  1.00  0.00    -0.400 C  
HETATM   19  C   UNL     1     -11.275  12.320  63.510  1.00  0.00    -0.535 C  
ENDBRANCH  17  18
ENDBRANCH  16  17
ENDBRANCH  15  16
ENDBRANCH  14  15
BRANCH  14  20
HETATM   20  C   UNL     1     -10.140  10.098  69.576  1.00  0.00    -0.235 C  
BRANCH  20  21
HETATM   21  C   UNL     1      -9.963   8.813  68.769  1.00  0.00    -0.185 C  
BRANCH  21  22
HETATM   22  O   UNL     1     -10.474   7.707  69.513  1.00  0.00    -0.220 OA 
BRANCH  22  23
HETATM   23  C   UNL     1     -10.466   6.517  68.720  1.00  0.00    -0.213 C  
HETATM   24  C   UNL     1     -10.834   6.869  67.292  1.00  0.00    -0.426 C  
ENDBRANCH  22  23
ENDBRANCH  21  22
ENDBRANCH  20  21
ENDBRANCH  14  20
ENDBRANCH  13  14
ENDBRANCH  12  13
ENDBRANCH   6  12
ENDBRANCH   5   6
ENDBRANCH   4   5
ENDBRANCH   3   4
ENDBRANCH   2   3
TORSDOF 19
ENDMDL
MODEL      139
REMARK 921   NORMALIZED FREE ENERGY PREDICTED BY IDOCK:   -3.47 KCAL/MOL
REMARK 922        TOTAL FREE ENERGY PREDICTED BY IDOCK:   -8.57 KCAL/MOL
REMARK 923 INTER-LIGAND FREE ENERGY PREDICTED BY IDOCK:   -7.61 KCAL/MOL
REMARK 924 INTRA-LIGAND FREE ENERGY PREDICTED BY IDOCK:   -0.95 KCAL/MOL
REMARK 927      BINDING AFFINITY PREDICTED BY RF-SCORE:    0.00 PKD
ROOT
HETATM    1  C   UNL     1      -5.445  12.230  68.817  1.00  0.00    -0.050 C  
HETATM    2  C   UNL     1      -6.934  11.965  68.729  1.00  0.00    -0.104 C  
ENDROOT
BRANCH   2   3
HETATM    3  O   UNL     1      -7.213  10.631  69.164  1.00  0.00    -0.080 OA 
BRANCH   3   4
HETATM    4  C   UNL     1      -8.408  10.154  68.540  1.00  0.00    -0.116 C  
BRANCH   4   5
HETATM    5  C   UNL     1      -9.307  11.318  68.133  1.00  0.00    -0.181 C  
BRANCH   5   6
HETATM    6  P   UNL     1     -11.097  10.972  68.471  1.00  0.00    -0.296 P  
BRANCH   6   7
HETATM    7  C   UNL     1     -11.033  10.320  70.212  1.00  0.00    -0.309 C  
BRANCH   7   8
HETATM    8  C   UNL     1     -12.344  10.595  70.948  1.00  0.00    -0.401 C  
BRANCH   8   9
HETATM    9  O   UNL     1     -12.955   9.364  71.343  1.00  0.00    -0.332 OA 
BRANCH   9  10
HETATM   10  C   UNL     1     -12.020   8.556  72.061  1.00  0.00    -0.361 C  
HETATM   11  C   UNL     1     -12.217   7.101  71.688  1.00  0.00    -0.385 C  
ENDBRANCH   9  10
ENDBRANCH   8   9
ENDBRANCH   7   8
ENDBRANCH   6   7
BRANCH   6  12
HETATM   12  C   UNL     1     -11.720  12.680  68.848  1.00  0.00    -0.325 C  
BRANCH  12  13
HETATM   13  C   UNL     1     -10.670  13.758  68.623  1.00  0.00    -0.256 C  
BRANCH  13  14
HETATM   14  P   UNL     1     -11.308  15.200  67.651  1.00  0.00    -0.252 P  
BRANCH  14  15
HETATM   15  C   UNL     1     -10.669  16.642  68.630  1.00  0.00    -0.349 C  
BRANCH  15  16
HETATM   16  C   UNL     1     -10.019  17.682  67.715  1.00  0.00    -0.315 C  
BRANCH  16  17
HETATM   17  O   UNL     1     -10.993  18.632  67.270  1.00  0.00    -0.387 OA 
BRANCH  17  18
HETATM   18  C   UNL     1     -10.376  19.621  66.441  1.00  0.00    -0.504 C  
HETATM   19  C   UNL     1      -9.686  20.654  67.308  1.00  0.00    -0.562 C  
ENDBRANCH  17  18
ENDBRANCH  16  17
ENDBRANCH  15  16
ENDBRANCH  14  15
BRANCH  14  20
HETATM   20  C   UNL     1     -10.076  15.196  66.259  1.00  0.00    -0.283 C  
BRANCH  20  21
HETATM   21  C   UNL     1     -10.583  14.424  65.043  1.00  0.00    -0.432 C  
BRANCH  21  22
HETATM   22  O   UNL     1     -10.072  13.091  65.075  1.00  0.00    -0.277 OA 
BRANCH  22  23
HETATM   23  C   UNL     1     -10.451  12.375  63.898  1.00  0.00    -0.439 C  
HETATM   24  C   UNL     1     -11.844  12.805  63.482  1.00  0.00    -0.618 C  
ENDBRANCH  22  23
ENDBRANCH  21  22
ENDBRANCH  20  21
ENDBRANCH  14  20
ENDBRANCH  13  14
ENDBRANCH  12  13
ENDBRANCH   6  12
ENDBRANCH   5   6
ENDBRANCH   4   5
ENDBRANCH   3   4
ENDBRANCH   2   3
TORSDOF 19
ENDMDL
MODEL      140
REMARK 921   NORMALIZED FREE ENERGY PREDICTED BY IDOCK:   -3.46 KCAL/MOL
REMARK 922        TOTAL FREE ENERGY PREDICTED BY IDOCK:   -8.55 KCAL/MOL
REMARK 923 INTER-LIGAND FREE ENERGY PREDICTED BY IDOCK:   -7.54 KCAL/MOL
REMARK 924 INTRA-LIGAND FREE ENERGY PREDICTED BY IDOCK:   -1.01 KCAL/MOL
REMARK 927      BINDING AFFINITY PREDICTED BY RF-SCORE:    0.00 PKD
ROOT
HETATM    1  C   UNL     1     -11.370  15.881  68.278  1.00  0.00    -0.342 C  
HETATM    2  C   UNL     1     -11.369  14.780  67.238  1.00  0.00    -0.357 C  
ENDROOT
BRANCH   2   3
HETATM    3  O   UNL     1     -12.105  13.655  67.724  1.00  0.00    -0.358 OA 
BRANCH   3   4
HETATM    4  C   UNL     1     -11.768  12.487  66.969  1.00  0.00    -0.367 C  
BRANCH   4   5
HETATM    5  C   UNL     1     -10.478  11.860  67.492  1.00  0.00    -0.209 C  
BRANCH   5   6
HETATM    6  P   UNL     1     -10.475  10.015  67.311  1.00  0.00    -0.235 P  
BRANCH   6   7
HETATM    7  C   UNL     1      -9.015   9.747  66.191  1.00  0.00    -0.152 C  
BRANCH   7   8
HETATM    8  C   UNL     1      -9.442   9.755  64.724  1.00  0.00    -0.251 C  
BRANCH   8   9
HETATM    9  O   UNL     1      -8.602  10.635  63.971  1.00  0.00    -0.168 OA 
BRANCH   9  10
HETATM   10  C   UNL     1      -9.340  11.230  62.902  1.00  0.00    -0.352 C  
HETATM   11  C   UNL     1     -10.581  11.899  63.455  1.00  0.00    -0.507 C  
ENDBRANCH   9  10
ENDBRANCH   8   9
ENDBRANCH   7   8
ENDBRANCH   6   7
BRANCH   6  12
HETATM   12  C   UNL     1      -9.681   9.507  68.911  1.00  0.00    -0.164 C  
BRANCH  12  13
HETATM   13  C   UNL     1     -10.542   8.553  69.725  1.00  0.00    -0.224 C  
BRANCH  13  14
HETATM   14  P   UNL     1     -11.066   9.261  71.356  1.00  0.00    -0.373 P  
BRANCH  14  15
HETATM   15  C   UNL     1     -12.050  10.747  70.836  1.00  0.00    -0.370 C  
BRANCH  15  16
HETATM   16  C   UNL     1     -13.233  10.978  71.780  1.00  0.00    -0.400 C  
BRANCH  16  17
HETATM   17  O   UNL     1     -13.378  12.373  72.063  1.00  0.00    -0.507 OA 
BRANCH  17  18
HETATM   18  C   UNL     1     -12.663  13.150  71.099  1.00  0.00    -0.300 C  
HETATM   19  C   UNL     1     -12.490  14.565  71.610  1.00  0.00    -0.422 C  
ENDBRANCH  17  18
ENDBRANCH  16  17
ENDBRANCH  15  16
ENDBRANCH  14  15
BRANCH  14  20
HETATM   20  C   UNL     1     -12.453   8.092  71.761  1.00  0.00    -0.324 C  
BRANCH  20  21
HETATM   21  C   UNL     1     -12.141   6.658  71.338  1.00  0.00    -0.347 C  
BRANCH  21  22
HETATM   22  O   UNL     1     -12.132   5.811  72.487  1.00  0.00    -0.241 OA 
BRANCH  22  23
HETATM   23  C   UNL     1     -10.845   5.214  72.666  1.00  0.00    -0.247 C  
HETATM   24  C   UNL     1     -11.004   3.905  73.413  1.00  0.00    -0.327 C  
ENDBRANCH  22  23
ENDBRANCH  21  22
ENDBRANCH  20  21
ENDBRANCH  14  20
ENDBRANCH  13  14
ENDBRANCH  12  13
ENDBRANCH   6  12
ENDBRANCH   5   6
ENDBRANCH   4   5
ENDBRANCH   3   4
ENDBRANCH   2   3
TORSDOF 19
ENDMDL
MODEL      141
REMARK 921   NORMALIZED FREE ENERGY PREDICTED BY IDOCK:   -3.46 KCAL/MOL
REMARK 922        TOTAL FREE ENERGY PREDICTED BY IDOCK:   -8.55 KCAL/MOL
REMARK 923 INTER-LIGAND FREE ENERGY PREDICTED BY IDOCK:   -8.02 KCAL/MOL
REMARK 924 INTRA-LIGAND FREE ENERGY PREDICTED BY IDOCK:   -0.53 KCAL/MOL
REMARK 927      BINDING AFFINITY PREDICTED BY RF-SCORE:    0.00 PKD
ROOT
HETATM    1  C   UNL     1     -10.036  19.739  68.706  1.00  0.00    -0.510 C  
HETATM    2  C   UNL     1     -10.033  20.533  67.416  1.00  0.00    -0.385 C  
ENDROOT
BRANCH   2   3
HETATM    3  O   UNL     1     -10.498  19.711  66.343  1.00  0.00    -0.445 OA 
BRANCH   3   4
HETATM    4  C   UNL     1     -10.603  18.352  66.777  1.00  0.00    -0.333 C  
BRANCH   4   5
HETATM    5  C   UNL     1     -10.191  17.395  65.661  1.00  0.00    -0.101 C  
BRANCH   5   6
HETATM    6  P   UNL     1      -9.183  15.974  66.296  1.00  0.00    -0.358 P  
BRANCH   6   7
HETATM    7  C   UNL     1      -7.823  16.852  67.209  1.00  0.00    -0.178 C  
BRANCH   7   8
HETATM    8  C   UNL     1      -7.463  18.169  66.523  1.00  0.00    -0.236 C  
BRANCH   8   9
HETATM    9  O   UNL     1      -6.225  18.035  65.819  1.00  0.00    -0.227 OA 
BRANCH   9  10
HETATM   10  C   UNL     1      -5.674  19.323  65.538  1.00  0.00    -0.171 C  
HETATM   11  C   UNL     1      -6.790  20.288  65.192  1.00  0.00    -0.300 C  
ENDBRANCH   9  10
ENDBRANCH   8   9
ENDBRANCH   7   8
ENDBRANCH   6   7
BRANCH   6  12
HETATM   12  C   UNL     1     -10.197  15.453  67.762  1.00  0.00    -0.241 C  
BRANCH  12  13
HETATM   13  C   UNL     1     -11.578  14.943  67.379  1.00  0.00    -0.332 C  
BRANCH  13  14
HETATM   14  P   UNL     1     -11.783  13.123  67.661  1.00  0.00    -0.342 P  
BRANCH  14  15
HETATM   15  C   UNL     1     -10.077  12.480  67.310  1.00  0.00    -0.213 C  
BRANCH  15  16
HETATM   16  C   UNL     1     -10.069  11.607  66.052  1.00  0.00    -0.224 C  
BRANCH  16  17
HETATM   17  O   UNL     1     -10.239  12.415  64.884  1.00  0.00    -0.281 OA 
BRANCH  17  18
HETATM   18  C   UNL     1     -10.777  11.632  63.816  1.00  0.00    -0.419 C  
HETATM   19  C   UNL     1     -12.184  12.096  63.500  1.00  0.00    -0.670 C  
ENDBRANCH  17  18
ENDBRANCH  16  17
ENDBRANCH  15  16
ENDBRANCH  14  15
BRANCH  14  20
HETATM   20  C   UNL     1     -11.750  13.100  69.520  1.00  0.00    -0.319 C  
BRANCH  20  21
HETATM   21  C   UNL     1     -12.411  14.338  70.124  1.00  0.00    -0.353 C  
BRANCH  21  22
HETATM   22  O   UNL     1     -11.792  14.649  71.372  1.00  0.00    -0.332 OA 
BRANCH  22  23
HETATM   23  C   UNL     1     -12.139  15.971  71.792  1.00  0.00    -0.499 C  
HETATM   24  C   UNL     1     -13.373  15.905  72.671  1.00  0.00    -0.553 C  
ENDBRANCH  22  23
ENDBRANCH  21  22
ENDBRANCH  20  21
ENDBRANCH  14  20
ENDBRANCH  13  14
ENDBRANCH  12  13
ENDBRANCH   6  12
ENDBRANCH   5   6
ENDBRANCH   4   5
ENDBRANCH   3   4
ENDBRANCH   2   3
TORSDOF 19
ENDMDL
MODEL      142
REMARK 921   NORMALIZED FREE ENERGY PREDICTED BY IDOCK:   -3.45 KCAL/MOL
REMARK 922        TOTAL FREE ENERGY PREDICTED BY IDOCK:   -8.54 KCAL/MOL
REMARK 923 INTER-LIGAND FREE ENERGY PREDICTED BY IDOCK:   -7.70 KCAL/MOL
REMARK 924 INTRA-LIGAND FREE ENERGY PREDICTED BY IDOCK:   -0.84 KCAL/MOL
REMARK 927      BINDING AFFINITY PREDICTED BY RF-SCORE:    0.00 PKD
ROOT
HETATM    1  C   UNL     1     -11.310   5.076  73.116  1.00  0.00    -0.397 C  
HETATM    2  C   UNL     1     -11.210   6.055  71.965  1.00  0.00    -0.288 C  
ENDROOT
BRANCH   2   3
HETATM    3  O   UNL     1     -12.287   6.993  72.033  1.00  0.00    -0.310 OA 
BRANCH   3   4
HETATM    4  C   UNL     1     -11.793   8.278  72.421  1.00  0.00    -0.396 C  
BRANCH   4   5
HETATM    5  C   UNL     1     -12.287   9.358  71.462  1.00  0.00    -0.370 C  
BRANCH   5   6
HETATM    6  P   UNL     1     -10.942   9.962  70.338  1.00  0.00    -0.343 P  
BRANCH   6   7
HETATM    7  C   UNL     1     -10.590   8.446  69.320  1.00  0.00    -0.182 C  
BRANCH   7   8
HETATM    8  C   UNL     1      -9.094   8.135  69.301  1.00  0.00    -0.151 C  
BRANCH   8   9
HETATM    9  O   UNL     1      -8.521   8.387  70.587  1.00  0.00    -0.121 OA 
BRANCH   9  10
HETATM   10  C   UNL     1      -7.649   7.318  70.958  1.00  0.00    -0.084 C  
HETATM   11  C   UNL     1      -8.036   6.063  70.202  1.00  0.00    -0.106 C  
ENDBRANCH   9  10
ENDBRANCH   8   9
ENDBRANCH   7   8
ENDBRANCH   6   7
BRANCH   6  12
HETATM   12  C   UNL     1     -11.933  10.904  69.080  1.00  0.00    -0.288 C  
BRANCH  12  13
HETATM   13  C   UNL     1     -11.155  12.048  68.448  1.00  0.00    -0.245 C  
BRANCH  13  14
HETATM   14  P   UNL     1     -12.025  13.679  68.585  1.00  0.00    -0.208 P  
BRANCH  14  15
HETATM   15  C   UNL     1     -11.322  14.363  70.162  1.00  0.00    -0.165 C  
BRANCH  15  16
HETATM   16  C   UNL     1     -12.105  15.595  70.622  1.00  0.00    -0.405 C  
BRANCH  16  17
HETATM   17  O   UNL     1     -13.358  15.204  71.191  1.00  0.00    -0.414 OA 
BRANCH  17  18
HETATM   18  C   UNL     1     -13.306  15.302  72.617  1.00  0.00    -0.478 C  
HETATM   19  C   UNL     1     -12.176  16.225  73.024  1.00  0.00    -0.619 C  
ENDBRANCH  17  18
ENDBRANCH  16  17
ENDBRANCH  15  16
ENDBRANCH  14  15
BRANCH  14  20
HETATM   20  C   UNL     1     -11.036  14.655  67.351  1.00  0.00    -0.308 C  
BRANCH  20  21
HETATM   21  C   UNL     1     -11.141  14.077  65.941  1.00  0.00    -0.301 C  
BRANCH  21  22
HETATM   22  O   UNL     1     -12.508  13.797  65.640  1.00  0.00    -0.455 OA 
BRANCH  22  23
HETATM   23  C   UNL     1     -12.616  12.639  64.808  1.00  0.00    -0.454 C  
HETATM   24  C   UNL     1     -12.068  12.962  63.432  1.00  0.00    -0.610 C  
ENDBRANCH  22  23
ENDBRANCH  21  22
ENDBRANCH  20  21
ENDBRANCH  14  20
ENDBRANCH  13  14
ENDBRANCH  12  13
ENDBRANCH   6  12
ENDBRANCH   5   6
ENDBRANCH   4   5
ENDBRANCH   3   4
ENDBRANCH   2   3
TORSDOF 19
ENDMDL
MODEL      143
REMARK 921   NORMALIZED FREE ENERGY PREDICTED BY IDOCK:   -3.43 KCAL/MOL
REMARK 922        TOTAL FREE ENERGY PREDICTED BY IDOCK:   -8.49 KCAL/MOL
REMARK 923 INTER-LIGAND FREE ENERGY PREDICTED BY IDOCK:   -7.46 KCAL/MOL
REMARK 924 INTRA-LIGAND FREE ENERGY PREDICTED BY IDOCK:   -1.02 KCAL/MOL
REMARK 927      BINDING AFFINITY PREDICTED BY RF-SCORE:    0.00 PKD
ROOT
HETATM    1  C   UNL     1      -8.718   9.209  70.209  1.00  0.00    -0.223 C  
HETATM    2  C   UNL     1      -9.029   9.270  68.728  1.00  0.00    -0.132 C  
ENDROOT
BRANCH   2   3
HETATM    3  O   UNL     1     -10.366   9.741  68.534  1.00  0.00    -0.186 OA 
BRANCH   3   4
HETATM    4  C   UNL     1     -10.620  10.857  69.390  1.00  0.00    -0.197 C  
BRANCH   4   5
HETATM    5  C   UNL     1     -10.575  12.164  68.602  1.00  0.00    -0.223 C  
BRANCH   5   6
HETATM    6  P   UNL     1     -11.906  13.344  69.127  1.00  0.00    -0.298 P  
BRANCH   6   7
HETATM    7  C   UNL     1     -10.954  14.541  70.184  1.00  0.00    -0.014 C  
BRANCH   7   8
HETATM    8  C   UNL     1     -11.808  15.757  70.540  1.00  0.00    -0.375 C  
BRANCH   8   9
HETATM    9  O   UNL     1     -12.379  15.595  71.841  1.00  0.00    -0.354 OA 
BRANCH   9  10
HETATM   10  C   UNL     1     -13.803  15.521  71.752  1.00  0.00    -0.474 C  
HETATM   11  C   UNL     1     -14.259  14.116  72.087  1.00  0.00    -0.638 C  
ENDBRANCH   9  10
ENDBRANCH   8   9
ENDBRANCH   7   8
ENDBRANCH   6   7
BRANCH   6  12
HETATM   12  C   UNL     1     -12.061  14.397  67.605  1.00  0.00    -0.277 C  
BRANCH  12  13
HETATM   13  C   UNL     1     -12.178  13.579  66.327  1.00  0.00    -0.416 C  
BRANCH  13  14
HETATM   14  P   UNL     1     -11.574  14.487  64.828  1.00  0.00    -0.403 P  
BRANCH  14  15
HETATM   15  C   UNL     1     -10.222  15.545  65.533  1.00  0.00    -0.386 C  
BRANCH  15  16
HETATM   16  C   UNL     1     -10.648  17.014  65.591  1.00  0.00    -0.197 C  
BRANCH  16  17
HETATM   17  O   UNL     1     -10.573  17.502  66.934  1.00  0.00    -0.305 OA 
BRANCH  17  18
HETATM   18  C   UNL     1     -10.007  18.814  66.953  1.00  0.00    -0.346 C  
HETATM   19  C   UNL     1      -9.822  19.272  68.385  1.00  0.00    -0.492 C  
ENDBRANCH  17  18
ENDBRANCH  16  17
ENDBRANCH  15  16
ENDBRANCH  14  15
BRANCH  14  20
HETATM   20  C   UNL     1     -10.550  13.144  64.053  1.00  0.00    -0.276 C  
BRANCH  20  21
HETATM   21  C   UNL     1     -11.349  11.860  63.837  1.00  0.00    -0.428 C  
BRANCH  21  22
HETATM   22  O   UNL     1     -10.471  10.736  63.884  1.00  0.00    -0.338 OA 
BRANCH  22  23
HETATM   23  C   UNL     1      -9.921  10.578  65.194  1.00  0.00    -0.309 C  
HETATM   24  C   UNL     1      -8.442  10.269  65.078  1.00  0.00    -0.177 C  
ENDBRANCH  22  23
ENDBRANCH  21  22
ENDBRANCH  20  21
ENDBRANCH  14  20
ENDBRANCH  13  14
ENDBRANCH  12  13
ENDBRANCH   6  12
ENDBRANCH   5   6
ENDBRANCH   4   5
ENDBRANCH   3   4
ENDBRANCH   2   3
TORSDOF 19
ENDMDL
MODEL      144
REMARK 921   NORMALIZED FREE ENERGY PREDICTED BY IDOCK:   -3.42 KCAL/MOL
REMARK 922        TOTAL FREE ENERGY PREDICTED BY IDOCK:   -8.48 KCAL/MOL
REMARK 923 INTER-LIGAND FREE ENERGY PREDICTED BY IDOCK:   -7.35 KCAL/MOL
REMARK 924 INTRA-LIGAND FREE ENERGY PREDICTED BY IDOCK:   -1.13 KCAL/MOL
REMARK 927      BINDING AFFINITY PREDICTED BY RF-SCORE:    0.00 PKD
ROOT
HETATM    1  C   UNL     1     -10.649  19.686  67.002  1.00  0.00    -0.602 C  
HETATM    2  C   UNL     1      -9.529  19.619  68.020  1.00  0.00    -0.354 C  
ENDROOT
BRANCH   2   3
HETATM    3  O   UNL     1      -8.338  19.132  67.396  1.00  0.00    -0.275 OA 
BRANCH   3   4
HETATM    4  C   UNL     1      -8.674  18.308  66.277  1.00  0.00    -0.178 C  
BRANCH   4   5
HETATM    5  C   UNL     1      -7.694  17.144  66.150  1.00  0.00    -0.267 C  
BRANCH   5   6
HETATM    6  P   UNL     1      -8.272  15.639  67.066  1.00  0.00    -0.261 P  
BRANCH   6   7
HETATM    7  C   UNL     1      -8.069  16.172  68.835  1.00  0.00    -0.228 C  
BRANCH   7   8
HETATM    8  C   UNL     1      -6.791  15.592  69.439  1.00  0.00    -0.186 C  
BRANCH   8   9
HETATM    9  O   UNL     1      -7.009  14.241  69.852  1.00  0.00    -0.078 OA 
BRANCH   9  10
HETATM   10  C   UNL     1      -5.788  13.502  69.794  1.00  0.00    -0.117 C  
HETATM   11  C   UNL     1      -6.058  12.119  69.236  1.00  0.00    -0.090 C  
ENDBRANCH   9  10
ENDBRANCH   8   9
ENDBRANCH   7   8
ENDBRANCH   6   7
BRANCH   6  12
HETATM   12  C   UNL     1     -10.114  15.837  66.937  1.00  0.00    -0.266 C  
BRANCH  12  13
HETATM   13  C   UNL     1     -10.769  16.178  68.267  1.00  0.00    -0.307 C  
BRANCH  13  14
HETATM   14  P   UNL     1     -12.027  14.926  68.798  1.00  0.00    -0.139 P  
BRANCH  14  15
HETATM   15  C   UNL     1     -10.992  13.399  69.008  1.00  0.00    -0.224 C  
BRANCH  15  16
HETATM   16  C   UNL     1     -11.715  12.166  68.460  1.00  0.00    -0.330 C  
BRANCH  16  17
HETATM   17  O   UNL     1     -11.198  10.977  69.064  1.00  0.00    -0.214 OA 
BRANCH  17  18
HETATM   18  C   UNL     1     -11.999  10.605  70.188  1.00  0.00    -0.334 C  
HETATM   19  C   UNL     1     -11.219   9.662  71.081  1.00  0.00    -0.454 C  
ENDBRANCH  17  18
ENDBRANCH  16  17
ENDBRANCH  15  16
ENDBRANCH  14  15
BRANCH  14  20
HETATM   20  C   UNL     1     -12.217  15.424  70.579  1.00  0.00    -0.394 C  
BRANCH  20  21
HETATM   21  C   UNL     1     -12.467  14.224  71.490  1.00  0.00    -0.356 C  
BRANCH  21  22
HETATM   22  O   UNL     1     -13.468  14.554  72.452  1.00  0.00    -0.375 OA 
BRANCH  22  23
HETATM   23  C   UNL     1     -13.139  15.771  73.127  1.00  0.00    -0.564 C  
HETATM   24  C   UNL     1     -12.163  15.469  74.246  1.00  0.00    -0.755 C  
ENDBRANCH  22  23
ENDBRANCH  21  22
ENDBRANCH  20  21
ENDBRANCH  14  20
ENDBRANCH  13  14
ENDBRANCH  12  13
ENDBRANCH   6  12
ENDBRANCH   5   6
ENDBRANCH   4   5
ENDBRANCH   3   4
ENDBRANCH   2   3
TORSDOF 19
ENDMDL
MODEL      145
REMARK 921   NORMALIZED FREE ENERGY PREDICTED BY IDOCK:   -3.42 KCAL/MOL
REMARK 922        TOTAL FREE ENERGY PREDICTED BY IDOCK:   -8.46 KCAL/MOL
REMARK 923 INTER-LIGAND FREE ENERGY PREDICTED BY IDOCK:   -7.73 KCAL/MOL
REMARK 924 INTRA-LIGAND FREE ENERGY PREDICTED BY IDOCK:   -0.73 KCAL/MOL
REMARK 927      BINDING AFFINITY PREDICTED BY RF-SCORE:    0.00 PKD
ROOT
HETATM    1  C   UNL     1     -10.431  19.374  66.305  1.00  0.00    -0.586 C  
HETATM    2  C   UNL     1      -9.952  19.435  67.740  1.00  0.00    -0.379 C  
ENDROOT
BRANCH   2   3
HETATM    3  O   UNL     1     -10.709  18.524  68.541  1.00  0.00    -0.130 OA 
BRANCH   3   4
HETATM    4  C   UNL     1     -10.082  17.239  68.545  1.00  0.00    -0.341 C  
BRANCH   4   5
HETATM    5  C   UNL     1     -11.129  16.128  68.572  1.00  0.00    -0.357 C  
BRANCH   5   6
HETATM    6  P   UNL     1     -11.029  15.037  67.076  1.00  0.00    -0.308 P  
BRANCH   6   7
HETATM    7  C   UNL     1      -9.255  14.482  67.130  1.00  0.00    -0.223 C  
BRANCH   7   8
HETATM    8  C   UNL     1      -8.358  15.437  66.343  1.00  0.00    -0.045 C  
BRANCH   8   9
HETATM    9  O   UNL     1      -7.032  15.419  66.876  1.00  0.00    -0.207 OA 
BRANCH   9  10
HETATM   10  C   UNL     1      -6.561  16.753  67.078  1.00  0.00    -0.204 C  
HETATM   11  C   UNL     1      -7.133  17.660  66.008  1.00  0.00    -0.318 C  
ENDBRANCH   9  10
ENDBRANCH   8   9
ENDBRANCH   7   8
ENDBRANCH   6   7
BRANCH   6  12
HETATM   12  C   UNL     1     -11.814  13.483  67.723  1.00  0.00    -0.362 C  
BRANCH  12  13
HETATM   13  C   UNL     1     -11.112  12.931  68.955  1.00  0.00    -0.255 C  
BRANCH  13  14
HETATM   14  P   UNL     1     -11.855  11.347  69.564  1.00  0.00    -0.365 P  
BRANCH  14  15
HETATM   15  C   UNL     1     -10.350  10.373  70.048  1.00  0.00    -0.128 C  
BRANCH  15  16
HETATM   16  C   UNL     1     -10.712   9.257  71.032  1.00  0.00    -0.316 C  
BRANCH  16  17
HETATM   17  O   UNL     1     -11.901   8.584  70.605  1.00  0.00    -0.227 OA 
BRANCH  17  18
HETATM   18  C   UNL     1     -12.238   7.546  71.528  1.00  0.00    -0.331 C  
HETATM   19  C   UNL     1     -11.317   7.610  72.729  1.00  0.00    -0.419 C  
ENDBRANCH  17  18
ENDBRANCH  16  17
ENDBRANCH  15  16
ENDBRANCH  14  15
BRANCH  14  20
HETATM   20  C   UNL     1     -12.422  11.904  71.244  1.00  0.00    -0.213 C  
BRANCH  20  21
HETATM   21  C   UNL     1     -12.807  13.382  71.261  1.00  0.00    -0.323 C  
BRANCH  21  22
HETATM   22  O   UNL     1     -13.956  13.567  72.088  1.00  0.00    -0.499 OA 
BRANCH  22  23
HETATM   23  C   UNL     1     -14.396  14.927  72.046  1.00  0.00    -0.561 C  
HETATM   24  C   UNL     1     -13.629  15.728  73.080  1.00  0.00    -0.638 C  
ENDBRANCH  22  23
ENDBRANCH  21  22
ENDBRANCH  20  21
ENDBRANCH  14  20
ENDBRANCH  13  14
ENDBRANCH  12  13
ENDBRANCH   6  12
ENDBRANCH   5   6
ENDBRANCH   4   5
ENDBRANCH   3   4
ENDBRANCH   2   3
TORSDOF 19
ENDMDL
MODEL      146
REMARK 921   NORMALIZED FREE ENERGY PREDICTED BY IDOCK:   -3.41 KCAL/MOL
REMARK 922        TOTAL FREE ENERGY PREDICTED BY IDOCK:   -8.46 KCAL/MOL
REMARK 923 INTER-LIGAND FREE ENERGY PREDICTED BY IDOCK:   -7.54 KCAL/MOL
REMARK 924 INTRA-LIGAND FREE ENERGY PREDICTED BY IDOCK:   -0.92 KCAL/MOL
REMARK 927      BINDING AFFINITY PREDICTED BY RF-SCORE:    0.00 PKD
ROOT
HETATM    1  C   UNL     1     -11.388   5.049  73.150  1.00  0.00    -0.397 C  
HETATM    2  C   UNL     1     -10.855   6.377  72.654  1.00  0.00    -0.240 C  
ENDROOT
BRANCH   2   3
HETATM    3  O   UNL     1     -11.922   7.147  72.095  1.00  0.00    -0.292 OA 
BRANCH   3   4
HETATM    4  C   UNL     1     -11.616   8.542  72.180  1.00  0.00    -0.377 C  
BRANCH   4   5
HETATM    5  C   UNL     1     -12.195   9.296  70.986  1.00  0.00    -0.255 C  
BRANCH   5   6
HETATM    6  P   UNL     1     -10.873  10.067  69.938  1.00  0.00    -0.318 P  
BRANCH   6   7
HETATM    7  C   UNL     1     -10.534   8.718  68.704  1.00  0.00    -0.183 C  
BRANCH   7   8
HETATM    8  C   UNL     1      -9.251   9.000  67.923  1.00  0.00    -0.141 C  
BRANCH   8   9
HETATM    9  O   UNL     1      -9.553   9.221  66.543  1.00  0.00    -0.187 OA 
BRANCH   9  10
HETATM   10  C   UNL     1      -8.740  10.274  66.021  1.00  0.00    -0.150 C  
HETATM   11  C   UNL     1      -7.976   9.772  64.813  1.00  0.00    -0.138 C  
ENDBRANCH   9  10
ENDBRANCH   8   9
ENDBRANCH   7   8
ENDBRANCH   6   7
BRANCH   6  12
HETATM   12  C   UNL     1     -11.890  11.175  68.850  1.00  0.00    -0.337 C  
BRANCH  12  13
HETATM   13  C   UNL     1     -11.056  12.215  68.117  1.00  0.00    -0.248 C  
BRANCH  13  14
HETATM   14  P   UNL     1     -11.892  13.865  68.003  1.00  0.00    -0.314 P  
BRANCH  14  15
HETATM   15  C   UNL     1     -10.613  14.999  68.729  1.00  0.00    -0.240 C  
BRANCH  15  16
HETATM   16  C   UNL     1     -10.822  16.438  68.252  1.00  0.00    -0.347 C  
BRANCH  16  17
HETATM   17  O   UNL     1     -10.001  17.337  69.004  1.00  0.00    -0.298 OA 
BRANCH  17  18
HETATM   18  C   UNL     1      -9.945  18.612  68.361  1.00  0.00    -0.387 C  
HETATM   19  C   UNL     1     -10.655  18.541  67.024  1.00  0.00    -0.421 C  
ENDBRANCH  17  18
ENDBRANCH  16  17
ENDBRANCH  15  16
ENDBRANCH  14  15
BRANCH  14  20
HETATM   20  C   UNL     1     -11.629  14.213  66.196  1.00  0.00    -0.370 C  
BRANCH  20  21
HETATM   21  C   UNL     1     -12.893  13.974  65.373  1.00  0.00    -0.410 C  
BRANCH  21  22
HETATM   22  O   UNL     1     -12.540  13.433  64.100  1.00  0.00    -0.636 OA 
BRANCH  22  23
HETATM   23  C   UNL     1     -12.021  12.108  64.240  1.00  0.00    -0.380 C  
HETATM   24  C   UNL     1     -10.801  11.957  63.354  1.00  0.00    -0.469 C  
ENDBRANCH  22  23
ENDBRANCH  21  22
ENDBRANCH  20  21
ENDBRANCH  14  20
ENDBRANCH  13  14
ENDBRANCH  12  13
ENDBRANCH   6  12
ENDBRANCH   5   6
ENDBRANCH   4   5
ENDBRANCH   3   4
ENDBRANCH   2   3
TORSDOF 19
ENDMDL
MODEL      147
REMARK 921   NORMALIZED FREE ENERGY PREDICTED BY IDOCK:   -3.41 KCAL/MOL
REMARK 922        TOTAL FREE ENERGY PREDICTED BY IDOCK:   -8.45 KCAL/MOL
REMARK 923 INTER-LIGAND FREE ENERGY PREDICTED BY IDOCK:   -7.41 KCAL/MOL
REMARK 924 INTRA-LIGAND FREE ENERGY PREDICTED BY IDOCK:   -1.04 KCAL/MOL
REMARK 927      BINDING AFFINITY PREDICTED BY RF-SCORE:    0.00 PKD
ROOT
HETATM    1  C   UNL     1     -14.387  14.784  71.878  1.00  0.00    -0.657 C  
HETATM    2  C   UNL     1     -13.156  13.902  71.915  1.00  0.00    -0.385 C  
ENDROOT
BRANCH   2   3
HETATM    3  O   UNL     1     -13.524  12.576  72.303  1.00  0.00    -0.556 OA 
BRANCH   3   4
HETATM    4  C   UNL     1     -13.047  11.634  71.338  1.00  0.00    -0.243 C  
BRANCH   4   5
HETATM    5  C   UNL     1     -12.877  10.254  71.970  1.00  0.00    -0.359 C  
BRANCH   5   6
HETATM    6  P   UNL     1     -11.434   9.332  71.258  1.00  0.00    -0.404 P  
BRANCH   6   7
HETATM    7  C   UNL     1     -12.203   7.692  70.839  1.00  0.00    -0.168 C  
BRANCH   7   8
HETATM    8  C   UNL     1     -11.188   6.558  70.985  1.00  0.00    -0.309 C  
BRANCH   8   9
HETATM    9  O   UNL     1     -10.549   6.305  69.730  1.00  0.00    -0.214 OA 
BRANCH   9  10
HETATM   10  C   UNL     1      -9.224   5.815  69.940  1.00  0.00    -0.144 C  
HETATM   11  C   UNL     1      -9.287   4.419  70.525  1.00  0.00    -0.213 C  
ENDBRANCH   9  10
ENDBRANCH   8   9
ENDBRANCH   7   8
ENDBRANCH   6   7
BRANCH   6  12
HETATM   12  C   UNL     1     -11.375  10.044  69.543  1.00  0.00    -0.169 C  
BRANCH  12  13
HETATM   13  C   UNL     1     -10.003   9.923  68.898  1.00  0.00    -0.181 C  
BRANCH  13  14
HETATM   14  P   UNL     1      -9.811  10.993  67.397  1.00  0.00    -0.179 P  
BRANCH  14  15
HETATM   15  C   UNL     1     -11.533  11.644  67.161  1.00  0.00    -0.271 C  
BRANCH  15  16
HETATM   16  C   UNL     1     -11.733  12.161  65.734  1.00  0.00    -0.327 C  
BRANCH  16  17
HETATM   17  O   UNL     1     -12.138  13.533  65.754  1.00  0.00    -0.382 OA 
BRANCH  17  18
HETATM   18  C   UNL     1     -12.044  14.095  64.442  1.00  0.00    -0.463 C  
HETATM   19  C   UNL     1     -11.919  12.985  63.419  1.00  0.00    -0.592 C  
ENDBRANCH  17  18
ENDBRANCH  16  17
ENDBRANCH  15  16
ENDBRANCH  14  15
BRANCH  14  20
HETATM   20  C   UNL     1      -9.019  12.479  68.185  1.00  0.00    -0.199 C  
BRANCH  20  21
HETATM   21  C   UNL     1     -10.053  13.488  68.681  1.00  0.00    -0.166 C  
BRANCH  21  22
HETATM   22  O   UNL     1      -9.564  14.814  68.476  1.00  0.00    -0.205 OA 
BRANCH  22  23
HETATM   23  C   UNL     1     -10.625  15.690  68.088  1.00  0.00    -0.274 C  
HETATM   24  C   UNL     1     -11.421  16.081  69.317  1.00  0.00    -0.350 C  
ENDBRANCH  22  23
ENDBRANCH  21  22
ENDBRANCH  20  21
ENDBRANCH  14  20
ENDBRANCH  13  14
ENDBRANCH  12  13
ENDBRANCH   6  12
ENDBRANCH   5   6
ENDBRANCH   4   5
ENDBRANCH   3   4
ENDBRANCH   2   3
TORSDOF 19
ENDMDL
MODEL      148
REMARK 921   NORMALIZED FREE ENERGY PREDICTED BY IDOCK:   -3.41 KCAL/MOL
REMARK 922        TOTAL FREE ENERGY PREDICTED BY IDOCK:   -8.45 KCAL/MOL
REMARK 923 INTER-LIGAND FREE ENERGY PREDICTED BY IDOCK:   -7.12 KCAL/MOL
REMARK 924 INTRA-LIGAND FREE ENERGY PREDICTED BY IDOCK:   -1.32 KCAL/MOL
REMARK 927      BINDING AFFINITY PREDICTED BY RF-SCORE:    0.00 PKD
ROOT
HETATM    1  C   UNL     1      -9.163  19.338  68.492  1.00  0.00    -0.434 C  
HETATM    2  C   UNL     1      -7.678  19.560  68.691  1.00  0.00    -0.355 C  
ENDROOT
BRANCH   2   3
HETATM    3  O   UNL     1      -6.940  18.585  67.949  1.00  0.00    -0.214 OA 
BRANCH   3   4
HETATM    4  C   UNL     1      -7.831  17.801  67.150  1.00  0.00    -0.211 C  
BRANCH   4   5
HETATM    5  C   UNL     1      -7.253  16.410  66.905  1.00  0.00    -0.231 C  
BRANCH   5   6
HETATM    6  P   UNL     1      -8.559  15.094  66.941  1.00  0.00    -0.229 P  
BRANCH   6   7
HETATM    7  C   UNL     1      -7.596  13.620  67.539  1.00  0.00    -0.170 C  
BRANCH   7   8
HETATM    8  C   UNL     1      -8.099  12.334  66.884  1.00  0.00    -0.090 C  
BRANCH   8   9
HETATM    9  O   UNL     1      -8.434  11.370  67.886  1.00  0.00    -0.129 OA 
BRANCH   9  10
HETATM   10  C   UNL     1      -9.012  10.211  67.284  1.00  0.00    -0.135 C  
HETATM   11  C   UNL     1      -8.696  10.199  65.802  1.00  0.00    -0.166 C  
ENDBRANCH   9  10
ENDBRANCH   8   9
ENDBRANCH   7   8
ENDBRANCH   6   7
BRANCH   6  12
HETATM   12  C   UNL     1      -9.430  15.507  68.528  1.00  0.00    -0.200 C  
BRANCH  12  13
HETATM   13  C   UNL     1     -10.066  14.293  69.189  1.00  0.00    -0.055 C  
BRANCH  13  14
HETATM   14  P   UNL     1     -11.878  14.140  68.832  1.00  0.00    -0.324 P  
BRANCH  14  15
HETATM   15  C   UNL     1     -11.969  12.494  67.978  1.00  0.00    -0.223 C  
BRANCH  15  16
HETATM   16  C   UNL     1     -11.831  12.655  66.462  1.00  0.00    -0.396 C  
BRANCH  16  17
HETATM   17  O   UNL     1     -12.779  13.609  65.974  1.00  0.00    -0.414 OA 
BRANCH  17  18
HETATM   18  C   UNL     1     -12.347  14.136  64.717  1.00  0.00    -0.417 C  
HETATM   19  C   UNL     1     -11.153  13.350  64.217  1.00  0.00    -0.396 C  
ENDBRANCH  17  18
ENDBRANCH  16  17
ENDBRANCH  15  16
ENDBRANCH  14  15
BRANCH  14  20
HETATM   20  C   UNL     1     -12.479  13.651  70.522  1.00  0.00    -0.324 C  
BRANCH  20  21
HETATM   21  C   UNL     1     -13.009  14.845  71.313  1.00  0.00    -0.363 C  
BRANCH  21  22
HETATM   22  O   UNL     1     -11.934  15.734  71.615  1.00  0.00    -0.368 OA 
BRANCH  22  23
HETATM   23  C   UNL     1     -12.123  16.340  72.896  1.00  0.00    -0.527 C  
HETATM   24  C   UNL     1     -12.532  15.275  73.894  1.00  0.00    -0.752 C  
ENDBRANCH  22  23
ENDBRANCH  21  22
ENDBRANCH  20  21
ENDBRANCH  14  20
ENDBRANCH  13  14
ENDBRANCH  12  13
ENDBRANCH   6  12
ENDBRANCH   5   6
ENDBRANCH   4   5
ENDBRANCH   3   4
ENDBRANCH   2   3
TORSDOF 19
ENDMDL
MODEL      149
REMARK 921   NORMALIZED FREE ENERGY PREDICTED BY IDOCK:   -3.41 KCAL/MOL
REMARK 922        TOTAL FREE ENERGY PREDICTED BY IDOCK:   -8.44 KCAL/MOL
REMARK 923 INTER-LIGAND FREE ENERGY PREDICTED BY IDOCK:   -7.43 KCAL/MOL
REMARK 924 INTRA-LIGAND FREE ENERGY PREDICTED BY IDOCK:   -1.01 KCAL/MOL
REMARK 927      BINDING AFFINITY PREDICTED BY RF-SCORE:    0.00 PKD
ROOT
HETATM    1  C   UNL     1     -11.852  15.189  64.344  1.00  0.00    -0.314 C  
HETATM    2  C   UNL     1     -12.218  13.827  63.792  1.00  0.00    -0.311 C  
ENDROOT
BRANCH   2   3
HETATM    3  O   UNL     1     -12.844  13.045  64.812  1.00  0.00    -0.708 OA 
BRANCH   3   4
HETATM    4  C   UNL     1     -12.347  13.429  66.097  1.00  0.00    -0.380 C  
BRANCH   4   5
HETATM    5  C   UNL     1     -11.740  12.230  66.821  1.00  0.00    -0.342 C  
BRANCH   5   6
HETATM    6  P   UNL     1     -10.466  12.738  68.069  1.00  0.00    -0.237 P  
BRANCH   6   7
HETATM    7  C   UNL     1      -9.660  11.112  68.470  1.00  0.00    -0.193 C  
BRANCH   7   8
HETATM    8  C   UNL     1     -10.704  10.056  68.829  1.00  0.00    -0.223 C  
BRANCH   8   9
HETATM    9  O   UNL     1     -10.076   8.785  69.015  1.00  0.00    -0.187 OA 
BRANCH   9  10
HETATM   10  C   UNL     1      -9.545   8.309  67.778  1.00  0.00    -0.148 C  
HETATM   11  C   UNL     1     -10.594   7.485  67.060  1.00  0.00    -0.409 C  
ENDBRANCH   9  10
ENDBRANCH   8   9
ENDBRANCH   7   8
ENDBRANCH   6   7
BRANCH   6  12
HETATM   12  C   UNL     1      -9.144  13.426  66.960  1.00  0.00    -0.243 C  
BRANCH  12  13
HETATM   13  C   UNL     1      -9.075  14.945  66.990  1.00  0.00    -0.237 C  
BRANCH  13  14
HETATM   14  P   UNL     1      -8.490  15.613  68.616  1.00  0.00    -0.211 P  
BRANCH  14  15
HETATM   15  C   UNL     1      -7.252  16.892  68.089  1.00  0.00    -0.170 C  
BRANCH  15  16
HETATM   16  C   UNL     1      -6.775  17.720  69.285  1.00  0.00    -0.218 C  
BRANCH  16  17
HETATM   17  O   UNL     1      -6.032  18.858  68.838  1.00  0.00    -0.210 OA 
BRANCH  17  18
HETATM   18  C   UNL     1      -6.893  19.993  68.717  1.00  0.00    -0.293 C  
HETATM   19  C   UNL     1      -6.249  21.028  67.817  1.00  0.00    -0.414 C  
ENDBRANCH  17  18
ENDBRANCH  16  17
ENDBRANCH  15  16
ENDBRANCH  14  15
BRANCH  14  20
HETATM   20  C   UNL     1      -9.928  16.717  69.026  1.00  0.00    -0.280 C  
BRANCH  20  21
HETATM   21  C   UNL     1     -10.205  17.736  67.922  1.00  0.00    -0.361 C  
BRANCH  21  22
HETATM   22  O   UNL     1     -10.377  19.030  68.499  1.00  0.00    -0.370 OA 
BRANCH  22  23
HETATM   23  C   UNL     1     -10.392  20.038  67.485  1.00  0.00    -0.378 C  
HETATM   24  C   UNL     1     -10.322  19.374  66.124  1.00  0.00    -0.595 C  
ENDBRANCH  22  23
ENDBRANCH  21  22
ENDBRANCH  20  21
ENDBRANCH  14  20
ENDBRANCH  13  14
ENDBRANCH  12  13
ENDBRANCH   6  12
ENDBRANCH   5   6
ENDBRANCH   4   5
ENDBRANCH   3   4
ENDBRANCH   2   3
TORSDOF 19
ENDMDL
MODEL      150
REMARK 921   NORMALIZED FREE ENERGY PREDICTED BY IDOCK:   -3.40 KCAL/MOL
REMARK 922        TOTAL FREE ENERGY PREDICTED BY IDOCK:   -8.42 KCAL/MOL
REMARK 923 INTER-LIGAND FREE ENERGY PREDICTED BY IDOCK:   -7.37 KCAL/MOL
REMARK 924 INTRA-LIGAND FREE ENERGY PREDICTED BY IDOCK:   -1.05 KCAL/MOL
REMARK 927      BINDING AFFINITY PREDICTED BY RF-SCORE:    0.00 PKD
ROOT
HETATM    1  C   UNL     1     -10.900  19.556  67.320  1.00  0.00    -0.557 C  
HETATM    2  C   UNL     1     -10.549  19.181  65.895  1.00  0.00    -0.415 C  
ENDROOT
BRANCH   2   3
HETATM    3  O   UNL     1     -10.529  17.758  65.760  1.00  0.00    -0.556 OA 
BRANCH   3   4
HETATM    4  C   UNL     1     -10.157  17.154  67.002  1.00  0.00    -0.297 C  
BRANCH   4   5
HETATM    5  C   UNL     1     -10.305  15.637  66.930  1.00  0.00    -0.293 C  
BRANCH   5   6
HETATM    6  P   UNL     1     -10.080  14.833  68.586  1.00  0.00    -0.243 P  
BRANCH   6   7
HETATM    7  C   UNL     1     -11.841  14.542  69.108  1.00  0.00    -0.319 C  
BRANCH   7   8
HETATM    8  C   UNL     1     -11.995  14.683  70.622  1.00  0.00    -0.315 C  
BRANCH   8   9
HETATM    9  O   UNL     1     -13.082  13.877  71.084  1.00  0.00    -0.323 OA 
BRANCH   9  10
HETATM   10  C   UNL     1     -13.298  14.090  72.480  1.00  0.00    -0.539 C  
HETATM   11  C   UNL     1     -12.797  15.467  72.866  1.00  0.00    -0.564 C  
ENDBRANCH   9  10
ENDBRANCH   8   9
ENDBRANCH   7   8
ENDBRANCH   6   7
BRANCH   6  12
HETATM   12  C   UNL     1      -9.661  13.097  68.080  1.00  0.00    -0.224 C  
BRANCH  12  13
HETATM   13  C   UNL     1      -8.318  12.993  67.372  1.00  0.00    -0.194 C  
BRANCH  13  14
HETATM   14  P   UNL     1      -7.957  11.285  66.750  1.00  0.00    -0.141 P  
BRANCH  14  15
HETATM   15  C   UNL     1      -7.358  10.431  68.286  1.00  0.00    -0.088 C  
BRANCH  15  16
HETATM   16  C   UNL     1      -8.438   9.507  68.856  1.00  0.00    -0.123 C  
BRANCH  16  17
HETATM   17  O   UNL     1      -8.953  10.041  70.080  1.00  0.00    -0.195 OA 
BRANCH  17  18
HETATM   18  C   UNL     1     -10.279   9.557  70.310  1.00  0.00    -0.260 C  
HETATM   19  C   UNL     1     -10.506   8.291  69.510  1.00  0.00    -0.228 C  
ENDBRANCH  17  18
ENDBRANCH  16  17
ENDBRANCH  15  16
ENDBRANCH  14  15
BRANCH  14  20
HETATM   20  C   UNL     1      -9.690  10.617  66.675  1.00  0.00    -0.184 C  
BRANCH  20  21
HETATM   21  C   UNL     1     -10.155  10.382  65.240  1.00  0.00    -0.300 C  
BRANCH  21  22
HETATM   22  O   UNL     1      -9.109  10.733  64.334  1.00  0.00    -0.199 OA 
BRANCH  22  23
HETATM   23  C   UNL     1      -9.649  11.197  63.093  1.00  0.00    -0.369 C  
HETATM   24  C   UNL     1     -10.679  12.274  63.371  1.00  0.00    -0.438 C  
ENDBRANCH  22  23
ENDBRANCH  21  22
ENDBRANCH  20  21
ENDBRANCH  14  20
ENDBRANCH  13  14
ENDBRANCH  12  13
ENDBRANCH   6  12
ENDBRANCH   5   6
ENDBRANCH   4   5
ENDBRANCH   3   4
ENDBRANCH   2   3
TORSDOF 19
ENDMDL
MODEL      151
REMARK 921   NORMALIZED FREE ENERGY PREDICTED BY IDOCK:   -3.39 KCAL/MOL
REMARK 922        TOTAL FREE ENERGY PREDICTED BY IDOCK:   -8.41 KCAL/MOL
REMARK 923 INTER-LIGAND FREE ENERGY PREDICTED BY IDOCK:   -7.13 KCAL/MOL
REMARK 924 INTRA-LIGAND FREE ENERGY PREDICTED BY IDOCK:   -1.28 KCAL/MOL
REMARK 927      BINDING AFFINITY PREDICTED BY RF-SCORE:    0.00 PKD
ROOT
HETATM    1  C   UNL     1     -10.359   9.176  69.055  1.00  0.00    -0.229 C  
HETATM    2  C   UNL     1     -10.891   9.541  67.685  1.00  0.00    -0.187 C  
ENDROOT
BRANCH   2   3
HETATM    3  O   UNL     1     -11.506  10.831  67.733  1.00  0.00    -0.460 OA 
BRANCH   3   4
HETATM    4  C   UNL     1     -11.158  11.493  68.952  1.00  0.00    -0.232 C  
BRANCH   4   5
HETATM    5  C   UNL     1     -11.020  12.997  68.729  1.00  0.00    -0.258 C  
BRANCH   5   6
HETATM    6  P   UNL     1     -10.719  13.415  66.948  1.00  0.00    -0.276 P  
BRANCH   6   7
HETATM    7  C   UNL     1     -12.354  14.149  66.451  1.00  0.00    -0.400 C  
BRANCH   7   8
HETATM    8  C   UNL     1     -12.667  13.847  64.985  1.00  0.00    -0.336 C  
BRANCH   8   9
HETATM    9  O   UNL     1     -13.049  12.478  64.835  1.00  0.00    -0.833 OA 
BRANCH   9  10
HETATM   10  C   UNL     1     -12.655  11.991  63.551  1.00  0.00    -0.507 C  
HETATM   11  C   UNL     1     -11.203  11.562  63.596  1.00  0.00    -0.451 C  
ENDBRANCH   9  10
ENDBRANCH   8   9
ENDBRANCH   7   8
ENDBRANCH   6   7
BRANCH   6  12
HETATM   12  C   UNL     1      -9.758  14.995  67.116  1.00  0.00    -0.226 C  
BRANCH  12  13
HETATM   13  C   UNL     1      -9.255  15.236  68.532  1.00  0.00    -0.200 C  
BRANCH  13  14
HETATM   14  P   UNL     1      -8.030  16.622  68.640  1.00  0.00    -0.246 P  
BRANCH  14  15
HETATM   15  C   UNL     1      -6.602  15.813  69.507  1.00  0.00    -0.183 C  
BRANCH  15  16
HETATM   16  C   UNL     1      -6.910  14.346  69.820  1.00  0.00    -0.095 C  
BRANCH  16  17
HETATM   17  O   UNL     1      -5.807  13.515  69.445  1.00  0.00    -0.084 OA 
BRANCH  17  18
HETATM   18  C   UNL     1      -6.188  12.138  69.493  1.00  0.00    -0.124 C  
HETATM   19  C   UNL     1      -7.430  11.922  68.653  1.00  0.00    -0.118 C  
ENDBRANCH  17  18
ENDBRANCH  16  17
ENDBRANCH  15  16
ENDBRANCH  14  15
BRANCH  14  20
HETATM   20  C   UNL     1      -7.392  16.599  66.895  1.00  0.00    -0.225 C  
BRANCH  20  21
HETATM   21  C   UNL     1      -7.448  17.979  66.242  1.00  0.00    -0.277 C  
BRANCH  21  22
HETATM   22  O   UNL     1      -8.202  18.868  67.066  1.00  0.00    -0.260 OA 
BRANCH  22  23
HETATM   23  C   UNL     1      -9.274  19.458  66.325  1.00  0.00    -0.348 C  
HETATM   24  C   UNL     1     -10.528  19.449  67.176  1.00  0.00    -0.577 C  
ENDBRANCH  22  23
ENDBRANCH  21  22
ENDBRANCH  20  21
ENDBRANCH  14  20
ENDBRANCH  13  14
ENDBRANCH  12  13
ENDBRANCH   6  12
ENDBRANCH   5   6
ENDBRANCH   4   5
ENDBRANCH   3   4
ENDBRANCH   2   3
TORSDOF 19
ENDMDL
MODEL      152
REMARK 921   NORMALIZED FREE ENERGY PREDICTED BY IDOCK:   -3.39 KCAL/MOL
REMARK 922        TOTAL FREE ENERGY PREDICTED BY IDOCK:   -8.40 KCAL/MOL
REMARK 923 INTER-LIGAND FREE ENERGY PREDICTED BY IDOCK:   -7.50 KCAL/MOL
REMARK 924 INTRA-LIGAND FREE ENERGY PREDICTED BY IDOCK:   -0.90 KCAL/MOL
REMARK 927      BINDING AFFINITY PREDICTED BY RF-SCORE:    0.00 PKD
ROOT
HETATM    1  C   UNL     1     -14.407   8.773  72.325  1.00  0.00    -0.468 C  
HETATM    2  C   UNL     1     -13.481   7.848  71.563  1.00  0.00    -0.306 C  
ENDROOT
BRANCH   2   3
HETATM    3  O   UNL     1     -12.184   7.862  72.164  1.00  0.00    -0.309 OA 
BRANCH   3   4
HETATM    4  C   UNL     1     -11.175   7.879  71.150  1.00  0.00    -0.261 C  
BRANCH   4   5
HETATM    5  C   UNL     1     -10.438   9.215  71.144  1.00  0.00    -0.315 C  
BRANCH   5   6
HETATM    6  P   UNL     1     -10.065   9.801  69.425  1.00  0.00    -0.241 P  
BRANCH   6   7
HETATM    7  C   UNL     1     -10.139   8.214  68.459  1.00  0.00    -0.200 C  
BRANCH   7   8
HETATM    8  C   UNL     1     -10.435   8.483  66.984  1.00  0.00    -0.292 C  
BRANCH   8   9
HETATM    9  O   UNL     1      -9.215   8.684  66.266  1.00  0.00    -0.173 OA 
BRANCH   9  10
HETATM   10  C   UNL     1      -9.360   9.757  65.334  1.00  0.00    -0.252 C  
HETATM   11  C   UNL     1      -8.289   9.650  64.268  1.00  0.00    -0.169 C  
ENDBRANCH   9  10
ENDBRANCH   8   9
ENDBRANCH   7   8
ENDBRANCH   6   7
BRANCH   6  12
HETATM   12  C   UNL     1     -11.715  10.494  68.926  1.00  0.00    -0.146 C  
BRANCH  12  13
HETATM   13  C   UNL     1     -11.598  11.692  67.995  1.00  0.00    -0.313 C  
BRANCH  13  14
HETATM   14  P   UNL     1     -10.950  13.208  68.842  1.00  0.00    -0.155 P  
BRANCH  14  15
HETATM   15  C   UNL     1     -11.705  14.570  67.832  1.00  0.00    -0.351 C  
BRANCH  15  16
HETATM   16  C   UNL     1     -10.683  15.674  67.549  1.00  0.00    -0.303 C  
BRANCH  16  17
HETATM   17  O   UNL     1     -10.946  16.817  68.369  1.00  0.00    -0.355 OA 
BRANCH  17  18
HETATM   18  C   UNL     1     -10.322  17.977  67.814  1.00  0.00    -0.393 C  
HETATM   19  C   UNL     1      -8.835  17.942  68.097  1.00  0.00    -0.265 C  
ENDBRANCH  17  18
ENDBRANCH  16  17
ENDBRANCH  15  16
ENDBRANCH  14  15
BRANCH  14  20
HETATM   20  C   UNL     1     -12.087  13.241  70.313  1.00  0.00    -0.335 C  
BRANCH  20  21
HETATM   21  C   UNL     1     -12.388  14.665  70.776  1.00  0.00    -0.328 C  
BRANCH  21  22
HETATM   22  O   UNL     1     -11.376  15.096  71.687  1.00  0.00    -0.381 OA 
BRANCH  22  23
HETATM   23  C   UNL     1     -11.886  16.093  72.575  1.00  0.00    -0.528 C  
HETATM   24  C   UNL     1     -13.271  15.685  73.038  1.00  0.00    -0.664 C  
ENDBRANCH  22  23
ENDBRANCH  21  22
ENDBRANCH  20  21
ENDBRANCH  14  20
ENDBRANCH  13  14
ENDBRANCH  12  13
ENDBRANCH   6  12
ENDBRANCH   5   6
ENDBRANCH   4   5
ENDBRANCH   3   4
ENDBRANCH   2   3
TORSDOF 19
ENDMDL
MODEL      153
REMARK 921   NORMALIZED FREE ENERGY PREDICTED BY IDOCK:   -3.39 KCAL/MOL
REMARK 922        TOTAL FREE ENERGY PREDICTED BY IDOCK:   -8.40 KCAL/MOL
REMARK 923 INTER-LIGAND FREE ENERGY PREDICTED BY IDOCK:   -7.50 KCAL/MOL
REMARK 924 INTRA-LIGAND FREE ENERGY PREDICTED BY IDOCK:   -0.90 KCAL/MOL
REMARK 927      BINDING AFFINITY PREDICTED BY RF-SCORE:    0.00 PKD
ROOT
HETATM    1  C   UNL     1     -11.240  15.349  64.671  1.00  0.00    -0.374 C  
HETATM    2  C   UNL     1     -12.112  14.201  64.209  1.00  0.00    -0.444 C  
ENDROOT
BRANCH   2   3
HETATM    3  O   UNL     1     -13.027  13.841  65.247  1.00  0.00    -0.731 OA 
BRANCH   3   4
HETATM    4  C   UNL     1     -12.360  13.850  66.512  1.00  0.00    -0.404 C  
BRANCH   4   5
HETATM    5  C   UNL     1     -11.747  12.484  66.810  1.00  0.00    -0.384 C  
BRANCH   5   6
HETATM    6  P   UNL     1     -11.148  12.352  68.560  1.00  0.00    -0.298 P  
BRANCH   6   7
HETATM    7  C   UNL     1     -11.322  10.530  68.883  1.00  0.00    -0.251 C  
BRANCH   7   8
HETATM    8  C   UNL     1     -10.202   9.744  68.203  1.00  0.00    -0.186 C  
BRANCH   8   9
HETATM    9  O   UNL     1     -10.733   8.952  67.137  1.00  0.00    -0.265 OA 
BRANCH   9  10
HETATM   10  C   UNL     1      -9.917   7.798  66.924  1.00  0.00    -0.261 C  
HETATM   11  C   UNL     1     -10.737   6.547  67.166  1.00  0.00    -0.438 C  
ENDBRANCH   9  10
ENDBRANCH   8   9
ENDBRANCH   7   8
ENDBRANCH   6   7
BRANCH   6  12
HETATM   12  C   UNL     1      -9.310  12.405  68.307  1.00  0.00    -0.199 C  
BRANCH  12  13
HETATM   13  C   UNL     1      -8.837  13.694  67.650  1.00  0.00    -0.194 C  
BRANCH  13  14
HETATM   14  P   UNL     1      -8.690  15.104  68.844  1.00  0.00    -0.213 P  
BRANCH  14  15
HETATM   15  C   UNL     1      -7.478  16.216  67.984  1.00  0.00    -0.132 C  
BRANCH  15  16
HETATM   16  C   UNL     1      -6.654  17.016  68.996  1.00  0.00    -0.216 C  
BRANCH  16  17
HETATM   17  O   UNL     1      -6.128  18.198  68.386  1.00  0.00    -0.182 OA 
BRANCH  17  18
HETATM   18  C   UNL     1      -7.095  19.250  68.432  1.00  0.00    -0.293 C  
HETATM   19  C   UNL     1      -6.396  20.591  68.348  1.00  0.00    -0.351 C  
ENDBRANCH  17  18
ENDBRANCH  16  17
ENDBRANCH  15  16
ENDBRANCH  14  15
BRANCH  14  20
HETATM   20  C   UNL     1     -10.271  15.999  68.451  1.00  0.00    -0.236 C  
BRANCH  20  21
HETATM   21  C   UNL     1     -10.963  16.525  69.707  1.00  0.00    -0.292 C  
BRANCH  21  22
HETATM   22  O   UNL     1     -12.067  15.680  70.034  1.00  0.00    -0.360 OA 
BRANCH  22  23
HETATM   23  C   UNL     1     -11.984  15.243  71.394  1.00  0.00    -0.368 C  
HETATM   24  C   UNL     1     -13.017  14.160  71.631  1.00  0.00    -0.423 C  
ENDBRANCH  22  23
ENDBRANCH  21  22
ENDBRANCH  20  21
ENDBRANCH  14  20
ENDBRANCH  13  14
ENDBRANCH  12  13
ENDBRANCH   6  12
ENDBRANCH   5   6
ENDBRANCH   4   5
ENDBRANCH   3   4
ENDBRANCH   2   3
TORSDOF 19
ENDMDL
MODEL      154
REMARK 921   NORMALIZED FREE ENERGY PREDICTED BY IDOCK:   -3.39 KCAL/MOL
REMARK 922        TOTAL FREE ENERGY PREDICTED BY IDOCK:   -8.40 KCAL/MOL
REMARK 923 INTER-LIGAND FREE ENERGY PREDICTED BY IDOCK:   -7.21 KCAL/MOL
REMARK 924 INTRA-LIGAND FREE ENERGY PREDICTED BY IDOCK:   -1.19 KCAL/MOL
REMARK 927      BINDING AFFINITY PREDICTED BY RF-SCORE:    0.00 PKD
ROOT
HETATM    1  C   UNL     1      -6.852  11.813  69.087  1.00  0.00    -0.106 C  
HETATM    2  C   UNL     1      -6.565  13.284  68.872  1.00  0.00    -0.107 C  
ENDROOT
BRANCH   2   3
HETATM    3  O   UNL     1      -7.745  13.943  68.404  1.00  0.00    -0.124 OA 
BRANCH   3   4
HETATM    4  C   UNL     1      -8.292  13.233  67.289  1.00  0.00    -0.177 C  
BRANCH   4   5
HETATM    5  C   UNL     1      -9.490  13.980  66.709  1.00  0.00    -0.282 C  
BRANCH   5   6
HETATM    6  P   UNL     1     -11.096  13.143  67.107  1.00  0.00    -0.301 P  
BRANCH   6   7
HETATM    7  C   UNL     1     -11.708  12.674  65.415  1.00  0.00    -0.387 C  
BRANCH   7   8
HETATM    8  C   UNL     1     -10.833  13.293  64.325  1.00  0.00    -0.392 C  
BRANCH   8   9
HETATM    9  O   UNL     1     -10.143  12.267  63.606  1.00  0.00    -0.409 OA 
BRANCH   9  10
HETATM   10  C   UNL     1     -10.638  10.980  63.983  1.00  0.00    -0.324 C  
HETATM   11  C   UNL     1      -9.475  10.040  64.224  1.00  0.00    -0.336 C  
ENDBRANCH   9  10
ENDBRANCH   8   9
ENDBRANCH   7   8
ENDBRANCH   6   7
BRANCH   6  12
HETATM   12  C   UNL     1     -10.495  11.470  67.646  1.00  0.00    -0.189 C  
BRANCH  12  13
HETATM   13  C   UNL     1     -11.440  10.787  68.623  1.00  0.00    -0.295 C  
BRANCH  13  14
HETATM   14  P   UNL     1     -10.555   9.922  70.002  1.00  0.00    -0.315 P  
BRANCH  14  15
HETATM   15  C   UNL     1     -11.792  10.026  71.383  1.00  0.00    -0.363 C  
BRANCH  15  16
HETATM   16  C   UNL     1     -12.856  11.086  71.087  1.00  0.00    -0.392 C  
BRANCH  16  17
HETATM   17  O   UNL     1     -13.292  11.705  72.301  1.00  0.00    -0.443 OA 
BRANCH  17  18
HETATM   18  C   UNL     1     -13.481  13.108  72.099  1.00  0.00    -0.560 C  
HETATM   19  C   UNL     1     -12.521  13.606  71.039  1.00  0.00    -0.456 C  
ENDBRANCH  17  18
ENDBRANCH  16  17
ENDBRANCH  15  16
ENDBRANCH  14  15
BRANCH  14  20
HETATM   20  C   UNL     1     -10.823   8.160  69.474  1.00  0.00    -0.121 C  
BRANCH  20  21
HETATM   21  C   UNL     1     -10.287   7.162  70.499  1.00  0.00    -0.202 C  
BRANCH  21  22
HETATM   22  O   UNL     1     -11.379   6.517  71.155  1.00  0.00    -0.284 OA 
BRANCH  22  23
HETATM   23  C   UNL     1     -10.955   5.938  72.392  1.00  0.00    -0.264 C  
HETATM   24  C   UNL     1     -10.730   7.041  73.406  1.00  0.00    -0.379 C  
ENDBRANCH  22  23
ENDBRANCH  21  22
ENDBRANCH  20  21
ENDBRANCH  14  20
ENDBRANCH  13  14
ENDBRANCH  12  13
ENDBRANCH   6  12
ENDBRANCH   5   6
ENDBRANCH   4   5
ENDBRANCH   3   4
ENDBRANCH   2   3
TORSDOF 19
ENDMDL
MODEL      155
REMARK 921   NORMALIZED FREE ENERGY PREDICTED BY IDOCK:   -3.39 KCAL/MOL
REMARK 922        TOTAL FREE ENERGY PREDICTED BY IDOCK:   -8.40 KCAL/MOL
REMARK 923 INTER-LIGAND FREE ENERGY PREDICTED BY IDOCK:   -7.23 KCAL/MOL
REMARK 924 INTRA-LIGAND FREE ENERGY PREDICTED BY IDOCK:   -1.16 KCAL/MOL
REMARK 927      BINDING AFFINITY PREDICTED BY RF-SCORE:    0.00 PKD
ROOT
HETATM    1  C   UNL     1     -14.126  14.337  72.012  1.00  0.00    -0.618 C  
HETATM    2  C   UNL     1     -12.697  14.189  71.534  1.00  0.00    -0.358 C  
ENDROOT
BRANCH   2   3
HETATM    3  O   UNL     1     -12.137  15.479  71.278  1.00  0.00    -0.316 OA 
BRANCH   3   4
HETATM    4  C   UNL     1     -12.130  15.739  69.872  1.00  0.00    -0.297 C  
BRANCH   4   5
HETATM    5  C   UNL     1     -10.808  16.373  69.446  1.00  0.00    -0.327 C  
BRANCH   5   6
HETATM    6  P   UNL     1     -10.461  16.123  67.642  1.00  0.00    -0.296 P  
BRANCH   6   7
HETATM    7  C   UNL     1      -9.424  17.614  67.246  1.00  0.00    -0.257 C  
BRANCH   7   8
HETATM    8  C   UNL     1     -10.222  18.638  66.438  1.00  0.00    -0.425 C  
BRANCH   8   9
HETATM    9  O   UNL     1      -9.364  19.694  65.998  1.00  0.00    -0.364 OA 
BRANCH   9  10
HETATM   10  C   UNL     1      -8.095  19.604  66.647  1.00  0.00    -0.309 C  
HETATM   11  C   UNL     1      -7.020  20.164  65.738  1.00  0.00    -0.310 C  
ENDBRANCH   9  10
ENDBRANCH   8   9
ENDBRANCH   7   8
ENDBRANCH   6   7
BRANCH   6  12
HETATM   12  C   UNL     1      -9.099  14.863  67.718  1.00  0.00    -0.185 C  
BRANCH  12  13
HETATM   13  C   UNL     1      -9.494  13.525  67.111  1.00  0.00    -0.244 C  
BRANCH  13  14
HETATM   14  P   UNL     1     -11.268  13.465  66.580  1.00  0.00    -0.326 P  
BRANCH  14  15
HETATM   15  C   UNL     1     -11.275  12.024  65.409  1.00  0.00    -0.322 C  
BRANCH  15  16
HETATM   16  C   UNL     1      -9.849  11.557  65.105  1.00  0.00    -0.257 C  
BRANCH  16  17
HETATM   17  O   UNL     1      -9.817  10.138  64.929  1.00  0.00    -0.307 OA 
BRANCH  17  18
HETATM   18  C   UNL     1      -9.819   9.482  66.200  1.00  0.00    -0.272 C  
HETATM   19  C   UNL     1      -8.584   9.880  66.982  1.00  0.00    -0.130 C  
ENDBRANCH  17  18
ENDBRANCH  16  17
ENDBRANCH  15  16
ENDBRANCH  14  15
BRANCH  14  20
HETATM   20  C   UNL     1     -12.006  12.653  68.080  1.00  0.00    -0.222 C  
BRANCH  20  21
HETATM   21  C   UNL     1     -10.999  11.768  68.811  1.00  0.00    -0.234 C  
BRANCH  21  22
HETATM   22  O   UNL     1     -11.629  11.152  69.934  1.00  0.00    -0.282 OA 
BRANCH  22  23
HETATM   23  C   UNL     1     -11.364   9.747  69.956  1.00  0.00    -0.220 C  
HETATM   24  C   UNL     1     -10.109   9.492  70.767  1.00  0.00    -0.352 C  
ENDBRANCH  22  23
ENDBRANCH  21  22
ENDBRANCH  20  21
ENDBRANCH  14  20
ENDBRANCH  13  14
ENDBRANCH  12  13
ENDBRANCH   6  12
ENDBRANCH   5   6
ENDBRANCH   4   5
ENDBRANCH   3   4
ENDBRANCH   2   3
TORSDOF 19
ENDMDL
MODEL      156
REMARK 921   NORMALIZED FREE ENERGY PREDICTED BY IDOCK:   -3.36 KCAL/MOL
REMARK 922        TOTAL FREE ENERGY PREDICTED BY IDOCK:   -8.35 KCAL/MOL
REMARK 923 INTER-LIGAND FREE ENERGY PREDICTED BY IDOCK:   -7.36 KCAL/MOL
REMARK 924 INTRA-LIGAND FREE ENERGY PREDICTED BY IDOCK:   -0.99 KCAL/MOL
REMARK 927      BINDING AFFINITY PREDICTED BY RF-SCORE:    0.00 PKD
ROOT
HETATM    1  C   UNL     1     -10.732  19.821  67.323  1.00  0.00    -0.532 C  
HETATM    2  C   UNL     1     -10.458  19.397  65.895  1.00  0.00    -0.472 C  
ENDROOT
BRANCH   2   3
HETATM    3  O   UNL     1     -10.351  17.972  65.827  1.00  0.00    -0.583 OA 
BRANCH   3   4
HETATM    4  C   UNL     1     -10.007  17.446  67.111  1.00  0.00    -0.291 C  
BRANCH   4   5
HETATM    5  C   UNL     1     -10.140  15.925  67.124  1.00  0.00    -0.264 C  
BRANCH   5   6
HETATM    6  P   UNL     1     -10.307  15.252  68.844  1.00  0.00    -0.265 P  
BRANCH   6   7
HETATM    7  C   UNL     1     -12.097  15.594  69.211  1.00  0.00    -0.241 C  
BRANCH   7   8
HETATM    8  C   UNL     1     -12.352  15.622  70.718  1.00  0.00    -0.419 C  
BRANCH   8   9
HETATM    9  O   UNL     1     -13.665  15.134  71.005  1.00  0.00    -0.432 OA 
BRANCH   9  10
HETATM   10  C   UNL     1     -13.859  15.037  72.417  1.00  0.00    -0.493 C  
HETATM   11  C   UNL     1     -12.824  15.882  73.130  1.00  0.00    -0.643 C  
ENDBRANCH   9  10
ENDBRANCH   8   9
ENDBRANCH   7   8
ENDBRANCH   6   7
BRANCH   6  12
HETATM   12  C   UNL     1     -10.449  13.433  68.496  1.00  0.00    -0.252 C  
BRANCH  12  13
HETATM   13  C   UNL     1      -9.106  12.778  68.208  1.00  0.00    -0.180 C  
BRANCH  13  14
HETATM   14  P   UNL     1      -9.260  11.003  67.701  1.00  0.00    -0.153 P  
BRANCH  14  15
HETATM   15  C   UNL     1     -11.015  10.921  67.101  1.00  0.00    -0.272 C  
BRANCH  15  16
HETATM   16  C   UNL     1     -11.114  11.348  65.634  1.00  0.00    -0.141 C  
BRANCH  16  17
HETATM   17  O   UNL     1     -11.984  12.476  65.502  1.00  0.00    -0.420 OA 
BRANCH  17  18
HETATM   18  C   UNL     1     -11.700  13.179  64.289  1.00  0.00    -0.395 C  
HETATM   19  C   UNL     1     -10.816  12.328  63.400  1.00  0.00    -0.457 C  
ENDBRANCH  17  18
ENDBRANCH  16  17
ENDBRANCH  15  16
ENDBRANCH  14  15
BRANCH  14  20
HETATM   20  C   UNL     1      -8.374  11.077  66.068  1.00  0.00    -0.147 C  
BRANCH  20  21
HETATM   21  C   UNL     1      -6.900  10.697  66.195  1.00  0.00    -0.135 C  
BRANCH  21  22
HETATM   22  O   UNL     1      -6.611  10.345  67.548  1.00  0.00    -0.065 OA 
BRANCH  22  23
HETATM   23  C   UNL     1      -5.318  10.822  67.929  1.00  0.00    -0.039 C  
HETATM   24  C   UNL     1      -5.340  12.336  67.975  1.00  0.00    -0.068 C  
ENDBRANCH  22  23
ENDBRANCH  21  22
ENDBRANCH  20  21
ENDBRANCH  14  20
ENDBRANCH  13  14
ENDBRANCH  12  13
ENDBRANCH   6  12
ENDBRANCH   5   6
ENDBRANCH   4   5
ENDBRANCH   3   4
ENDBRANCH   2   3
TORSDOF 19
ENDMDL
MODEL      157
REMARK 921   NORMALIZED FREE ENERGY PREDICTED BY IDOCK:   -3.36 KCAL/MOL
REMARK 922        TOTAL FREE ENERGY PREDICTED BY IDOCK:   -8.35 KCAL/MOL
REMARK 923 INTER-LIGAND FREE ENERGY PREDICTED BY IDOCK:   -7.56 KCAL/MOL
REMARK 924 INTRA-LIGAND FREE ENERGY PREDICTED BY IDOCK:   -0.79 KCAL/MOL
REMARK 927      BINDING AFFINITY PREDICTED BY RF-SCORE:    0.00 PKD
ROOT
HETATM    1  C   UNL     1     -14.171  14.699  71.935  1.00  0.00    -0.628 C  
HETATM    2  C   UNL     1     -12.964  13.791  72.046  1.00  0.00    -0.345 C  
ENDROOT
BRANCH   2   3
HETATM    3  O   UNL     1     -13.392  12.439  72.228  1.00  0.00    -0.522 OA 
BRANCH   3   4
HETATM    4  C   UNL     1     -12.876  11.617  71.177  1.00  0.00    -0.294 C  
BRANCH   4   5
HETATM    5  C   UNL     1     -12.710  10.176  71.651  1.00  0.00    -0.447 C  
BRANCH   5   6
HETATM    6  P   UNL     1     -11.139   9.411  71.028  1.00  0.00    -0.401 P  
BRANCH   6   7
HETATM    7  C   UNL     1     -11.672   7.658  70.711  1.00  0.00    -0.239 C  
BRANCH   7   8
HETATM    8  C   UNL     1     -11.943   6.922  72.022  1.00  0.00    -0.306 C  
BRANCH   8   9
HETATM    9  O   UNL     1     -11.226   5.685  72.050  1.00  0.00    -0.257 OA 
BRANCH   9  10
HETATM   10  C   UNL     1     -10.972   5.291  73.399  1.00  0.00    -0.316 C  
HETATM   11  C   UNL     1     -10.354   6.448  74.157  1.00  0.00    -0.335 C  
ENDBRANCH   9  10
ENDBRANCH   8   9
ENDBRANCH   7   8
ENDBRANCH   6   7
BRANCH   6  12
HETATM   12  C   UNL     1     -11.131  10.011  69.270  1.00  0.00    -0.206 C  
BRANCH  12  13
HETATM   13  C   UNL     1      -9.759  10.479  68.809  1.00  0.00    -0.184 C  
BRANCH  13  14
HETATM   14  P   UNL     1      -9.181   9.623  67.270  1.00  0.00    -0.136 P  
BRANCH  14  15
HETATM   15  C   UNL     1     -10.350   8.185  67.162  1.00  0.00    -0.321 C  
BRANCH  15  16
HETATM   16  C   UNL     1      -9.610   6.905  66.765  1.00  0.00    -0.168 C  
BRANCH  16  17
HETATM   17  O   UNL     1      -9.257   6.153  67.930  1.00  0.00    -0.118 OA 
BRANCH  17  18
HETATM   18  C   UNL     1      -9.563   4.770  67.736  1.00  0.00    -0.154 C  
HETATM   19  C   UNL     1      -9.303   4.004  69.017  1.00  0.00    -0.237 C  
ENDBRANCH  17  18
ENDBRANCH  16  17
ENDBRANCH  15  16
ENDBRANCH  14  15
BRANCH  14  20
HETATM   20  C   UNL     1      -9.942  10.743  65.997  1.00  0.00    -0.242 C  
BRANCH  20  21
HETATM   21  C   UNL     1      -9.435  10.442  64.588  1.00  0.00    -0.280 C  
BRANCH  21  22
HETATM   22  O   UNL     1     -10.404  10.870  63.630  1.00  0.00    -0.355 OA 
BRANCH  22  23
HETATM   23  C   UNL     1     -10.873  12.185  63.939  1.00  0.00    -0.406 C  
HETATM   24  C   UNL     1     -12.367  12.250  63.687  1.00  0.00    -0.664 C  
ENDBRANCH  22  23
ENDBRANCH  21  22
ENDBRANCH  20  21
ENDBRANCH  14  20
ENDBRANCH  13  14
ENDBRANCH  12  13
ENDBRANCH   6  12
ENDBRANCH   5   6
ENDBRANCH   4   5
ENDBRANCH   3   4
ENDBRANCH   2   3
TORSDOF 19
ENDMDL
MODEL      158
REMARK 921   NORMALIZED FREE ENERGY PREDICTED BY IDOCK:   -3.36 KCAL/MOL
REMARK 922        TOTAL FREE ENERGY PREDICTED BY IDOCK:   -8.34 KCAL/MOL
REMARK 923 INTER-LIGAND FREE ENERGY PREDICTED BY IDOCK:   -7.15 KCAL/MOL
REMARK 924 INTRA-LIGAND FREE ENERGY PREDICTED BY IDOCK:   -1.18 KCAL/MOL
REMARK 927      BINDING AFFINITY PREDICTED BY RF-SCORE:    0.00 PKD
ROOT
HETATM    1  C   UNL     1      -8.018   5.648  67.140  1.00  0.00    -0.102 C  
HETATM    2  C   UNL     1      -8.327   7.087  67.497  1.00  0.00    -0.119 C  
ENDROOT
BRANCH   2   3
HETATM    3  O   UNL     1      -8.469   7.861  66.303  1.00  0.00    -0.121 OA 
BRANCH   3   4
HETATM    4  C   UNL     1      -9.321   8.984  66.545  1.00  0.00    -0.191 C  
BRANCH   4   5
HETATM    5  C   UNL     1     -10.262   8.704  67.714  1.00  0.00    -0.225 C  
BRANCH   5   6
HETATM    6  P   UNL     1     -10.850  10.264  68.527  1.00  0.00    -0.238 P  
BRANCH   6   7
HETATM    7  C   UNL     1     -10.500   9.911  70.319  1.00  0.00    -0.291 C  
BRANCH   7   8
HETATM    8  C   UNL     1     -11.762  10.072  71.166  1.00  0.00    -0.387 C  
BRANCH   8   9
HETATM    9  O   UNL     1     -12.582  11.116  70.634  1.00  0.00    -0.332 OA 
BRANCH   9  10
HETATM   10  C   UNL     1     -13.027  11.978  71.683  1.00  0.00    -0.334 C  
HETATM   11  C   UNL     1     -12.792  13.421  71.286  1.00  0.00    -0.407 C  
ENDBRANCH   9  10
ENDBRANCH   8   9
ENDBRANCH   7   8
ENDBRANCH   6   7
BRANCH   6  12
HETATM   12  C   UNL     1      -9.416  11.395  68.193  1.00  0.00    -0.181 C  
BRANCH  12  13
HETATM   13  C   UNL     1      -9.822  12.669  67.465  1.00  0.00    -0.203 C  
BRANCH  13  14
HETATM   14  P   UNL     1     -11.658  12.891  67.364  1.00  0.00    -0.368 P  
BRANCH  14  15
HETATM   15  C   UNL     1     -11.819  14.736  67.229  1.00  0.00    -0.293 C  
BRANCH  15  16
HETATM   16  C   UNL     1     -10.852  15.442  68.183  1.00  0.00    -0.285 C  
BRANCH  16  17
HETATM   17  O   UNL     1     -10.216  16.541  67.524  1.00  0.00    -0.269 OA 
BRANCH  17  18
HETATM   18  C   UNL     1     -10.236  17.699  68.362  1.00  0.00    -0.381 C  
HETATM   19  C   UNL     1     -10.599  18.918  67.540  1.00  0.00    -0.524 C  
ENDBRANCH  17  18
ENDBRANCH  16  17
ENDBRANCH  15  16
ENDBRANCH  14  15
BRANCH  14  20
HETATM   20  C   UNL     1     -11.922  12.423  65.584  1.00  0.00    -0.386 C  
BRANCH  20  21
HETATM   21  C   UNL     1     -11.273  13.417  64.624  1.00  0.00    -0.359 C  
BRANCH  21  22
HETATM   22  O   UNL     1     -10.422  12.718  63.715  1.00  0.00    -0.408 OA 
BRANCH  22  23
HETATM   23  C   UNL     1     -10.537  11.305  63.900  1.00  0.00    -0.391 C  
HETATM   24  C   UNL     1      -9.596  10.601  62.943  1.00  0.00    -0.358 C  
ENDBRANCH  22  23
ENDBRANCH  21  22
ENDBRANCH  20  21
ENDBRANCH  14  20
ENDBRANCH  13  14
ENDBRANCH  12  13
ENDBRANCH   6  12
ENDBRANCH   5   6
ENDBRANCH   4   5
ENDBRANCH   3   4
ENDBRANCH   2   3
TORSDOF 19
ENDMDL
MODEL      159
REMARK 921   NORMALIZED FREE ENERGY PREDICTED BY IDOCK:   -3.35 KCAL/MOL
REMARK 922        TOTAL FREE ENERGY PREDICTED BY IDOCK:   -8.33 KCAL/MOL
REMARK 923 INTER-LIGAND FREE ENERGY PREDICTED BY IDOCK:   -7.06 KCAL/MOL
REMARK 924 INTRA-LIGAND FREE ENERGY PREDICTED BY IDOCK:   -1.26 KCAL/MOL
REMARK 927      BINDING AFFINITY PREDICTED BY RF-SCORE:    0.00 PKD
ROOT
HETATM    1  C   UNL     1     -10.806  19.409  67.540  1.00  0.00    -0.521 C  
HETATM    2  C   UNL     1     -10.557  19.336  66.048  1.00  0.00    -0.461 C  
ENDROOT
BRANCH   2   3
HETATM    3  O   UNL     1      -9.706  18.225  65.754  1.00  0.00    -0.494 OA 
BRANCH   3   4
HETATM    4  C   UNL     1     -10.495  17.080  65.419  1.00  0.00    -0.112 C  
BRANCH   4   5
HETATM    5  C   UNL     1     -10.041  15.859  66.216  1.00  0.00    -0.301 C  
BRANCH   5   6
HETATM    6  P   UNL     1     -11.092  15.572  67.716  1.00  0.00    -0.264 P  
BRANCH   6   7
HETATM    7  C   UNL     1     -12.153  14.148  67.168  1.00  0.00    -0.397 C  
BRANCH   7   8
HETATM    8  C   UNL     1     -11.459  13.336  66.074  1.00  0.00    -0.330 C  
BRANCH   8   9
HETATM    9  O   UNL     1     -12.315  12.282  65.625  1.00  0.00    -0.619 OA 
BRANCH   9  10
HETATM   10  C   UNL     1     -12.518  12.377  64.214  1.00  0.00    -0.437 C  
HETATM   11  C   UNL     1     -11.184  12.281  63.503  1.00  0.00    -0.535 C  
ENDBRANCH   9  10
ENDBRANCH   8   9
ENDBRANCH   7   8
ENDBRANCH   6   7
BRANCH   6  12
HETATM   12  C   UNL     1      -9.912  14.627  68.795  1.00  0.00    -0.235 C  
BRANCH  12  13
HETATM   13  C   UNL     1      -8.916  15.524  69.513  1.00  0.00    -0.244 C  
BRANCH  13  14
HETATM   14  P   UNL     1      -7.153  15.058  69.185  1.00  0.00    -0.175 P  
BRANCH  14  15
HETATM   15  C   UNL     1      -7.335  13.727  67.903  1.00  0.00    -0.153 C  
BRANCH  15  16
HETATM   16  C   UNL     1      -6.782  12.394  68.413  1.00  0.00    -0.069 C  
BRANCH  16  17
HETATM   17  O   UNL     1      -7.850  11.546  68.845  1.00  0.00    -0.131 OA 
BRANCH  17  18
HETATM   18  C   UNL     1      -7.335  10.458  69.617  1.00  0.00    -0.156 C  
HETATM   19  C   UNL     1      -8.481   9.680  70.232  1.00  0.00    -0.221 C  
ENDBRANCH  17  18
ENDBRANCH  16  17
ENDBRANCH  15  16
ENDBRANCH  14  15
BRANCH  14  20
HETATM   20  C   UNL     1      -6.662  16.480  68.094  1.00  0.00    -0.140 C  
BRANCH  20  21
HETATM   21  C   UNL     1      -7.525  17.717  68.335  1.00  0.00    -0.253 C  
BRANCH  21  22
HETATM   22  O   UNL     1      -6.988  18.823  67.610  1.00  0.00    -0.205 OA 
BRANCH  22  23
HETATM   23  C   UNL     1      -6.950  19.995  68.429  1.00  0.00    -0.294 C  
HETATM   24  C   UNL     1      -5.533  20.530  68.465  1.00  0.00    -0.315 C  
ENDBRANCH  22  23
ENDBRANCH  21  22
ENDBRANCH  20  21
ENDBRANCH  14  20
ENDBRANCH  13  14
ENDBRANCH  12  13
ENDBRANCH   6  12
ENDBRANCH   5   6
ENDBRANCH   4   5
ENDBRANCH   3   4
ENDBRANCH   2   3
TORSDOF 19
ENDMDL
MODEL      160
REMARK 921   NORMALIZED FREE ENERGY PREDICTED BY IDOCK:   -3.35 KCAL/MOL
REMARK 922        TOTAL FREE ENERGY PREDICTED BY IDOCK:   -8.32 KCAL/MOL
REMARK 923 INTER-LIGAND FREE ENERGY PREDICTED BY IDOCK:   -7.13 KCAL/MOL
REMARK 924 INTRA-LIGAND FREE ENERGY PREDICTED BY IDOCK:   -1.18 KCAL/MOL
REMARK 927      BINDING AFFINITY PREDICTED BY RF-SCORE:    0.00 PKD
ROOT
HETATM    1  C   UNL     1     -10.360  19.922  66.429  1.00  0.00    -0.611 C  
HETATM    2  C   UNL     1     -10.007  20.041  67.897  1.00  0.00    -0.422 C  
ENDROOT
BRANCH   2   3
HETATM    3  O   UNL     1     -10.100  18.758  68.522  1.00  0.00    -0.375 OA 
BRANCH   3   4
HETATM    4  C   UNL     1     -10.728  17.827  67.636  1.00  0.00    -0.322 C  
BRANCH   4   5
HETATM    5  C   UNL     1     -10.254  16.404  67.924  1.00  0.00    -0.268 C  
BRANCH   5   6
HETATM    6  P   UNL     1      -8.876  15.885  66.797  1.00  0.00    -0.319 P  
BRANCH   6   7
HETATM    7  C   UNL     1      -7.499  15.568  68.005  1.00  0.00    -0.127 C  
BRANCH   7   8
HETATM    8  C   UNL     1      -7.332  16.744  68.967  1.00  0.00    -0.231 C  
BRANCH   8   9
HETATM    9  O   UNL     1      -6.124  17.451  68.675  1.00  0.00    -0.162 OA 
BRANCH   9  10
HETATM   10  C   UNL     1      -6.423  18.742  68.140  1.00  0.00    -0.216 C  
HETATM   11  C   UNL     1      -6.710  19.706  69.272  1.00  0.00    -0.391 C  
ENDBRANCH   9  10
ENDBRANCH   8   9
ENDBRANCH   7   8
ENDBRANCH   6   7
BRANCH   6  12
HETATM   12  C   UNL     1      -9.346  14.120  66.459  1.00  0.00    -0.265 C  
BRANCH  12  13
HETATM   13  C   UNL     1      -9.662  13.337  67.724  1.00  0.00    -0.217 C  
BRANCH  13  14
HETATM   14  P   UNL     1      -8.866  11.665  67.760  1.00  0.00    -0.174 P  
BRANCH  14  15
HETATM   15  C   UNL     1     -10.264  10.580  68.320  1.00  0.00    -0.163 C  
BRANCH  15  16
HETATM   16  C   UNL     1      -9.830   9.680  69.479  1.00  0.00    -0.206 C  
BRANCH  16  17
HETATM   17  O   UNL     1     -10.926   9.452  70.370  1.00  0.00    -0.234 OA 
BRANCH  17  18
HETATM   18  C   UNL     1     -11.781  10.596  70.404  1.00  0.00    -0.353 C  
HETATM   19  C   UNL     1     -13.100  10.230  71.052  1.00  0.00    -0.458 C  
ENDBRANCH  17  18
ENDBRANCH  16  17
ENDBRANCH  15  16
ENDBRANCH  14  15
BRANCH  14  20
HETATM   20  C   UNL     1      -8.881  11.283  65.941  1.00  0.00    -0.169 C  
BRANCH  20  21
HETATM   21  C   UNL     1     -10.156  10.558  65.515  1.00  0.00    -0.283 C  
BRANCH  21  22
HETATM   22  O   UNL     1     -10.730  11.222  64.389  1.00  0.00    -0.338 OA 
BRANCH  22  23
HETATM   23  C   UNL     1     -11.850  12.017  64.787  1.00  0.00    -0.254 C  
HETATM   24  C   UNL     1     -12.106  13.077  63.734  1.00  0.00    -0.574 C  
ENDBRANCH  22  23
ENDBRANCH  21  22
ENDBRANCH  20  21
ENDBRANCH  14  20
ENDBRANCH  13  14
ENDBRANCH  12  13
ENDBRANCH   6  12
ENDBRANCH   5   6
ENDBRANCH   4   5
ENDBRANCH   3   4
ENDBRANCH   2   3
TORSDOF 19
ENDMDL
MODEL      161
REMARK 921   NORMALIZED FREE ENERGY PREDICTED BY IDOCK:   -3.35 KCAL/MOL
REMARK 922        TOTAL FREE ENERGY PREDICTED BY IDOCK:   -8.31 KCAL/MOL
REMARK 923 INTER-LIGAND FREE ENERGY PREDICTED BY IDOCK:   -7.07 KCAL/MOL
REMARK 924 INTRA-LIGAND FREE ENERGY PREDICTED BY IDOCK:   -1.25 KCAL/MOL
REMARK 927      BINDING AFFINITY PREDICTED BY RF-SCORE:    0.00 PKD
ROOT
HETATM    1  C   UNL     1     -12.515  11.928  63.540  1.00  0.00    -0.609 C  
HETATM    2  C   UNL     1     -11.970  13.337  63.645  1.00  0.00    -0.486 C  
ENDROOT
BRANCH   2   3
HETATM    3  O   UNL     1     -12.832  14.129  64.467  1.00  0.00    -0.642 OA 
BRANCH   3   4
HETATM    4  C   UNL     1     -12.558  13.878  65.848  1.00  0.00    -0.456 C  
BRANCH   4   5
HETATM    5  C   UNL     1     -11.230  14.509  66.258  1.00  0.00    -0.342 C  
BRANCH   5   6
HETATM    6  P   UNL     1     -10.556  13.767  67.818  1.00  0.00    -0.253 P  
BRANCH   6   7
HETATM    7  C   UNL     1     -11.784  12.412  68.154  1.00  0.00    -0.353 C  
BRANCH   7   8
HETATM    8  C   UNL     1     -11.897  12.135  69.653  1.00  0.00    -0.322 C  
BRANCH   8   9
HETATM    9  O   UNL     1     -11.152  10.963  69.995  1.00  0.00    -0.268 OA 
BRANCH   9  10
HETATM   10  C   UNL     1     -11.825  10.231  71.021  1.00  0.00    -0.377 C  
HETATM   11  C   UNL     1     -12.927  11.085  71.612  1.00  0.00    -0.561 C  
ENDBRANCH   9  10
ENDBRANCH   8   9
ENDBRANCH   7   8
ENDBRANCH   6   7
BRANCH   6  12
HETATM   12  C   UNL     1      -9.180  12.719  67.142  1.00  0.00    -0.219 C  
BRANCH  12  13
HETATM   13  C   UNL     1      -9.665  11.386  66.591  1.00  0.00    -0.200 C  
BRANCH  13  14
HETATM   14  P   UNL     1      -8.929   9.929  67.469  1.00  0.00    -0.134 P  
BRANCH  14  15
HETATM   15  C   UNL     1     -10.315   8.696  67.402  1.00  0.00    -0.284 C  
BRANCH  15  16
HETATM   16  C   UNL     1     -10.304   7.791  68.637  1.00  0.00    -0.199 C  
BRANCH  16  17
HETATM   17  O   UNL     1     -11.145   6.653  68.427  1.00  0.00    -0.253 OA 
BRANCH  17  18
HETATM   18  C   UNL     1     -10.409   5.605  67.790  1.00  0.00    -0.206 C  
HETATM   19  C   UNL     1      -9.665   4.796  68.833  1.00  0.00    -0.244 C  
ENDBRANCH  17  18
ENDBRANCH  16  17
ENDBRANCH  15  16
ENDBRANCH  14  15
BRANCH  14  20
HETATM   20  C   UNL     1      -7.854   9.267  66.105  1.00  0.00    -0.099 C  
BRANCH  20  21
HETATM   21  C   UNL     1      -8.631   8.377  65.138  1.00  0.00    -0.132 C  
BRANCH  21  22
HETATM   22  O   UNL     1      -8.131   8.560  63.813  1.00  0.00    -0.155 OA 
BRANCH  22  23
HETATM   23  C   UNL     1      -7.883   9.944  63.552  1.00  0.00    -0.150 C  
HETATM   24  C   UNL     1      -6.791  10.064  62.508  1.00  0.00    -0.124 C  
ENDBRANCH  22  23
ENDBRANCH  21  22
ENDBRANCH  20  21
ENDBRANCH  14  20
ENDBRANCH  13  14
ENDBRANCH  12  13
ENDBRANCH   6  12
ENDBRANCH   5   6
ENDBRANCH   4   5
ENDBRANCH   3   4
ENDBRANCH   2   3
TORSDOF 19
ENDMDL
MODEL      162
REMARK 921   NORMALIZED FREE ENERGY PREDICTED BY IDOCK:   -3.34 KCAL/MOL
REMARK 922        TOTAL FREE ENERGY PREDICTED BY IDOCK:   -8.30 KCAL/MOL
REMARK 923 INTER-LIGAND FREE ENERGY PREDICTED BY IDOCK:   -7.07 KCAL/MOL
REMARK 924 INTRA-LIGAND FREE ENERGY PREDICTED BY IDOCK:   -1.23 KCAL/MOL
REMARK 927      BINDING AFFINITY PREDICTED BY RF-SCORE:    0.00 PKD
ROOT
HETATM    1  C   UNL     1     -11.002  11.620  63.858  1.00  0.00    -0.478 C  
HETATM    2  C   UNL     1     -12.271  12.379  63.528  1.00  0.00    -0.563 C  
ENDROOT
BRANCH   2   3
HETATM    3  O   UNL     1     -13.044  12.567  64.716  1.00  0.00    -0.853 OA 
BRANCH   3   4
HETATM    4  C   UNL     1     -12.744  13.838  65.300  1.00  0.00    -0.439 C  
BRANCH   4   5
HETATM    5  C   UNL     1     -12.093  13.663  66.669  1.00  0.00    -0.411 C  
BRANCH   5   6
HETATM    6  P   UNL     1     -10.789  14.941  66.992  1.00  0.00    -0.325 P  
BRANCH   6   7
HETATM    7  C   UNL     1     -11.491  15.834  68.465  1.00  0.00    -0.379 C  
BRANCH   7   8
HETATM    8  C   UNL     1     -10.936  15.261  69.768  1.00  0.00    -0.284 C  
BRANCH   8   9
HETATM    9  O   UNL     1     -11.963  14.559  70.474  1.00  0.00    -0.281 OA 
BRANCH   9  10
HETATM   10  C   UNL     1     -12.838  15.484  71.124  1.00  0.00    -0.489 C  
HETATM   11  C   UNL     1     -12.107  16.152  72.271  1.00  0.00    -0.616 C  
ENDBRANCH   9  10
ENDBRANCH   8   9
ENDBRANCH   7   8
ENDBRANCH   6   7
BRANCH   6  12
HETATM   12  C   UNL     1      -9.513  13.924  67.880  1.00  0.00    -0.212 C  
BRANCH  12  13
HETATM   13  C   UNL     1      -8.831  12.908  66.976  1.00  0.00    -0.208 C  
BRANCH  13  14
HETATM   14  P   UNL     1      -8.300  11.378  67.876  1.00  0.00    -0.152 P  
BRANCH  14  15
HETATM   15  C   UNL     1      -9.782  11.015  68.934  1.00  0.00    -0.172 C  
BRANCH  15  16
HETATM   16  C   UNL     1      -9.548   9.776  69.801  1.00  0.00    -0.230 C  
BRANCH  16  17
HETATM   17  O   UNL     1     -10.443   8.726  69.421  1.00  0.00    -0.218 OA 
BRANCH  17  18
HETATM   18  C   UNL     1      -9.705   7.566  69.026  1.00  0.00    -0.162 C  
HETATM   19  C   UNL     1     -10.295   6.995  67.753  1.00  0.00    -0.255 C  
ENDBRANCH  17  18
ENDBRANCH  16  17
ENDBRANCH  15  16
ENDBRANCH  14  15
BRANCH  14  20
HETATM   20  C   UNL     1      -8.563  10.126  66.527  1.00  0.00    -0.126 C  
BRANCH  20  21
HETATM   21  C   UNL     1      -7.344   9.228  66.328  1.00  0.00    -0.092 C  
BRANCH  21  22
HETATM   22  O   UNL     1      -6.470   9.352  67.450  1.00  0.00    -0.062 OA 
BRANCH  22  23
HETATM   23  C   UNL     1      -5.419   8.384  67.382  1.00  0.00    -0.038 C  
HETATM   24  C   UNL     1      -5.879   7.104  68.051  1.00  0.00    -0.026 C  
ENDBRANCH  22  23
ENDBRANCH  21  22
ENDBRANCH  20  21
ENDBRANCH  14  20
ENDBRANCH  13  14
ENDBRANCH  12  13
ENDBRANCH   6  12
ENDBRANCH   5   6
ENDBRANCH   4   5
ENDBRANCH   3   4
ENDBRANCH   2   3
TORSDOF 19
ENDMDL
MODEL      163
REMARK 921   NORMALIZED FREE ENERGY PREDICTED BY IDOCK:   -3.34 KCAL/MOL
REMARK 922        TOTAL FREE ENERGY PREDICTED BY IDOCK:   -8.30 KCAL/MOL
REMARK 923 INTER-LIGAND FREE ENERGY PREDICTED BY IDOCK:   -6.99 KCAL/MOL
REMARK 924 INTRA-LIGAND FREE ENERGY PREDICTED BY IDOCK:   -1.31 KCAL/MOL
REMARK 927      BINDING AFFINITY PREDICTED BY RF-SCORE:    0.00 PKD
ROOT
HETATM    1  C   UNL     1      -7.986  15.606  67.112  1.00  0.00    -0.254 C  
HETATM    2  C   UNL     1      -7.334  15.447  68.470  1.00  0.00    -0.116 C  
ENDROOT
BRANCH   2   3
HETATM    3  O   UNL     1      -8.339  15.245  69.468  1.00  0.00    -0.244 OA 
BRANCH   3   4
HETATM    4  C   UNL     1      -9.615  15.648  68.965  1.00  0.00    -0.243 C  
BRANCH   4   5
HETATM    5  C   UNL     1     -10.741  15.000  69.768  1.00  0.00    -0.244 C  
BRANCH   5   6
HETATM    6  P   UNL     1     -11.806  13.903  68.720  1.00  0.00    -0.343 P  
BRANCH   6   7
HETATM    7  C   UNL     1     -11.670  14.721  67.056  1.00  0.00    -0.315 C  
BRANCH   7   8
HETATM    8  C   UNL     1     -10.920  13.829  66.066  1.00  0.00    -0.284 C  
BRANCH   8   9
HETATM    9  O   UNL     1     -11.617  13.784  64.818  1.00  0.00    -0.335 OA 
BRANCH   9  10
HETATM   10  C   UNL     1     -12.512  12.671  64.791  1.00  0.00    -0.484 C  
HETATM   11  C   UNL     1     -12.532  12.071  63.400  1.00  0.00    -0.625 C  
ENDBRANCH   9  10
ENDBRANCH   8   9
ENDBRANCH   7   8
ENDBRANCH   6   7
BRANCH   6  12
HETATM   12  C   UNL     1     -10.650  12.482  68.414  1.00  0.00    -0.242 C  
BRANCH  12  13
HETATM   13  C   UNL     1     -11.305  11.126  68.636  1.00  0.00    -0.277 C  
BRANCH  13  14
HETATM   14  P   UNL     1     -10.435  10.101  69.911  1.00  0.00    -0.231 P  
BRANCH  14  15
HETATM   15  C   UNL     1     -11.751   9.886  71.202  1.00  0.00    -0.396 C  
BRANCH  15  16
HETATM   16  C   UNL     1     -12.119   8.410  71.370  1.00  0.00    -0.301 C  
BRANCH  16  17
HETATM   17  O   UNL     1     -11.963   8.011  72.736  1.00  0.00    -0.337 OA 
BRANCH  17  18
HETATM   18  C   UNL     1     -11.003   6.956  72.835  1.00  0.00    -0.281 C  
HETATM   19  C   UNL     1      -9.735   7.478  73.480  1.00  0.00    -0.358 C  
ENDBRANCH  17  18
ENDBRANCH  16  17
ENDBRANCH  15  16
ENDBRANCH  14  15
BRANCH  14  20
HETATM   20  C   UNL     1     -10.534   8.440  69.082  1.00  0.00    -0.206 C  
BRANCH  20  21
HETATM   21  C   UNL     1      -9.244   8.085  68.345  1.00  0.00    -0.135 C  
BRANCH  21  22
HETATM   22  O   UNL     1      -8.981   9.065  67.342  1.00  0.00    -0.124 OA 
BRANCH  22  23
HETATM   23  C   UNL     1      -9.652   8.733  66.123  1.00  0.00    -0.253 C  
HETATM   24  C   UNL     1      -9.951  10.008  65.359  1.00  0.00    -0.364 C  
ENDBRANCH  22  23
ENDBRANCH  21  22
ENDBRANCH  20  21
ENDBRANCH  14  20
ENDBRANCH  13  14
ENDBRANCH  12  13
ENDBRANCH   6  12
ENDBRANCH   5   6
ENDBRANCH   4   5
ENDBRANCH   3   4
ENDBRANCH   2   3
TORSDOF 19
ENDMDL
MODEL      164
REMARK 921   NORMALIZED FREE ENERGY PREDICTED BY IDOCK:   -3.34 KCAL/MOL
REMARK 922        TOTAL FREE ENERGY PREDICTED BY IDOCK:   -8.30 KCAL/MOL
REMARK 923 INTER-LIGAND FREE ENERGY PREDICTED BY IDOCK:   -7.16 KCAL/MOL
REMARK 924 INTRA-LIGAND FREE ENERGY PREDICTED BY IDOCK:   -1.14 KCAL/MOL
REMARK 927      BINDING AFFINITY PREDICTED BY RF-SCORE:    0.00 PKD
ROOT
HETATM    1  C   UNL     1     -12.466  12.153  63.355  1.00  0.00    -0.625 C  
HETATM    2  C   UNL     1     -10.958  12.233  63.467  1.00  0.00    -0.459 C  
ENDROOT
BRANCH   2   3
HETATM    3  O   UNL     1     -10.416  10.920  63.636  1.00  0.00    -0.346 OA 
BRANCH   3   4
HETATM    4  C   UNL     1      -9.541  10.894  64.767  1.00  0.00    -0.252 C  
BRANCH   4   5
HETATM    5  C   UNL     1     -10.333  11.034  66.065  1.00  0.00    -0.254 C  
BRANCH   5   6
HETATM    6  P   UNL     1      -9.313  11.763  67.431  1.00  0.00    -0.182 P  
BRANCH   6   7
HETATM    7  C   UNL     1      -9.972  13.500  67.508  1.00  0.00    -0.230 C  
BRANCH   7   8
HETATM    8  C   UNL     1     -11.463  13.536  67.175  1.00  0.00    -0.338 C  
BRANCH   8   9
HETATM    9  O   UNL     1     -12.017  14.805  67.533  1.00  0.00    -0.352 OA 
BRANCH   9  10
HETATM   10  C   UNL     1     -11.203  15.439  68.522  1.00  0.00    -0.318 C  
HETATM   11  C   UNL     1     -11.998  15.605  69.801  1.00  0.00    -0.371 C  
ENDBRANCH   9  10
ENDBRANCH   8   9
ENDBRANCH   7   8
ENDBRANCH   6   7
BRANCH   6  12
HETATM   12  C   UNL     1     -10.184  11.080  68.922  1.00  0.00    -0.203 C  
BRANCH  12  13
HETATM   13  C   UNL     1     -10.753   9.688  68.691  1.00  0.00    -0.201 C  
BRANCH  13  14
HETATM   14  P   UNL     1      -9.555   8.338  69.108  1.00  0.00    -0.164 P  
BRANCH  14  15
HETATM   15  C   UNL     1     -10.594   7.203  70.147  1.00  0.00    -0.230 C  
BRANCH  15  16
HETATM   16  C   UNL     1     -11.089   7.915  71.409  1.00  0.00    -0.243 C  
BRANCH  16  17
HETATM   17  O   UNL     1     -12.503   8.122  71.342  1.00  0.00    -0.306 OA 
BRANCH  17  18
HETATM   18  C   UNL     1     -12.919   9.027  72.367  1.00  0.00    -0.405 C  
HETATM   19  C   UNL     1     -12.951  10.439  71.819  1.00  0.00    -0.580 C  
ENDBRANCH  17  18
ENDBRANCH  16  17
ENDBRANCH  15  16
ENDBRANCH  14  15
BRANCH  14  20
HETATM   20  C   UNL     1      -9.581   7.403  67.501  1.00  0.00    -0.140 C  
BRANCH  20  21
HETATM   21  C   UNL     1     -10.963   6.830  67.191  1.00  0.00    -0.388 C  
BRANCH  21  22
HETATM   22  O   UNL     1     -10.856   5.425  66.961  1.00  0.00    -0.216 OA 
BRANCH  22  23
HETATM   23  C   UNL     1      -9.585   5.100  66.393  1.00  0.00    -0.161 C  
HETATM   24  C   UNL     1      -9.779   4.066  65.301  1.00  0.00    -0.197 C  
ENDBRANCH  22  23
ENDBRANCH  21  22
ENDBRANCH  20  21
ENDBRANCH  14  20
ENDBRANCH  13  14
ENDBRANCH  12  13
ENDBRANCH   6  12
ENDBRANCH   5   6
ENDBRANCH   4   5
ENDBRANCH   3   4
ENDBRANCH   2   3
TORSDOF 19
ENDMDL
MODEL      165
REMARK 921   NORMALIZED FREE ENERGY PREDICTED BY IDOCK:   -3.34 KCAL/MOL
REMARK 922        TOTAL FREE ENERGY PREDICTED BY IDOCK:   -8.29 KCAL/MOL
REMARK 923 INTER-LIGAND FREE ENERGY PREDICTED BY IDOCK:   -7.05 KCAL/MOL
REMARK 924 INTRA-LIGAND FREE ENERGY PREDICTED BY IDOCK:   -1.24 KCAL/MOL
REMARK 927      BINDING AFFINITY PREDICTED BY RF-SCORE:    0.00 PKD
ROOT
HETATM    1  C   UNL     1     -10.202   8.700  68.775  1.00  0.00    -0.224 C  
HETATM    2  C   UNL     1     -10.489   8.598  67.292  1.00  0.00    -0.289 C  
ENDROOT
BRANCH   2   3
HETATM    3  O   UNL     1      -9.862   9.683  66.603  1.00  0.00    -0.195 OA 
BRANCH   3   4
HETATM    4  C   UNL     1      -8.441   9.589  66.731  1.00  0.00    -0.127 C  
BRANCH   4   5
HETATM    5  C   UNL     1      -7.819  10.975  66.874  1.00  0.00    -0.140 C  
BRANCH   5   6
HETATM    6  P   UNL     1      -8.057  11.677  68.574  1.00  0.00    -0.083 P  
BRANCH   6   7
HETATM    7  C   UNL     1      -6.498  12.666  68.797  1.00  0.00    -0.085 C  
BRANCH   7   8
HETATM    8  C   UNL     1      -6.050  13.288  67.475  1.00  0.00    -0.089 C  
BRANCH   8   9
HETATM    9  O   UNL     1      -5.654  14.647  67.679  1.00  0.00    -0.308 OA 
BRANCH   9  10
HETATM   10  C   UNL     1      -6.762  15.523  67.464  1.00  0.00    -0.190 C  
HETATM   11  C   UNL     1      -6.883  16.482  68.631  1.00  0.00    -0.160 C  
ENDBRANCH   9  10
ENDBRANCH   8   9
ENDBRANCH   7   8
ENDBRANCH   6   7
BRANCH   6  12
HETATM   12  C   UNL     1      -9.216  13.083  68.213  1.00  0.00    -0.191 C  
BRANCH  12  13
HETATM   13  C   UNL     1      -9.650  13.136  66.756  1.00  0.00    -0.249 C  
BRANCH  13  14
HETATM   14  P   UNL     1     -10.558  14.692  66.326  1.00  0.00    -0.329 P  
BRANCH  14  15
HETATM   15  C   UNL     1     -12.329  14.137  66.380  1.00  0.00    -0.400 C  
BRANCH  15  16
HETATM   16  C   UNL     1     -12.886  13.943  64.967  1.00  0.00    -0.268 C  
BRANCH  16  17
HETATM   17  O   UNL     1     -13.192  12.564  64.738  1.00  0.00    -0.839 OA 
BRANCH  17  18
HETATM   18  C   UNL     1     -12.686  12.150  63.467  1.00  0.00    -0.431 C  
HETATM   19  C   UNL     1     -11.173  12.225  63.470  1.00  0.00    -0.535 C  
ENDBRANCH  17  18
ENDBRANCH  16  17
ENDBRANCH  15  16
ENDBRANCH  14  15
BRANCH  14  20
HETATM   20  C   UNL     1     -10.453  15.566  67.964  1.00  0.00    -0.259 C  
BRANCH  20  21
HETATM   21  C   UNL     1     -10.706  17.067  67.834  1.00  0.00    -0.348 C  
BRANCH  21  22
HETATM   22  O   UNL     1     -10.509  17.469  66.478  1.00  0.00    -0.326 OA 
BRANCH  22  23
HETATM   23  C   UNL     1     -10.124  18.845  66.410  1.00  0.00    -0.409 C  
HETATM   24  C   UNL     1     -10.399  19.505  67.746  1.00  0.00    -0.575 C  
ENDBRANCH  22  23
ENDBRANCH  21  22
ENDBRANCH  20  21
ENDBRANCH  14  20
ENDBRANCH  13  14
ENDBRANCH  12  13
ENDBRANCH   6  12
ENDBRANCH   5   6
ENDBRANCH   4   5
ENDBRANCH   3   4
ENDBRANCH   2   3
TORSDOF 19
ENDMDL
MODEL      166
REMARK 921   NORMALIZED FREE ENERGY PREDICTED BY IDOCK:   -3.33 KCAL/MOL
REMARK 922        TOTAL FREE ENERGY PREDICTED BY IDOCK:   -8.29 KCAL/MOL
REMARK 923 INTER-LIGAND FREE ENERGY PREDICTED BY IDOCK:   -7.16 KCAL/MOL
REMARK 924 INTRA-LIGAND FREE ENERGY PREDICTED BY IDOCK:   -1.13 KCAL/MOL
REMARK 927      BINDING AFFINITY PREDICTED BY RF-SCORE:    0.00 PKD
ROOT
HETATM    1  C   UNL     1      -6.237  11.493  68.631  1.00  0.00    -0.052 C  
HETATM    2  C   UNL     1      -6.870  10.908  69.877  1.00  0.00    -0.125 C  
ENDROOT
BRANCH   2   3
HETATM    3  O   UNL     1      -6.939   9.484  69.761  1.00  0.00    -0.058 OA 
BRANCH   3   4
HETATM    4  C   UNL     1      -7.675   8.939  70.859  1.00  0.00    -0.122 C  
BRANCH   4   5
HETATM    5  C   UNL     1      -9.168   9.214  70.697  1.00  0.00    -0.258 C  
BRANCH   5   6
HETATM    6  P   UNL     1      -9.847   8.492  69.130  1.00  0.00    -0.195 P  
BRANCH   6   7
HETATM    7  C   UNL     1     -11.171   7.359  69.778  1.00  0.00    -0.091 C  
BRANCH   7   8
HETATM    8  C   UNL     1     -11.566   7.738  71.205  1.00  0.00    -0.281 C  
BRANCH   8   9
HETATM    9  O   UNL     1     -12.903   8.244  71.227  1.00  0.00    -0.274 OA 
BRANCH   9  10
HETATM   10  C   UNL     1     -13.075   9.140  72.326  1.00  0.00    -0.438 C  
HETATM   11  C   UNL     1     -13.135  10.565  71.814  1.00  0.00    -0.570 C  
ENDBRANCH   9  10
ENDBRANCH   8   9
ENDBRANCH   7   8
ENDBRANCH   6   7
BRANCH   6  12
HETATM   12  C   UNL     1     -10.940   9.876  68.550  1.00  0.00    -0.180 C  
BRANCH  12  13
HETATM   13  C   UNL     1     -10.583  11.217  69.175  1.00  0.00    -0.204 C  
BRANCH  13  14
HETATM   14  P   UNL     1     -11.617  12.614  68.534  1.00  0.00    -0.345 P  
BRANCH  14  15
HETATM   15  C   UNL     1     -11.942  13.596  70.076  1.00  0.00    -0.343 C  
BRANCH  15  16
HETATM   16  C   UNL     1     -12.278  15.051  69.739  1.00  0.00    -0.285 C  
BRANCH  16  17
HETATM   17  O   UNL     1     -12.881  15.696  70.865  1.00  0.00    -0.472 OA 
BRANCH  17  18
HETATM   18  C   UNL     1     -11.895  15.968  71.865  1.00  0.00    -0.534 C  
HETATM   19  C   UNL     1     -12.470  15.688  73.238  1.00  0.00    -0.612 C  
ENDBRANCH  17  18
ENDBRANCH  16  17
ENDBRANCH  15  16
ENDBRANCH  14  15
BRANCH  14  20
HETATM   20  C   UNL     1     -10.278  13.657  67.775  1.00  0.00    -0.242 C  
BRANCH  20  21
HETATM   21  C   UNL     1     -10.463  13.825  66.268  1.00  0.00    -0.291 C  
BRANCH  21  22
HETATM   22  O   UNL     1     -10.420  15.212  65.932  1.00  0.00    -0.300 OA 
BRANCH  22  23
HETATM   23  C   UNL     1     -11.272  15.489  64.817  1.00  0.00    -0.390 C  
HETATM   24  C   UNL     1     -12.125  14.270  64.529  1.00  0.00    -0.499 C  
ENDBRANCH  22  23
ENDBRANCH  21  22
ENDBRANCH  20  21
ENDBRANCH  14  20
ENDBRANCH  13  14
ENDBRANCH  12  13
ENDBRANCH   6  12
ENDBRANCH   5   6
ENDBRANCH   4   5
ENDBRANCH   3   4
ENDBRANCH   2   3
TORSDOF 19
ENDMDL
MODEL      167
REMARK 921   NORMALIZED FREE ENERGY PREDICTED BY IDOCK:   -3.33 KCAL/MOL
REMARK 922        TOTAL FREE ENERGY PREDICTED BY IDOCK:   -8.28 KCAL/MOL
REMARK 923 INTER-LIGAND FREE ENERGY PREDICTED BY IDOCK:   -7.38 KCAL/MOL
REMARK 924 INTRA-LIGAND FREE ENERGY PREDICTED BY IDOCK:   -0.90 KCAL/MOL
REMARK 927      BINDING AFFINITY PREDICTED BY RF-SCORE:    0.00 PKD
ROOT
HETATM    1  C   UNL     1     -11.512  15.664  64.431  1.00  0.00    -0.266 C  
HETATM    2  C   UNL     1     -12.499  14.520  64.524  1.00  0.00    -0.324 C  
ENDROOT
BRANCH   2   3
HETATM    3  O   UNL     1     -12.479  13.765  63.310  1.00  0.00    -0.819 OA 
BRANCH   3   4
HETATM    4  C   UNL     1     -12.335  12.372  63.602  1.00  0.00    -0.548 C  
BRANCH   4   5
HETATM    5  C   UNL     1     -10.862  12.005  63.766  1.00  0.00    -0.420 C  
BRANCH   5   6
HETATM    6  P   UNL     1     -10.572  10.923  65.244  1.00  0.00    -0.058 P  
BRANCH   6   7
HETATM    7  C   UNL     1      -8.872  11.455  65.775  1.00  0.00    -0.111 C  
BRANCH   7   8
HETATM    8  C   UNL     1      -7.818  10.435  65.344  1.00  0.00    -0.143 C  
BRANCH   8   9
HETATM    9  O   UNL     1      -6.815  10.307  66.355  1.00  0.00    -0.093 OA 
BRANCH   9  10
HETATM   10  C   UNL     1      -7.247   9.399  67.369  1.00  0.00    -0.087 C  
HETATM   11  C   UNL     1      -7.155  10.071  68.724  1.00  0.00    -0.071 C  
ENDBRANCH   9  10
ENDBRANCH   8   9
ENDBRANCH   7   8
ENDBRANCH   6   7
BRANCH   6  12
HETATM   12  C   UNL     1     -11.551  11.826  66.538  1.00  0.00    -0.181 C  
BRANCH  12  13
HETATM   13  C   UNL     1     -10.743  12.898  67.252  1.00  0.00    -0.245 C  
BRANCH  13  14
HETATM   14  P   UNL     1     -11.064  12.953  69.076  1.00  0.00    -0.155 P  
BRANCH  14  15
HETATM   15  C   UNL     1     -12.258  14.367  69.219  1.00  0.00    -0.239 C  
BRANCH  15  16
HETATM   16  C   UNL     1     -12.276  14.928  70.643  1.00  0.00    -0.318 C  
BRANCH  16  17
HETATM   17  O   UNL     1     -13.453  15.714  70.853  1.00  0.00    -0.569 OA 
BRANCH  17  18
HETATM   18  C   UNL     1     -14.051  15.383  72.109  1.00  0.00    -0.553 C  
HETATM   19  C   UNL     1     -13.041  15.576  73.222  1.00  0.00    -0.658 C  
ENDBRANCH  17  18
ENDBRANCH  16  17
ENDBRANCH  15  16
ENDBRANCH  14  15
BRANCH  14  20
HETATM   20  C   UNL     1     -12.247  11.527  69.218  1.00  0.00    -0.179 C  
BRANCH  20  21
HETATM   21  C   UNL     1     -12.181  10.857  70.589  1.00  0.00    -0.376 C  
BRANCH  21  22
HETATM   22  O   UNL     1     -10.912  10.223  70.751  1.00  0.00    -0.306 OA 
BRANCH  22  23
HETATM   23  C   UNL     1     -11.059   8.953  71.391  1.00  0.00    -0.306 C  
HETATM   24  C   UNL     1      -9.716   8.515  71.940  1.00  0.00    -0.358 C  
ENDBRANCH  22  23
ENDBRANCH  21  22
ENDBRANCH  20  21
ENDBRANCH  14  20
ENDBRANCH  13  14
ENDBRANCH  12  13
ENDBRANCH   6  12
ENDBRANCH   5   6
ENDBRANCH   4   5
ENDBRANCH   3   4
ENDBRANCH   2   3
TORSDOF 19
ENDMDL
MODEL      168
REMARK 921   NORMALIZED FREE ENERGY PREDICTED BY IDOCK:   -3.33 KCAL/MOL
REMARK 922        TOTAL FREE ENERGY PREDICTED BY IDOCK:   -8.28 KCAL/MOL
REMARK 923 INTER-LIGAND FREE ENERGY PREDICTED BY IDOCK:   -7.01 KCAL/MOL
REMARK 924 INTRA-LIGAND FREE ENERGY PREDICTED BY IDOCK:   -1.27 KCAL/MOL
REMARK 927      BINDING AFFINITY PREDICTED BY RF-SCORE:    0.00 PKD
ROOT
HETATM    1  C   UNL     1     -10.810  11.826  63.620  1.00  0.00    -0.508 C  
HETATM    2  C   UNL     1      -9.671  11.271  64.451  1.00  0.00    -0.254 C  
ENDROOT
BRANCH   2   3
HETATM    3  O   UNL     1     -10.052  11.233  65.829  1.00  0.00    -0.228 OA 
BRANCH   3   4
HETATM    4  C   UNL     1      -8.894  11.081  66.653  1.00  0.00    -0.164 C  
BRANCH   4   5
HETATM    5  C   UNL     1      -9.276  11.099  68.131  1.00  0.00    -0.166 C  
BRANCH   5   6
HETATM    6  P   UNL     1     -11.027  10.554  68.406  1.00  0.00    -0.275 P  
BRANCH   6   7
HETATM    7  C   UNL     1     -10.988  10.046  70.195  1.00  0.00    -0.310 C  
BRANCH   7   8
HETATM    8  C   UNL     1      -9.667   9.361  70.541  1.00  0.00    -0.271 C  
BRANCH   8   9
HETATM    9  O   UNL     1      -9.733   8.800  71.855  1.00  0.00    -0.284 OA 
BRANCH   9  10
HETATM   10  C   UNL     1     -11.086   8.490  72.193  1.00  0.00    -0.366 C  
HETATM   11  C   UNL     1     -11.197   7.021  72.546  1.00  0.00    -0.312 C  
ENDBRANCH   9  10
ENDBRANCH   8   9
ENDBRANCH   7   8
ENDBRANCH   6   7
BRANCH   6  12
HETATM   12  C   UNL     1     -11.876  12.192  68.612  1.00  0.00    -0.306 C  
BRANCH  12  13
HETATM   13  C   UNL     1     -10.903  13.345  68.810  1.00  0.00    -0.246 C  
BRANCH  13  14
HETATM   14  P   UNL     1     -11.136  14.710  67.579  1.00  0.00    -0.337 P  
BRANCH  14  15
HETATM   15  C   UNL     1     -11.558  16.151  68.672  1.00  0.00    -0.283 C  
BRANCH  15  16
HETATM   16  C   UNL     1     -11.534  15.745  70.148  1.00  0.00    -0.361 C  
BRANCH  16  17
HETATM   17  O   UNL     1     -12.865  15.692  70.671  1.00  0.00    -0.463 OA 
BRANCH  17  18
HETATM   18  C   UNL     1     -12.917  14.815  71.799  1.00  0.00    -0.332 C  
HETATM   19  C   UNL     1     -12.117  15.405  72.942  1.00  0.00    -0.545 C  
ENDBRANCH  17  18
ENDBRANCH  16  17
ENDBRANCH  15  16
ENDBRANCH  14  15
BRANCH  14  20
HETATM   20  C   UNL     1      -9.355  15.101  67.219  1.00  0.00    -0.203 C  
BRANCH  20  21
HETATM   21  C   UNL     1      -8.434  14.708  68.372  1.00  0.00    -0.160 C  
BRANCH  21  22
HETATM   22  O   UNL     1      -7.468  15.737  68.585  1.00  0.00    -0.136 OA 
BRANCH  22  23
HETATM   23  C   UNL     1      -8.016  17.019  68.263  1.00  0.00    -0.222 C  
HETATM   24  C   UNL     1      -7.133  18.099  68.856  1.00  0.00    -0.282 C  
ENDBRANCH  22  23
ENDBRANCH  21  22
ENDBRANCH  20  21
ENDBRANCH  14  20
ENDBRANCH  13  14
ENDBRANCH  12  13
ENDBRANCH   6  12
ENDBRANCH   5   6
ENDBRANCH   4   5
ENDBRANCH   3   4
ENDBRANCH   2   3
TORSDOF 19
ENDMDL
MODEL      169
REMARK 921   NORMALIZED FREE ENERGY PREDICTED BY IDOCK:   -3.33 KCAL/MOL
REMARK 922        TOTAL FREE ENERGY PREDICTED BY IDOCK:   -8.27 KCAL/MOL
REMARK 923 INTER-LIGAND FREE ENERGY PREDICTED BY IDOCK:   -7.32 KCAL/MOL
REMARK 924 INTRA-LIGAND FREE ENERGY PREDICTED BY IDOCK:   -0.95 KCAL/MOL
REMARK 927      BINDING AFFINITY PREDICTED BY RF-SCORE:    0.00 PKD
ROOT
HETATM    1  C   UNL     1     -13.924   9.120  72.272  1.00  0.00    -0.489 C  
HETATM    2  C   UNL     1     -14.221   7.783  71.627  1.00  0.00    -0.457 C  
ENDROOT
BRANCH   2   3
HETATM    3  O   UNL     1     -13.000   7.164  71.214  1.00  0.00    -0.383 OA 
BRANCH   3   4
HETATM    4  C   UNL     1     -11.896   8.033  71.480  1.00  0.00    -0.292 C  
BRANCH   4   5
HETATM    5  C   UNL     1     -10.957   8.098  70.278  1.00  0.00    -0.240 C  
BRANCH   5   6
HETATM    6  P   UNL     1     -10.252   9.795  70.031  1.00  0.00    -0.273 P  
BRANCH   6   7
HETATM    7  C   UNL     1      -8.505   9.410  69.527  1.00  0.00    -0.152 C  
BRANCH   7   8
HETATM    8  C   UNL     1      -7.949  10.494  68.605  1.00  0.00    -0.124 C  
BRANCH   8   9
HETATM    9  O   UNL     1      -7.589   9.929  67.341  1.00  0.00    -0.091 OA 
BRANCH   9  10
HETATM   10  C   UNL     1      -6.173   9.989  67.158  1.00  0.00    -0.066 C  
HETATM   11  C   UNL     1      -5.788  11.355  66.627  1.00  0.00    -0.144 C  
ENDBRANCH   9  10
ENDBRANCH   8   9
ENDBRANCH   7   8
ENDBRANCH   6   7
BRANCH   6  12
HETATM   12  C   UNL     1     -10.928  10.215  68.353  1.00  0.00    -0.244 C  
BRANCH  12  13
HETATM   13  C   UNL     1     -11.830  11.441  68.366  1.00  0.00    -0.274 C  
BRANCH  13  14
HETATM   14  P   UNL     1     -10.889  13.032  68.494  1.00  0.00    -0.259 P  
BRANCH  14  15
HETATM   15  C   UNL     1     -10.718  13.527  66.713  1.00  0.00    -0.278 C  
BRANCH  15  16
HETATM   16  C   UNL     1      -9.919  14.825  66.579  1.00  0.00    -0.271 C  
BRANCH  16  17
HETATM   17  O   UNL     1     -10.799  15.929  66.343  1.00  0.00    -0.288 OA 
BRANCH  17  18
HETATM   18  C   UNL     1     -10.211  17.140  66.824  1.00  0.00    -0.311 C  
HETATM   19  C   UNL     1     -10.574  17.340  68.282  1.00  0.00    -0.383 C  
ENDBRANCH  17  18
ENDBRANCH  16  17
ENDBRANCH  15  16
ENDBRANCH  14  15
BRANCH  14  20
HETATM   20  C   UNL     1     -12.273  14.162  69.003  1.00  0.00    -0.239 C  
BRANCH  20  21
HETATM   21  C   UNL     1     -12.339  14.349  70.518  1.00  0.00    -0.345 C  
BRANCH  21  22
HETATM   22  O   UNL     1     -13.329  15.326  70.837  1.00  0.00    -0.445 OA 
BRANCH  22  23
HETATM   23  C   UNL     1     -14.302  14.786  71.736  1.00  0.00    -0.569 C  
HETATM   24  C   UNL     1     -13.783  13.480  72.302  1.00  0.00    -0.700 C  
ENDBRANCH  22  23
ENDBRANCH  21  22
ENDBRANCH  20  21
ENDBRANCH  14  20
ENDBRANCH  13  14
ENDBRANCH  12  13
ENDBRANCH   6  12
ENDBRANCH   5   6
ENDBRANCH   4   5
ENDBRANCH   3   4
ENDBRANCH   2   3
TORSDOF 19
ENDMDL
MODEL      170
REMARK 921   NORMALIZED FREE ENERGY PREDICTED BY IDOCK:   -3.33 KCAL/MOL
REMARK 922        TOTAL FREE ENERGY PREDICTED BY IDOCK:   -8.27 KCAL/MOL
REMARK 923 INTER-LIGAND FREE ENERGY PREDICTED BY IDOCK:   -7.16 KCAL/MOL
REMARK 924 INTRA-LIGAND FREE ENERGY PREDICTED BY IDOCK:   -1.11 KCAL/MOL
REMARK 927      BINDING AFFINITY PREDICTED BY RF-SCORE:    0.00 PKD
ROOT
HETATM    1  C   UNL     1     -14.244  14.094  71.961  1.00  0.00    -0.617 C  
HETATM    2  C   UNL     1     -12.927  13.530  71.470  1.00  0.00    -0.355 C  
ENDROOT
BRANCH   2   3
HETATM    3  O   UNL     1     -12.998  12.102  71.428  1.00  0.00    -0.368 OA 
BRANCH   3   4
HETATM    4  C   UNL     1     -12.134  11.599  70.406  1.00  0.00    -0.373 C  
BRANCH   4   5
HETATM    5  C   UNL     1     -11.976  10.086  70.529  1.00  0.00    -0.272 C  
BRANCH   5   6
HETATM    6  P   UNL     1     -10.269   9.521  70.073  1.00  0.00    -0.282 P  
BRANCH   6   7
HETATM    7  C   UNL     1     -10.118   7.947  71.051  1.00  0.00    -0.192 C  
BRANCH   7   8
HETATM    8  C   UNL     1      -9.279   8.163  72.311  1.00  0.00    -0.201 C  
BRANCH   8   9
HETATM    9  O   UNL     1     -10.077   7.942  73.477  1.00  0.00    -0.293 OA 
BRANCH   9  10
HETATM   10  C   UNL     1     -10.804   6.719  73.355  1.00  0.00    -0.253 C  
HETATM   11  C   UNL     1     -10.162   5.659  74.227  1.00  0.00    -0.293 C  
ENDBRANCH   9  10
ENDBRANCH   8   9
ENDBRANCH   7   8
ENDBRANCH   6   7
BRANCH   6  12
HETATM   12  C   UNL     1     -10.583   8.770  68.404  1.00  0.00    -0.137 C  
BRANCH  12  13
HETATM   13  C   UNL     1      -9.740   9.396  67.304  1.00  0.00    -0.165 C  
BRANCH  13  14
HETATM   14  P   UNL     1     -10.202  11.155  66.949  1.00  0.00    -0.240 P  
BRANCH  14  15
HETATM   15  C   UNL     1      -8.598  12.044  67.240  1.00  0.00    -0.177 C  
BRANCH  15  16
HETATM   16  C   UNL     1      -8.838  13.528  67.529  1.00  0.00    -0.209 C  
BRANCH  16  17
HETATM   17  O   UNL     1     -10.212  13.755  67.859  1.00  0.00    -0.235 OA 
BRANCH  17  18
HETATM   18  C   UNL     1     -10.328  14.854  68.766  1.00  0.00    -0.245 C  
HETATM   19  C   UNL     1     -11.302  15.873  68.212  1.00  0.00    -0.342 C  
ENDBRANCH  17  18
ENDBRANCH  16  17
ENDBRANCH  15  16
ENDBRANCH  14  15
BRANCH  14  20
HETATM   20  C   UNL     1     -10.197  11.101  65.091  1.00  0.00    -0.289 C  
BRANCH  20  21
HETATM   21  C   UNL     1     -10.318  12.492  64.473  1.00  0.00    -0.336 C  
BRANCH  21  22
HETATM   22  O   UNL     1     -11.417  12.517  63.563  1.00  0.00    -0.452 OA 
BRANCH  22  23
HETATM   23  C   UNL     1     -12.651  12.692  64.265  1.00  0.00    -0.368 C  
HETATM   24  C   UNL     1     -12.561  13.937  65.125  1.00  0.00    -0.466 C  
ENDBRANCH  22  23
ENDBRANCH  21  22
ENDBRANCH  20  21
ENDBRANCH  14  20
ENDBRANCH  13  14
ENDBRANCH  12  13
ENDBRANCH   6  12
ENDBRANCH   5   6
ENDBRANCH   4   5
ENDBRANCH   3   4
ENDBRANCH   2   3
TORSDOF 19
ENDMDL
MODEL      171
REMARK 921   NORMALIZED FREE ENERGY PREDICTED BY IDOCK:   -3.31 KCAL/MOL
REMARK 922        TOTAL FREE ENERGY PREDICTED BY IDOCK:   -8.24 KCAL/MOL
REMARK 923 INTER-LIGAND FREE ENERGY PREDICTED BY IDOCK:   -6.97 KCAL/MOL
REMARK 924 INTRA-LIGAND FREE ENERGY PREDICTED BY IDOCK:   -1.27 KCAL/MOL
REMARK 927      BINDING AFFINITY PREDICTED BY RF-SCORE:    0.00 PKD
ROOT
HETATM    1  C   UNL     1      -9.266   6.575  66.387  1.00  0.00    -0.178 C  
HETATM    2  C   UNL     1     -10.539   5.830  66.729  1.00  0.00    -0.306 C  
ENDROOT
BRANCH   2   3
HETATM    3  O   UNL     1     -11.144   6.412  67.886  1.00  0.00    -0.322 OA 
BRANCH   3   4
HETATM    4  C   UNL     1     -10.657   5.771  69.068  1.00  0.00    -0.281 C  
BRANCH   4   5
HETATM    5  C   UNL     1     -10.809   6.686  70.280  1.00  0.00    -0.271 C  
BRANCH   5   6
HETATM    6  P   UNL     1     -10.748   8.480  69.815  1.00  0.00    -0.126 P  
BRANCH   6   7
HETATM    7  C   UNL     1     -10.919   9.306  71.471  1.00  0.00    -0.375 C  
BRANCH   7   8
HETATM    8  C   UNL     1     -12.373   9.299  71.940  1.00  0.00    -0.382 C  
BRANCH   8   9
HETATM    9  O   UNL     1     -13.150  10.204  71.150  1.00  0.00    -0.371 OA 
BRANCH   9  10
HETATM   10  C   UNL     1     -13.104  11.517  71.714  1.00  0.00    -0.398 C  
HETATM   11  C   UNL     1     -12.410  12.458  70.750  1.00  0.00    -0.377 C  
ENDBRANCH   9  10
ENDBRANCH   8   9
ENDBRANCH   7   8
ENDBRANCH   6   7
BRANCH   6  12
HETATM   12  C   UNL     1      -8.921   8.720  69.583  1.00  0.00    -0.145 C  
BRANCH  12  13
HETATM   13  C   UNL     1      -8.549  10.156  69.246  1.00  0.00    -0.174 C  
BRANCH  13  14
HETATM   14  P   UNL     1      -9.738  10.955  68.071  1.00  0.00    -0.175 P  
BRANCH  14  15
HETATM   15  C   UNL     1      -9.048  12.673  67.929  1.00  0.00    -0.200 C  
BRANCH  15  16
HETATM   16  C   UNL     1     -10.157  13.721  68.053  1.00  0.00    -0.245 C  
BRANCH  16  17
HETATM   17  O   UNL     1     -10.694  14.033  66.764  1.00  0.00    -0.282 OA 
BRANCH  17  18
HETATM   18  C   UNL     1      -9.748  14.789  66.005  1.00  0.00    -0.321 C  
HETATM   19  C   UNL     1     -10.019  16.269  66.180  1.00  0.00    -0.355 C  
ENDBRANCH  17  18
ENDBRANCH  16  17
ENDBRANCH  15  16
ENDBRANCH  14  15
BRANCH  14  20
HETATM   20  C   UNL     1      -9.115  10.235  66.474  1.00  0.00    -0.148 C  
BRANCH  20  21
HETATM   21  C   UNL     1     -10.154  10.322  65.358  1.00  0.00    -0.284 C  
BRANCH  21  22
HETATM   22  O   UNL     1     -10.023  11.571  64.679  1.00  0.00    -0.242 OA 
BRANCH  22  23
HETATM   23  C   UNL     1     -10.869  11.611  63.527  1.00  0.00    -0.425 C  
HETATM   24  C   UNL     1     -12.217  12.182  63.919  1.00  0.00    -0.587 C  
ENDBRANCH  22  23
ENDBRANCH  21  22
ENDBRANCH  20  21
ENDBRANCH  14  20
ENDBRANCH  13  14
ENDBRANCH  12  13
ENDBRANCH   6  12
ENDBRANCH   5   6
ENDBRANCH   4   5
ENDBRANCH   3   4
ENDBRANCH   2   3
TORSDOF 19
ENDMDL
MODEL      172
REMARK 921   NORMALIZED FREE ENERGY PREDICTED BY IDOCK:   -3.30 KCAL/MOL
REMARK 922        TOTAL FREE ENERGY PREDICTED BY IDOCK:   -8.23 KCAL/MOL
REMARK 923 INTER-LIGAND FREE ENERGY PREDICTED BY IDOCK:   -6.89 KCAL/MOL
REMARK 924 INTRA-LIGAND FREE ENERGY PREDICTED BY IDOCK:   -1.33 KCAL/MOL
REMARK 927      BINDING AFFINITY PREDICTED BY RF-SCORE:    0.00 PKD
ROOT
HETATM    1  C   UNL     1      -7.772   8.437  63.057  1.00  0.00    -0.132 C  
HETATM    2  C   UNL     1      -8.621   9.257  64.008  1.00  0.00    -0.186 C  
ENDROOT
BRANCH   2   3
HETATM    3  O   UNL     1      -8.937   8.479  65.165  1.00  0.00    -0.132 OA 
BRANCH   3   4
HETATM    4  C   UNL     1      -9.705   9.261  66.085  1.00  0.00    -0.279 C  
BRANCH   4   5
HETATM    5  C   UNL     1      -8.812   9.831  67.184  1.00  0.00    -0.132 C  
BRANCH   5   6
HETATM    6  P   UNL     1      -9.635  11.213  68.106  1.00  0.00    -0.191 P  
BRANCH   6   7
HETATM    7  C   UNL     1     -11.349  11.182  67.385  1.00  0.00    -0.255 C  
BRANCH   7   8
HETATM    8  C   UNL     1     -11.733  12.551  66.826  1.00  0.00    -0.384 C  
BRANCH   8   9
HETATM    9  O   UNL     1     -12.491  12.397  65.623  1.00  0.00    -0.640 OA 
BRANCH   9  10
HETATM   10  C   UNL     1     -11.617  12.308  64.496  1.00  0.00    -0.353 C  
HETATM   11  C   UNL     1     -10.782  13.569  64.403  1.00  0.00    -0.402 C  
ENDBRANCH   9  10
ENDBRANCH   8   9
ENDBRANCH   7   8
ENDBRANCH   6   7
BRANCH   6  12
HETATM   12  C   UNL     1     -10.010  10.382  69.723  1.00  0.00    -0.124 C  
BRANCH  12  13
HETATM   13  C   UNL     1      -8.918   9.418  70.163  1.00  0.00    -0.227 C  
BRANCH  13  14
HETATM   14  P   UNL     1      -9.585   7.850  70.890  1.00  0.00    -0.161 P  
BRANCH  14  15
HETATM   15  C   UNL     1     -10.651   8.484  72.272  1.00  0.00    -0.338 C  
BRANCH  15  16
HETATM   16  C   UNL     1     -12.075   7.934  72.163  1.00  0.00    -0.326 C  
BRANCH  16  17
HETATM   17  O   UNL     1     -13.027   8.946  72.508  1.00  0.00    -0.418 OA 
BRANCH  17  18
HETATM   18  C   UNL     1     -13.283   9.788  71.381  1.00  0.00    -0.398 C  
HETATM   19  C   UNL     1     -13.248  11.240  71.810  1.00  0.00    -0.480 C  
ENDBRANCH  17  18
ENDBRANCH  16  17
ENDBRANCH  15  16
ENDBRANCH  14  15
BRANCH  14  20
HETATM   20  C   UNL     1     -10.899   7.467  69.632  1.00  0.00    -0.210 C  
BRANCH  20  21
HETATM   21  C   UNL     1     -10.552   6.239  68.792  1.00  0.00    -0.262 C  
BRANCH  21  22
HETATM   22  O   UNL     1     -11.086   6.393  67.477  1.00  0.00    -0.352 OA 
BRANCH  22  23
HETATM   23  C   UNL     1     -10.561   5.394  66.598  1.00  0.00    -0.294 C  
HETATM   24  C   UNL     1      -9.751   4.399  67.404  1.00  0.00    -0.217 C  
ENDBRANCH  22  23
ENDBRANCH  21  22
ENDBRANCH  20  21
ENDBRANCH  14  20
ENDBRANCH  13  14
ENDBRANCH  12  13
ENDBRANCH   6  12
ENDBRANCH   5   6
ENDBRANCH   4   5
ENDBRANCH   3   4
ENDBRANCH   2   3
TORSDOF 19
ENDMDL
MODEL      173
REMARK 921   NORMALIZED FREE ENERGY PREDICTED BY IDOCK:   -3.30 KCAL/MOL
REMARK 922        TOTAL FREE ENERGY PREDICTED BY IDOCK:   -8.21 KCAL/MOL
REMARK 923 INTER-LIGAND FREE ENERGY PREDICTED BY IDOCK:   -7.00 KCAL/MOL
REMARK 924 INTRA-LIGAND FREE ENERGY PREDICTED BY IDOCK:   -1.21 KCAL/MOL
REMARK 927      BINDING AFFINITY PREDICTED BY RF-SCORE:    0.00 PKD
ROOT
HETATM    1  C   UNL     1     -14.314   7.404  71.590  1.00  0.00    -0.614 C  
HETATM    2  C   UNL     1     -13.662   8.727  71.935  1.00  0.00    -0.433 C  
ENDROOT
BRANCH   2   3
HETATM    3  O   UNL     1     -12.241   8.571  71.967  1.00  0.00    -0.320 OA 
BRANCH   3   4
HETATM    4  C   UNL     1     -11.608   9.769  71.510  1.00  0.00    -0.353 C  
BRANCH   4   5
HETATM    5  C   UNL     1     -11.712   9.890  69.992  1.00  0.00    -0.124 C  
BRANCH   5   6
HETATM    6  P   UNL     1     -10.053  10.106  69.192  1.00  0.00    -0.241 P  
BRANCH   6   7
HETATM    7  C   UNL     1     -10.284   9.194  67.589  1.00  0.00    -0.236 C  
BRANCH   7   8
HETATM    8  C   UNL     1     -10.155   7.684  67.794  1.00  0.00    -0.186 C  
BRANCH   8   9
HETATM    9  O   UNL     1      -9.376   7.411  68.961  1.00  0.00    -0.146 OA 
BRANCH   9  10
HETATM   10  C   UNL     1      -9.846   6.223  69.602  1.00  0.00    -0.163 C  
HETATM   11  C   UNL     1     -11.360   6.203  69.584  1.00  0.00    -0.442 C  
ENDBRANCH   9  10
ENDBRANCH   8   9
ENDBRANCH   7   8
ENDBRANCH   6   7
BRANCH   6  12
HETATM   12  C   UNL     1     -10.202  11.838  68.538  1.00  0.00    -0.210 C  
BRANCH  12  13
HETATM   13  C   UNL     1      -8.859  12.450  68.169  1.00  0.00    -0.191 C  
BRANCH  13  14
HETATM   14  P   UNL     1      -9.014  14.136  67.416  1.00  0.00    -0.223 P  
BRANCH  14  15
HETATM   15  C   UNL     1     -10.700  14.663  67.986  1.00  0.00    -0.246 C  
BRANCH  15  16
HETATM   16  C   UNL     1     -11.658  14.812  66.801  1.00  0.00    -0.324 C  
BRANCH  16  17
HETATM   17  O   UNL     1     -12.367  13.590  66.578  1.00  0.00    -0.392 OA 
BRANCH  17  18
HETATM   18  C   UNL     1     -12.211  13.169  65.220  1.00  0.00    -0.455 C  
HETATM   19  C   UNL     1     -12.099  14.381  64.319  1.00  0.00    -0.461 C  
ENDBRANCH  17  18
ENDBRANCH  16  17
ENDBRANCH  15  16
ENDBRANCH  14  15
BRANCH  14  20
HETATM   20  C   UNL     1      -7.964  15.099  68.610  1.00  0.00    -0.151 C  
BRANCH  20  21
HETATM   21  C   UNL     1      -8.605  16.430  68.998  1.00  0.00    -0.230 C  
BRANCH  21  22
HETATM   22  O   UNL     1      -8.110  17.465  68.149  1.00  0.00    -0.217 OA 
BRANCH  22  23
HETATM   23  C   UNL     1      -9.104  18.473  67.949  1.00  0.00    -0.290 C  
HETATM   24  C   UNL     1      -9.959  18.097  66.755  1.00  0.00    -0.353 C  
ENDBRANCH  22  23
ENDBRANCH  21  22
ENDBRANCH  20  21
ENDBRANCH  14  20
ENDBRANCH  13  14
ENDBRANCH  12  13
ENDBRANCH   6  12
ENDBRANCH   5   6
ENDBRANCH   4   5
ENDBRANCH   3   4
ENDBRANCH   2   3
TORSDOF 19
ENDMDL
MODEL      174
REMARK 921   NORMALIZED FREE ENERGY PREDICTED BY IDOCK:   -3.29 KCAL/MOL
REMARK 922        TOTAL FREE ENERGY PREDICTED BY IDOCK:   -8.20 KCAL/MOL
REMARK 923 INTER-LIGAND FREE ENERGY PREDICTED BY IDOCK:   -7.19 KCAL/MOL
REMARK 924 INTRA-LIGAND FREE ENERGY PREDICTED BY IDOCK:   -1.01 KCAL/MOL
REMARK 927      BINDING AFFINITY PREDICTED BY RF-SCORE:    0.00 PKD
ROOT
HETATM    1  C   UNL     1     -10.110  11.541  64.954  1.00  0.00    -0.314 C  
HETATM    2  C   UNL     1     -10.614  11.067  66.301  1.00  0.00    -0.237 C  
ENDROOT
BRANCH   2   3
HETATM    3  O   UNL     1      -9.556  11.129  67.262  1.00  0.00    -0.164 OA 
BRANCH   3   4
HETATM    4  C   UNL     1      -9.736  12.263  68.114  1.00  0.00    -0.213 C  
BRANCH   4   5
HETATM    5  C   UNL     1     -11.217  12.491  68.405  1.00  0.00    -0.272 C  
BRANCH   5   6
HETATM    6  P   UNL     1     -11.587  14.263  68.807  1.00  0.00    -0.362 P  
BRANCH   6   7
HETATM    7  C   UNL     1     -12.774  14.089  70.227  1.00  0.00    -0.210 C  
BRANCH   7   8
HETATM    8  C   UNL     1     -12.154  14.604  71.526  1.00  0.00    -0.348 C  
BRANCH   8   9
HETATM    9  O   UNL     1     -12.805  15.808  71.939  1.00  0.00    -0.428 OA 
BRANCH   9  10
HETATM   10  C   UNL     1     -12.187  16.325  73.119  1.00  0.00    -0.523 C  
HETATM   11  C   UNL     1     -12.404  15.361  74.267  1.00  0.00    -0.807 C  
ENDBRANCH   9  10
ENDBRANCH   8   9
ENDBRANCH   7   8
ENDBRANCH   6   7
BRANCH   6  12
HETATM   12  C   UNL     1     -10.073  14.725  69.779  1.00  0.00     0.082 C  
BRANCH  12  13
HETATM   13  C   UNL     1      -9.358  15.946  69.219  1.00  0.00    -0.259 C  
BRANCH  13  14
HETATM   14  P   UNL     1      -9.468  16.067  67.373  1.00  0.00    -0.222 P  
BRANCH  14  15
HETATM   15  C   UNL     1     -10.611  17.512  67.146  1.00  0.00    -0.264 C  
BRANCH  15  16
HETATM   16  C   UNL     1     -10.535  18.052  65.716  1.00  0.00    -0.198 C  
BRANCH  16  17
HETATM   17  O   UNL     1     -10.650  19.478  65.715  1.00  0.00    -0.508 OA 
BRANCH  17  18
HETATM   18  C   UNL     1      -9.427  20.072  66.157  1.00  0.00    -0.350 C  
HETATM   19  C   UNL     1      -9.660  20.819  67.453  1.00  0.00    -0.484 C  
ENDBRANCH  17  18
ENDBRANCH  16  17
ENDBRANCH  15  16
ENDBRANCH  14  15
BRANCH  14  20
HETATM   20  C   UNL     1      -7.841  16.897  67.028  1.00  0.00    -0.199 C  
BRANCH  20  21
HETATM   21  C   UNL     1      -7.378  17.768  68.195  1.00  0.00    -0.238 C  
BRANCH  21  22
HETATM   22  O   UNL     1      -6.009  17.489  68.486  1.00  0.00    -0.161 OA 
BRANCH  22  23
HETATM   23  C   UNL     1      -5.850  17.109  69.855  1.00  0.00    -0.236 C  
HETATM   24  C   UNL     1      -5.186  18.242  70.611  1.00  0.00    -0.271 C  
ENDBRANCH  22  23
ENDBRANCH  21  22
ENDBRANCH  20  21
ENDBRANCH  14  20
ENDBRANCH  13  14
ENDBRANCH  12  13
ENDBRANCH   6  12
ENDBRANCH   5   6
ENDBRANCH   4   5
ENDBRANCH   3   4
ENDBRANCH   2   3
TORSDOF 19
ENDMDL
MODEL      175
REMARK 921   NORMALIZED FREE ENERGY PREDICTED BY IDOCK:   -3.29 KCAL/MOL
REMARK 922        TOTAL FREE ENERGY PREDICTED BY IDOCK:   -8.19 KCAL/MOL
REMARK 923 INTER-LIGAND FREE ENERGY PREDICTED BY IDOCK:   -6.95 KCAL/MOL
REMARK 924 INTRA-LIGAND FREE ENERGY PREDICTED BY IDOCK:   -1.24 KCAL/MOL
REMARK 927      BINDING AFFINITY PREDICTED BY RF-SCORE:    0.00 PKD
ROOT
HETATM    1  C   UNL     1     -10.497  12.034  63.254  1.00  0.00    -0.403 C  
HETATM    2  C   UNL     1     -11.949  11.979  63.681  1.00  0.00    -0.515 C  
ENDROOT
BRANCH   2   3
HETATM    3  O   UNL     1     -12.592  13.217  63.368  1.00  0.00    -0.730 OA 
BRANCH   3   4
HETATM    4  C   UNL     1     -12.159  14.236  64.273  1.00  0.00    -0.441 C  
BRANCH   4   5
HETATM    5  C   UNL     1     -12.511  13.865  65.711  1.00  0.00    -0.495 C  
BRANCH   5   6
HETATM    6  P   UNL     1     -11.066  14.059  66.857  1.00  0.00    -0.322 P  
BRANCH   6   7
HETATM    7  C   UNL     1     -11.888  14.695  68.399  1.00  0.00    -0.295 C  
BRANCH   7   8
HETATM    8  C   UNL     1     -11.703  13.719  69.561  1.00  0.00    -0.323 C  
BRANCH   8   9
HETATM    9  O   UNL     1     -12.956  13.478  70.206  1.00  0.00    -0.034 OA 
BRANCH   9  10
HETATM   10  C   UNL     1     -12.745  12.942  71.513  1.00  0.00    -0.239 C  
HETATM   11  C   UNL     1     -12.900  11.435  71.473  1.00  0.00    -0.508 C  
ENDBRANCH   9  10
ENDBRANCH   8   9
ENDBRANCH   7   8
ENDBRANCH   6   7
BRANCH   6  12
HETATM   12  C   UNL     1     -10.809  12.301  67.397  1.00  0.00    -0.239 C  
BRANCH  12  13
HETATM   13  C   UNL     1      -9.516  11.700  66.865  1.00  0.00    -0.185 C  
BRANCH  13  14
HETATM   14  P   UNL     1      -9.013  10.157  67.759  1.00  0.00    -0.126 P  
BRANCH  14  15
HETATM   15  C   UNL     1     -10.383   9.959  68.995  1.00  0.00    -0.209 C  
BRANCH  15  16
HETATM   16  C   UNL     1      -9.825   9.677  70.393  1.00  0.00    -0.256 C  
BRANCH  16  17
HETATM   17  O   UNL     1     -10.154   8.346  70.801  1.00  0.00    -0.187 OA 
BRANCH  17  18
HETATM   18  C   UNL     1     -11.546   8.095  70.591  1.00  0.00    -0.194 C  
HETATM   19  C   UNL     1     -11.972   6.880  71.388  1.00  0.00    -0.393 C  
ENDBRANCH  17  18
ENDBRANCH  16  17
ENDBRANCH  15  16
ENDBRANCH  14  15
BRANCH  14  20
HETATM   20  C   UNL     1      -9.540   8.893  66.502  1.00  0.00    -0.232 C  
BRANCH  20  21
HETATM   21  C   UNL     1      -9.955   7.574  67.149  1.00  0.00    -0.220 C  
BRANCH  21  22
HETATM   22  O   UNL     1      -9.611   6.489  66.287  1.00  0.00    -0.140 OA 
BRANCH  22  23
HETATM   23  C   UNL     1      -8.386   6.757  65.601  1.00  0.00    -0.147 C  
HETATM   24  C   UNL     1      -8.030   5.564  64.735  1.00  0.00    -0.113 C  
ENDBRANCH  22  23
ENDBRANCH  21  22
ENDBRANCH  20  21
ENDBRANCH  14  20
ENDBRANCH  13  14
ENDBRANCH  12  13
ENDBRANCH   6  12
ENDBRANCH   5   6
ENDBRANCH   4   5
ENDBRANCH   3   4
ENDBRANCH   2   3
TORSDOF 19
ENDMDL
MODEL      176
REMARK 921   NORMALIZED FREE ENERGY PREDICTED BY IDOCK:   -3.28 KCAL/MOL
REMARK 922        TOTAL FREE ENERGY PREDICTED BY IDOCK:   -8.18 KCAL/MOL
REMARK 923 INTER-LIGAND FREE ENERGY PREDICTED BY IDOCK:   -7.22 KCAL/MOL
REMARK 924 INTRA-LIGAND FREE ENERGY PREDICTED BY IDOCK:   -0.96 KCAL/MOL
REMARK 927      BINDING AFFINITY PREDICTED BY RF-SCORE:    0.00 PKD
ROOT
HETATM    1  C   UNL     1      -9.501   7.066  73.008  1.00  0.00    -0.177 C  
HETATM    2  C   UNL     1     -10.281   8.245  72.463  1.00  0.00    -0.316 C  
ENDROOT
BRANCH   2   3
HETATM    3  O   UNL     1     -11.676   8.060  72.718  1.00  0.00    -0.396 OA 
BRANCH   3   4
HETATM    4  C   UNL     1     -12.439   9.021  71.984  1.00  0.00    -0.390 C  
BRANCH   4   5
HETATM    5  C   UNL     1     -11.558   9.752  70.974  1.00  0.00    -0.376 C  
BRANCH   5   6
HETATM    6  P   UNL     1     -12.527  10.939  69.930  1.00  0.00     0.004 P  
BRANCH   6   7
HETATM    7  C   UNL     1     -12.047  12.575  70.672  1.00  0.00    -0.221 C  
BRANCH   7   8
HETATM    8  C   UNL     1     -13.155  13.112  71.578  1.00  0.00    -0.315 C  
BRANCH   8   9
HETATM    9  O   UNL     1     -13.352  14.508  71.340  1.00  0.00    -0.330 OA 
BRANCH   9  10
HETATM   10  C   UNL     1     -14.037  15.106  72.442  1.00  0.00    -0.495 C  
HETATM   11  C   UNL     1     -13.070  15.958  73.239  1.00  0.00    -0.694 C  
ENDBRANCH   9  10
ENDBRANCH   8   9
ENDBRANCH   7   8
ENDBRANCH   6   7
BRANCH   6  12
HETATM   12  C   UNL     1     -11.467  11.015  68.408  1.00  0.00    -0.308 C  
BRANCH  12  13
HETATM   13  C   UNL     1     -10.069  11.548  68.684  1.00  0.00    -0.207 C  
BRANCH  13  14
HETATM   14  P   UNL     1      -9.320  12.411  67.225  1.00  0.00    -0.197 P  
BRANCH  14  15
HETATM   15  C   UNL     1     -10.415  11.845  65.836  1.00  0.00    -0.258 C  
BRANCH  15  16
HETATM   16  C   UNL     1      -9.772  10.688  65.068  1.00  0.00    -0.279 C  
BRANCH  16  17
HETATM   17  O   UNL     1     -10.035   9.446  65.728  1.00  0.00    -0.309 OA 
BRANCH  17  18
HETATM   18  C   UNL     1      -8.810   8.761  65.998  1.00  0.00    -0.175 C  
HETATM   19  C   UNL     1      -9.079   7.280  66.169  1.00  0.00    -0.160 C  
ENDBRANCH  17  18
ENDBRANCH  16  17
ENDBRANCH  15  16
ENDBRANCH  14  15
BRANCH  14  20
HETATM   20  C   UNL     1     -10.010  14.115  67.494  1.00  0.00    -0.236 C  
BRANCH  20  21
HETATM   21  C   UNL     1     -11.080  14.474  66.465  1.00  0.00    -0.332 C  
BRANCH  21  22
HETATM   22  O   UNL     1     -10.713  15.678  65.793  1.00  0.00    -0.323 OA 
BRANCH  22  23
HETATM   23  C   UNL     1     -11.423  15.805  64.558  1.00  0.00    -0.289 C  
HETATM   24  C   UNL     1     -12.165  14.515  64.277  1.00  0.00    -0.441 C  
ENDBRANCH  22  23
ENDBRANCH  21  22
ENDBRANCH  20  21
ENDBRANCH  14  20
ENDBRANCH  13  14
ENDBRANCH  12  13
ENDBRANCH   6  12
ENDBRANCH   5   6
ENDBRANCH   4   5
ENDBRANCH   3   4
ENDBRANCH   2   3
TORSDOF 19
ENDMDL
MODEL      177
REMARK 921   NORMALIZED FREE ENERGY PREDICTED BY IDOCK:   -3.27 KCAL/MOL
REMARK 922        TOTAL FREE ENERGY PREDICTED BY IDOCK:   -8.16 KCAL/MOL
REMARK 923 INTER-LIGAND FREE ENERGY PREDICTED BY IDOCK:   -7.06 KCAL/MOL
REMARK 924 INTRA-LIGAND FREE ENERGY PREDICTED BY IDOCK:   -1.10 KCAL/MOL
REMARK 927      BINDING AFFINITY PREDICTED BY RF-SCORE:    0.00 PKD
ROOT
HETATM    1  C   UNL     1      -8.153   7.948  66.054  1.00  0.00    -0.112 C  
HETATM    2  C   UNL     1      -9.624   7.893  66.410  1.00  0.00    -0.181 C  
ENDROOT
BRANCH   2   3
HETATM    3  O   UNL     1     -10.166   9.216  66.431  1.00  0.00    -0.281 OA 
BRANCH   3   4
HETATM    4  C   UNL     1     -10.547   9.567  67.764  1.00  0.00    -0.261 C  
BRANCH   4   5
HETATM    5  C   UNL     1     -11.226  10.935  67.789  1.00  0.00    -0.317 C  
BRANCH   5   6
HETATM    6  P   UNL     1     -10.545  12.076  66.496  1.00  0.00    -0.254 P  
BRANCH   6   7
HETATM    7  C   UNL     1     -12.072  12.497  65.522  1.00  0.00    -0.419 C  
BRANCH   7   8
HETATM    8  C   UNL     1     -11.732  12.757  64.055  1.00  0.00    -0.426 C  
BRANCH   8   9
HETATM    9  O   UNL     1     -12.443  13.903  63.580  1.00  0.00    -0.810 OA 
BRANCH   9  10
HETATM   10  C   UNL     1     -12.494  14.909  64.593  1.00  0.00    -0.174 C  
HETATM   11  C   UNL     1     -11.346  15.878  64.404  1.00  0.00    -0.276 C  
ENDBRANCH   9  10
ENDBRANCH   8   9
ENDBRANCH   7   8
ENDBRANCH   6   7
BRANCH   6  12
HETATM   12  C   UNL     1     -10.402  13.655  67.463  1.00  0.00    -0.241 C  
BRANCH  12  13
HETATM   13  C   UNL     1      -8.986  14.212  67.484  1.00  0.00    -0.198 C  
BRANCH  13  14
HETATM   14  P   UNL     1      -8.629  15.230  68.991  1.00  0.00    -0.237 P  
BRANCH  14  15
HETATM   15  C   UNL     1      -6.774  15.304  68.980  1.00  0.00    -0.122 C  
BRANCH  15  16
HETATM   16  C   UNL     1      -6.284  16.732  68.726  1.00  0.00    -0.151 C  
BRANCH  16  17
HETATM   17  O   UNL     1      -5.992  17.385  69.965  1.00  0.00    -0.247 OA 
BRANCH  17  18
HETATM   18  C   UNL     1      -6.076  18.804  69.807  1.00  0.00    -0.242 C  
HETATM   19  C   UNL     1      -5.939  19.164  68.342  1.00  0.00    -0.231 C  
ENDBRANCH  17  18
ENDBRANCH  16  17
ENDBRANCH  15  16
ENDBRANCH  14  15
BRANCH  14  20
HETATM   20  C   UNL     1      -9.015  16.918  68.313  1.00  0.00    -0.235 C  
BRANCH  20  21
HETATM   21  C   UNL     1     -10.510  17.228  68.353  1.00  0.00    -0.381 C  
BRANCH  21  22
HETATM   22  O   UNL     1     -10.864  18.021  67.221  1.00  0.00    -0.334 OA 
BRANCH  22  23
HETATM   23  C   UNL     1      -9.701  18.603  66.627  1.00  0.00    -0.341 C  
HETATM   24  C   UNL     1     -10.084  19.908  65.959  1.00  0.00    -0.589 C  
ENDBRANCH  22  23
ENDBRANCH  21  22
ENDBRANCH  20  21
ENDBRANCH  14  20
ENDBRANCH  13  14
ENDBRANCH  12  13
ENDBRANCH   6  12
ENDBRANCH   5   6
ENDBRANCH   4   5
ENDBRANCH   3   4
ENDBRANCH   2   3
TORSDOF 19
ENDMDL
MODEL      178
REMARK 921   NORMALIZED FREE ENERGY PREDICTED BY IDOCK:   -3.27 KCAL/MOL
REMARK 922        TOTAL FREE ENERGY PREDICTED BY IDOCK:   -8.15 KCAL/MOL
REMARK 923 INTER-LIGAND FREE ENERGY PREDICTED BY IDOCK:   -7.07 KCAL/MOL
REMARK 924 INTRA-LIGAND FREE ENERGY PREDICTED BY IDOCK:   -1.08 KCAL/MOL
REMARK 927      BINDING AFFINITY PREDICTED BY RF-SCORE:    0.00 PKD
ROOT
HETATM    1  C   UNL     1     -12.987  12.113  63.265  1.00  0.00    -0.162 C  
HETATM    2  C   UNL     1     -11.615  12.627  63.650  1.00  0.00    -0.503 C  
ENDROOT
BRANCH   2   3
HETATM    3  O   UNL     1     -10.755  11.527  63.957  1.00  0.00    -0.328 OA 
BRANCH   3   4
HETATM    4  C   UNL     1      -9.884  11.873  65.037  1.00  0.00    -0.209 C  
BRANCH   4   5
HETATM    5  C   UNL     1     -10.390  13.119  65.760  1.00  0.00    -0.289 C  
BRANCH   5   6
HETATM    6  P   UNL     1      -9.181  13.733  67.025  1.00  0.00    -0.246 P  
BRANCH   6   7
HETATM    7  C   UNL     1      -9.307  15.575  66.806  1.00  0.00    -0.245 C  
BRANCH   7   8
HETATM    8  C   UNL     1     -10.751  16.048  66.965  1.00  0.00    -0.277 C  
BRANCH   8   9
HETATM    9  O   UNL     1     -10.790  17.267  67.713  1.00  0.00    -0.351 OA 
BRANCH   9  10
HETATM   10  C   UNL     1      -9.890  18.222  67.149  1.00  0.00    -0.324 C  
HETATM   11  C   UNL     1     -10.573  19.571  67.061  1.00  0.00    -0.607 C  
ENDBRANCH   9  10
ENDBRANCH   8   9
ENDBRANCH   7   8
ENDBRANCH   6   7
BRANCH   6  12
HETATM   12  C   UNL     1     -10.188  13.578  68.577  1.00  0.00    -0.229 C  
BRANCH  12  13
HETATM   13  C   UNL     1     -11.088  12.352  68.581  1.00  0.00    -0.257 C  
BRANCH  13  14
HETATM   14  P   UNL     1     -10.224  10.820  69.165  1.00  0.00    -0.147 P  
BRANCH  14  15
HETATM   15  C   UNL     1     -11.421  10.152  70.418  1.00  0.00    -0.322 C  
BRANCH  15  16
HETATM   16  C   UNL     1     -12.617  11.092  70.588  1.00  0.00    -0.338 C  
BRANCH  16  17
HETATM   17  O   UNL     1     -12.712  11.535  71.945  1.00  0.00    -0.306 OA 
BRANCH  17  18
HETATM   18  C   UNL     1     -13.455  12.755  72.016  1.00  0.00    -0.444 C  
HETATM   19  C   UNL     1     -12.546  13.925  71.699  1.00  0.00    -0.387 C  
ENDBRANCH  17  18
ENDBRANCH  16  17
ENDBRANCH  15  16
ENDBRANCH  14  15
BRANCH  14  20
HETATM   20  C   UNL     1     -10.605   9.695  67.736  1.00  0.00    -0.264 C  
BRANCH  20  21
HETATM   21  C   UNL     1      -9.343   9.087  67.128  1.00  0.00    -0.147 C  
BRANCH  21  22
HETATM   22  O   UNL     1      -9.428   7.663  67.172  1.00  0.00    -0.141 OA 
BRANCH  22  23
HETATM   23  C   UNL     1     -10.789   7.241  67.294  1.00  0.00    -0.284 C  
HETATM   24  C   UNL     1     -10.824   5.755  67.590  1.00  0.00    -0.264 C  
ENDBRANCH  22  23
ENDBRANCH  21  22
ENDBRANCH  20  21
ENDBRANCH  14  20
ENDBRANCH  13  14
ENDBRANCH  12  13
ENDBRANCH   6  12
ENDBRANCH   5   6
ENDBRANCH   4   5
ENDBRANCH   3   4
ENDBRANCH   2   3
TORSDOF 19
ENDMDL
MODEL      179
REMARK 921   NORMALIZED FREE ENERGY PREDICTED BY IDOCK:   -3.26 KCAL/MOL
REMARK 922        TOTAL FREE ENERGY PREDICTED BY IDOCK:   -8.14 KCAL/MOL
REMARK 923 INTER-LIGAND FREE ENERGY PREDICTED BY IDOCK:   -6.73 KCAL/MOL
REMARK 924 INTRA-LIGAND FREE ENERGY PREDICTED BY IDOCK:   -1.41 KCAL/MOL
REMARK 927      BINDING AFFINITY PREDICTED BY RF-SCORE:    0.00 PKD
ROOT
HETATM    1  C   UNL     1     -12.709  11.916  63.498  1.00  0.00    -0.530 C  
HETATM    2  C   UNL     1     -11.230  12.233  63.577  1.00  0.00    -0.460 C  
ENDROOT
BRANCH   2   3
HETATM    3  O   UNL     1     -10.592  11.338  64.491  1.00  0.00    -0.313 OA 
BRANCH   3   4
HETATM    4  C   UNL     1     -10.350  12.000  65.735  1.00  0.00    -0.254 C  
BRANCH   4   5
HETATM    5  C   UNL     1     -10.878  11.169  66.902  1.00  0.00    -0.279 C  
BRANCH   5   6
HETATM    6  P   UNL     1     -10.230  11.763  68.534  1.00  0.00    -0.165 P  
BRANCH   6   7
HETATM    7  C   UNL     1     -11.800  12.202  69.428  1.00  0.00    -0.309 C  
BRANCH   7   8
HETATM    8  C   UNL     1     -11.994  13.716  69.485  1.00  0.00    -0.341 C  
BRANCH   8   9
HETATM    9  O   UNL     1     -11.909  14.174  70.837  1.00  0.00    -0.306 OA 
BRANCH   9  10
HETATM   10  C   UNL     1     -11.583  15.565  70.869  1.00  0.00    -0.375 C  
HETATM   11  C   UNL     1     -11.260  16.042  69.468  1.00  0.00    -0.348 C  
ENDBRANCH   9  10
ENDBRANCH   8   9
ENDBRANCH   7   8
ENDBRANCH   6   7
BRANCH   6  12
HETATM   12  C   UNL     1      -9.882  10.148  69.382  1.00  0.00    -0.229 C  
BRANCH  12  13
HETATM   13  C   UNL     1     -10.525   8.960  68.683  1.00  0.00    -0.193 C  
BRANCH  13  14
HETATM   14  P   UNL     1      -9.743   7.342  69.135  1.00  0.00    -0.170 P  
BRANCH  14  15
HETATM   15  C   UNL     1     -11.182   6.396  69.829  1.00  0.00    -0.419 C  
BRANCH  15  16
HETATM   16  C   UNL     1     -11.084   6.290  71.353  1.00  0.00    -0.284 C  
BRANCH  16  17
HETATM   17  O   UNL     1     -12.131   7.044  71.973  1.00  0.00    -0.302 OA 
BRANCH  17  18
HETATM   18  C   UNL     1     -11.670   8.361  72.288  1.00  0.00    -0.385 C  
HETATM   19  C   UNL     1     -12.650   9.386  71.755  1.00  0.00    -0.470 C  
ENDBRANCH  17  18
ENDBRANCH  16  17
ENDBRANCH  15  16
ENDBRANCH  14  15
BRANCH  14  20
HETATM   20  C   UNL     1      -9.646   6.571  67.447  1.00  0.00    -0.125 C  
BRANCH  20  21
HETATM   21  C   UNL     1      -9.739   7.610  66.331  1.00  0.00    -0.127 C  
BRANCH  21  22
HETATM   22  O   UNL     1      -8.509   7.647  65.608  1.00  0.00    -0.141 OA 
BRANCH  22  23
HETATM   23  C   UNL     1      -8.108   8.998  65.361  1.00  0.00    -0.120 C  
HETATM   24  C   UNL     1      -7.326   9.509  66.554  1.00  0.00    -0.090 C  
ENDBRANCH  22  23
ENDBRANCH  21  22
ENDBRANCH  20  21
ENDBRANCH  14  20
ENDBRANCH  13  14
ENDBRANCH  12  13
ENDBRANCH   6  12
ENDBRANCH   5   6
ENDBRANCH   4   5
ENDBRANCH   3   4
ENDBRANCH   2   3
TORSDOF 19
ENDMDL
MODEL      180
REMARK 921   NORMALIZED FREE ENERGY PREDICTED BY IDOCK:   -3.26 KCAL/MOL
REMARK 922        TOTAL FREE ENERGY PREDICTED BY IDOCK:   -8.14 KCAL/MOL
REMARK 923 INTER-LIGAND FREE ENERGY PREDICTED BY IDOCK:   -6.85 KCAL/MOL
REMARK 924 INTRA-LIGAND FREE ENERGY PREDICTED BY IDOCK:   -1.29 KCAL/MOL
REMARK 927      BINDING AFFINITY PREDICTED BY RF-SCORE:    0.00 PKD
ROOT
HETATM    1  C   UNL     1     -12.203  12.806  63.352  1.00  0.00    -0.594 C  
HETATM    2  C   UNL     1     -11.002  11.886  63.408  1.00  0.00    -0.395 C  
ENDROOT
BRANCH   2   3
HETATM    3  O   UNL     1      -9.923  12.539  64.082  1.00  0.00    -0.293 OA 
BRANCH   3   4
HETATM    4  C   UNL     1     -10.430  13.581  64.921  1.00  0.00    -0.402 C  
BRANCH   4   5
HETATM    5  C   UNL     1      -9.924  13.415  66.352  1.00  0.00    -0.293 C  
BRANCH   5   6
HETATM    6  P   UNL     1     -10.930  12.188  67.311  1.00  0.00    -0.295 P  
BRANCH   6   7
HETATM    7  C   UNL     1      -9.739  11.685  68.648  1.00  0.00    -0.143 C  
BRANCH   7   8
HETATM    8  C   UNL     1     -10.276  10.494  69.441  1.00  0.00    -0.221 C  
BRANCH   8   9
HETATM    9  O   UNL     1      -9.272   9.482  69.550  1.00  0.00    -0.165 OA 
BRANCH   9  10
HETATM   10  C   UNL     1      -9.365   8.827  70.816  1.00  0.00    -0.208 C  
HETATM   11  C   UNL     1     -10.592   9.323  71.554  1.00  0.00    -0.405 C  
ENDBRANCH   9  10
ENDBRANCH   8   9
ENDBRANCH   7   8
ENDBRANCH   6   7
BRANCH   6  12
HETATM   12  C   UNL     1     -12.000  13.323  68.320  1.00  0.00    -0.302 C  
BRANCH  12  13
HETATM   13  C   UNL     1     -11.578  14.781  68.218  1.00  0.00    -0.323 C  
BRANCH  13  14
HETATM   14  P   UNL     1     -10.979  15.476  69.828  1.00  0.00    -0.355 P  
BRANCH  14  15
HETATM   15  C   UNL     1     -10.378  17.159  69.326  1.00  0.00    -0.257 C  
BRANCH  15  16
HETATM   16  C   UNL     1      -9.124  17.055  68.453  1.00  0.00    -0.256 C  
BRANCH  16  17
HETATM   17  O   UNL     1      -8.211  16.101  69.004  1.00  0.00    -0.223 OA 
BRANCH  17  18
HETATM   18  C   UNL     1      -7.441  15.496  67.963  1.00  0.00    -0.127 C  
HETATM   19  C   UNL     1      -7.473  16.373  66.728  1.00  0.00    -0.278 C  
ENDBRANCH  17  18
ENDBRANCH  16  17
ENDBRANCH  15  16
ENDBRANCH  14  15
BRANCH  14  20
HETATM   20  C   UNL     1     -12.612  15.939  70.585  1.00  0.00    -0.179 C  
BRANCH  20  21
HETATM   21  C   UNL     1     -12.813  15.304  71.959  1.00  0.00    -0.358 C  
BRANCH  21  22
HETATM   22  O   UNL     1     -13.697  14.190  71.847  1.00  0.00    -0.371 OA 
BRANCH  22  23
HETATM   23  C   UNL     1     -13.093  13.008  72.378  1.00  0.00    -0.275 C  
HETATM   24  C   UNL     1     -13.397  11.839  71.463  1.00  0.00    -0.134 C  
ENDBRANCH  22  23
ENDBRANCH  21  22
ENDBRANCH  20  21
ENDBRANCH  14  20
ENDBRANCH  13  14
ENDBRANCH  12  13
ENDBRANCH   6  12
ENDBRANCH   5   6
ENDBRANCH   4   5
ENDBRANCH   3   4
ENDBRANCH   2   3
TORSDOF 19
ENDMDL
MODEL      181
REMARK 921   NORMALIZED FREE ENERGY PREDICTED BY IDOCK:   -3.26 KCAL/MOL
REMARK 922        TOTAL FREE ENERGY PREDICTED BY IDOCK:   -8.13 KCAL/MOL
REMARK 923 INTER-LIGAND FREE ENERGY PREDICTED BY IDOCK:   -7.15 KCAL/MOL
REMARK 924 INTRA-LIGAND FREE ENERGY PREDICTED BY IDOCK:   -0.98 KCAL/MOL
REMARK 927      BINDING AFFINITY PREDICTED BY RF-SCORE:    0.00 PKD
ROOT
HETATM    1  C   UNL     1      -8.306  19.304  68.407  1.00  0.00    -0.383 C  
HETATM    2  C   UNL     1      -7.026  19.483  69.196  1.00  0.00    -0.357 C  
ENDROOT
BRANCH   2   3
HETATM    3  O   UNL     1      -6.465  18.204  69.503  1.00  0.00    -0.250 OA 
BRANCH   3   4
HETATM    4  C   UNL     1      -6.962  17.220  68.593  1.00  0.00    -0.220 C  
BRANCH   4   5
HETATM    5  C   UNL     1      -7.072  15.859  69.276  1.00  0.00    -0.206 C  
BRANCH   5   6
HETATM    6  P   UNL     1      -6.830  14.458  68.086  1.00  0.00    -0.161 P  
BRANCH   6   7
HETATM    7  C   UNL     1      -6.006  13.186  69.162  1.00  0.00    -0.086 C  
BRANCH   7   8
HETATM    8  C   UNL     1      -6.724  11.840  69.069  1.00  0.00    -0.102 C  
BRANCH   8   9
HETATM    9  O   UNL     1      -6.741  11.201  70.347  1.00  0.00    -0.233 OA 
BRANCH   9  10
HETATM   10  C   UNL     1      -7.298   9.890  70.238  1.00  0.00    -0.157 C  
HETATM   11  C   UNL     1      -6.747   9.206  69.004  1.00  0.00    -0.055 C  
ENDBRANCH   9  10
ENDBRANCH   8   9
ENDBRANCH   7   8
ENDBRANCH   6   7
BRANCH   6  12
HETATM   12  C   UNL     1      -8.535  13.722  68.060  1.00  0.00    -0.176 C  
BRANCH  12  13
HETATM   13  C   UNL     1      -9.281  13.998  66.763  1.00  0.00    -0.265 C  
BRANCH  13  14
HETATM   14  P   UNL     1     -10.530  15.358  66.921  1.00  0.00    -0.302 P  
BRANCH  14  15
HETATM   15  C   UNL     1     -11.301  15.375  65.232  1.00  0.00    -0.243 C  
BRANCH  15  16
HETATM   16  C   UNL     1     -11.247  13.986  64.590  1.00  0.00    -0.374 C  
BRANCH  16  17
HETATM   17  O   UNL     1     -12.558  13.566  64.200  1.00  0.00    -0.647 OA 
BRANCH  17  18
HETATM   18  C   UNL     1     -12.517  12.234  63.684  1.00  0.00    -0.541 C  
HETATM   19  C   UNL     1     -11.090  11.728  63.689  1.00  0.00    -0.518 C  
ENDBRANCH  17  18
ENDBRANCH  16  17
ENDBRANCH  15  16
ENDBRANCH  14  15
BRANCH  14  20
HETATM   20  C   UNL     1     -11.851  14.447  67.859  1.00  0.00    -0.349 C  
BRANCH  20  21
HETATM   21  C   UNL     1     -12.020  14.980  69.281  1.00  0.00    -0.289 C  
BRANCH  21  22
HETATM   22  O   UNL     1     -11.901  13.905  70.212  1.00  0.00    -0.302 OA 
BRANCH  22  23
HETATM   23  C   UNL     1     -12.447  14.272  71.481  1.00  0.00    -0.356 C  
HETATM   24  C   UNL     1     -13.543  15.298  71.272  1.00  0.00    -0.584 C  
ENDBRANCH  22  23
ENDBRANCH  21  22
ENDBRANCH  20  21
ENDBRANCH  14  20
ENDBRANCH  13  14
ENDBRANCH  12  13
ENDBRANCH   6  12
ENDBRANCH   5   6
ENDBRANCH   4   5
ENDBRANCH   3   4
ENDBRANCH   2   3
TORSDOF 19
ENDMDL
MODEL      182
REMARK 921   NORMALIZED FREE ENERGY PREDICTED BY IDOCK:   -3.26 KCAL/MOL
REMARK 922        TOTAL FREE ENERGY PREDICTED BY IDOCK:   -8.13 KCAL/MOL
REMARK 923 INTER-LIGAND FREE ENERGY PREDICTED BY IDOCK:   -6.81 KCAL/MOL
REMARK 924 INTRA-LIGAND FREE ENERGY PREDICTED BY IDOCK:   -1.32 KCAL/MOL
REMARK 927      BINDING AFFINITY PREDICTED BY RF-SCORE:    0.00 PKD
ROOT
HETATM    1  C   UNL     1      -6.616  13.525  67.529  1.00  0.00    -0.130 C  
HETATM    2  C   UNL     1      -7.809  14.390  67.881  1.00  0.00    -0.150 C  
ENDROOT
BRANCH   2   3
HETATM    3  O   UNL     1      -8.160  15.208  66.761  1.00  0.00    -0.204 OA 
BRANCH   3   4
HETATM    4  C   UNL     1      -9.556  15.516  66.800  1.00  0.00    -0.235 C  
BRANCH   4   5
HETATM    5  C   UNL     1     -10.115  15.314  68.206  1.00  0.00    -0.225 C  
BRANCH   5   6
HETATM    6  P   UNL     1     -11.680  14.320  68.201  1.00  0.00    -0.332 P  
BRANCH   6   7
HETATM    7  C   UNL     1     -11.561  13.436  66.569  1.00  0.00    -0.357 C  
BRANCH   7   8
HETATM    8  C   UNL     1     -12.691  13.861  65.632  1.00  0.00    -0.495 C  
BRANCH   8   9
HETATM    9  O   UNL     1     -12.696  13.038  64.462  1.00  0.00    -0.656 OA 
BRANCH   9  10
HETATM   10  C   UNL     1     -11.383  12.966  63.903  1.00  0.00    -0.436 C  
HETATM   11  C   UNL     1     -11.033  11.520  63.616  1.00  0.00    -0.482 C  
ENDBRANCH   9  10
ENDBRANCH   8   9
ENDBRANCH   7   8
ENDBRANCH   6   7
BRANCH   6  12
HETATM   12  C   UNL     1     -11.202  12.907  69.306  1.00  0.00    -0.190 C  
BRANCH  12  13
HETATM   13  C   UNL     1     -11.947  11.621  68.981  1.00  0.00    -0.305 C  
BRANCH  13  14
HETATM   14  P   UNL     1     -10.870  10.116  69.074  1.00  0.00    -0.215 P  
BRANCH  14  15
HETATM   15  C   UNL     1      -9.183  10.826  68.762  1.00  0.00    -0.189 C  
BRANCH  15  16
HETATM   16  C   UNL     1      -8.801  10.702  67.284  1.00  0.00    -0.136 C  
BRANCH  16  17
HETATM   17  O   UNL     1      -9.843  10.048  66.554  1.00  0.00    -0.188 OA 
BRANCH  17  18
HETATM   18  C   UNL     1      -9.302   8.984  65.767  1.00  0.00    -0.236 C  
HETATM   19  C   UNL     1      -9.456   7.672  66.509  1.00  0.00    -0.250 C  
ENDBRANCH  17  18
ENDBRANCH  16  17
ENDBRANCH  15  16
ENDBRANCH  14  15
BRANCH  14  20
HETATM   20  C   UNL     1     -10.789   9.915  70.920  1.00  0.00    -0.286 C  
BRANCH  20  21
HETATM   21  C   UNL     1      -9.991   8.679  71.331  1.00  0.00    -0.254 C  
BRANCH  21  22
HETATM   22  O   UNL     1     -10.871   7.562  71.454  1.00  0.00    -0.228 OA 
BRANCH  22  23
HETATM   23  C   UNL     1     -10.335   6.420  70.780  1.00  0.00    -0.201 C  
HETATM   24  C   UNL     1     -11.225   6.075  69.602  1.00  0.00    -0.428 C  
ENDBRANCH  22  23
ENDBRANCH  21  22
ENDBRANCH  20  21
ENDBRANCH  14  20
ENDBRANCH  13  14
ENDBRANCH  12  13
ENDBRANCH   6  12
ENDBRANCH   5   6
ENDBRANCH   4   5
ENDBRANCH   3   4
ENDBRANCH   2   3
TORSDOF 19
ENDMDL
MODEL      183
REMARK 921   NORMALIZED FREE ENERGY PREDICTED BY IDOCK:   -3.25 KCAL/MOL
REMARK 922        TOTAL FREE ENERGY PREDICTED BY IDOCK:   -8.12 KCAL/MOL
REMARK 923 INTER-LIGAND FREE ENERGY PREDICTED BY IDOCK:   -6.94 KCAL/MOL
REMARK 924 INTRA-LIGAND FREE ENERGY PREDICTED BY IDOCK:   -1.18 KCAL/MOL
REMARK 927      BINDING AFFINITY PREDICTED BY RF-SCORE:    0.00 PKD
ROOT
HETATM    1  C   UNL     1     -11.224  15.495  64.533  1.00  0.00    -0.327 C  
HETATM    2  C   UNL     1     -12.520  14.731  64.352  1.00  0.00    -0.252 C  
ENDROOT
BRANCH   2   3
HETATM    3  O   UNL     1     -12.354  13.730  63.344  1.00  0.00    -0.750 OA 
BRANCH   3   4
HETATM    4  C   UNL     1     -12.339  12.432  63.943  1.00  0.00    -0.508 C  
BRANCH   4   5
HETATM    5  C   UNL     1     -10.936  11.831  63.895  1.00  0.00    -0.407 C  
BRANCH   5   6
HETATM    6  P   UNL     1     -10.125  11.816  65.562  1.00  0.00    -0.263 P  
BRANCH   6   7
HETATM    7  C   UNL     1     -11.552  12.227  66.681  1.00  0.00    -0.375 C  
BRANCH   7   8
HETATM    8  C   UNL     1     -11.220  13.419  67.578  1.00  0.00    -0.284 C  
BRANCH   8   9
HETATM    9  O   UNL     1     -12.245  13.598  68.559  1.00  0.00    -0.342 OA 
BRANCH   9  10
HETATM   10  C   UNL     1     -11.667  13.720  69.861  1.00  0.00    -0.284 C  
HETATM   11  C   UNL     1     -12.591  13.096  70.886  1.00  0.00    -0.377 C  
ENDBRANCH   9  10
ENDBRANCH   8   9
ENDBRANCH   7   8
ENDBRANCH   6   7
BRANCH   6  12
HETATM   12  C   UNL     1     -10.041   9.991  65.895  1.00  0.00    -0.249 C  
BRANCH  12  13
HETATM   13  C   UNL     1     -10.619   9.607  67.249  1.00  0.00    -0.247 C  
BRANCH  13  14
HETATM   14  P   UNL     1      -9.351   9.592  68.600  1.00  0.00    -0.149 P  
BRANCH  14  15
HETATM   15  C   UNL     1     -10.390   9.883  70.111  1.00  0.00    -0.282 C  
BRANCH  15  16
HETATM   16  C   UNL     1     -10.537   8.598  70.931  1.00  0.00    -0.214 C  
BRANCH  16  17
HETATM   17  O   UNL     1     -11.918   8.244  71.058  1.00  0.00    -0.296 OA 
BRANCH  17  18
HETATM   18  C   UNL     1     -12.448   8.756  72.283  1.00  0.00    -0.386 C  
HETATM   19  C   UNL     1     -13.949   8.921  72.160  1.00  0.00    -0.520 C  
ENDBRANCH  17  18
ENDBRANCH  16  17
ENDBRANCH  15  16
ENDBRANCH  14  15
BRANCH  14  20
HETATM   20  C   UNL     1      -9.089   7.758  68.748  1.00  0.00    -0.140 C  
BRANCH  20  21
HETATM   21  C   UNL     1      -7.743   7.320  68.174  1.00  0.00    -0.117 C  
BRANCH  21  22
HETATM   22  O   UNL     1      -7.305   8.271  67.203  1.00  0.00    -0.085 OA 
BRANCH  22  23
HETATM   23  C   UNL     1      -5.903   8.520  67.336  1.00  0.00    -0.043 C  
HETATM   24  C   UNL     1      -5.620   9.966  66.979  1.00  0.00    -0.046 C  
ENDBRANCH  22  23
ENDBRANCH  21  22
ENDBRANCH  20  21
ENDBRANCH  14  20
ENDBRANCH  13  14
ENDBRANCH  12  13
ENDBRANCH   6  12
ENDBRANCH   5   6
ENDBRANCH   4   5
ENDBRANCH   3   4
ENDBRANCH   2   3
TORSDOF 19
ENDMDL
MODEL      184
REMARK 921   NORMALIZED FREE ENERGY PREDICTED BY IDOCK:   -3.25 KCAL/MOL
REMARK 922        TOTAL FREE ENERGY PREDICTED BY IDOCK:   -8.11 KCAL/MOL
REMARK 923 INTER-LIGAND FREE ENERGY PREDICTED BY IDOCK:   -6.89 KCAL/MOL
REMARK 924 INTRA-LIGAND FREE ENERGY PREDICTED BY IDOCK:   -1.21 KCAL/MOL
REMARK 927      BINDING AFFINITY PREDICTED BY RF-SCORE:    0.00 PKD
ROOT
HETATM    1  C   UNL     1      -7.205  17.640  67.701  1.00  0.00    -0.188 C  
HETATM    2  C   UNL     1      -7.522  17.905  66.244  1.00  0.00    -0.286 C  
ENDROOT
BRANCH   2   3
HETATM    3  O   UNL     1      -8.601  17.065  65.824  1.00  0.00    -0.517 OA 
BRANCH   3   4
HETATM    4  C   UNL     1      -9.084  16.300  66.931  1.00  0.00    -0.220 C  
BRANCH   4   5
HETATM    5  C   UNL     1      -9.242  14.832  66.544  1.00  0.00    -0.276 C  
BRANCH   5   6
HETATM    6  P   UNL     1      -9.793  13.787  67.974  1.00  0.00    -0.249 P  
BRANCH   6   7
HETATM    7  C   UNL     1     -11.628  13.690  67.687  1.00  0.00    -0.346 C  
BRANCH   7   8
HETATM    8  C   UNL     1     -12.020  12.335  67.100  1.00  0.00    -0.137 C  
BRANCH   8   9
HETATM    9  O   UNL     1     -12.446  12.491  65.744  1.00  0.00    -0.626 OA 
BRANCH   9  10
HETATM   10  C   UNL     1     -12.729  13.864  65.468  1.00  0.00    -0.499 C  
HETATM   11  C   UNL     1     -12.218  14.219  64.087  1.00  0.00    -0.410 C  
ENDBRANCH   9  10
ENDBRANCH   8   9
ENDBRANCH   7   8
ENDBRANCH   6   7
BRANCH   6  12
HETATM   12  C   UNL     1      -9.338  12.093  67.367  1.00  0.00    -0.181 C  
BRANCH  12  13
HETATM   13  C   UNL     1      -8.798  11.193  68.468  1.00  0.00    -0.161 C  
BRANCH  13  14
HETATM   14  P   UNL     1      -9.187   9.401  68.196  1.00  0.00    -0.128 P  
BRANCH  14  15
HETATM   15  C   UNL     1     -10.779   9.203  69.129  1.00  0.00    -0.172 C  
BRANCH  15  16
HETATM   16  C   UNL     1     -10.945  10.311  70.172  1.00  0.00    -0.314 C  
BRANCH  16  17
HETATM   17  O   UNL     1     -11.452   9.770  71.396  1.00  0.00    -0.371 OA 
BRANCH  17  18
HETATM   18  C   UNL     1     -12.791  10.221  71.619  1.00  0.00    -0.463 C  
HETATM   19  C   UNL     1     -13.652   9.060  72.071  1.00  0.00    -0.500 C  
ENDBRANCH  17  18
ENDBRANCH  16  17
ENDBRANCH  15  16
ENDBRANCH  14  15
BRANCH  14  20
HETATM   20  C   UNL     1      -9.849   9.496  66.462  1.00  0.00    -0.240 C  
BRANCH  20  21
HETATM   21  C   UNL     1      -8.852   8.965  65.434  1.00  0.00    -0.193 C  
BRANCH  21  22
HETATM   22  O   UNL     1      -8.563   9.985  64.477  1.00  0.00    -0.161 OA 
BRANCH  22  23
HETATM   23  C   UNL     1      -7.186   9.944  64.095  1.00  0.00    -0.134 C  
HETATM   24  C   UNL     1      -6.327  10.299  65.292  1.00  0.00    -0.125 C  
ENDBRANCH  22  23
ENDBRANCH  21  22
ENDBRANCH  20  21
ENDBRANCH  14  20
ENDBRANCH  13  14
ENDBRANCH  12  13
ENDBRANCH   6  12
ENDBRANCH   5   6
ENDBRANCH   4   5
ENDBRANCH   3   4
ENDBRANCH   2   3
TORSDOF 19
ENDMDL
MODEL      185
REMARK 921   NORMALIZED FREE ENERGY PREDICTED BY IDOCK:   -3.25 KCAL/MOL
REMARK 922        TOTAL FREE ENERGY PREDICTED BY IDOCK:   -8.10 KCAL/MOL
REMARK 923 INTER-LIGAND FREE ENERGY PREDICTED BY IDOCK:   -7.28 KCAL/MOL
REMARK 924 INTRA-LIGAND FREE ENERGY PREDICTED BY IDOCK:   -0.83 KCAL/MOL
REMARK 927      BINDING AFFINITY PREDICTED BY RF-SCORE:    0.00 PKD
ROOT
HETATM    1  C   UNL     1      -9.164   2.914  70.857  1.00  0.00    -0.207 C  
HETATM    2  C   UNL     1      -8.709   4.359  70.857  1.00  0.00    -0.093 C  
ENDROOT
BRANCH   2   3
HETATM    3  O   UNL     1      -9.037   4.969  72.108  1.00  0.00    -0.130 OA 
BRANCH   3   4
HETATM    4  C   UNL     1      -9.432   6.327  71.901  1.00  0.00    -0.153 C  
BRANCH   4   5
HETATM    5  C   UNL     1      -8.270   7.150  71.351  1.00  0.00    -0.107 C  
BRANCH   5   6
HETATM    6  P   UNL     1      -8.851   8.588  70.334  1.00  0.00    -0.172 P  
BRANCH   6   7
HETATM    7  C   UNL     1      -8.810   7.877  68.617  1.00  0.00    -0.134 C  
BRANCH   7   8
HETATM    8  C   UNL     1     -10.199   7.406  68.185  1.00  0.00    -0.187 C  
BRANCH   8   9
HETATM    9  O   UNL     1     -10.112   6.678  66.958  1.00  0.00    -0.156 OA 
BRANCH   9  10
HETATM   10  C   UNL     1     -10.353   5.288  67.189  1.00  0.00    -0.216 C  
HETATM   11  C   UNL     1     -10.517   4.575  65.863  1.00  0.00    -0.262 C  
ENDBRANCH   9  10
ENDBRANCH   8   9
ENDBRANCH   7   8
ENDBRANCH   6   7
BRANCH   6  12
HETATM   12  C   UNL     1     -10.684   8.499  70.617  1.00  0.00    -0.220 C  
BRANCH  12  13
HETATM   13  C   UNL     1     -11.217   9.671  71.428  1.00  0.00    -0.356 C  
BRANCH  13  14
HETATM   14  P   UNL     1     -12.683  10.490  70.643  1.00  0.00    -0.244 P  
BRANCH  14  15
HETATM   15  C   UNL     1     -13.397  11.451  72.061  1.00  0.00    -0.283 C  
BRANCH  15  16
HETATM   16  C   UNL     1     -13.219  12.956  71.849  1.00  0.00    -0.423 C  
BRANCH  16  17
HETATM   17  O   UNL     1     -14.206  13.683  72.587  1.00  0.00    -0.735 OA 
BRANCH  17  18
HETATM   18  C   UNL     1     -14.153  15.071  72.250  1.00  0.00    -0.513 C  
HETATM   19  C   UNL     1     -13.222  15.793  73.202  1.00  0.00    -0.694 C  
ENDBRANCH  17  18
ENDBRANCH  16  17
ENDBRANCH  15  16
ENDBRANCH  14  15
BRANCH  14  20
HETATM   20  C   UNL     1     -11.814  11.863  69.740  1.00  0.00    -0.340 C  
BRANCH  20  21
HETATM   21  C   UNL     1     -11.516  11.499  68.286  1.00  0.00    -0.299 C  
BRANCH  21  22
HETATM   22  O   UNL     1     -12.021  12.520  67.425  1.00  0.00    -0.456 OA 
BRANCH  22  23
HETATM   23  C   UNL     1     -11.387  12.460  66.145  1.00  0.00    -0.352 C  
HETATM   24  C   UNL     1     -12.368  12.918  65.084  1.00  0.00    -0.547 C  
ENDBRANCH  22  23
ENDBRANCH  21  22
ENDBRANCH  20  21
ENDBRANCH  14  20
ENDBRANCH  13  14
ENDBRANCH  12  13
ENDBRANCH   6  12
ENDBRANCH   5   6
ENDBRANCH   4   5
ENDBRANCH   3   4
ENDBRANCH   2   3
TORSDOF 19
ENDMDL
MODEL      186
REMARK 921   NORMALIZED FREE ENERGY PREDICTED BY IDOCK:   -3.25 KCAL/MOL
REMARK 922        TOTAL FREE ENERGY PREDICTED BY IDOCK:   -8.10 KCAL/MOL
REMARK 923 INTER-LIGAND FREE ENERGY PREDICTED BY IDOCK:   -6.78 KCAL/MOL
REMARK 924 INTRA-LIGAND FREE ENERGY PREDICTED BY IDOCK:   -1.32 KCAL/MOL
REMARK 927      BINDING AFFINITY PREDICTED BY RF-SCORE:    0.00 PKD
ROOT
HETATM    1  C   UNL     1     -11.779  12.392  63.649  1.00  0.00    -0.596 C  
HETATM    2  C   UNL     1     -10.403  11.768  63.551  1.00  0.00    -0.448 C  
ENDROOT
BRANCH   2   3
HETATM    3  O   UNL     1     -10.364  10.560  64.316  1.00  0.00    -0.332 OA 
BRANCH   3   4
HETATM    4  C   UNL     1      -9.065  10.384  64.887  1.00  0.00    -0.208 C  
BRANCH   4   5
HETATM    5  C   UNL     1      -9.058   9.207  65.859  1.00  0.00    -0.205 C  
BRANCH   5   6
HETATM    6  P   UNL     1      -8.789   9.748  67.612  1.00  0.00    -0.123 P  
BRANCH   6   7
HETATM    7  C   UNL     1      -9.932  11.209  67.736  1.00  0.00    -0.175 C  
BRANCH   7   8
HETATM    8  C   UNL     1     -11.380  10.758  67.923  1.00  0.00    -0.299 C  
BRANCH   8   9
HETATM    9  O   UNL     1     -12.175  11.842  68.412  1.00  0.00    -0.467 OA 
BRANCH   9  10
HETATM   10  C   UNL     1     -11.346  12.812  69.055  1.00  0.00    -0.294 C  
HETATM   11  C   UNL     1     -12.178  14.022  69.428  1.00  0.00    -0.336 C  
ENDBRANCH   9  10
ENDBRANCH   8   9
ENDBRANCH   7   8
ENDBRANCH   6   7
BRANCH   6  12
HETATM   12  C   UNL     1      -9.834   8.513  68.524  1.00  0.00    -0.173 C  
BRANCH  12  13
HETATM   13  C   UNL     1      -9.056   7.745  69.582  1.00  0.00    -0.146 C  
BRANCH  13  14
HETATM   14  P   UNL     1      -9.717   6.038  69.871  1.00  0.00    -0.175 P  
BRANCH  14  15
HETATM   15  C   UNL     1      -9.394   5.798  71.683  1.00  0.00    -0.146 C  
BRANCH  15  16
HETATM   16  C   UNL     1      -8.498   6.910  72.233  1.00  0.00    -0.108 C  
BRANCH  16  17
HETATM   17  O   UNL     1      -9.143   7.576  73.323  1.00  0.00    -0.152 OA 
BRANCH  17  18
HETATM   18  C   UNL     1      -8.169   8.081  74.240  1.00  0.00    -0.253 C  
HETATM   19  C   UNL     1      -6.799   8.054  73.595  1.00  0.00    -0.138 C  
ENDBRANCH  17  18
ENDBRANCH  16  17
ENDBRANCH  15  16
ENDBRANCH  14  15
BRANCH  14  20
HETATM   20  C   UNL     1     -11.535   6.423  69.925  1.00  0.00    -0.415 C  
BRANCH  20  21
HETATM   21  C   UNL     1     -12.021   6.716  71.342  1.00  0.00    -0.353 C  
BRANCH  21  22
HETATM   22  O   UNL     1     -12.753   7.941  71.353  1.00  0.00    -0.321 OA 
BRANCH  22  23
HETATM   23  C   UNL     1     -11.888   9.045  71.634  1.00  0.00    -0.360 C  
HETATM   24  C   UNL     1     -12.681  10.333  71.545  1.00  0.00    -0.557 C  
ENDBRANCH  22  23
ENDBRANCH  21  22
ENDBRANCH  20  21
ENDBRANCH  14  20
ENDBRANCH  13  14
ENDBRANCH  12  13
ENDBRANCH   6  12
ENDBRANCH   5   6
ENDBRANCH   4   5
ENDBRANCH   3   4
ENDBRANCH   2   3
TORSDOF 19
ENDMDL
MODEL      187
REMARK 921   NORMALIZED FREE ENERGY PREDICTED BY IDOCK:   -3.23 KCAL/MOL
REMARK 922        TOTAL FREE ENERGY PREDICTED BY IDOCK:   -8.08 KCAL/MOL
REMARK 923 INTER-LIGAND FREE ENERGY PREDICTED BY IDOCK:   -6.99 KCAL/MOL
REMARK 924 INTRA-LIGAND FREE ENERGY PREDICTED BY IDOCK:   -1.09 KCAL/MOL
REMARK 927      BINDING AFFINITY PREDICTED BY RF-SCORE:    0.00 PKD
ROOT
HETATM    1  C   UNL     1      -9.103   7.190  66.406  1.00  0.00    -0.189 C  
HETATM    2  C   UNL     1      -9.605   7.198  67.835  1.00  0.00    -0.133 C  
ENDROOT
BRANCH   2   3
HETATM    3  O   UNL     1     -10.442   8.338  68.046  1.00  0.00    -0.215 OA 
BRANCH   3   4
HETATM    4  C   UNL     1     -10.285   8.819  69.384  1.00  0.00    -0.210 C  
BRANCH   4   5
HETATM    5  C   UNL     1     -10.062  10.329  69.393  1.00  0.00    -0.235 C  
BRANCH   5   6
HETATM    6  P   UNL     1      -9.095  10.902  67.918  1.00  0.00    -0.157 P  
BRANCH   6   7
HETATM    7  C   UNL     1     -10.449  11.278  66.701  1.00  0.00    -0.247 C  
BRANCH   7   8
HETATM    8  C   UNL     1     -10.100  10.747  65.311  1.00  0.00    -0.290 C  
BRANCH   8   9
HETATM    9  O   UNL     1     -10.079  11.818  64.364  1.00  0.00    -0.262 OA 
BRANCH   9  10
HETATM   10  C   UNL     1     -10.968  11.539  63.281  1.00  0.00    -0.224 C  
HETATM   11  C   UNL     1     -12.338  12.108  63.590  1.00  0.00    -0.673 C  
ENDBRANCH   9  10
ENDBRANCH   8   9
ENDBRANCH   7   8
ENDBRANCH   6   7
BRANCH   6  12
HETATM   12  C   UNL     1      -8.692  12.644  68.418  1.00  0.00    -0.118 C  
BRANCH  12  13
HETATM   13  C   UNL     1      -8.733  13.621  67.251  1.00  0.00    -0.218 C  
BRANCH  13  14
HETATM   14  P   UNL     1      -9.492  15.251  67.697  1.00  0.00    -0.206 P  
BRANCH  14  15
HETATM   15  C   UNL     1      -9.234  16.237  66.145  1.00  0.00    -0.341 C  
BRANCH  15  16
HETATM   16  C   UNL     1      -9.275  17.739  66.437  1.00  0.00    -0.240 C  
BRANCH  16  17
HETATM   17  O   UNL     1     -10.031  17.995  67.625  1.00  0.00    -0.303 OA 
BRANCH  17  18
HETATM   18  C   UNL     1     -10.727  19.238  67.509  1.00  0.00    -0.463 C  
HETATM   19  C   UNL     1      -9.739  20.355  67.243  1.00  0.00    -0.602 C  
ENDBRANCH  17  18
ENDBRANCH  16  17
ENDBRANCH  15  16
ENDBRANCH  14  15
BRANCH  14  20
HETATM   20  C   UNL     1     -11.287  14.813  67.495  1.00  0.00    -0.344 C  
BRANCH  20  21
HETATM   21  C   UNL     1     -12.019  14.746  68.834  1.00  0.00    -0.263 C  
BRANCH  21  22
HETATM   22  O   UNL     1     -12.103  13.387  69.265  1.00  0.00    -0.311 OA 
BRANCH  22  23
HETATM   23  C   UNL     1     -12.394  13.317  70.663  1.00  0.00    -0.339 C  
HETATM   24  C   UNL     1     -12.815  14.688  71.152  1.00  0.00    -0.411 C  
ENDBRANCH  22  23
ENDBRANCH  21  22
ENDBRANCH  20  21
ENDBRANCH  14  20
ENDBRANCH  13  14
ENDBRANCH  12  13
ENDBRANCH   6  12
ENDBRANCH   5   6
ENDBRANCH   4   5
ENDBRANCH   3   4
ENDBRANCH   2   3
TORSDOF 19
ENDMDL
MODEL      188
REMARK 921   NORMALIZED FREE ENERGY PREDICTED BY IDOCK:   -3.23 KCAL/MOL
REMARK 922        TOTAL FREE ENERGY PREDICTED BY IDOCK:   -8.07 KCAL/MOL
REMARK 923 INTER-LIGAND FREE ENERGY PREDICTED BY IDOCK:   -6.84 KCAL/MOL
REMARK 924 INTRA-LIGAND FREE ENERGY PREDICTED BY IDOCK:   -1.23 KCAL/MOL
REMARK 927      BINDING AFFINITY PREDICTED BY RF-SCORE:    0.00 PKD
ROOT
HETATM    1  C   UNL     1     -13.809  13.769  72.280  1.00  0.00    -0.679 C  
HETATM    2  C   UNL     1     -12.428  14.354  72.070  1.00  0.00    -0.287 C  
ENDROOT
BRANCH   2   3
HETATM    3  O   UNL     1     -12.539  15.713  71.640  1.00  0.00    -0.387 OA 
BRANCH   3   4
HETATM    4  C   UNL     1     -12.344  15.797  70.226  1.00  0.00    -0.310 C  
BRANCH   4   5
HETATM    5  C   UNL     1     -10.868  15.628  69.874  1.00  0.00    -0.318 C  
BRANCH   5   6
HETATM    6  P   UNL     1     -10.627  15.021  68.139  1.00  0.00    -0.261 P  
BRANCH   6   7
HETATM    7  C   UNL     1      -9.995  16.548  67.288  1.00  0.00    -0.264 C  
BRANCH   7   8
HETATM    8  C   UNL     1      -9.729  17.666  68.295  1.00  0.00    -0.315 C  
BRANCH   8   9
HETATM    9  O   UNL     1      -8.323  17.808  68.514  1.00  0.00    -0.290 OA 
BRANCH   9  10
HETATM   10  C   UNL     1      -7.599  17.429  67.342  1.00  0.00    -0.191 C  
HETATM   11  C   UNL     1      -6.261  16.840  67.742  1.00  0.00    -0.161 C  
ENDBRANCH   9  10
ENDBRANCH   8   9
ENDBRANCH   7   8
ENDBRANCH   6   7
BRANCH   6  12
HETATM   12  C   UNL     1      -9.013  14.118  68.304  1.00  0.00    -0.188 C  
BRANCH  12  13
HETATM   13  C   UNL     1      -8.934  12.878  67.426  1.00  0.00    -0.199 C  
BRANCH  13  14
HETATM   14  P   UNL     1      -9.436  11.330  68.312  1.00  0.00    -0.198 P  
BRANCH  14  15
HETATM   15  C   UNL     1     -11.063  10.934  67.510  1.00  0.00    -0.310 C  
BRANCH  15  16
HETATM   16  C   UNL     1     -11.223  11.694  66.190  1.00  0.00    -0.254 C  
BRANCH  16  17
HETATM   17  O   UNL     1     -12.420  12.478  66.210  1.00  0.00    -0.475 OA 
BRANCH  17  18
HETATM   18  C   UNL     1     -12.622  13.103  64.940  1.00  0.00    -0.407 C  
HETATM   19  C   UNL     1     -11.363  12.982  64.105  1.00  0.00    -0.442 C  
ENDBRANCH  17  18
ENDBRANCH  16  17
ENDBRANCH  15  16
ENDBRANCH  14  15
BRANCH  14  20
HETATM   20  C   UNL     1      -8.346  10.110  67.430  1.00  0.00    -0.118 C  
BRANCH  20  21
HETATM   21  C   UNL     1      -7.924  10.606  66.049  1.00  0.00    -0.159 C  
BRANCH  21  22
HETATM   22  O   UNL     1      -8.602   9.856  65.042  1.00  0.00    -0.141 OA 
BRANCH  22  23
HETATM   23  C   UNL     1      -8.144  10.226  63.739  1.00  0.00    -0.143 C  
HETATM   24  C   UNL     1      -9.317  10.220  62.779  1.00  0.00    -0.340 C  
ENDBRANCH  22  23
ENDBRANCH  21  22
ENDBRANCH  20  21
ENDBRANCH  14  20
ENDBRANCH  13  14
ENDBRANCH  12  13
ENDBRANCH   6  12
ENDBRANCH   5   6
ENDBRANCH   4   5
ENDBRANCH   3   4
ENDBRANCH   2   3
TORSDOF 19
ENDMDL
MODEL      189
REMARK 921   NORMALIZED FREE ENERGY PREDICTED BY IDOCK:   -3.23 KCAL/MOL
REMARK 922        TOTAL FREE ENERGY PREDICTED BY IDOCK:   -8.07 KCAL/MOL
REMARK 923 INTER-LIGAND FREE ENERGY PREDICTED BY IDOCK:   -6.97 KCAL/MOL
REMARK 924 INTRA-LIGAND FREE ENERGY PREDICTED BY IDOCK:   -1.10 KCAL/MOL
REMARK 927      BINDING AFFINITY PREDICTED BY RF-SCORE:    0.00 PKD
ROOT
HETATM    1  C   UNL     1      -9.458   7.612  71.137  1.00  0.00    -0.163 C  
HETATM    2  C   UNL     1      -8.445   8.294  72.032  1.00  0.00    -0.170 C  
ENDROOT
BRANCH   2   3
HETATM    3  O   UNL     1      -7.804   9.354  71.317  1.00  0.00    -0.335 OA 
BRANCH   3   4
HETATM    4  C   UNL     1      -8.557   9.677  70.144  1.00  0.00    -0.214 C  
BRANCH   4   5
HETATM    5  C   UNL     1      -7.753  10.590  69.222  1.00  0.00    -0.144 C  
BRANCH   5   6
HETATM    6  P   UNL     1      -8.335  10.496  67.464  1.00  0.00    -0.117 P  
BRANCH   6   7
HETATM    7  C   UNL     1      -9.027   8.772  67.386  1.00  0.00    -0.133 C  
BRANCH   7   8
HETATM    8  C   UNL     1     -10.487   8.787  66.935  1.00  0.00    -0.249 C  
BRANCH   8   9
HETATM    9  O   UNL     1     -10.953   7.450  66.729  1.00  0.00    -0.249 OA 
BRANCH   9  10
HETATM   10  C   UNL     1     -10.523   6.606  67.798  1.00  0.00    -0.225 C  
HETATM   11  C   UNL     1     -10.271   5.209  67.270  1.00  0.00    -0.239 C  
ENDBRANCH   9  10
ENDBRANCH   8   9
ENDBRANCH   7   8
ENDBRANCH   6   7
BRANCH   6  12
HETATM   12  C   UNL     1      -9.941  11.423  67.576  1.00  0.00    -0.182 C  
BRANCH  12  13
HETATM   13  C   UNL     1      -9.752  12.901  67.884  1.00  0.00    -0.218 C  
BRANCH  13  14
HETATM   14  P   UNL     1     -11.288  13.900  67.610  1.00  0.00    -0.348 P  
BRANCH  14  15
HETATM   15  C   UNL     1     -11.197  15.139  68.990  1.00  0.00    -0.273 C  
BRANCH  15  16
HETATM   16  C   UNL     1     -12.359  14.956  69.969  1.00  0.00    -0.312 C  
BRANCH  16  17
HETATM   17  O   UNL     1     -11.919  14.262  71.140  1.00  0.00    -0.336 OA 
BRANCH  17  18
HETATM   18  C   UNL     1     -12.847  13.229  71.480  1.00  0.00    -0.327 C  
HETATM   19  C   UNL     1     -13.975  13.808  72.309  1.00  0.00    -0.672 C  
ENDBRANCH  17  18
ENDBRANCH  16  17
ENDBRANCH  15  16
ENDBRANCH  14  15
BRANCH  14  20
HETATM   20  C   UNL     1     -10.711  14.961  66.197  1.00  0.00    -0.317 C  
BRANCH  20  21
HETATM   21  C   UNL     1     -10.824  14.244  64.854  1.00  0.00    -0.416 C  
BRANCH  21  22
HETATM   22  O   UNL     1     -11.834  13.238  64.932  1.00  0.00    -0.334 OA 
BRANCH  22  23
HETATM   23  C   UNL     1     -11.858  12.451  63.738  1.00  0.00    -0.502 C  
HETATM   24  C   UNL     1     -10.567  11.663  63.636  1.00  0.00    -0.493 C  
ENDBRANCH  22  23
ENDBRANCH  21  22
ENDBRANCH  20  21
ENDBRANCH  14  20
ENDBRANCH  13  14
ENDBRANCH  12  13
ENDBRANCH   6  12
ENDBRANCH   5   6
ENDBRANCH   4   5
ENDBRANCH   3   4
ENDBRANCH   2   3
TORSDOF 19
ENDMDL
MODEL      190
REMARK 921   NORMALIZED FREE ENERGY PREDICTED BY IDOCK:   -3.23 KCAL/MOL
REMARK 922        TOTAL FREE ENERGY PREDICTED BY IDOCK:   -8.06 KCAL/MOL
REMARK 923 INTER-LIGAND FREE ENERGY PREDICTED BY IDOCK:   -6.96 KCAL/MOL
REMARK 924 INTRA-LIGAND FREE ENERGY PREDICTED BY IDOCK:   -1.10 KCAL/MOL
REMARK 927      BINDING AFFINITY PREDICTED BY RF-SCORE:    0.00 PKD
ROOT
HETATM    1  C   UNL     1      -9.507   9.493  65.120  1.00  0.00    -0.305 C  
HETATM    2  C   UNL     1      -9.122   8.703  66.354  1.00  0.00    -0.174 C  
ENDROOT
BRANCH   2   3
HETATM    3  O   UNL     1      -8.644   9.592  67.367  1.00  0.00    -0.125 OA 
BRANCH   3   4
HETATM    4  C   UNL     1      -7.242   9.817  67.199  1.00  0.00    -0.087 C  
BRANCH   4   5
HETATM    5  C   UNL     1      -6.971  11.268  66.810  1.00  0.00    -0.141 C  
BRANCH   5   6
HETATM    6  P   UNL     1      -7.723  12.466  68.010  1.00  0.00    -0.160 P  
BRANCH   6   7
HETATM    7  C   UNL     1      -6.457  13.827  68.029  1.00  0.00    -0.140 C  
BRANCH   7   8
HETATM    8  C   UNL     1      -7.039  15.125  67.469  1.00  0.00    -0.198 C  
BRANCH   8   9
HETATM    9  O   UNL     1      -6.447  16.252  68.121  1.00  0.00    -0.118 OA 
BRANCH   9  10
HETATM   10  C   UNL     1      -7.201  16.605  69.282  1.00  0.00    -0.200 C  
HETATM   11  C   UNL     1      -8.676  16.635  68.937  1.00  0.00    -0.238 C  
ENDBRANCH   9  10
ENDBRANCH   8   9
ENDBRANCH   7   8
ENDBRANCH   6   7
BRANCH   6  12
HETATM   12  C   UNL     1      -8.989  13.293  66.933  1.00  0.00    -0.207 C  
BRANCH  12  13
HETATM   13  C   UNL     1     -10.418  12.935  67.315  1.00  0.00    -0.234 C  
BRANCH  13  14
HETATM   14  P   UNL     1     -11.641  14.252  66.864  1.00  0.00    -0.412 P  
BRANCH  14  15
HETATM   15  C   UNL     1     -11.815  15.183  68.461  1.00  0.00    -0.281 C  
BRANCH  15  16
HETATM   16  C   UNL     1     -12.216  14.245  69.602  1.00  0.00    -0.323 C  
BRANCH  16  17
HETATM   17  O   UNL     1     -12.795  14.989  70.678  1.00  0.00    -0.355 OA 
BRANCH  17  18
HETATM   18  C   UNL     1     -11.988  14.868  71.852  1.00  0.00    -0.359 C  
HETATM   19  C   UNL     1     -12.247  16.042  72.773  1.00  0.00    -0.617 C  
ENDBRANCH  17  18
ENDBRANCH  16  17
ENDBRANCH  15  16
ENDBRANCH  14  15
BRANCH  14  20
HETATM   20  C   UNL     1     -10.513  15.411  65.947  1.00  0.00    -0.340 C  
BRANCH  20  21
HETATM   21  C   UNL     1     -11.220  16.102  64.783  1.00  0.00    -0.304 C  
BRANCH  21  22
HETATM   22  O   UNL     1     -10.880  17.488  64.772  1.00  0.00    -0.814 OA 
BRANCH  22  23
HETATM   23  C   UNL     1     -10.511  17.928  66.082  1.00  0.00    -0.321 C  
HETATM   24  C   UNL     1     -10.699  19.429  66.173  1.00  0.00    -0.506 C  
ENDBRANCH  22  23
ENDBRANCH  21  22
ENDBRANCH  20  21
ENDBRANCH  14  20
ENDBRANCH  13  14
ENDBRANCH  12  13
ENDBRANCH   6  12
ENDBRANCH   5   6
ENDBRANCH   4   5
ENDBRANCH   3   4
ENDBRANCH   2   3
TORSDOF 19
ENDMDL
MODEL      191
REMARK 921   NORMALIZED FREE ENERGY PREDICTED BY IDOCK:   -3.23 KCAL/MOL
REMARK 922        TOTAL FREE ENERGY PREDICTED BY IDOCK:   -8.06 KCAL/MOL
REMARK 923 INTER-LIGAND FREE ENERGY PREDICTED BY IDOCK:   -6.90 KCAL/MOL
REMARK 924 INTRA-LIGAND FREE ENERGY PREDICTED BY IDOCK:   -1.16 KCAL/MOL
REMARK 927      BINDING AFFINITY PREDICTED BY RF-SCORE:    0.00 PKD
ROOT
HETATM    1  C   UNL     1      -8.898   8.524  70.308  1.00  0.00    -0.150 C  
HETATM    2  C   UNL     1      -7.853   9.518  70.770  1.00  0.00    -0.055 C  
ENDROOT
BRANCH   2   3
HETATM    3  O   UNL     1      -7.100   9.984  69.647  1.00  0.00    -0.075 OA 
BRANCH   3   4
HETATM    4  C   UNL     1      -7.886  10.894  68.875  1.00  0.00    -0.142 C  
BRANCH   4   5
HETATM    5  C   UNL     1      -7.395  10.941  67.430  1.00  0.00    -0.099 C  
BRANCH   5   6
HETATM    6  P   UNL     1      -8.762  11.327  66.238  1.00  0.00    -0.139 P  
BRANCH   6   7
HETATM    7  C   UNL     1      -9.868   9.846  66.439  1.00  0.00    -0.227 C  
BRANCH   7   8
HETATM    8  C   UNL     1      -9.170   8.572  65.964  1.00  0.00    -0.202 C  
BRANCH   8   9
HETATM    9  O   UNL     1      -9.384   7.513  66.901  1.00  0.00    -0.142 OA 
BRANCH   9  10
HETATM   10  C   UNL     1     -10.779   7.377  67.183  1.00  0.00    -0.330 C  
HETATM   11  C   UNL     1     -11.016   6.097  67.958  1.00  0.00    -0.399 C  
ENDBRANCH   9  10
ENDBRANCH   8   9
ENDBRANCH   7   8
ENDBRANCH   6   7
BRANCH   6  12
HETATM   12  C   UNL     1      -9.759  12.541  67.228  1.00  0.00    -0.202 C  
BRANCH  12  13
HETATM   13  C   UNL     1      -9.347  13.985  66.985  1.00  0.00    -0.250 C  
BRANCH  13  14
HETATM   14  P   UNL     1     -10.791  15.138  66.852  1.00  0.00    -0.304 P  
BRANCH  14  15
HETATM   15  C   UNL     1     -12.216  13.959  66.688  1.00  0.00    -0.424 C  
BRANCH  15  16
HETATM   16  C   UNL     1     -12.722  13.907  65.244  1.00  0.00    -0.449 C  
BRANCH  16  17
HETATM   17  O   UNL     1     -13.136  12.579  64.909  1.00  0.00    -0.833 OA 
BRANCH  17  18
HETATM   18  C   UNL     1     -12.713  12.249  63.583  1.00  0.00    -0.411 C  
HETATM   19  C   UNL     1     -11.205  12.356  63.487  1.00  0.00    -0.540 C  
ENDBRANCH  17  18
ENDBRANCH  16  17
ENDBRANCH  15  16
ENDBRANCH  14  15
BRANCH  14  20
HETATM   20  C   UNL     1     -10.974  15.603  68.642  1.00  0.00    -0.294 C  
BRANCH  20  21
HETATM   21  C   UNL     1      -9.987  16.692  69.059  1.00  0.00    -0.280 C  
BRANCH  21  22
HETATM   22  O   UNL     1     -10.332  17.920  68.419  1.00  0.00    -0.366 OA 
BRANCH  22  23
HETATM   23  C   UNL     1      -9.173  18.737  68.233  1.00  0.00    -0.331 C  
HETATM   24  C   UNL     1      -8.389  18.221  67.042  1.00  0.00    -0.256 C  
ENDBRANCH  22  23
ENDBRANCH  21  22
ENDBRANCH  20  21
ENDBRANCH  14  20
ENDBRANCH  13  14
ENDBRANCH  12  13
ENDBRANCH   6  12
ENDBRANCH   5   6
ENDBRANCH   4   5
ENDBRANCH   3   4
ENDBRANCH   2   3
TORSDOF 19
ENDMDL
MODEL      192
REMARK 921   NORMALIZED FREE ENERGY PREDICTED BY IDOCK:   -3.22 KCAL/MOL
REMARK 922        TOTAL FREE ENERGY PREDICTED BY IDOCK:   -8.05 KCAL/MOL
REMARK 923 INTER-LIGAND FREE ENERGY PREDICTED BY IDOCK:   -6.56 KCAL/MOL
REMARK 924 INTRA-LIGAND FREE ENERGY PREDICTED BY IDOCK:   -1.50 KCAL/MOL
REMARK 927      BINDING AFFINITY PREDICTED BY RF-SCORE:    0.00 PKD
ROOT
HETATM    1  C   UNL     1     -10.986  15.072  64.962  1.00  0.00    -0.436 C  
HETATM    2  C   UNL     1     -12.385  14.812  64.441  1.00  0.00    -0.368 C  
ENDROOT
BRANCH   2   3
HETATM    3  O   UNL     1     -12.411  13.575  63.725  1.00  0.00    -0.696 OA 
BRANCH   3   4
HETATM    4  C   UNL     1     -12.430  12.479  64.644  1.00  0.00    -0.463 C  
BRANCH   4   5
HETATM    5  C   UNL     1     -11.307  11.493  64.331  1.00  0.00    -0.209 C  
BRANCH   5   6
HETATM    6  P   UNL     1     -10.085  11.362  65.719  1.00  0.00    -0.268 P  
BRANCH   6   7
HETATM    7  C   UNL     1     -11.203  11.318  67.205  1.00  0.00    -0.275 C  
BRANCH   7   8
HETATM    8  C   UNL     1     -11.045  12.583  68.047  1.00  0.00    -0.245 C  
BRANCH   8   9
HETATM    9  O   UNL     1     -11.557  12.365  69.364  1.00  0.00    -0.282 OA 
BRANCH   9  10
HETATM   10  C   UNL     1     -11.607  10.966  69.650  1.00  0.00    -0.322 C  
HETATM   11  C   UNL     1     -12.497  10.727  70.853  1.00  0.00    -0.500 C  
ENDBRANCH   9  10
ENDBRANCH   8   9
ENDBRANCH   7   8
ENDBRANCH   6   7
BRANCH   6  12
HETATM   12  C   UNL     1      -9.665   9.554  65.647  1.00  0.00    -0.290 C  
BRANCH  12  13
HETATM   13  C   UNL     1      -9.943   8.828  66.955  1.00  0.00    -0.257 C  
BRANCH  13  14
HETATM   14  P   UNL     1      -8.526   7.773  67.514  1.00  0.00    -0.119 P  
BRANCH  14  15
HETATM   15  C   UNL     1      -7.360   9.032  68.223  1.00  0.00    -0.082 C  
BRANCH  15  16
HETATM   16  C   UNL     1      -8.062   9.900  69.271  1.00  0.00    -0.128 C  
BRANCH  16  17
HETATM   17  O   UNL     1      -8.002  11.279  68.896  1.00  0.00    -0.141 OA 
BRANCH  17  18
HETATM   18  C   UNL     1      -6.736  11.575  68.301  1.00  0.00    -0.064 C  
HETATM   19  C   UNL     1      -6.796  12.925  67.617  1.00  0.00    -0.149 C  
ENDBRANCH  17  18
ENDBRANCH  16  17
ENDBRANCH  15  16
ENDBRANCH  14  15
BRANCH  14  20
HETATM   20  C   UNL     1      -9.253   7.098  69.086  1.00  0.00    -0.139 C  
BRANCH  20  21
HETATM   21  C   UNL     1     -10.749   6.819  68.956  1.00  0.00    -0.246 C  
BRANCH  21  22
HETATM   22  O   UNL     1     -11.232   6.231  70.164  1.00  0.00    -0.343 OA 
BRANCH  22  23
HETATM   23  C   UNL     1     -11.361   7.218  71.191  1.00  0.00    -0.267 C  
HETATM   24  C   UNL     1     -10.894   6.630  72.507  1.00  0.00    -0.270 C  
ENDBRANCH  22  23
ENDBRANCH  21  22
ENDBRANCH  20  21
ENDBRANCH  14  20
ENDBRANCH  13  14
ENDBRANCH  12  13
ENDBRANCH   6  12
ENDBRANCH   5   6
ENDBRANCH   4   5
ENDBRANCH   3   4
ENDBRANCH   2   3
TORSDOF 19
ENDMDL
MODEL      193
REMARK 921   NORMALIZED FREE ENERGY PREDICTED BY IDOCK:   -3.21 KCAL/MOL
REMARK 922        TOTAL FREE ENERGY PREDICTED BY IDOCK:   -8.03 KCAL/MOL
REMARK 923 INTER-LIGAND FREE ENERGY PREDICTED BY IDOCK:   -7.14 KCAL/MOL
REMARK 924 INTRA-LIGAND FREE ENERGY PREDICTED BY IDOCK:   -0.89 KCAL/MOL
REMARK 927      BINDING AFFINITY PREDICTED BY RF-SCORE:    0.00 PKD
ROOT
HETATM    1  C   UNL     1     -12.061  12.718  63.339  1.00  0.00    -0.619 C  
HETATM    2  C   UNL     1     -12.360  13.493  64.606  1.00  0.00    -0.372 C  
ENDROOT
BRANCH   2   3
HETATM    3  O   UNL     1     -12.378  12.601  65.724  1.00  0.00    -0.594 OA 
BRANCH   3   4
HETATM    4  C   UNL     1     -11.655  13.173  66.817  1.00  0.00    -0.366 C  
BRANCH   4   5
HETATM    5  C   UNL     1     -10.260  12.560  66.921  1.00  0.00    -0.226 C  
BRANCH   5   6
HETATM    6  P   UNL     1     -10.167  11.250  68.229  1.00  0.00    -0.200 P  
BRANCH   6   7
HETATM    7  C   UNL     1     -11.869  11.336  68.973  1.00  0.00    -0.352 C  
BRANCH   7   8
HETATM    8  C   UNL     1     -11.812  11.189  70.493  1.00  0.00    -0.351 C  
BRANCH   8   9
HETATM    9  O   UNL     1     -12.430   9.962  70.892  1.00  0.00    -0.308 OA 
BRANCH   9  10
HETATM   10  C   UNL     1     -13.331  10.193  71.977  1.00  0.00    -0.387 C  
HETATM   11  C   UNL     1     -13.952   8.880  72.407  1.00  0.00    -0.516 C  
ENDBRANCH   9  10
ENDBRANCH   8   9
ENDBRANCH   7   8
ENDBRANCH   6   7
BRANCH   6  12
HETATM   12  C   UNL     1     -10.399   9.717  67.208  1.00  0.00    -0.249 C  
BRANCH  12  13
HETATM   13  C   UNL     1     -10.004   8.446  67.946  1.00  0.00    -0.184 C  
BRANCH  13  14
HETATM   14  P   UNL     1     -10.850   6.934  67.289  1.00  0.00    -0.284 P  
BRANCH  14  15
HETATM   15  C   UNL     1      -9.459   6.053  66.432  1.00  0.00    -0.150 C  
BRANCH  15  16
HETATM   16  C   UNL     1      -9.928   4.713  65.859  1.00  0.00    -0.239 C  
BRANCH  16  17
HETATM   17  O   UNL     1      -8.858   4.065  65.166  1.00  0.00    -0.120 OA 
BRANCH  17  18
HETATM   18  C   UNL     1      -8.554   4.769  63.959  1.00  0.00    -0.137 C  
HETATM   19  C   UNL     1      -7.655   3.919  63.084  1.00  0.00    -0.058 C  
ENDBRANCH  17  18
ENDBRANCH  16  17
ENDBRANCH  15  16
ENDBRANCH  14  15
BRANCH  14  20
HETATM   20  C   UNL     1     -10.938   5.933  68.853  1.00  0.00    -0.267 C  
BRANCH  20  21
HETATM   21  C   UNL     1     -10.895   6.811  70.103  1.00  0.00    -0.266 C  
BRANCH  21  22
HETATM   22  O   UNL     1     -11.904   6.386  71.020  1.00  0.00    -0.343 OA 
BRANCH  22  23
HETATM   23  C   UNL     1     -11.368   6.265  72.340  1.00  0.00    -0.292 C  
HETATM   24  C   UNL     1     -10.667   4.927  72.471  1.00  0.00    -0.258 C  
ENDBRANCH  22  23
ENDBRANCH  21  22
ENDBRANCH  20  21
ENDBRANCH  14  20
ENDBRANCH  13  14
ENDBRANCH  12  13
ENDBRANCH   6  12
ENDBRANCH   5   6
ENDBRANCH   4   5
ENDBRANCH   3   4
ENDBRANCH   2   3
TORSDOF 19
ENDMDL
MODEL      194
REMARK 921   NORMALIZED FREE ENERGY PREDICTED BY IDOCK:   -3.20 KCAL/MOL
REMARK 922        TOTAL FREE ENERGY PREDICTED BY IDOCK:   -8.02 KCAL/MOL
REMARK 923 INTER-LIGAND FREE ENERGY PREDICTED BY IDOCK:   -6.57 KCAL/MOL
REMARK 924 INTRA-LIGAND FREE ENERGY PREDICTED BY IDOCK:   -1.44 KCAL/MOL
REMARK 927      BINDING AFFINITY PREDICTED BY RF-SCORE:    0.00 PKD
ROOT
HETATM    1  C   UNL     1      -9.088   7.682  66.286  1.00  0.00    -0.204 C  
HETATM    2  C   UNL     1     -10.370   7.645  67.093  1.00  0.00    -0.315 C  
ENDROOT
BRANCH   2   3
HETATM    3  O   UNL     1     -10.742   8.973  67.471  1.00  0.00    -0.267 OA 
BRANCH   3   4
HETATM    4  C   UNL     1     -10.510   9.166  68.869  1.00  0.00    -0.218 C  
BRANCH   4   5
HETATM    5  C   UNL     1     -10.002  10.580  69.141  1.00  0.00    -0.220 C  
BRANCH   5   6
HETATM    6  P   UNL     1      -9.570  11.481  67.579  1.00  0.00    -0.177 P  
BRANCH   6   7
HETATM    7  C   UNL     1     -11.076  12.541  67.324  1.00  0.00    -0.274 C  
BRANCH   7   8
HETATM    8  C   UNL     1     -11.700  12.286  65.952  1.00  0.00    -0.389 C  
BRANCH   8   9
HETATM    9  O   UNL     1     -10.798  12.690  64.919  1.00  0.00    -0.280 OA 
BRANCH   9  10
HETATM   10  C   UNL     1     -10.814  14.112  64.776  1.00  0.00    -0.413 C  
HETATM   11  C   UNL     1     -12.216  14.571  64.434  1.00  0.00    -0.480 C  
ENDBRANCH   9  10
ENDBRANCH   8   9
ENDBRANCH   7   8
ENDBRANCH   6   7
BRANCH   6  12
HETATM   12  C   UNL     1      -8.428  12.791  68.234  1.00  0.00    -0.161 C  
BRANCH  12  13
HETATM   13  C   UNL     1      -8.055  13.830  67.187  1.00  0.00    -0.075 C  
BRANCH  13  14
HETATM   14  P   UNL     1      -7.820  15.524  67.900  1.00  0.00    -0.151 P  
BRANCH  14  15
HETATM   15  C   UNL     1      -7.998  16.605  66.400  1.00  0.00    -0.325 C  
BRANCH  15  16
HETATM   16  C   UNL     1      -7.201  17.901  66.561  1.00  0.00    -0.238 C  
BRANCH  16  17
HETATM   17  O   UNL     1      -6.986  18.185  67.947  1.00  0.00    -0.203 OA 
BRANCH  17  18
HETATM   18  C   UNL     1      -6.572  19.543  68.114  1.00  0.00    -0.256 C  
HETATM   19  C   UNL     1      -6.633  19.919  69.581  1.00  0.00    -0.373 C  
ENDBRANCH  17  18
ENDBRANCH  16  17
ENDBRANCH  15  16
ENDBRANCH  14  15
BRANCH  14  20
HETATM   20  C   UNL     1      -9.498  15.767  68.662  1.00  0.00    -0.208 C  
BRANCH  20  21
HETATM   21  C   UNL     1     -10.443  16.540  67.744  1.00  0.00    -0.308 C  
BRANCH  21  22
HETATM   22  O   UNL     1     -11.090  17.574  68.484  1.00  0.00    -0.123 OA 
BRANCH  22  23
HETATM   23  C   UNL     1     -10.332  18.786  68.429  1.00  0.00    -0.307 C  
HETATM   24  C   UNL     1     -10.660  19.519  67.144  1.00  0.00    -0.605 C  
ENDBRANCH  22  23
ENDBRANCH  21  22
ENDBRANCH  20  21
ENDBRANCH  14  20
ENDBRANCH  13  14
ENDBRANCH  12  13
ENDBRANCH   6  12
ENDBRANCH   5   6
ENDBRANCH   4   5
ENDBRANCH   3   4
ENDBRANCH   2   3
TORSDOF 19
ENDMDL
MODEL      195
REMARK 921   NORMALIZED FREE ENERGY PREDICTED BY IDOCK:   -3.20 KCAL/MOL
REMARK 922        TOTAL FREE ENERGY PREDICTED BY IDOCK:   -8.01 KCAL/MOL
REMARK 923 INTER-LIGAND FREE ENERGY PREDICTED BY IDOCK:   -6.75 KCAL/MOL
REMARK 924 INTRA-LIGAND FREE ENERGY PREDICTED BY IDOCK:   -1.26 KCAL/MOL
REMARK 927      BINDING AFFINITY PREDICTED BY RF-SCORE:    0.00 PKD
ROOT
HETATM    1  C   UNL     1     -12.232  12.258  63.544  1.00  0.00    -0.669 C  
HETATM    2  C   UNL     1     -10.803  12.103  64.021  1.00  0.00    -0.383 C  
ENDROOT
BRANCH   2   3
HETATM    3  O   UNL     1     -10.301  10.821  63.634  1.00  0.00    -0.327 OA 
BRANCH   3   4
HETATM    4  C   UNL     1      -9.597  10.222  64.725  1.00  0.00    -0.307 C  
BRANCH   4   5
HETATM    5  C   UNL     1     -10.256  10.581  66.055  1.00  0.00    -0.245 C  
BRANCH   5   6
HETATM    6  P   UNL     1      -9.055  10.534  67.466  1.00  0.00    -0.138 P  
BRANCH   6   7
HETATM    7  C   UNL     1      -8.307  12.234  67.383  1.00  0.00    -0.177 C  
BRANCH   7   8
HETATM    8  C   UNL     1      -9.328  13.302  67.774  1.00  0.00    -0.209 C  
BRANCH   8   9
HETATM    9  O   UNL     1      -9.656  14.108  66.639  1.00  0.00    -0.268 OA 
BRANCH   9  10
HETATM   10  C   UNL     1     -10.876  14.815  66.870  1.00  0.00    -0.316 C  
HETATM   11  C   UNL     1     -11.986  13.828  67.166  1.00  0.00    -0.442 C  
ENDBRANCH   9  10
ENDBRANCH   8   9
ENDBRANCH   7   8
ENDBRANCH   6   7
BRANCH   6  12
HETATM   12  C   UNL     1     -10.194  10.813  68.906  1.00  0.00    -0.203 C  
BRANCH  12  13
HETATM   13  C   UNL     1     -11.130   9.641  69.159  1.00  0.00    -0.092 C  
BRANCH  13  14
HETATM   14  P   UNL     1     -10.394   8.352  70.268  1.00  0.00    -0.214 P  
BRANCH  14  15
HETATM   15  C   UNL     1     -11.080   8.828  71.926  1.00  0.00    -0.364 C  
BRANCH  15  16
HETATM   16  C   UNL     1     -11.414   7.587  72.758  1.00  0.00    -0.300 C  
BRANCH  16  17
HETATM   17  O   UNL     1     -10.422   7.384  73.769  1.00  0.00    -0.346 OA 
BRANCH  17  18
HETATM   18  C   UNL     1     -10.200   5.986  73.969  1.00  0.00    -0.288 C  
HETATM   19  C   UNL     1     -11.239   5.189  73.209  1.00  0.00    -0.389 C  
ENDBRANCH  17  18
ENDBRANCH  16  17
ENDBRANCH  15  16
ENDBRANCH  14  15
BRANCH  14  20
HETATM   20  C   UNL     1     -11.517   6.927  69.861  1.00  0.00    -0.242 C  
BRANCH  20  21
HETATM   21  C   UNL     1     -10.761   5.758  69.232  1.00  0.00    -0.316 C  
BRANCH  21  22
HETATM   22  O   UNL     1     -10.801   5.873  67.810  1.00  0.00    -0.273 OA 
BRANCH  22  23
HETATM   23  C   UNL     1      -9.554   5.472  67.234  1.00  0.00    -0.125 C  
HETATM   24  C   UNL     1      -8.594   6.644  67.263  1.00  0.00    -0.119 C  
ENDBRANCH  22  23
ENDBRANCH  21  22
ENDBRANCH  20  21
ENDBRANCH  14  20
ENDBRANCH  13  14
ENDBRANCH  12  13
ENDBRANCH   6  12
ENDBRANCH   5   6
ENDBRANCH   4   5
ENDBRANCH   3   4
ENDBRANCH   2   3
TORSDOF 19
ENDMDL
MODEL      196
REMARK 921   NORMALIZED FREE ENERGY PREDICTED BY IDOCK:   -3.20 KCAL/MOL
REMARK 922        TOTAL FREE ENERGY PREDICTED BY IDOCK:   -8.00 KCAL/MOL
REMARK 923 INTER-LIGAND FREE ENERGY PREDICTED BY IDOCK:   -7.06 KCAL/MOL
REMARK 924 INTRA-LIGAND FREE ENERGY PREDICTED BY IDOCK:   -0.94 KCAL/MOL
REMARK 927      BINDING AFFINITY PREDICTED BY RF-SCORE:    0.00 PKD
ROOT
HETATM    1  C   UNL     1      -9.221   7.959  66.433  1.00  0.00    -0.241 C  
HETATM    2  C   UNL     1     -10.600   7.954  67.060  1.00  0.00    -0.311 C  
ENDROOT
BRANCH   2   3
HETATM    3  O   UNL     1     -10.848   9.213  67.691  1.00  0.00    -0.234 OA 
BRANCH   3   4
HETATM    4  C   UNL     1     -10.128   9.292  68.924  1.00  0.00    -0.195 C  
BRANCH   4   5
HETATM    5  C   UNL     1     -10.309  10.665  69.568  1.00  0.00    -0.182 C  
BRANCH   5   6
HETATM    6  P   UNL     1     -12.081  11.211  69.562  1.00  0.00    -0.208 P  
BRANCH   6   7
HETATM    7  C   UNL     1     -12.581  10.895  71.325  1.00  0.00    -0.421 C  
BRANCH   7   8
HETATM    8  C   UNL     1     -13.236   9.522  71.471  1.00  0.00    -0.390 C  
BRANCH   8   9
HETATM    9  O   UNL     1     -12.263   8.551  71.864  1.00  0.00    -0.309 OA 
BRANCH   9  10
HETATM   10  C   UNL     1     -12.707   7.237  71.519  1.00  0.00    -0.384 C  
HETATM   11  C   UNL     1     -11.604   6.508  70.779  1.00  0.00    -0.437 C  
ENDBRANCH   9  10
ENDBRANCH   8   9
ENDBRANCH   7   8
ENDBRANCH   6   7
BRANCH   6  12
HETATM   12  C   UNL     1     -11.880  13.054  69.668  1.00  0.00    -0.319 C  
BRANCH  12  13
HETATM   13  C   UNL     1     -11.852  13.728  68.304  1.00  0.00    -0.378 C  
BRANCH  13  14
HETATM   14  P   UNL     1     -11.361  15.512  68.387  1.00  0.00    -0.349 P  
BRANCH  14  15
HETATM   15  C   UNL     1      -9.804  15.441  69.396  1.00  0.00    -0.273 C  
BRANCH  15  16
HETATM   16  C   UNL     1      -8.656  14.829  68.589  1.00  0.00    -0.169 C  
BRANCH  16  17
HETATM   17  O   UNL     1      -7.551  14.526  69.446  1.00  0.00    -0.120 OA 
BRANCH  17  18
HETATM   18  C   UNL     1      -6.647  13.634  68.790  1.00  0.00    -0.101 C  
HETATM   19  C   UNL     1      -7.392  12.399  68.329  1.00  0.00    -0.113 C  
ENDBRANCH  17  18
ENDBRANCH  16  17
ENDBRANCH  15  16
ENDBRANCH  14  15
BRANCH  14  20
HETATM   20  C   UNL     1     -10.627  15.703  66.690  1.00  0.00    -0.307 C  
BRANCH  20  21
HETATM   21  C   UNL     1     -10.314  17.161  66.357  1.00  0.00    -0.307 C  
BRANCH  21  22
HETATM   22  O   UNL     1     -10.905  18.013  67.339  1.00  0.00    -0.356 OA 
BRANCH  22  23
HETATM   23  C   UNL     1     -10.249  19.283  67.367  1.00  0.00    -0.414 C  
HETATM   24  C   UNL     1      -9.956  19.659  68.805  1.00  0.00    -0.542 C  
ENDBRANCH  22  23
ENDBRANCH  21  22
ENDBRANCH  20  21
ENDBRANCH  14  20
ENDBRANCH  13  14
ENDBRANCH  12  13
ENDBRANCH   6  12
ENDBRANCH   5   6
ENDBRANCH   4   5
ENDBRANCH   3   4
ENDBRANCH   2   3
TORSDOF 19
ENDMDL
MODEL      197
REMARK 921   NORMALIZED FREE ENERGY PREDICTED BY IDOCK:   -3.20 KCAL/MOL
REMARK 922        TOTAL FREE ENERGY PREDICTED BY IDOCK:   -8.00 KCAL/MOL
REMARK 923 INTER-LIGAND FREE ENERGY PREDICTED BY IDOCK:   -7.16 KCAL/MOL
REMARK 924 INTRA-LIGAND FREE ENERGY PREDICTED BY IDOCK:   -0.84 KCAL/MOL
REMARK 927      BINDING AFFINITY PREDICTED BY RF-SCORE:    0.00 PKD
ROOT
HETATM    1  C   UNL     1     -11.009  12.357  63.739  1.00  0.00    -0.501 C  
HETATM    2  C   UNL     1     -10.089  11.157  63.827  1.00  0.00    -0.361 C  
ENDROOT
BRANCH   2   3
HETATM    3  O   UNL     1     -10.218  10.542  65.111  1.00  0.00    -0.305 OA 
BRANCH   3   4
HETATM    4  C   UNL     1      -9.021  10.734  65.868  1.00  0.00    -0.184 C  
BRANCH   4   5
HETATM    5  C   UNL     1      -9.337  10.857  67.357  1.00  0.00    -0.155 C  
BRANCH   5   6
HETATM    6  P   UNL     1     -11.159  10.779  67.693  1.00  0.00    -0.239 P  
BRANCH   6   7
HETATM    7  C   UNL     1     -11.193  10.535  69.536  1.00  0.00    -0.271 C  
BRANCH   7   8
HETATM    8  C   UNL     1     -10.569   9.195  69.924  1.00  0.00    -0.230 C  
BRANCH   8   9
HETATM    9  O   UNL     1      -9.203   9.380  70.305  1.00  0.00    -0.209 OA 
BRANCH   9  10
HETATM   10  C   UNL     1      -8.670   8.166  70.837  1.00  0.00    -0.140 C  
HETATM   11  C   UNL     1      -8.264   8.381  72.281  1.00  0.00    -0.202 C  
ENDBRANCH   9  10
ENDBRANCH   8   9
ENDBRANCH   7   8
ENDBRANCH   6   7
BRANCH   6  12
HETATM   12  C   UNL     1     -11.600  12.582  67.654  1.00  0.00    -0.355 C  
BRANCH  12  13
HETATM   13  C   UNL     1     -10.627  13.449  68.439  1.00  0.00    -0.248 C  
BRANCH  13  14
HETATM   14  P   UNL     1     -11.292  15.140  68.801  1.00  0.00    -0.338 P  
BRANCH  14  15
HETATM   15  C   UNL     1     -11.003  15.289  70.628  1.00  0.00    -0.284 C  
BRANCH  15  16
HETATM   16  C   UNL     1     -11.920  14.343  71.408  1.00  0.00    -0.267 C  
BRANCH  16  17
HETATM   17  O   UNL     1     -13.035  15.062  71.945  1.00  0.00    -0.309 OA 
BRANCH  17  18
HETATM   18  C   UNL     1     -13.974  14.155  72.527  1.00  0.00    -0.433 C  
HETATM   19  C   UNL     1     -13.450  12.738  72.418  1.00  0.00    -0.512 C  
ENDBRANCH  17  18
ENDBRANCH  16  17
ENDBRANCH  15  16
ENDBRANCH  14  15
BRANCH  14  20
HETATM   20  C   UNL     1      -9.873  16.163  68.174  1.00  0.00    -0.227 C  
BRANCH  20  21
HETATM   21  C   UNL     1     -10.119  16.687  66.761  1.00  0.00    -0.291 C  
BRANCH  21  22
HETATM   22  O   UNL     1      -9.809  18.080  66.706  1.00  0.00    -0.303 OA 
BRANCH  22  23
HETATM   23  C   UNL     1     -10.369  18.768  67.827  1.00  0.00    -0.411 C  
HETATM   24  C   UNL     1      -9.536  20.000  68.120  1.00  0.00    -0.385 C  
ENDBRANCH  22  23
ENDBRANCH  21  22
ENDBRANCH  20  21
ENDBRANCH  14  20
ENDBRANCH  13  14
ENDBRANCH  12  13
ENDBRANCH   6  12
ENDBRANCH   5   6
ENDBRANCH   4   5
ENDBRANCH   3   4
ENDBRANCH   2   3
TORSDOF 19
ENDMDL
MODEL      198
REMARK 921   NORMALIZED FREE ENERGY PREDICTED BY IDOCK:   -3.20 KCAL/MOL
REMARK 922        TOTAL FREE ENERGY PREDICTED BY IDOCK:   -8.00 KCAL/MOL
REMARK 923 INTER-LIGAND FREE ENERGY PREDICTED BY IDOCK:   -7.05 KCAL/MOL
REMARK 924 INTRA-LIGAND FREE ENERGY PREDICTED BY IDOCK:   -0.95 KCAL/MOL
REMARK 927      BINDING AFFINITY PREDICTED BY RF-SCORE:    0.00 PKD
ROOT
HETATM    1  C   UNL     1     -14.407   8.433  71.818  1.00  0.00    -0.558 C  
HETATM    2  C   UNL     1     -12.928   8.659  71.583  1.00  0.00    -0.344 C  
ENDROOT
BRANCH   2   3
HETATM    3  O   UNL     1     -12.296   7.419  71.254  1.00  0.00    -0.327 OA 
BRANCH   3   4
HETATM    4  C   UNL     1     -10.885   7.608  71.124  1.00  0.00    -0.235 C  
BRANCH   4   5
HETATM    5  C   UNL     1     -10.533   9.093  71.166  1.00  0.00    -0.315 C  
BRANCH   5   6
HETATM    6  P   UNL     1      -9.500   9.608  69.714  1.00  0.00    -0.238 P  
BRANCH   6   7
HETATM    7  C   UNL     1     -10.107   8.453  68.389  1.00  0.00    -0.198 C  
BRANCH   7   8
HETATM    8  C   UNL     1      -9.012   8.176  67.360  1.00  0.00    -0.137 C  
BRANCH   8   9
HETATM    9  O   UNL     1      -9.490   7.268  66.364  1.00  0.00    -0.175 OA 
BRANCH   9  10
HETATM   10  C   UNL     1      -9.333   5.919  66.809  1.00  0.00    -0.136 C  
HETATM   11  C   UNL     1     -10.538   5.103  66.386  1.00  0.00    -0.336 C  
ENDBRANCH   9  10
ENDBRANCH   8   9
ENDBRANCH   7   8
ENDBRANCH   6   7
BRANCH   6  12
HETATM   12  C   UNL     1     -10.399  11.138  69.169  1.00  0.00    -0.161 C  
BRANCH  12  13
HETATM   13  C   UNL     1      -9.500  12.128  68.443  1.00  0.00    -0.179 C  
BRANCH  13  14
HETATM   14  P   UNL     1     -10.401  13.646  67.879  1.00  0.00    -0.260 P  
BRANCH  14  15
HETATM   15  C   UNL     1     -12.022  12.946  67.305  1.00  0.00    -0.309 C  
BRANCH  15  16
HETATM   16  C   UNL     1     -12.024  12.740  65.788  1.00  0.00    -0.449 C  
BRANCH  16  17
HETATM   17  O   UNL     1     -11.219  11.610  65.438  1.00  0.00    -0.279 OA 
BRANCH  17  18
HETATM   18  C   UNL     1     -11.200  11.438  64.019  1.00  0.00    -0.269 C  
HETATM   19  C   UNL     1     -12.363  12.184  63.398  1.00  0.00    -0.648 C  
ENDBRANCH  17  18
ENDBRANCH  16  17
ENDBRANCH  15  16
ENDBRANCH  14  15
BRANCH  14  20
HETATM   20  C   UNL     1     -10.918  14.322  69.531  1.00  0.00    -0.169 C  
BRANCH  20  21
HETATM   21  C   UNL     1     -11.574  15.696  69.412  1.00  0.00    -0.370 C  
BRANCH  21  22
HETATM   22  O   UNL     1     -10.593  16.714  69.615  1.00  0.00    -0.316 OA 
BRANCH  22  23
HETATM   23  C   UNL     1     -10.288  17.375  68.384  1.00  0.00    -0.379 C  
HETATM   24  C   UNL     1      -8.783  17.457  68.224  1.00  0.00    -0.261 C  
ENDBRANCH  22  23
ENDBRANCH  21  22
ENDBRANCH  20  21
ENDBRANCH  14  20
ENDBRANCH  13  14
ENDBRANCH  12  13
ENDBRANCH   6  12
ENDBRANCH   5   6
ENDBRANCH   4   5
ENDBRANCH   3   4
ENDBRANCH   2   3
TORSDOF 19
ENDMDL
MODEL      199
REMARK 921   NORMALIZED FREE ENERGY PREDICTED BY IDOCK:   -3.19 KCAL/MOL
REMARK 922        TOTAL FREE ENERGY PREDICTED BY IDOCK:   -7.98 KCAL/MOL
REMARK 923 INTER-LIGAND FREE ENERGY PREDICTED BY IDOCK:   -7.05 KCAL/MOL
REMARK 924 INTRA-LIGAND FREE ENERGY PREDICTED BY IDOCK:   -0.92 KCAL/MOL
REMARK 927      BINDING AFFINITY PREDICTED BY RF-SCORE:    0.00 PKD
ROOT
HETATM    1  C   UNL     1     -12.219  11.999  63.701  1.00  0.00    -0.642 C  
HETATM    2  C   UNL     1     -12.499  13.437  63.314  1.00  0.00    -0.052 C  
ENDROOT
BRANCH   2   3
HETATM    3  O   UNL     1     -12.064  14.312  64.358  1.00  0.00    -0.450 OA 
BRANCH   3   4
HETATM    4  C   UNL     1     -10.667  14.127  64.601  1.00  0.00    -0.389 C  
BRANCH   4   5
HETATM    5  C   UNL     1     -10.207  14.980  65.780  1.00  0.00    -0.338 C  
BRANCH   5   6
HETATM    6  P   UNL     1      -9.910  13.965  67.303  1.00  0.00    -0.255 P  
BRANCH   6   7
HETATM    7  C   UNL     1     -10.045  15.246  68.644  1.00  0.00    -0.222 C  
BRANCH   7   8
HETATM    8  C   UNL     1      -9.574  16.612  68.147  1.00  0.00    -0.228 C  
BRANCH   8   9
HETATM    9  O   UNL     1     -10.582  17.597  68.385  1.00  0.00    -0.366 OA 
BRANCH   9  10
HETATM   10  C   UNL     1     -10.644  18.516  67.293  1.00  0.00    -0.413 C  
HETATM   11  C   UNL     1     -10.200  19.888  67.760  1.00  0.00    -0.567 C  
ENDBRANCH   9  10
ENDBRANCH   8   9
ENDBRANCH   7   8
ENDBRANCH   6   7
BRANCH   6  12
HETATM   12  C   UNL     1     -11.573  13.170  67.525  1.00  0.00    -0.352 C  
BRANCH  12  13
HETATM   13  C   UNL     1     -11.509  11.650  67.525  1.00  0.00    -0.289 C  
BRANCH  13  14
HETATM   14  P   UNL     1     -10.163  10.980  68.608  1.00  0.00    -0.208 P  
BRANCH  14  15
HETATM   15  C   UNL     1     -11.123  10.002  69.861  1.00  0.00    -0.288 C  
BRANCH  15  16
HETATM   16  C   UNL     1     -10.785   8.512  69.769  1.00  0.00    -0.213 C  
BRANCH  16  17
HETATM   17  O   UNL     1     -10.803   7.917  71.070  1.00  0.00    -0.229 OA 
BRANCH  17  18
HETATM   18  C   UNL     1      -9.473   7.809  71.582  1.00  0.00    -0.144 C  
HETATM   19  C   UNL     1      -9.475   8.087  73.072  1.00  0.00    -0.345 C  
ENDBRANCH  17  18
ENDBRANCH  16  17
ENDBRANCH  15  16
ENDBRANCH  14  15
BRANCH  14  20
HETATM   20  C   UNL     1      -9.561   9.596  67.523  1.00  0.00    -0.150 C  
BRANCH  20  21
HETATM   21  C   UNL     1      -9.702   9.925  66.038  1.00  0.00    -0.247 C  
BRANCH  21  22
HETATM   22  O   UNL     1      -9.165   8.856  65.259  1.00  0.00    -0.189 OA 
BRANCH  22  23
HETATM   23  C   UNL     1      -8.380   9.364  64.177  1.00  0.00    -0.168 C  
HETATM   24  C   UNL     1      -9.201  10.373  63.399  1.00  0.00    -0.311 C  
ENDBRANCH  22  23
ENDBRANCH  21  22
ENDBRANCH  20  21
ENDBRANCH  14  20
ENDBRANCH  13  14
ENDBRANCH  12  13
ENDBRANCH   6  12
ENDBRANCH   5   6
ENDBRANCH   4   5
ENDBRANCH   3   4
ENDBRANCH   2   3
TORSDOF 19
ENDMDL
MODEL      200
REMARK 921   NORMALIZED FREE ENERGY PREDICTED BY IDOCK:   -3.19 KCAL/MOL
REMARK 922        TOTAL FREE ENERGY PREDICTED BY IDOCK:   -7.97 KCAL/MOL
REMARK 923 INTER-LIGAND FREE ENERGY PREDICTED BY IDOCK:   -6.98 KCAL/MOL
REMARK 924 INTRA-LIGAND FREE ENERGY PREDICTED BY IDOCK:   -1.00 KCAL/MOL
REMARK 927      BINDING AFFINITY PREDICTED BY RF-SCORE:    0.00 PKD
ROOT
HETATM    1  C   UNL     1     -11.598  12.712  63.678  1.00  0.00    -0.575 C  
HETATM    2  C   UNL     1     -11.298  11.235  63.531  1.00  0.00     0.003 C  
ENDROOT
BRANCH   2   3
HETATM    3  O   UNL     1     -10.282  10.854  64.462  1.00  0.00    -0.311 OA 
BRANCH   3   4
HETATM    4  C   UNL     1      -9.839  11.997  65.198  1.00  0.00    -0.200 C  
BRANCH   4   5
HETATM    5  C   UNL     1      -9.473  11.610  66.629  1.00  0.00    -0.201 C  
BRANCH   5   6
HETATM    6  P   UNL     1     -10.665  10.385  67.348  1.00  0.00    -0.253 P  
BRANCH   6   7
HETATM    7  C   UNL     1      -9.545   9.344  68.406  1.00  0.00    -0.146 C  
BRANCH   7   8
HETATM    8  C   UNL     1      -9.913   9.470  69.884  1.00  0.00    -0.230 C  
BRANCH   8   9
HETATM    9  O   UNL     1     -10.870   8.470  70.240  1.00  0.00    -0.235 OA 
BRANCH   9  10
HETATM   10  C   UNL     1     -10.252   7.182  70.271  1.00  0.00    -0.198 C  
HETATM   11  C   UNL     1     -11.250   6.131  69.830  1.00  0.00    -0.494 C  
ENDBRANCH   9  10
ENDBRANCH   8   9
ENDBRANCH   7   8
ENDBRANCH   6   7
BRANCH   6  12
HETATM   12  C   UNL     1     -11.439  11.400  68.698  1.00  0.00    -0.296 C  
BRANCH  12  13
HETATM   13  C   UNL     1     -11.611  12.863  68.316  1.00  0.00    -0.335 C  
BRANCH  13  14
HETATM   14  P   UNL     1     -11.208  14.025  69.702  1.00  0.00    -0.038 P  
BRANCH  14  15
HETATM   15  C   UNL     1     -11.011  15.641  68.809  1.00  0.00    -0.281 C  
BRANCH  15  16
HETATM   16  C   UNL     1     -10.180  15.465  67.535  1.00  0.00    -0.244 C  
BRANCH  16  17
HETATM   17  O   UNL     1     -10.529  16.465  66.572  1.00  0.00    -0.302 OA 
BRANCH  17  18
HETATM   18  C   UNL     1     -10.452  15.925  65.250  1.00  0.00    -0.377 C  
HETATM   19  C   UNL     1     -11.700  16.295  64.474  1.00  0.00     0.030 C  
ENDBRANCH  17  18
ENDBRANCH  16  17
ENDBRANCH  15  16
ENDBRANCH  14  15
BRANCH  14  20
HETATM   20  C   UNL     1     -12.913  14.261  70.404  1.00  0.00    -0.124 C  
BRANCH  20  21
HETATM   21  C   UNL     1     -13.083  15.630  71.058  1.00  0.00    -0.427 C  
BRANCH  21  22
HETATM   22  O   UNL     1     -13.744  15.482  72.314  1.00  0.00    -0.463 OA 
BRANCH  22  23
HETATM   23  C   UNL     1     -13.031  14.572  73.156  1.00  0.00    -0.472 C  
HETATM   24  C   UNL     1     -12.303  15.356  74.230  1.00  0.00    -0.807 C  
ENDBRANCH  22  23
ENDBRANCH  21  22
ENDBRANCH  20  21
ENDBRANCH  14  20
ENDBRANCH  13  14
ENDBRANCH  12  13
ENDBRANCH   6  12
ENDBRANCH   5   6
ENDBRANCH   4   5
ENDBRANCH   3   4
ENDBRANCH   2   3
TORSDOF 19
ENDMDL
MODEL      201
REMARK 921   NORMALIZED FREE ENERGY PREDICTED BY IDOCK:   -3.18 KCAL/MOL
REMARK 922        TOTAL FREE ENERGY PREDICTED BY IDOCK:   -7.97 KCAL/MOL
REMARK 923 INTER-LIGAND FREE ENERGY PREDICTED BY IDOCK:   -7.13 KCAL/MOL
REMARK 924 INTRA-LIGAND FREE ENERGY PREDICTED BY IDOCK:   -0.84 KCAL/MOL
REMARK 927      BINDING AFFINITY PREDICTED BY RF-SCORE:    0.00 PKD
ROOT
HETATM    1  C   UNL     1      -9.509   4.084  65.065  1.00  0.00    -0.172 C  
HETATM    2  C   UNL     1      -8.862   5.309  65.678  1.00  0.00    -0.152 C  
ENDROOT
BRANCH   2   3
HETATM    3  O   UNL     1      -8.059   5.972  64.698  1.00  0.00    -0.129 OA 
BRANCH   3   4
HETATM    4  C   UNL     1      -7.818   7.324  65.098  1.00  0.00    -0.123 C  
BRANCH   4   5
HETATM    5  C   UNL     1      -8.894   7.800  66.070  1.00  0.00    -0.157 C  
BRANCH   5   6
HETATM    6  P   UNL     1      -8.819   9.631  66.354  1.00  0.00    -0.159 P  
BRANCH   6   7
HETATM    7  C   UNL     1     -10.160  10.245  65.222  1.00  0.00    -0.289 C  
BRANCH   7   8
HETATM    8  C   UNL     1      -9.626  10.464  63.807  1.00  0.00    -0.310 C  
BRANCH   8   9
HETATM    9  O   UNL     1      -9.861  11.813  63.394  1.00  0.00    -0.374 OA 
BRANCH   9  10
HETATM   10  C   UNL     1     -10.855  12.417  64.224  1.00  0.00    -0.355 C  
HETATM   11  C   UNL     1     -12.081  12.737  63.393  1.00  0.00    -0.619 C  
ENDBRANCH   9  10
ENDBRANCH   8   9
ENDBRANCH   7   8
ENDBRANCH   6   7
BRANCH   6  12
HETATM   12  C   UNL     1      -9.740   9.774  67.961  1.00  0.00    -0.145 C  
BRANCH  12  13
HETATM   13  C   UNL     1     -11.130  10.369  67.797  1.00  0.00    -0.299 C  
BRANCH  13  14
HETATM   14  P   UNL     1     -11.846  10.988  69.390  1.00  0.00    -0.317 P  
BRANCH  14  15
HETATM   15  C   UNL     1     -10.755  10.170  70.650  1.00  0.00    -0.173 C  
BRANCH  15  16
HETATM   16  C   UNL     1     -11.584   9.362  71.651  1.00  0.00    -0.396 C  
BRANCH  16  17
HETATM   17  O   UNL     1     -12.913   9.886  71.735  1.00  0.00    -0.382 OA 
BRANCH  17  18
HETATM   18  C   UNL     1     -13.824   8.860  72.135  1.00  0.00    -0.473 C  
HETATM   19  C   UNL     1     -13.547   7.596  71.348  1.00  0.00    -0.368 C  
ENDBRANCH  17  18
ENDBRANCH  16  17
ENDBRANCH  15  16
ENDBRANCH  14  15
BRANCH  14  20
HETATM   20  C   UNL     1     -11.117  12.698  69.406  1.00  0.00    -0.065 C  
BRANCH  20  21
HETATM   21  C   UNL     1     -12.154  13.771  69.080  1.00  0.00    -0.333 C  
BRANCH  21  22
HETATM   22  O   UNL     1     -12.705  14.286  70.292  1.00  0.00    -0.345 OA 
BRANCH  22  23
HETATM   23  C   UNL     1     -12.319  15.650  70.483  1.00  0.00    -0.403 C  
HETATM   24  C   UNL     1     -12.124  15.908  71.963  1.00  0.00    -0.591 C  
ENDBRANCH  22  23
ENDBRANCH  21  22
ENDBRANCH  20  21
ENDBRANCH  14  20
ENDBRANCH  13  14
ENDBRANCH  12  13
ENDBRANCH   6  12
ENDBRANCH   5   6
ENDBRANCH   4   5
ENDBRANCH   3   4
ENDBRANCH   2   3
TORSDOF 19
ENDMDL
MODEL      202
REMARK 921   NORMALIZED FREE ENERGY PREDICTED BY IDOCK:   -3.18 KCAL/MOL
REMARK 922        TOTAL FREE ENERGY PREDICTED BY IDOCK:   -7.97 KCAL/MOL
REMARK 923 INTER-LIGAND FREE ENERGY PREDICTED BY IDOCK:   -6.68 KCAL/MOL
REMARK 924 INTRA-LIGAND FREE ENERGY PREDICTED BY IDOCK:   -1.29 KCAL/MOL
REMARK 927      BINDING AFFINITY PREDICTED BY RF-SCORE:    0.00 PKD
ROOT
HETATM    1  C   UNL     1     -10.754   6.897  66.996  1.00  0.00    -0.432 C  
HETATM    2  C   UNL     1      -9.324   7.075  66.528  1.00  0.00    -0.159 C  
ENDROOT
BRANCH   2   3
HETATM    3  O   UNL     1      -9.251   8.161  65.600  1.00  0.00    -0.108 OA 
BRANCH   3   4
HETATM    4  C   UNL     1      -9.885   9.319  66.150  1.00  0.00    -0.293 C  
BRANCH   4   5
HETATM    5  C   UNL     1      -8.850  10.382  66.508  1.00  0.00    -0.138 C  
BRANCH   5   6
HETATM    6  P   UNL     1      -9.212  11.190  68.137  1.00  0.00    -0.177 P  
BRANCH   6   7
HETATM    7  C   UNL     1      -7.715  10.718  69.134  1.00  0.00    -0.138 C  
BRANCH   7   8
HETATM    8  C   UNL     1      -7.354   9.249  68.919  1.00  0.00    -0.074 C  
BRANCH   8   9
HETATM    9  O   UNL     1      -6.979   8.647  70.160  1.00  0.00    -0.041 OA 
BRANCH   9  10
HETATM   10  C   UNL     1      -8.133   8.435  70.976  1.00  0.00    -0.119 C  
HETATM   11  C   UNL     1      -9.047   7.427  70.308  1.00  0.00    -0.151 C  
ENDBRANCH   9  10
ENDBRANCH   8   9
ENDBRANCH   7   8
ENDBRANCH   6   7
BRANCH   6  12
HETATM   12  C   UNL     1      -8.743  12.949  67.768  1.00  0.00    -0.188 C  
BRANCH  12  13
HETATM   13  C   UNL     1      -9.815  13.947  68.180  1.00  0.00    -0.240 C  
BRANCH  13  14
HETATM   14  P   UNL     1     -11.417  13.141  68.643  1.00  0.00    -0.350 P  
BRANCH  14  15
HETATM   15  C   UNL     1     -12.197  14.425  69.734  1.00  0.00    -0.321 C  
BRANCH  15  16
HETATM   16  C   UNL     1     -11.225  15.575  70.009  1.00  0.00    -0.315 C  
BRANCH  16  17
HETATM   17  O   UNL     1     -11.541  16.206  71.254  1.00  0.00    -0.426 OA 
BRANCH  17  18
HETATM   18  C   UNL     1     -11.965  15.230  72.209  1.00  0.00    -0.421 C  
HETATM   19  C   UNL     1     -12.946  15.857  73.178  1.00  0.00    -0.653 C  
ENDBRANCH  17  18
ENDBRANCH  16  17
ENDBRANCH  15  16
ENDBRANCH  14  15
BRANCH  14  20
HETATM   20  C   UNL     1     -12.371  13.440  67.075  1.00  0.00    -0.177 C  
BRANCH  20  21
HETATM   21  C   UNL     1     -11.683  14.458  66.168  1.00  0.00    -0.378 C  
BRANCH  21  22
HETATM   22  O   UNL     1     -11.718  13.996  64.818  1.00  0.00    -0.357 OA 
BRANCH  22  23
HETATM   23  C   UNL     1     -11.786  12.568  64.773  1.00  0.00    -0.358 C  
HETATM   24  C   UNL     1     -12.462  12.143  63.486  1.00  0.00    -0.666 C  
ENDBRANCH  22  23
ENDBRANCH  21  22
ENDBRANCH  20  21
ENDBRANCH  14  20
ENDBRANCH  13  14
ENDBRANCH  12  13
ENDBRANCH   6  12
ENDBRANCH   5   6
ENDBRANCH   4   5
ENDBRANCH   3   4
ENDBRANCH   2   3
TORSDOF 19
ENDMDL
MODEL      203
REMARK 921   NORMALIZED FREE ENERGY PREDICTED BY IDOCK:   -3.18 KCAL/MOL
REMARK 922        TOTAL FREE ENERGY PREDICTED BY IDOCK:   -7.97 KCAL/MOL
REMARK 923 INTER-LIGAND FREE ENERGY PREDICTED BY IDOCK:   -7.15 KCAL/MOL
REMARK 924 INTRA-LIGAND FREE ENERGY PREDICTED BY IDOCK:   -0.81 KCAL/MOL
REMARK 927      BINDING AFFINITY PREDICTED BY RF-SCORE:    0.00 PKD
ROOT
HETATM    1  C   UNL     1     -10.666  11.432  63.605  1.00  0.00    -0.470 C  
HETATM    2  C   UNL     1     -11.960  12.218  63.584  1.00  0.00    -0.543 C  
ENDROOT
BRANCH   2   3
HETATM    3  O   UNL     1     -11.776  13.471  64.248  1.00  0.00    -0.386 OA 
BRANCH   3   4
HETATM    4  C   UNL     1     -12.349  13.419  65.557  1.00  0.00    -0.480 C  
BRANCH   4   5
HETATM    5  C   UNL     1     -11.613  14.361  66.507  1.00  0.00    -0.378 C  
BRANCH   5   6
HETATM    6  P   UNL     1      -9.799  13.984  66.599  1.00  0.00    -0.299 P  
BRANCH   6   7
HETATM    7  C   UNL     1      -9.120  15.565  67.303  1.00  0.00    -0.203 C  
BRANCH   7   8
HETATM    8  C   UNL     1      -8.473  16.417  66.212  1.00  0.00    -0.337 C  
BRANCH   8   9
HETATM    9  O   UNL     1      -9.342  17.493  65.847  1.00  0.00    -0.516 OA 
BRANCH   9  10
HETATM   10  C   UNL     1      -9.141  18.608  66.717  1.00  0.00    -0.301 C  
HETATM   11  C   UNL     1     -10.351  19.519  66.659  1.00  0.00    -0.570 C  
ENDBRANCH   9  10
ENDBRANCH   8   9
ENDBRANCH   7   8
ENDBRANCH   6   7
BRANCH   6  12
HETATM   12  C   UNL     1      -9.733  12.954  68.143  1.00  0.00    -0.227 C  
BRANCH  12  13
HETATM   13  C   UNL     1     -10.549  11.674  68.038  1.00  0.00    -0.202 C  
BRANCH  13  14
HETATM   14  P   UNL     1      -9.504  10.144  68.068  1.00  0.00    -0.148 P  
BRANCH  14  15
HETATM   15  C   UNL     1      -7.998  10.720  68.987  1.00  0.00    -0.137 C  
BRANCH  15  16
HETATM   16  C   UNL     1      -7.335   9.560  69.734  1.00  0.00    -0.092 C  
BRANCH  16  17
HETATM   17  O   UNL     1      -7.204   9.874  71.124  1.00  0.00    -0.305 OA 
BRANCH  17  18
HETATM   18  C   UNL     1      -7.141   8.674  71.898  1.00  0.00    -0.068 C  
HETATM   19  C   UNL     1      -8.540   8.235  72.276  1.00  0.00    -0.257 C  
ENDBRANCH  17  18
ENDBRANCH  16  17
ENDBRANCH  15  16
ENDBRANCH  14  15
BRANCH  14  20
HETATM   20  C   UNL     1     -10.366   9.216  69.428  1.00  0.00    -0.216 C  
BRANCH  20  21
HETATM   21  C   UNL     1     -10.510   7.729  69.111  1.00  0.00    -0.211 C  
BRANCH  21  22
HETATM   22  O   UNL     1     -10.223   7.504  67.731  1.00  0.00    -0.177 OA 
BRANCH  22  23
HETATM   23  C   UNL     1     -11.071   6.483  67.198  1.00  0.00    -0.360 C  
HETATM   24  C   UNL     1     -10.221   5.471  66.456  1.00  0.00    -0.273 C  
ENDBRANCH  22  23
ENDBRANCH  21  22
ENDBRANCH  20  21
ENDBRANCH  14  20
ENDBRANCH  13  14
ENDBRANCH  12  13
ENDBRANCH   6  12
ENDBRANCH   5   6
ENDBRANCH   4   5
ENDBRANCH   3   4
ENDBRANCH   2   3
TORSDOF 19
ENDMDL
MODEL      204
REMARK 921   NORMALIZED FREE ENERGY PREDICTED BY IDOCK:   -3.18 KCAL/MOL
REMARK 922        TOTAL FREE ENERGY PREDICTED BY IDOCK:   -7.96 KCAL/MOL
REMARK 923 INTER-LIGAND FREE ENERGY PREDICTED BY IDOCK:   -7.08 KCAL/MOL
REMARK 924 INTRA-LIGAND FREE ENERGY PREDICTED BY IDOCK:   -0.88 KCAL/MOL
REMARK 927      BINDING AFFINITY PREDICTED BY RF-SCORE:    0.00 PKD
ROOT
HETATM    1  C   UNL     1     -11.207  12.186  63.373  1.00  0.00    -0.494 C  
HETATM    2  C   UNL     1     -12.515  12.226  64.135  1.00  0.00    -0.434 C  
ENDROOT
BRANCH   2   3
HETATM    3  O   UNL     1     -12.772  13.560  64.584  1.00  0.00    -0.641 OA 
BRANCH   3   4
HETATM    4  C   UNL     1     -12.755  13.607  66.013  1.00  0.00    -0.309 C  
BRANCH   4   5
HETATM    5  C   UNL     1     -11.699  14.591  66.508  1.00  0.00    -0.368 C  
BRANCH   5   6
HETATM    6  P   UNL     1     -10.061  14.335  65.679  1.00  0.00    -0.307 P  
BRANCH   6   7
HETATM    7  C   UNL     1      -9.128  15.855  66.205  1.00  0.00    -0.344 C  
BRANCH   7   8
HETATM    8  C   UNL     1      -9.414  16.195  67.667  1.00  0.00    -0.220 C  
BRANCH   8   9
HETATM    9  O   UNL     1      -9.442  17.613  67.847  1.00  0.00    -0.265 OA 
BRANCH   9  10
HETATM   10  C   UNL     1     -10.315  17.958  68.924  1.00  0.00    -0.268 C  
HETATM   11  C   UNL     1     -10.678  16.710  69.702  1.00  0.00    -0.286 C  
ENDBRANCH   9  10
ENDBRANCH   8   9
ENDBRANCH   7   8
ENDBRANCH   6   7
BRANCH   6  12
HETATM   12  C   UNL     1      -9.267  13.120  66.837  1.00  0.00    -0.236 C  
BRANCH  12  13
HETATM   13  C   UNL     1      -9.449  11.675  66.398  1.00  0.00    -0.217 C  
BRANCH  13  14
HETATM   14  P   UNL     1     -10.684  10.754  67.428  1.00  0.00    -0.286 P  
BRANCH  14  15
HETATM   15  C   UNL     1      -9.724   9.248  67.932  1.00  0.00    -0.153 C  
BRANCH  15  16
HETATM   16  C   UNL     1      -9.073   9.446  69.304  1.00  0.00    -0.152 C  
BRANCH  16  17
HETATM   17  O   UNL     1      -9.091   8.222  70.045  1.00  0.00    -0.148 OA 
BRANCH  17  18
HETATM   18  C   UNL     1     -10.413   7.677  70.066  1.00  0.00    -0.229 C  
HETATM   19  C   UNL     1     -10.341   6.164  70.090  1.00  0.00    -0.269 C  
ENDBRANCH  17  18
ENDBRANCH  16  17
ENDBRANCH  15  16
ENDBRANCH  14  15
BRANCH  14  20
HETATM   20  C   UNL     1     -10.565  11.742  68.998  1.00  0.00    -0.136 C  
BRANCH  20  21
HETATM   21  C   UNL     1     -11.937  12.155  69.526  1.00  0.00    -0.275 C  
BRANCH  21  22
HETATM   22  O   UNL     1     -12.224  11.437  70.726  1.00  0.00    -0.368 OA 
BRANCH  22  23
HETATM   23  C   UNL     1     -12.849  12.291  71.688  1.00  0.00    -0.273 C  
HETATM   24  C   UNL     1     -12.877  13.708  71.152  1.00  0.00    -0.399 C  
ENDBRANCH  22  23
ENDBRANCH  21  22
ENDBRANCH  20  21
ENDBRANCH  14  20
ENDBRANCH  13  14
ENDBRANCH  12  13
ENDBRANCH   6  12
ENDBRANCH   5   6
ENDBRANCH   4   5
ENDBRANCH   3   4
ENDBRANCH   2   3
TORSDOF 19
ENDMDL
MODEL      205
REMARK 921   NORMALIZED FREE ENERGY PREDICTED BY IDOCK:   -3.17 KCAL/MOL
REMARK 922        TOTAL FREE ENERGY PREDICTED BY IDOCK:   -7.95 KCAL/MOL
REMARK 923 INTER-LIGAND FREE ENERGY PREDICTED BY IDOCK:   -6.86 KCAL/MOL
REMARK 924 INTRA-LIGAND FREE ENERGY PREDICTED BY IDOCK:   -1.09 KCAL/MOL
REMARK 927      BINDING AFFINITY PREDICTED BY RF-SCORE:    0.00 PKD
ROOT
HETATM    1  C   UNL     1     -11.923  12.963  63.780  1.00  0.00    -0.582 C  
HETATM    2  C   UNL     1     -12.516  13.240  65.147  1.00  0.00    -0.470 C  
ENDROOT
BRANCH   2   3
HETATM    3  O   UNL     1     -11.770  14.271  65.797  1.00  0.00    -0.344 OA 
BRANCH   3   4
HETATM    4  C   UNL     1     -12.060  14.276  67.198  1.00  0.00    -0.377 C  
BRANCH   4   5
HETATM    5  C   UNL     1     -10.772  14.276  68.016  1.00  0.00    -0.238 C  
BRANCH   5   6
HETATM    6  P   UNL     1      -9.277  13.957  66.967  1.00  0.00    -0.249 P  
BRANCH   6   7
HETATM    7  C   UNL     1      -7.965  14.911  67.878  1.00  0.00    -0.138 C  
BRANCH   7   8
HETATM    8  C   UNL     1      -8.138  16.416  67.669  1.00  0.00    -0.156 C  
BRANCH   8   9
HETATM    9  O   UNL     1      -7.116  16.912  66.800  1.00  0.00    -0.190 OA 
BRANCH   9  10
HETATM   10  C   UNL     1      -6.869  18.294  67.065  1.00  0.00    -0.186 C  
HETATM   11  C   UNL     1      -7.516  19.140  65.988  1.00  0.00    -0.287 C  
ENDBRANCH   9  10
ENDBRANCH   8   9
ENDBRANCH   7   8
ENDBRANCH   6   7
BRANCH   6  12
HETATM   12  C   UNL     1      -8.808  12.252  67.534  1.00  0.00    -0.182 C  
BRANCH  12  13
HETATM   13  C   UNL     1      -9.466  11.153  66.714  1.00  0.00    -0.184 C  
BRANCH  13  14
HETATM   14  P   UNL     1     -10.778  10.237  67.649  1.00  0.00    -0.289 P  
BRANCH  14  15
HETATM   15  C   UNL     1     -10.043   8.538  67.786  1.00  0.00    -0.211 C  
BRANCH  15  16
HETATM   16  C   UNL     1     -10.020   8.066  69.242  1.00  0.00    -0.191 C  
BRANCH  16  17
HETATM   17  O   UNL     1     -11.222   7.356  69.555  1.00  0.00    -0.134 OA 
BRANCH  17  18
HETATM   18  C   UNL     1     -10.913   6.037  70.011  1.00  0.00    -0.380 C  
HETATM   19  C   UNL     1     -11.035   5.977  71.520  1.00  0.00    -0.335 C  
ENDBRANCH  17  18
ENDBRANCH  16  17
ENDBRANCH  15  16
ENDBRANCH  14  15
BRANCH  14  20
HETATM   20  C   UNL     1     -10.425  10.870  69.361  1.00  0.00    -0.173 C  
BRANCH  20  21
HETATM   21  C   UNL     1     -11.684  11.388  70.055  1.00  0.00    -0.334 C  
BRANCH  21  22
HETATM   22  O   UNL     1     -12.460  10.285  70.523  1.00  0.00    -0.292 OA 
BRANCH  22  23
HETATM   23  C   UNL     1     -13.145  10.626  71.731  1.00  0.00    -0.466 C  
HETATM   24  C   UNL     1     -13.044  12.122  71.954  1.00  0.00    -0.475 C  
ENDBRANCH  22  23
ENDBRANCH  21  22
ENDBRANCH  20  21
ENDBRANCH  14  20
ENDBRANCH  13  14
ENDBRANCH  12  13
ENDBRANCH   6  12
ENDBRANCH   5   6
ENDBRANCH   4   5
ENDBRANCH   3   4
ENDBRANCH   2   3
TORSDOF 19
ENDMDL
MODEL      206
REMARK 921   NORMALIZED FREE ENERGY PREDICTED BY IDOCK:   -3.17 KCAL/MOL
REMARK 922        TOTAL FREE ENERGY PREDICTED BY IDOCK:   -7.94 KCAL/MOL
REMARK 923 INTER-LIGAND FREE ENERGY PREDICTED BY IDOCK:   -7.30 KCAL/MOL
REMARK 924 INTRA-LIGAND FREE ENERGY PREDICTED BY IDOCK:   -0.64 KCAL/MOL
REMARK 927      BINDING AFFINITY PREDICTED BY RF-SCORE:    0.00 PKD
ROOT
HETATM    1  C   UNL     1     -10.220  19.718  66.417  1.00  0.00    -0.614 C  
HETATM    2  C   UNL     1     -10.280  19.971  67.909  1.00  0.00    -0.405 C  
ENDROOT
BRANCH   2   3
HETATM    3  O   UNL     1      -9.579  18.935  68.603  1.00  0.00    -0.353 OA 
BRANCH   3   4
HETATM    4  C   UNL     1     -10.004  17.655  68.129  1.00  0.00    -0.330 C  
BRANCH   4   5
HETATM    5  C   UNL     1      -9.250  16.537  68.844  1.00  0.00    -0.258 C  
BRANCH   5   6
HETATM    6  P   UNL     1      -8.351  15.430  67.658  1.00  0.00    -0.184 P  
BRANCH   6   7
HETATM    7  C   UNL     1      -6.799  15.041  68.606  1.00  0.00    -0.109 C  
BRANCH   7   8
HETATM    8  C   UNL     1      -5.995  13.942  67.912  1.00  0.00    -0.138 C  
BRANCH   8   9
HETATM    9  O   UNL     1      -6.266  12.675  68.519  1.00  0.00    -0.061 OA 
BRANCH   9  10
HETATM   10  C   UNL     1      -6.380  11.661  67.519  1.00  0.00    -0.087 C  
HETATM   11  C   UNL     1      -6.662  10.328  68.180  1.00  0.00    -0.058 C  
ENDBRANCH   9  10
ENDBRANCH   8   9
ENDBRANCH   7   8
ENDBRANCH   6   7
BRANCH   6  12
HETATM   12  C   UNL     1      -9.242  13.824  67.933  1.00  0.00    -0.200 C  
BRANCH  12  13
HETATM   13  C   UNL     1     -10.336  13.925  68.986  1.00  0.00    -0.096 C  
BRANCH  13  14
HETATM   14  P   UNL     1     -11.892  13.043  68.502  1.00  0.00    -0.211 P  
BRANCH  14  15
HETATM   15  C   UNL     1     -11.516  12.517  66.762  1.00  0.00    -0.362 C  
BRANCH  15  16
HETATM   16  C   UNL     1     -12.253  13.399  65.751  1.00  0.00    -0.458 C  
BRANCH  16  17
HETATM   17  O   UNL     1     -13.263  12.643  65.075  1.00  0.00    -0.753 OA 
BRANCH  17  18
HETATM   18  C   UNL     1     -12.704  11.979  63.939  1.00  0.00    -0.354 C  
HETATM   19  C   UNL     1     -11.749  12.910  63.221  1.00  0.00    -0.408 C  
ENDBRANCH  17  18
ENDBRANCH  16  17
ENDBRANCH  15  16
ENDBRANCH  14  15
BRANCH  14  20
HETATM   20  C   UNL     1     -11.613  11.431  69.385  1.00  0.00    -0.323 C  
BRANCH  20  21
HETATM   21  C   UNL     1     -12.434  11.326  70.668  1.00  0.00    -0.348 C  
BRANCH  21  22
HETATM   22  O   UNL     1     -12.821   9.969  70.879  1.00  0.00    -0.344 OA 
BRANCH  22  23
HETATM   23  C   UNL     1     -13.204   9.757  72.240  1.00  0.00    -0.377 C  
HETATM   24  C   UNL     1     -14.332   8.746  72.287  1.00  0.00    -0.468 C  
ENDBRANCH  22  23
ENDBRANCH  21  22
ENDBRANCH  20  21
ENDBRANCH  14  20
ENDBRANCH  13  14
ENDBRANCH  12  13
ENDBRANCH   6  12
ENDBRANCH   5   6
ENDBRANCH   4   5
ENDBRANCH   3   4
ENDBRANCH   2   3
TORSDOF 19
ENDMDL
MODEL      207
REMARK 921   NORMALIZED FREE ENERGY PREDICTED BY IDOCK:   -3.17 KCAL/MOL
REMARK 922        TOTAL FREE ENERGY PREDICTED BY IDOCK:   -7.94 KCAL/MOL
REMARK 923 INTER-LIGAND FREE ENERGY PREDICTED BY IDOCK:   -6.87 KCAL/MOL
REMARK 924 INTRA-LIGAND FREE ENERGY PREDICTED BY IDOCK:   -1.06 KCAL/MOL
REMARK 927      BINDING AFFINITY PREDICTED BY RF-SCORE:    0.00 PKD
ROOT
HETATM    1  C   UNL     1     -12.531  12.081  63.428  1.00  0.00    -0.625 C  
HETATM    2  C   UNL     1     -11.219  12.799  63.668  1.00  0.00    -0.427 C  
ENDROOT
BRANCH   2   3
HETATM    3  O   UNL     1     -10.824  12.640  65.033  1.00  0.00    -0.276 OA 
BRANCH   3   4
HETATM    4  C   UNL     1     -11.176  13.805  65.784  1.00  0.00    -0.297 C  
BRANCH   4   5
HETATM    5  C   UNL     1     -12.139  13.449  66.914  1.00  0.00    -0.354 C  
BRANCH   5   6
HETATM    6  P   UNL     1     -11.318  13.504  68.575  1.00  0.00    -0.340 P  
BRANCH   6   7
HETATM    7  C   UNL     1     -12.089  12.042  69.427  1.00  0.00    -0.202 C  
BRANCH   7   8
HETATM    8  C   UNL     1     -12.377  12.352  70.895  1.00  0.00    -0.262 C  
BRANCH   8   9
HETATM    9  O   UNL     1     -13.280  11.383  71.435  1.00  0.00    -0.326 OA 
BRANCH   9  10
HETATM   10  C   UNL     1     -12.721  10.072  71.326  1.00  0.00    -0.399 C  
HETATM   11  C   UNL     1     -13.422   9.141  72.295  1.00  0.00    -0.546 C  
ENDBRANCH   9  10
ENDBRANCH   8   9
ENDBRANCH   7   8
ENDBRANCH   6   7
BRANCH   6  12
HETATM   12  C   UNL     1      -9.671  12.745  68.178  1.00  0.00    -0.223 C  
BRANCH  12  13
HETATM   13  C   UNL     1      -9.741  11.235  68.001  1.00  0.00    -0.179 C  
BRANCH  13  14
HETATM   14  P   UNL     1      -8.516  10.325  69.052  1.00  0.00    -0.163 P  
BRANCH  14  15
HETATM   15  C   UNL     1      -9.622   9.364  70.193  1.00  0.00    -0.238 C  
BRANCH  15  16
HETATM   16  C   UNL     1      -8.877   8.177  70.808  1.00  0.00    -0.141 C  
BRANCH  16  17
HETATM   17  O   UNL     1      -9.228   6.965  70.133  1.00  0.00    -0.155 OA 
BRANCH  17  18
HETATM   18  C   UNL     1      -9.796   6.032  71.056  1.00  0.00    -0.183 C  
HETATM   19  C   UNL     1     -11.295   6.237  71.132  1.00  0.00    -0.364 C  
ENDBRANCH  17  18
ENDBRANCH  16  17
ENDBRANCH  15  16
ENDBRANCH  14  15
BRANCH  14  20
HETATM   20  C   UNL     1      -8.042   8.975  67.865  1.00  0.00    -0.106 C  
BRANCH  20  21
HETATM   21  C   UNL     1      -8.805   9.074  66.545  1.00  0.00    -0.135 C  
BRANCH  21  22
HETATM   22  O   UNL     1      -9.384   7.808  66.232  1.00  0.00    -0.185 OA 
BRANCH  22  23
HETATM   23  C   UNL     1     -10.487   7.527  67.099  1.00  0.00    -0.336 C  
HETATM   24  C   UNL     1     -10.801   6.045  67.038  1.00  0.00    -0.413 C  
ENDBRANCH  22  23
ENDBRANCH  21  22
ENDBRANCH  20  21
ENDBRANCH  14  20
ENDBRANCH  13  14
ENDBRANCH  12  13
ENDBRANCH   6  12
ENDBRANCH   5   6
ENDBRANCH   4   5
ENDBRANCH   3   4
ENDBRANCH   2   3
TORSDOF 19
ENDMDL
MODEL      208
REMARK 921   NORMALIZED FREE ENERGY PREDICTED BY IDOCK:   -3.17 KCAL/MOL
REMARK 922        TOTAL FREE ENERGY PREDICTED BY IDOCK:   -7.93 KCAL/MOL
REMARK 923 INTER-LIGAND FREE ENERGY PREDICTED BY IDOCK:   -6.90 KCAL/MOL
REMARK 924 INTRA-LIGAND FREE ENERGY PREDICTED BY IDOCK:   -1.03 KCAL/MOL
REMARK 927      BINDING AFFINITY PREDICTED BY RF-SCORE:    0.00 PKD
ROOT
HETATM    1  C   UNL     1     -10.085   3.529  72.224  1.00  0.00    -0.220 C  
HETATM    2  C   UNL     1      -9.537   3.573  70.813  1.00  0.00    -0.176 C  
ENDROOT
BRANCH   2   3
HETATM    3  O   UNL     1      -8.304   4.297  70.796  1.00  0.00    -0.076 OA 
BRANCH   3   4
HETATM    4  C   UNL     1      -8.550   5.675  70.505  1.00  0.00    -0.129 C  
BRANCH   4   5
HETATM    5  C   UNL     1      -9.248   5.826  69.156  1.00  0.00    -0.120 C  
BRANCH   5   6
HETATM    6  P   UNL     1     -10.708   6.965  69.248  1.00  0.00    -0.221 P  
BRANCH   6   7
HETATM    7  C   UNL     1     -10.817   7.295  71.075  1.00  0.00    -0.239 C  
BRANCH   7   8
HETATM    8  C   UNL     1     -12.077   6.669  71.671  1.00  0.00    -0.355 C  
BRANCH   8   9
HETATM    9  O   UNL     1     -13.099   7.660  71.814  1.00  0.00    -0.333 OA 
BRANCH   9  10
HETATM   10  C   UNL     1     -12.548   8.865  72.348  1.00  0.00    -0.353 C  
HETATM   11  C   UNL     1     -13.333  10.053  71.832  1.00  0.00    -0.516 C  
ENDBRANCH   9  10
ENDBRANCH   8   9
ENDBRANCH   7   8
ENDBRANCH   6   7
BRANCH   6  12
HETATM   12  C   UNL     1      -9.933   8.572  68.733  1.00  0.00    -0.186 C  
BRANCH  12  13
HETATM   13  C   UNL     1     -10.803   9.780  69.049  1.00  0.00    -0.199 C  
BRANCH  13  14
HETATM   14  P   UNL     1     -10.207  11.335  68.238  1.00  0.00    -0.200 P  
BRANCH  14  15
HETATM   15  C   UNL     1     -10.496  10.971  66.441  1.00  0.00    -0.258 C  
BRANCH  15  16
HETATM   16  C   UNL     1      -9.959  12.102  65.559  1.00  0.00    -0.246 C  
BRANCH  16  17
HETATM   17  O   UNL     1     -10.910  12.434  64.542  1.00  0.00    -0.289 OA 
BRANCH  17  18
HETATM   18  C   UNL     1     -11.333  13.792  64.686  1.00  0.00    -0.372 C  
HETATM   19  C   UNL     1     -12.700  13.834  65.336  1.00  0.00    -0.513 C  
ENDBRANCH  17  18
ENDBRANCH  16  17
ENDBRANCH  15  16
ENDBRANCH  14  15
BRANCH  14  20
HETATM   20  C   UNL     1     -11.669  12.432  68.575  1.00  0.00    -0.326 C  
BRANCH  20  21
HETATM   21  C   UNL     1     -11.834  12.731  70.064  1.00  0.00    -0.281 C  
BRANCH  21  22
HETATM   22  O   UNL     1     -12.646  13.893  70.231  1.00  0.00    -0.328 OA 
BRANCH  22  23
HETATM   23  C   UNL     1     -13.134  13.981  71.572  1.00  0.00    -0.363 C  
HETATM   24  C   UNL     1     -13.780  15.337  71.778  1.00  0.00    -0.605 C  
ENDBRANCH  22  23
ENDBRANCH  21  22
ENDBRANCH  20  21
ENDBRANCH  14  20
ENDBRANCH  13  14
ENDBRANCH  12  13
ENDBRANCH   6  12
ENDBRANCH   5   6
ENDBRANCH   4   5
ENDBRANCH   3   4
ENDBRANCH   2   3
TORSDOF 19
ENDMDL
MODEL      209
REMARK 921   NORMALIZED FREE ENERGY PREDICTED BY IDOCK:   -3.17 KCAL/MOL
REMARK 922        TOTAL FREE ENERGY PREDICTED BY IDOCK:   -7.93 KCAL/MOL
REMARK 923 INTER-LIGAND FREE ENERGY PREDICTED BY IDOCK:   -7.09 KCAL/MOL
REMARK 924 INTRA-LIGAND FREE ENERGY PREDICTED BY IDOCK:   -0.84 KCAL/MOL
REMARK 927      BINDING AFFINITY PREDICTED BY RF-SCORE:    0.00 PKD
ROOT
HETATM    1  C   UNL     1      -6.812  19.668  67.799  1.00  0.00    -0.277 C  
HETATM    2  C   UNL     1      -7.161  20.115  66.394  1.00  0.00    -0.273 C  
ENDROOT
BRANCH   2   3
HETATM    3  O   UNL     1      -7.630  18.998  65.634  1.00  0.00    -0.474 OA 
BRANCH   3   4
HETATM    4  C   UNL     1      -8.639  18.298  66.366  1.00  0.00    -0.242 C  
BRANCH   4   5
HETATM    5  C   UNL     1      -8.498  16.790  66.174  1.00  0.00    -0.263 C  
BRANCH   5   6
HETATM    6  P   UNL     1      -9.928  15.855  66.895  1.00  0.00    -0.266 P  
BRANCH   6   7
HETATM    7  C   UNL     1     -10.968  15.533  65.388  1.00  0.00    -0.357 C  
BRANCH   7   8
HETATM    8  C   UNL     1     -11.999  14.438  65.658  1.00  0.00    -0.354 C  
BRANCH   8   9
HETATM    9  O   UNL     1     -11.556  13.196  65.105  1.00  0.00    -0.304 OA 
BRANCH   9  10
HETATM   10  C   UNL     1     -12.659  12.486  64.537  1.00  0.00    -0.421 C  
HETATM   11  C   UNL     1     -12.246  11.891  63.207  1.00  0.00    -0.487 C  
ENDBRANCH   9  10
ENDBRANCH   8   9
ENDBRANCH   7   8
ENDBRANCH   6   7
BRANCH   6  12
HETATM   12  C   UNL     1      -9.186  14.163  67.075  1.00  0.00    -0.239 C  
BRANCH  12  13
HETATM   13  C   UNL     1      -9.670  13.432  68.319  1.00  0.00    -0.226 C  
BRANCH  13  14
HETATM   14  P   UNL     1      -9.573  11.588  68.159  1.00  0.00    -0.194 P  
BRANCH  14  15
HETATM   15  C   UNL     1     -11.360  11.119  67.977  1.00  0.00    -0.312 C  
BRANCH  15  16
HETATM   16  C   UNL     1     -12.062  11.093  69.337  1.00  0.00    -0.326 C  
BRANCH  16  17
HETATM   17  O   UNL     1     -11.534  10.040  70.149  1.00  0.00    -0.257 OA 
BRANCH  17  18
HETATM   18  C   UNL     1     -12.116  10.084  71.455  1.00  0.00    -0.407 C  
HETATM   19  C   UNL     1     -12.885   8.806  71.715  1.00  0.00    -0.406 C  
ENDBRANCH  17  18
ENDBRANCH  16  17
ENDBRANCH  15  16
ENDBRANCH  14  15
BRANCH  14  20
HETATM   20  C   UNL     1      -9.034  11.466  66.385  1.00  0.00    -0.191 C  
BRANCH  20  21
HETATM   21  C   UNL     1      -9.691  10.291  65.662  1.00  0.00    -0.247 C  
BRANCH  21  22
HETATM   22  O   UNL     1      -8.933   9.104  65.892  1.00  0.00    -0.163 OA 
BRANCH  22  23
HETATM   23  C   UNL     1      -9.747   8.094  66.495  1.00  0.00    -0.239 C  
HETATM   24  C   UNL     1      -9.081   6.745  66.311  1.00  0.00    -0.165 C  
ENDBRANCH  22  23
ENDBRANCH  21  22
ENDBRANCH  20  21
ENDBRANCH  14  20
ENDBRANCH  13  14
ENDBRANCH  12  13
ENDBRANCH   6  12
ENDBRANCH   5   6
ENDBRANCH   4   5
ENDBRANCH   3   4
ENDBRANCH   2   3
TORSDOF 19
ENDMDL
MODEL      210
REMARK 921   NORMALIZED FREE ENERGY PREDICTED BY IDOCK:   -3.16 KCAL/MOL
REMARK 922        TOTAL FREE ENERGY PREDICTED BY IDOCK:   -7.92 KCAL/MOL
REMARK 923 INTER-LIGAND FREE ENERGY PREDICTED BY IDOCK:   -7.07 KCAL/MOL
REMARK 924 INTRA-LIGAND FREE ENERGY PREDICTED BY IDOCK:   -0.85 KCAL/MOL
REMARK 927      BINDING AFFINITY PREDICTED BY RF-SCORE:    0.00 PKD
ROOT
HETATM    1  C   UNL     1     -10.427  19.353  66.294  1.00  0.00    -0.586 C  
HETATM    2  C   UNL     1     -10.042  19.434  67.756  1.00  0.00    -0.401 C  
ENDROOT
BRANCH   2   3
HETATM    3  O   UNL     1     -10.867  18.554  68.523  1.00  0.00     0.019 OA 
BRANCH   3   4
HETATM    4  C   UNL     1     -10.226  17.284  68.667  1.00  0.00    -0.351 C  
BRANCH   4   5
HETATM    5  C   UNL     1     -11.245  16.151  68.570  1.00  0.00    -0.365 C  
BRANCH   5   6
HETATM    6  P   UNL     1     -11.012  15.131  67.039  1.00  0.00    -0.288 P  
BRANCH   6   7
HETATM    7  C   UNL     1      -9.245  14.580  67.216  1.00  0.00    -0.207 C  
BRANCH   7   8
HETATM    8  C   UNL     1      -8.290  15.592  66.584  1.00  0.00    -0.275 C  
BRANCH   8   9
HETATM    9  O   UNL     1      -7.043  15.596  67.284  1.00  0.00    -0.195 OA 
BRANCH   9  10
HETATM   10  C   UNL     1      -6.773  14.300  67.821  1.00  0.00    -0.176 C  
HETATM   11  C   UNL     1      -5.370  14.269  68.390  1.00  0.00    -0.108 C  
ENDBRANCH   9  10
ENDBRANCH   8   9
ENDBRANCH   7   8
ENDBRANCH   6   7
BRANCH   6  12
HETATM   12  C   UNL     1     -11.838  13.546  67.544  1.00  0.00    -0.368 C  
BRANCH  12  13
HETATM   13  C   UNL     1     -11.175  12.889  68.746  1.00  0.00    -0.279 C  
BRANCH  13  14
HETATM   14  P   UNL     1     -12.101  11.407  69.363  1.00  0.00    -0.164 P  
BRANCH  14  15
HETATM   15  C   UNL     1     -10.723  10.233  69.777  1.00  0.00    -0.285 C  
BRANCH  15  16
HETATM   16  C   UNL     1     -10.074   9.679  68.506  1.00  0.00    -0.175 C  
BRANCH  16  17
HETATM   17  O   UNL     1     -10.884   9.975  67.365  1.00  0.00    -0.282 OA 
BRANCH  17  18
HETATM   18  C   UNL     1     -10.080  10.003  66.182  1.00  0.00    -0.247 C  
HETATM   19  C   UNL     1      -8.831  10.822  66.433  1.00  0.00    -0.174 C  
ENDBRANCH  17  18
ENDBRANCH  16  17
ENDBRANCH  15  16
ENDBRANCH  14  15
BRANCH  14  20
HETATM   20  C   UNL     1     -12.526  12.005  71.071  1.00  0.00    -0.276 C  
BRANCH  20  21
HETATM   21  C   UNL     1     -12.653  13.526  71.134  1.00  0.00    -0.355 C  
BRANCH  21  22
HETATM   22  O   UNL     1     -13.178  13.910  72.405  1.00  0.00    -0.429 OA 
BRANCH  22  23
HETATM   23  C   UNL     1     -13.455  15.313  72.434  1.00  0.00    -0.463 C  
HETATM   24  C   UNL     1     -12.379  16.015  73.237  1.00  0.00    -0.644 C  
ENDBRANCH  22  23
ENDBRANCH  21  22
ENDBRANCH  20  21
ENDBRANCH  14  20
ENDBRANCH  13  14
ENDBRANCH  12  13
ENDBRANCH   6  12
ENDBRANCH   5   6
ENDBRANCH   4   5
ENDBRANCH   3   4
ENDBRANCH   2   3
TORSDOF 19
ENDMDL
MODEL      211
REMARK 921   NORMALIZED FREE ENERGY PREDICTED BY IDOCK:   -3.16 KCAL/MOL
REMARK 922        TOTAL FREE ENERGY PREDICTED BY IDOCK:   -7.91 KCAL/MOL
REMARK 923 INTER-LIGAND FREE ENERGY PREDICTED BY IDOCK:   -6.76 KCAL/MOL
REMARK 924 INTRA-LIGAND FREE ENERGY PREDICTED BY IDOCK:   -1.15 KCAL/MOL
REMARK 927      BINDING AFFINITY PREDICTED BY RF-SCORE:    0.00 PKD
ROOT
HETATM    1  C   UNL     1     -11.017  15.393  64.867  1.00  0.00    -0.453 C  
HETATM    2  C   UNL     1     -12.380  14.799  64.578  1.00  0.00    -0.366 C  
ENDROOT
BRANCH   2   3
HETATM    3  O   UNL     1     -12.234  13.606  63.804  1.00  0.00    -0.606 OA 
BRANCH   3   4
HETATM    4  C   UNL     1     -12.379  12.457  64.643  1.00  0.00    -0.441 C  
BRANCH   4   5
HETATM    5  C   UNL     1     -11.051  11.716  64.777  1.00  0.00    -0.264 C  
BRANCH   5   6
HETATM    6  P   UNL     1     -10.336  11.866  66.481  1.00  0.00    -0.232 P  
BRANCH   6   7
HETATM    7  C   UNL     1     -11.829  12.353  67.477  1.00  0.00    -0.284 C  
BRANCH   7   8
HETATM    8  C   UNL     1     -11.634  13.727  68.119  1.00  0.00    -0.335 C  
BRANCH   8   9
HETATM    9  O   UNL     1     -12.253  13.760  69.408  1.00  0.00    -0.334 OA 
BRANCH   9  10
HETATM   10  C   UNL     1     -12.154  12.481  70.037  1.00  0.00    -0.266 C  
HETATM   11  C   UNL     1     -12.607  12.590  71.479  1.00  0.00    -0.253 C  
ENDBRANCH   9  10
ENDBRANCH   8   9
ENDBRANCH   7   8
ENDBRANCH   6   7
BRANCH   6  12
HETATM   12  C   UNL     1     -10.251  10.080  66.984  1.00  0.00    -0.237 C  
BRANCH  12  13
HETATM   13  C   UNL     1     -10.388   9.879  68.486  1.00  0.00    -0.196 C  
BRANCH  13  14
HETATM   14  P   UNL     1      -8.866   9.165  69.264  1.00  0.00    -0.155 P  
BRANCH  14  15
HETATM   15  C   UNL     1      -9.373   9.012  71.043  1.00  0.00    -0.271 C  
BRANCH  15  16
HETATM   16  C   UNL     1      -9.683   7.557  71.402  1.00  0.00    -0.166 C  
BRANCH  16  17
HETATM   17  O   UNL     1     -11.097   7.345  71.447  1.00  0.00    -0.236 OA 
BRANCH  17  18
HETATM   18  C   UNL     1     -11.655   7.976  72.602  1.00  0.00    -0.387 C  
HETATM   19  C   UNL     1     -12.904   8.739  72.213  1.00  0.00    -0.465 C  
ENDBRANCH  17  18
ENDBRANCH  16  17
ENDBRANCH  15  16
ENDBRANCH  14  15
BRANCH  14  20
HETATM   20  C   UNL     1      -9.055   7.395  68.730  1.00  0.00    -0.131 C  
BRANCH  20  21
HETATM   21  C   UNL     1      -7.930   6.950  67.798  1.00  0.00    -0.114 C  
BRANCH  21  22
HETATM   22  O   UNL     1      -8.369   5.843  67.012  1.00  0.00    -0.105 OA 
BRANCH  22  23
HETATM   23  C   UNL     1      -9.743   5.996  66.647  1.00  0.00    -0.157 C  
HETATM   24  C   UNL     1     -10.253   4.689  66.072  1.00  0.00    -0.306 C  
ENDBRANCH  22  23
ENDBRANCH  21  22
ENDBRANCH  20  21
ENDBRANCH  14  20
ENDBRANCH  13  14
ENDBRANCH  12  13
ENDBRANCH   6  12
ENDBRANCH   5   6
ENDBRANCH   4   5
ENDBRANCH   3   4
ENDBRANCH   2   3
TORSDOF 19
ENDMDL
MODEL      212
REMARK 921   NORMALIZED FREE ENERGY PREDICTED BY IDOCK:   -3.15 KCAL/MOL
REMARK 922        TOTAL FREE ENERGY PREDICTED BY IDOCK:   -7.91 KCAL/MOL
REMARK 923 INTER-LIGAND FREE ENERGY PREDICTED BY IDOCK:   -7.36 KCAL/MOL
REMARK 924 INTRA-LIGAND FREE ENERGY PREDICTED BY IDOCK:   -0.55 KCAL/MOL
REMARK 927      BINDING AFFINITY PREDICTED BY RF-SCORE:    0.00 PKD
ROOT
HETATM    1  C   UNL     1      -7.428   7.230  70.998  1.00  0.00    -0.075 C  
HETATM    2  C   UNL     1      -7.728   7.964  69.707  1.00  0.00    -0.099 C  
ENDROOT
BRANCH   2   3
HETATM    3  O   UNL     1      -7.773   9.373  69.952  1.00  0.00    -0.085 OA 
BRANCH   3   4
HETATM    4  C   UNL     1      -8.974   9.926  69.406  1.00  0.00    -0.195 C  
BRANCH   4   5
HETATM    5  C   UNL     1     -10.121   9.821  70.409  1.00  0.00    -0.252 C  
BRANCH   5   6
HETATM    6  P   UNL     1     -11.700  10.526  69.741  1.00  0.00    -0.247 P  
BRANCH   6   7
HETATM    7  C   UNL     1     -12.569  11.050  71.299  1.00  0.00    -0.412 C  
BRANCH   7   8
HETATM    8  C   UNL     1     -12.676  12.572  71.382  1.00  0.00    -0.243 C  
BRANCH   8   9
HETATM    9  O   UNL     1     -13.649  12.945  72.361  1.00  0.00    -0.579 OA 
BRANCH   9  10
HETATM   10  C   UNL     1     -14.115  14.273  72.115  1.00  0.00    -0.540 C  
HETATM   11  C   UNL     1     -13.047  15.056  71.379  1.00  0.00    -0.464 C  
ENDBRANCH   9  10
ENDBRANCH   8   9
ENDBRANCH   7   8
ENDBRANCH   6   7
BRANCH   6  12
HETATM   12  C   UNL     1     -11.127  12.201  69.179  1.00  0.00    -0.205 C  
BRANCH  12  13
HETATM   13  C   UNL     1     -11.783  12.649  67.882  1.00  0.00    -0.358 C  
BRANCH  13  14
HETATM   14  P   UNL     1     -11.425  14.417  67.461  1.00  0.00    -0.379 P  
BRANCH  14  15
HETATM   15  C   UNL     1      -9.576  14.488  67.619  1.00  0.00    -0.214 C  
BRANCH  15  16
HETATM   16  C   UNL     1      -9.068  15.925  67.481  1.00  0.00    -0.199 C  
BRANCH  16  17
HETATM   17  O   UNL     1      -9.849  16.808  68.292  1.00  0.00    -0.241 OA 
BRANCH  17  18
HETATM   18  C   UNL     1     -10.277  17.935  67.524  1.00  0.00    -0.363 C  
HETATM   19  C   UNL     1      -9.240  19.036  67.610  1.00  0.00    -0.333 C  
ENDBRANCH  17  18
ENDBRANCH  16  17
ENDBRANCH  15  16
ENDBRANCH  14  15
BRANCH  14  20
HETATM   20  C   UNL     1     -11.579  14.325  65.611  1.00  0.00    -0.346 C  
BRANCH  20  21
HETATM   21  C   UNL     1     -10.268  13.914  64.943  1.00  0.00    -0.351 C  
BRANCH  21  22
HETATM   22  O   UNL     1     -10.508  12.826  64.050  1.00  0.00    -0.406 OA 
BRANCH  22  23
HETATM   23  C   UNL     1     -11.614  12.039  64.497  1.00  0.00    -0.317 C  
HETATM   24  C   UNL     1     -12.573  11.828  63.342  1.00  0.00    -0.458 C  
ENDBRANCH  22  23
ENDBRANCH  21  22
ENDBRANCH  20  21
ENDBRANCH  14  20
ENDBRANCH  13  14
ENDBRANCH  12  13
ENDBRANCH   6  12
ENDBRANCH   5   6
ENDBRANCH   4   5
ENDBRANCH   3   4
ENDBRANCH   2   3
TORSDOF 19
ENDMDL
MODEL      213
REMARK 921   NORMALIZED FREE ENERGY PREDICTED BY IDOCK:   -3.15 KCAL/MOL
REMARK 922        TOTAL FREE ENERGY PREDICTED BY IDOCK:   -7.91 KCAL/MOL
REMARK 923 INTER-LIGAND FREE ENERGY PREDICTED BY IDOCK:   -6.82 KCAL/MOL
REMARK 924 INTRA-LIGAND FREE ENERGY PREDICTED BY IDOCK:   -1.09 KCAL/MOL
REMARK 927      BINDING AFFINITY PREDICTED BY RF-SCORE:    0.00 PKD
ROOT
HETATM    1  C   UNL     1      -7.898  19.302  68.077  1.00  0.00    -0.333 C  
HETATM    2  C   UNL     1      -6.853  19.533  69.150  1.00  0.00    -0.346 C  
ENDROOT
BRANCH   2   3
HETATM    3  O   UNL     1      -6.231  18.293  69.494  1.00  0.00    -0.252 OA 
BRANCH   3   4
HETATM    4  C   UNL     1      -6.452  17.331  68.458  1.00  0.00    -0.170 C  
BRANCH   4   5
HETATM    5  C   UNL     1      -6.557  15.924  69.041  1.00  0.00    -0.142 C  
BRANCH   5   6
HETATM    6  P   UNL     1      -6.677  14.628  67.721  1.00  0.00    -0.140 P  
BRANCH   6   7
HETATM    7  C   UNL     1      -5.561  13.301  68.391  1.00  0.00    -0.085 C  
BRANCH   7   8
HETATM    8  C   UNL     1      -5.942  11.930  67.833  1.00  0.00    -0.054 C  
BRANCH   8   9
HETATM    9  O   UNL     1      -5.562  11.835  66.458  1.00  0.00    -0.253 OA 
BRANCH   9  10
HETATM   10  C   UNL     1      -6.195  10.709  65.846  1.00  0.00    -0.134 C  
HETATM   11  C   UNL     1      -7.656  10.671  66.245  1.00  0.00    -0.137 C  
ENDBRANCH   9  10
ENDBRANCH   8   9
ENDBRANCH   7   8
ENDBRANCH   6   7
BRANCH   6  12
HETATM   12  C   UNL     1      -8.307  13.845  68.145  1.00  0.00    -0.163 C  
BRANCH  12  13
HETATM   13  C   UNL     1      -9.270  13.805  66.968  1.00  0.00    -0.251 C  
BRANCH  13  14
HETATM   14  P   UNL     1     -10.683  14.990  67.147  1.00  0.00    -0.313 P  
BRANCH  14  15
HETATM   15  C   UNL     1     -11.230  15.213  65.387  1.00  0.00    -0.338 C  
BRANCH  15  16
HETATM   16  C   UNL     1     -11.063  13.915  64.593  1.00  0.00    -0.385 C  
BRANCH  16  17
HETATM   17  O   UNL     1     -12.338  13.314  64.347  1.00  0.00    -0.483 OA 
BRANCH  17  18
HETATM   18  C   UNL     1     -12.189  12.161  63.515  1.00  0.00    -0.567 C  
HETATM   19  C   UNL     1     -10.803  11.577  63.695  1.00  0.00    -0.488 C  
ENDBRANCH  17  18
ENDBRANCH  16  17
ENDBRANCH  15  16
ENDBRANCH  14  15
BRANCH  14  20
HETATM   20  C   UNL     1     -11.994  13.811  67.736  1.00  0.00    -0.356 C  
BRANCH  20  21
HETATM   21  C   UNL     1     -11.887  13.530  69.233  1.00  0.00    -0.341 C  
BRANCH  21  22
HETATM   22  O   UNL     1     -11.621  12.143  69.441  1.00  0.00    -0.282 OA 
BRANCH  22  23
HETATM   23  C   UNL     1     -12.271  11.676  70.627  1.00  0.00    -0.366 C  
HETATM   24  C   UNL     1     -11.975  10.201  70.806  1.00  0.00    -0.442 C  
ENDBRANCH  22  23
ENDBRANCH  21  22
ENDBRANCH  20  21
ENDBRANCH  14  20
ENDBRANCH  13  14
ENDBRANCH  12  13
ENDBRANCH   6  12
ENDBRANCH   5   6
ENDBRANCH   4   5
ENDBRANCH   3   4
ENDBRANCH   2   3
TORSDOF 19
ENDMDL
MODEL      214
REMARK 921   NORMALIZED FREE ENERGY PREDICTED BY IDOCK:   -3.15 KCAL/MOL
REMARK 922        TOTAL FREE ENERGY PREDICTED BY IDOCK:   -7.89 KCAL/MOL
REMARK 923 INTER-LIGAND FREE ENERGY PREDICTED BY IDOCK:   -6.62 KCAL/MOL
REMARK 924 INTRA-LIGAND FREE ENERGY PREDICTED BY IDOCK:   -1.28 KCAL/MOL
REMARK 927      BINDING AFFINITY PREDICTED BY RF-SCORE:    0.00 PKD
ROOT
HETATM    1  C   UNL     1      -8.732   5.548  72.180  1.00  0.00    -0.130 C  
HETATM    2  C   UNL     1      -8.567   4.716  70.925  1.00  0.00    -0.105 C  
ENDROOT
BRANCH   2   3
HETATM    3  O   UNL     1      -7.588   5.316  70.073  1.00  0.00    -0.066 OA 
BRANCH   3   4
HETATM    4  C   UNL     1      -8.043   6.599  69.633  1.00  0.00    -0.126 C  
BRANCH   4   5
HETATM    5  C   UNL     1      -8.759   6.485  68.290  1.00  0.00    -0.117 C  
BRANCH   5   6
HETATM    6  P   UNL     1     -10.176   7.674  68.150  1.00  0.00    -0.189 P  
BRANCH   6   7
HETATM    7  C   UNL     1     -10.202   8.432  69.848  1.00  0.00    -0.201 C  
BRANCH   7   8
HETATM    8  C   UNL     1     -11.273   7.780  70.722  1.00  0.00    -0.271 C  
BRANCH   8   9
HETATM    9  O   UNL     1     -12.240   8.754  71.124  1.00  0.00    -0.291 OA 
BRANCH   9  10
HETATM   10  C   UNL     1     -11.705  10.071  70.981  1.00  0.00    -0.392 C  
HETATM   11  C   UNL     1     -12.784  11.091  71.282  1.00  0.00    -0.537 C  
ENDBRANCH   9  10
ENDBRANCH   8   9
ENDBRANCH   7   8
ENDBRANCH   6   7
BRANCH   6  12
HETATM   12  C   UNL     1      -9.366   9.078  67.243  1.00  0.00    -0.139 C  
BRANCH  12  13
HETATM   13  C   UNL     1     -10.107   9.469  65.973  1.00  0.00    -0.249 C  
BRANCH  13  14
HETATM   14  P   UNL     1      -9.625  11.142  65.339  1.00  0.00    -0.243 P  
BRANCH  14  15
HETATM   15  C   UNL     1     -11.274  11.971  65.138  1.00  0.00    -0.315 C  
BRANCH  15  16
HETATM   16  C   UNL     1     -11.493  12.413  63.689  1.00  0.00    -0.489 C  
BRANCH  16  17
HETATM   17  O   UNL     1     -12.337  13.568  63.643  1.00  0.00    -0.687 OA 
BRANCH  17  18
HETATM   18  C   UNL     1     -12.199  14.329  64.846  1.00  0.00    -0.440 C  
HETATM   19  C   UNL     1     -11.323  15.537  64.587  1.00  0.00    -0.363 C  
ENDBRANCH  17  18
ENDBRANCH  16  17
ENDBRANCH  15  16
ENDBRANCH  14  15
BRANCH  14  20
HETATM   20  C   UNL     1      -9.074  11.923  66.933  1.00  0.00    -0.196 C  
BRANCH  20  21
HETATM   21  C   UNL     1      -9.068  13.448  66.857  1.00  0.00    -0.231 C  
BRANCH  21  22
HETATM   22  O   UNL     1      -9.573  13.990  68.078  1.00  0.00    -0.204 OA 
BRANCH  22  23
HETATM   23  C   UNL     1     -10.582  13.139  68.629  1.00  0.00    -0.239 C  
HETATM   24  C   UNL     1     -11.922  13.843  68.550  1.00  0.00    -0.394 C  
ENDBRANCH  22  23
ENDBRANCH  21  22
ENDBRANCH  20  21
ENDBRANCH  14  20
ENDBRANCH  13  14
ENDBRANCH  12  13
ENDBRANCH   6  12
ENDBRANCH   5   6
ENDBRANCH   4   5
ENDBRANCH   3   4
ENDBRANCH   2   3
TORSDOF 19
ENDMDL
MODEL      215
REMARK 921   NORMALIZED FREE ENERGY PREDICTED BY IDOCK:   -3.15 KCAL/MOL
REMARK 922        TOTAL FREE ENERGY PREDICTED BY IDOCK:   -7.89 KCAL/MOL
REMARK 923 INTER-LIGAND FREE ENERGY PREDICTED BY IDOCK:   -6.87 KCAL/MOL
REMARK 924 INTRA-LIGAND FREE ENERGY PREDICTED BY IDOCK:   -1.02 KCAL/MOL
REMARK 927      BINDING AFFINITY PREDICTED BY RF-SCORE:    0.00 PKD
ROOT
HETATM    1  C   UNL     1     -11.707  13.926  64.363  1.00  0.00    -0.427 C  
HETATM    2  C   UNL     1     -12.194  12.914  63.347  1.00  0.00    -0.490 C  
ENDROOT
BRANCH   2   3
HETATM    3  O   UNL     1     -11.380  11.740  63.407  1.00  0.00    -0.402 OA 
BRANCH   3   4
HETATM    4  C   UNL     1     -10.359  11.902  64.395  1.00  0.00    -0.299 C  
BRANCH   4   5
HETATM    5  C   UNL     1     -10.132  10.599  65.157  1.00  0.00    -0.307 C  
BRANCH   5   6
HETATM    6  P   UNL     1      -9.965  10.876  66.983  1.00  0.00    -0.205 P  
BRANCH   6   7
HETATM    7  C   UNL     1     -11.457  11.924  67.345  1.00  0.00    -0.323 C  
BRANCH   7   8
HETATM    8  C   UNL     1     -11.172  12.912  68.475  1.00  0.00    -0.274 C  
BRANCH   8   9
HETATM    9  O   UNL     1     -12.157  13.948  68.484  1.00  0.00    -0.362 OA 
BRANCH   9  10
HETATM   10  C   UNL     1     -12.179  14.600  69.756  1.00  0.00    -0.302 C  
HETATM   11  C   UNL     1     -12.431  13.577  70.845  1.00  0.00    -0.448 C  
ENDBRANCH   9  10
ENDBRANCH   8   9
ENDBRANCH   7   8
ENDBRANCH   6   7
BRANCH   6  12
HETATM   12  C   UNL     1     -10.604   9.263  67.643  1.00  0.00    -0.261 C  
BRANCH  12  13
HETATM   13  C   UNL     1     -10.185   8.068  66.799  1.00  0.00    -0.297 C  
BRANCH  13  14
HETATM   14  P   UNL     1     -10.815   6.456  67.461  1.00  0.00    -0.324 P  
BRANCH  14  15
HETATM   15  C   UNL     1      -9.570   5.250  66.797  1.00  0.00    -0.148 C  
BRANCH  15  16
HETATM   16  C   UNL     1      -8.577   5.946  65.863  1.00  0.00    -0.145 C  
BRANCH  16  17
HETATM   17  O   UNL     1      -7.950   4.990  65.002  1.00  0.00    -0.094 OA 
BRANCH  17  18
HETATM   18  C   UNL     1      -8.743   4.786  63.830  1.00  0.00    -0.132 C  
HETATM   19  C   UNL     1      -8.770   3.312  63.483  1.00  0.00    -0.089 C  
ENDBRANCH  17  18
ENDBRANCH  16  17
ENDBRANCH  15  16
ENDBRANCH  14  15
BRANCH  14  20
HETATM   20  C   UNL     1     -10.215   6.594  69.215  1.00  0.00    -0.183 C  
BRANCH  20  21
HETATM   21  C   UNL     1     -11.315   6.285  70.227  1.00  0.00    -0.388 C  
BRANCH  21  22
HETATM   22  O   UNL     1     -11.988   7.491  70.586  1.00  0.00    -0.241 OA 
BRANCH  22  23
HETATM   23  C   UNL     1     -11.084   8.408  71.210  1.00  0.00    -0.255 C  
HETATM   24  C   UNL     1     -11.747   9.767  71.311  1.00  0.00    -0.472 C  
ENDBRANCH  22  23
ENDBRANCH  21  22
ENDBRANCH  20  21
ENDBRANCH  14  20
ENDBRANCH  13  14
ENDBRANCH  12  13
ENDBRANCH   6  12
ENDBRANCH   5   6
ENDBRANCH   4   5
ENDBRANCH   3   4
ENDBRANCH   2   3
TORSDOF 19
ENDMDL
MODEL      216
REMARK 921   NORMALIZED FREE ENERGY PREDICTED BY IDOCK:   -3.13 KCAL/MOL
REMARK 922        TOTAL FREE ENERGY PREDICTED BY IDOCK:   -7.86 KCAL/MOL
REMARK 923 INTER-LIGAND FREE ENERGY PREDICTED BY IDOCK:   -6.74 KCAL/MOL
REMARK 924 INTRA-LIGAND FREE ENERGY PREDICTED BY IDOCK:   -1.12 KCAL/MOL
REMARK 927      BINDING AFFINITY PREDICTED BY RF-SCORE:    0.00 PKD
ROOT
HETATM    1  C   UNL     1     -14.174  14.834  71.905  1.00  0.00    -0.632 C  
HETATM    2  C   UNL     1     -12.768  14.285  71.779  1.00  0.00    -0.347 C  
ENDROOT
BRANCH   2   3
HETATM    3  O   UNL     1     -12.820  12.912  71.382  1.00  0.00    -0.367 OA 
BRANCH   3   4
HETATM    4  C   UNL     1     -12.015  12.708  70.218  1.00  0.00    -0.284 C  
BRANCH   4   5
HETATM    5  C   UNL     1     -12.011  11.235  69.815  1.00  0.00    -0.360 C  
BRANCH   5   6
HETATM    6  P   UNL     1     -10.332  10.663  69.275  1.00  0.00    -0.168 P  
BRANCH   6   7
HETATM    7  C   UNL     1     -10.209   9.008  70.113  1.00  0.00    -0.197 C  
BRANCH   7   8
HETATM    8  C   UNL     1     -10.437   7.871  69.117  1.00  0.00    -0.209 C  
BRANCH   8   9
HETATM    9  O   UNL     1     -11.271   6.866  69.699  1.00  0.00    -0.273 OA 
BRANCH   9  10
HETATM   10  C   UNL     1     -10.473   5.878  70.353  1.00  0.00    -0.259 C  
HETATM   11  C   UNL     1     -10.864   5.796  71.814  1.00  0.00    -0.311 C  
ENDBRANCH   9  10
ENDBRANCH   8   9
ENDBRANCH   7   8
ENDBRANCH   6   7
BRANCH   6  12
HETATM   12  C   UNL     1     -10.702  10.065  67.556  1.00  0.00    -0.281 C  
BRANCH  12  13
HETATM   13  C   UNL     1     -10.217  11.023  66.477  1.00  0.00    -0.234 C  
BRANCH  13  14
HETATM   14  P   UNL     1      -9.769  10.168  64.896  1.00  0.00    -0.256 P  
BRANCH  14  15
HETATM   15  C   UNL     1     -10.263  11.423  63.621  1.00  0.00    -0.397 C  
BRANCH  15  16
HETATM   16  C   UNL     1     -10.599  12.766  64.275  1.00  0.00    -0.400 C  
BRANCH  16  17
HETATM   17  O   UNL     1     -11.919  13.181  63.911  1.00  0.00    -0.428 OA 
BRANCH  17  18
HETATM   18  C   UNL     1     -12.332  14.283  64.723  1.00  0.00    -0.426 C  
HETATM   19  C   UNL     1     -12.527  13.821  66.152  1.00  0.00    -0.466 C  
ENDBRANCH  17  18
ENDBRANCH  16  17
ENDBRANCH  15  16
ENDBRANCH  14  15
BRANCH  14  20
HETATM   20  C   UNL     1      -7.931  10.444  64.913  1.00  0.00    -0.115 C  
BRANCH  20  21
HETATM   21  C   UNL     1      -7.279   9.906  66.185  1.00  0.00    -0.104 C  
BRANCH  21  22
HETATM   22  O   UNL     1      -6.720  10.987  66.930  1.00  0.00    -0.101 OA 
BRANCH  22  23
HETATM   23  C   UNL     1      -6.616  10.647  68.315  1.00  0.00    -0.062 C  
HETATM   24  C   UNL     1      -6.790   9.150  68.473  1.00  0.00    -0.063 C  
ENDBRANCH  22  23
ENDBRANCH  21  22
ENDBRANCH  20  21
ENDBRANCH  14  20
ENDBRANCH  13  14
ENDBRANCH  12  13
ENDBRANCH   6  12
ENDBRANCH   5   6
ENDBRANCH   4   5
ENDBRANCH   3   4
ENDBRANCH   2   3
TORSDOF 19
ENDMDL
MODEL      217
REMARK 921   NORMALIZED FREE ENERGY PREDICTED BY IDOCK:   -3.13 KCAL/MOL
REMARK 922        TOTAL FREE ENERGY PREDICTED BY IDOCK:   -7.86 KCAL/MOL
REMARK 923 INTER-LIGAND FREE ENERGY PREDICTED BY IDOCK:   -6.54 KCAL/MOL
REMARK 924 INTRA-LIGAND FREE ENERGY PREDICTED BY IDOCK:   -1.32 KCAL/MOL
REMARK 927      BINDING AFFINITY PREDICTED BY RF-SCORE:    0.00 PKD
ROOT
HETATM    1  C   UNL     1      -9.325  14.070  68.205  1.00  0.00    -0.208 C  
HETATM    2  C   UNL     1     -10.638  14.413  67.533  1.00  0.00    -0.265 C  
ENDROOT
BRANCH   2   3
HETATM    3  O   UNL     1     -11.676  13.571  68.041  1.00  0.00    -0.318 OA 
BRANCH   3   4
HETATM    4  C   UNL     1     -11.811  12.410  67.217  1.00  0.00    -0.287 C  
BRANCH   4   5
HETATM    5  C   UNL     1     -11.417  11.152  67.986  1.00  0.00    -0.293 C  
BRANCH   5   6
HETATM    6  P   UNL     1     -10.387   9.999  66.962  1.00  0.00    -0.219 P  
BRANCH   6   7
HETATM    7  C   UNL     1      -9.703  11.149  65.671  1.00  0.00    -0.225 C  
BRANCH   7   8
HETATM    8  C   UNL     1      -9.883  10.567  64.269  1.00  0.00    -0.338 C  
BRANCH   8   9
HETATM    9  O   UNL     1      -9.996  11.621  63.309  1.00  0.00    -0.379 OA 
BRANCH   9  10
HETATM   10  C   UNL     1     -10.499  12.805  63.931  1.00  0.00    -0.372 C  
HETATM   11  C   UNL     1     -11.935  13.031  63.504  1.00  0.00    -0.615 C  
ENDBRANCH   9  10
ENDBRANCH   8   9
ENDBRANCH   7   8
ENDBRANCH   6   7
BRANCH   6  12
HETATM   12  C   UNL     1      -8.868   9.852  68.020  1.00  0.00    -0.125 C  
BRANCH  12  13
HETATM   13  C   UNL     1      -9.098  10.304  69.455  1.00  0.00    -0.187 C  
BRANCH  13  14
HETATM   14  P   UNL     1      -9.211   8.892  70.649  1.00  0.00    -0.253 P  
BRANCH  14  15
HETATM   15  C   UNL     1     -11.043   8.602  70.736  1.00  0.00    -0.255 C  
BRANCH  15  16
HETATM   16  C   UNL     1     -11.438   7.987  72.081  1.00  0.00    -0.335 C  
BRANCH  16  17
HETATM   17  O   UNL     1     -10.293   7.873  72.931  1.00  0.00    -0.299 OA 
BRANCH  17  18
HETATM   18  C   UNL     1     -10.479   6.811  73.870  1.00  0.00    -0.327 C  
HETATM   19  C   UNL     1     -10.979   5.575  73.151  1.00  0.00    -0.340 C  
ENDBRANCH  17  18
ENDBRANCH  16  17
ENDBRANCH  15  16
ENDBRANCH  14  15
BRANCH  14  20
HETATM   20  C   UNL     1      -8.726   7.499  69.518  1.00  0.00    -0.137 C  
BRANCH  20  21
HETATM   21  C   UNL     1      -8.826   6.137  70.204  1.00  0.00    -0.144 C  
BRANCH  21  22
HETATM   22  O   UNL     1      -9.928   5.409  69.663  1.00  0.00    -0.185 OA 
BRANCH  22  23
HETATM   23  C   UNL     1      -9.543   4.068  69.350  1.00  0.00    -0.187 C  
HETATM   24  C   UNL     1      -9.486   3.256  70.629  1.00  0.00    -0.240 C  
ENDBRANCH  22  23
ENDBRANCH  21  22
ENDBRANCH  20  21
ENDBRANCH  14  20
ENDBRANCH  13  14
ENDBRANCH  12  13
ENDBRANCH   6  12
ENDBRANCH   5   6
ENDBRANCH   4   5
ENDBRANCH   3   4
ENDBRANCH   2   3
TORSDOF 19
ENDMDL
MODEL      218
REMARK 921   NORMALIZED FREE ENERGY PREDICTED BY IDOCK:   -3.13 KCAL/MOL
REMARK 922        TOTAL FREE ENERGY PREDICTED BY IDOCK:   -7.86 KCAL/MOL
REMARK 923 INTER-LIGAND FREE ENERGY PREDICTED BY IDOCK:   -6.64 KCAL/MOL
REMARK 924 INTRA-LIGAND FREE ENERGY PREDICTED BY IDOCK:   -1.22 KCAL/MOL
REMARK 927      BINDING AFFINITY PREDICTED BY RF-SCORE:    0.00 PKD
ROOT
HETATM    1  C   UNL     1     -12.654  12.312  63.599  1.00  0.00    -0.599 C  
HETATM    2  C   UNL     1     -11.186  12.041  63.342  1.00  0.00    -0.398 C  
ENDROOT
BRANCH   2   3
HETATM    3  O   UNL     1     -10.645  11.260  64.411  1.00  0.00    -0.316 OA 
BRANCH   3   4
HETATM    4  C   UNL     1     -10.267  12.111  65.496  1.00  0.00    -0.265 C  
BRANCH   4   5
HETATM    5  C   UNL     1     -10.778  11.552  66.822  1.00  0.00    -0.270 C  
BRANCH   5   6
HETATM    6  P   UNL     1     -10.684  12.801  68.189  1.00  0.00    -0.242 P  
BRANCH   6   7
HETATM    7  C   UNL     1     -11.949  14.052  67.647  1.00  0.00    -0.368 C  
BRANCH   7   8
HETATM    8  C   UNL     1     -11.320  15.436  67.494  1.00  0.00    -0.269 C  
BRANCH   8   9
HETATM    9  O   UNL     1      -9.906  15.318  67.314  1.00  0.00    -0.219 OA 
BRANCH   9  10
HETATM   10  C   UNL     1      -9.517  15.887  66.062  1.00  0.00    -0.354 C  
HETATM   11  C   UNL     1     -10.741  16.077  65.190  1.00  0.00    -0.429 C  
ENDBRANCH   9  10
ENDBRANCH   8   9
ENDBRANCH   7   8
ENDBRANCH   6   7
BRANCH   6  12
HETATM   12  C   UNL     1     -11.688  11.958  69.505  1.00  0.00    -0.345 C  
BRANCH  12  13
HETATM   13  C   UNL     1     -11.642  10.441  69.405  1.00  0.00    -0.202 C  
BRANCH  13  14
HETATM   14  P   UNL     1     -11.088   9.628  70.976  1.00  0.00    -0.345 P  
BRANCH  14  15
HETATM   15  C   UNL     1     -12.519   8.509  71.359  1.00  0.00    -0.297 C  
BRANCH  15  16
HETATM   16  C   UNL     1     -12.139   7.041  71.147  1.00  0.00    -0.369 C  
BRANCH  16  17
HETATM   17  O   UNL     1     -12.423   6.279  72.324  1.00  0.00    -0.239 OA 
BRANCH  17  18
HETATM   18  C   UNL     1     -11.360   5.360  72.586  1.00  0.00    -0.266 C  
HETATM   19  C   UNL     1     -10.176   6.102  73.171  1.00  0.00    -0.213 C  
ENDBRANCH  17  18
ENDBRANCH  16  17
ENDBRANCH  15  16
ENDBRANCH  14  15
BRANCH  14  20
HETATM   20  C   UNL     1      -9.899   8.386  70.270  1.00  0.00    -0.181 C  
BRANCH  20  21
HETATM   21  C   UNL     1      -9.603   8.644  68.794  1.00  0.00    -0.156 C  
BRANCH  21  22
HETATM   22  O   UNL     1      -8.193   8.769  68.604  1.00  0.00    -0.114 OA 
BRANCH  22  23
HETATM   23  C   UNL     1      -7.792  10.140  68.681  1.00  0.00    -0.097 C  
HETATM   24  C   UNL     1      -7.155  10.545  67.367  1.00  0.00    -0.090 C  
ENDBRANCH  22  23
ENDBRANCH  21  22
ENDBRANCH  20  21
ENDBRANCH  14  20
ENDBRANCH  13  14
ENDBRANCH  12  13
ENDBRANCH   6  12
ENDBRANCH   5   6
ENDBRANCH   4   5
ENDBRANCH   3   4
ENDBRANCH   2   3
TORSDOF 19
ENDMDL
MODEL      219
REMARK 921   NORMALIZED FREE ENERGY PREDICTED BY IDOCK:   -3.13 KCAL/MOL
REMARK 922        TOTAL FREE ENERGY PREDICTED BY IDOCK:   -7.85 KCAL/MOL
REMARK 923 INTER-LIGAND FREE ENERGY PREDICTED BY IDOCK:   -6.71 KCAL/MOL
REMARK 924 INTRA-LIGAND FREE ENERGY PREDICTED BY IDOCK:   -1.14 KCAL/MOL
REMARK 927      BINDING AFFINITY PREDICTED BY RF-SCORE:    0.00 PKD
ROOT
HETATM    1  C   UNL     1     -14.223   7.666  71.686  1.00  0.00    -0.578 C  
HETATM    2  C   UNL     1     -13.873   9.131  71.843  1.00  0.00    -0.395 C  
ENDROOT
BRANCH   2   3
HETATM    3  O   UNL     1     -12.467   9.271  72.063  1.00  0.00    -0.365 OA 
BRANCH   3   4
HETATM    4  C   UNL     1     -11.946  10.323  71.246  1.00  0.00    -0.363 C  
BRANCH   4   5
HETATM    5  C   UNL     1     -11.348   9.762  69.959  1.00  0.00    -0.220 C  
BRANCH   5   6
HETATM    6  P   UNL     1      -9.519   9.488  70.099  1.00  0.00    -0.235 P  
BRANCH   6   7
HETATM    7  C   UNL     1      -9.361   7.713  69.566  1.00  0.00    -0.153 C  
BRANCH   7   8
HETATM    8  C   UNL     1      -8.794   6.851  70.693  1.00  0.00    -0.150 C  
BRANCH   8   9
HETATM    9  O   UNL     1      -8.376   5.583  70.181  1.00  0.00    -0.112 OA 
BRANCH   9  10
HETATM   10  C   UNL     1      -9.514   4.776  69.872  1.00  0.00    -0.161 C  
HETATM   11  C   UNL     1      -9.879   3.933  71.076  1.00  0.00    -0.219 C  
ENDBRANCH   9  10
ENDBRANCH   8   9
ENDBRANCH   7   8
ENDBRANCH   6   7
BRANCH   6  12
HETATM   12  C   UNL     1      -8.924  10.290  68.533  1.00  0.00    -0.134 C  
BRANCH  12  13
HETATM   13  C   UNL     1      -9.290  11.764  68.446  1.00  0.00    -0.185 C  
BRANCH  13  14
HETATM   14  P   UNL     1     -10.072  12.222  66.829  1.00  0.00    -0.215 P  
BRANCH  14  15
HETATM   15  C   UNL     1     -10.581  10.567  66.161  1.00  0.00    -0.112 C  
BRANCH  15  16
HETATM   16  C   UNL     1      -9.973  10.323  64.778  1.00  0.00    -0.321 C  
BRANCH  16  17
HETATM   17  O   UNL     1      -8.550  10.211  64.872  1.00  0.00    -0.158 OA 
BRANCH  17  18
HETATM   18  C   UNL     1      -7.975  10.102  63.567  1.00  0.00    -0.161 C  
HETATM   19  C   UNL     1      -8.801  10.899  62.578  1.00  0.00    -0.352 C  
ENDBRANCH  17  18
ENDBRANCH  16  17
ENDBRANCH  15  16
ENDBRANCH  14  15
BRANCH  14  20
HETATM   20  C   UNL     1     -11.715  12.830  67.449  1.00  0.00    -0.366 C  
BRANCH  20  21
HETATM   21  C   UNL     1     -12.258  13.983  66.608  1.00  0.00    -0.428 C  
BRANCH  21  22
HETATM   22  O   UNL     1     -11.353  14.265  65.542  1.00  0.00    -0.312 OA 
BRANCH  22  23
HETATM   23  C   UNL     1     -12.061  14.460  64.315  1.00  0.00    -0.436 C  
HETATM   24  C   UNL     1     -12.158  13.136  63.582  1.00  0.00    -0.583 C  
ENDBRANCH  22  23
ENDBRANCH  21  22
ENDBRANCH  20  21
ENDBRANCH  14  20
ENDBRANCH  13  14
ENDBRANCH  12  13
ENDBRANCH   6  12
ENDBRANCH   5   6
ENDBRANCH   4   5
ENDBRANCH   3   4
ENDBRANCH   2   3
TORSDOF 19
ENDMDL
MODEL      220
REMARK 921   NORMALIZED FREE ENERGY PREDICTED BY IDOCK:   -3.13 KCAL/MOL
REMARK 922        TOTAL FREE ENERGY PREDICTED BY IDOCK:   -7.85 KCAL/MOL
REMARK 923 INTER-LIGAND FREE ENERGY PREDICTED BY IDOCK:   -6.86 KCAL/MOL
REMARK 924 INTRA-LIGAND FREE ENERGY PREDICTED BY IDOCK:   -0.98 KCAL/MOL
REMARK 927      BINDING AFFINITY PREDICTED BY RF-SCORE:    0.00 PKD
ROOT
HETATM    1  C   UNL     1     -12.361  12.579  64.644  1.00  0.00    -0.547 C  
HETATM    2  C   UNL     1     -13.012  13.764  65.326  1.00  0.00    -0.278 C  
ENDROOT
BRANCH   2   3
HETATM    3  O   UNL     1     -12.014  14.559  65.971  1.00  0.00    -0.370 OA 
BRANCH   3   4
HETATM    4  C   UNL     1     -10.754  14.390  65.314  1.00  0.00    -0.375 C  
BRANCH   4   5
HETATM    5  C   UNL     1      -9.614  14.382  66.329  1.00  0.00    -0.298 C  
BRANCH   5   6
HETATM    6  P   UNL     1      -9.282  12.684  66.995  1.00  0.00    -0.218 P  
BRANCH   6   7
HETATM    7  C   UNL     1      -7.605  12.902  67.769  1.00  0.00    -0.141 C  
BRANCH   7   8
HETATM    8  C   UNL     1      -7.280  14.382  67.963  1.00  0.00    -0.141 C  
BRANCH   8   9
HETATM    9  O   UNL     1      -5.972  14.669  67.459  1.00  0.00    -0.333 OA 
BRANCH   9  10
HETATM   10  C   UNL     1      -5.662  16.051  67.645  1.00  0.00    -0.146 C  
HETATM   11  C   UNL     1      -6.509  16.891  66.711  1.00  0.00    -0.247 C  
ENDBRANCH   9  10
ENDBRANCH   8   9
ENDBRANCH   7   8
ENDBRANCH   6   7
BRANCH   6  12
HETATM   12  C   UNL     1     -10.299  12.711  68.548  1.00  0.00    -0.221 C  
BRANCH  12  13
HETATM   13  C   UNL     1     -11.011  11.393  68.815  1.00  0.00    -0.223 C  
BRANCH  13  14
HETATM   14  P   UNL     1      -9.854  10.029  69.299  1.00  0.00    -0.237 P  
BRANCH  14  15
HETATM   15  C   UNL     1     -10.712   9.298  70.775  1.00  0.00    -0.284 C  
BRANCH  15  16
HETATM   16  C   UNL     1     -12.115   9.886  70.941  1.00  0.00    -0.341 C  
BRANCH  16  17
HETATM   17  O   UNL     1     -12.731   9.376  72.127  1.00  0.00    -0.384 OA 
BRANCH  17  18
HETATM   18  C   UNL     1     -14.019   8.834  71.821  1.00  0.00    -0.418 C  
HETATM   19  C   UNL     1     -13.924   7.327  71.702  1.00  0.00    -0.488 C  
ENDBRANCH  17  18
ENDBRANCH  16  17
ENDBRANCH  15  16
ENDBRANCH  14  15
BRANCH  14  20
HETATM   20  C   UNL     1     -10.316   8.770  68.012  1.00  0.00    -0.220 C  
BRANCH  20  21
HETATM   21  C   UNL     1      -9.340   8.762  66.837  1.00  0.00    -0.167 C  
BRANCH  21  22
HETATM   22  O   UNL     1      -9.851   9.582  65.786  1.00  0.00    -0.285 OA 
BRANCH  22  23
HETATM   23  C   UNL     1      -9.124   9.363  64.575  1.00  0.00    -0.150 C  
HETATM   24  C   UNL     1      -9.462  10.462  63.587  1.00  0.00    -0.353 C  
ENDBRANCH  22  23
ENDBRANCH  21  22
ENDBRANCH  20  21
ENDBRANCH  14  20
ENDBRANCH  13  14
ENDBRANCH  12  13
ENDBRANCH   6  12
ENDBRANCH   5   6
ENDBRANCH   4   5
ENDBRANCH   3   4
ENDBRANCH   2   3
TORSDOF 19
ENDMDL
MODEL      221
REMARK 921   NORMALIZED FREE ENERGY PREDICTED BY IDOCK:   -3.12 KCAL/MOL
REMARK 922        TOTAL FREE ENERGY PREDICTED BY IDOCK:   -7.84 KCAL/MOL
REMARK 923 INTER-LIGAND FREE ENERGY PREDICTED BY IDOCK:   -6.68 KCAL/MOL
REMARK 924 INTRA-LIGAND FREE ENERGY PREDICTED BY IDOCK:   -1.16 KCAL/MOL
REMARK 927      BINDING AFFINITY PREDICTED BY RF-SCORE:    0.00 PKD
ROOT
HETATM    1  C   UNL     1     -11.200  15.049  67.077  1.00  0.00    -0.328 C  
HETATM    2  C   UNL     1     -12.260  14.229  66.371  1.00  0.00    -0.401 C  
ENDROOT
BRANCH   2   3
HETATM    3  O   UNL     1     -11.639  13.298  65.482  1.00  0.00    -0.311 OA 
BRANCH   3   4
HETATM    4  C   UNL     1     -10.371  12.892  66.006  1.00  0.00    -0.283 C  
BRANCH   4   5
HETATM    5  C   UNL     1     -10.416  11.435  66.458  1.00  0.00    -0.249 C  
BRANCH   5   6
HETATM    6  P   UNL     1     -10.222  11.265  68.294  1.00  0.00    -0.200 P  
BRANCH   6   7
HETATM    7  C   UNL     1     -11.982  11.403  68.875  1.00  0.00    -0.304 C  
BRANCH   7   8
HETATM    8  C   UNL     1     -12.053  11.459  70.401  1.00  0.00    -0.384 C  
BRANCH   8   9
HETATM    9  O   UNL     1     -12.391  12.780  70.830  1.00  0.00    -0.372 OA 
BRANCH   9  10
HETATM   10  C   UNL     1     -13.333  12.726  71.903  1.00  0.00    -0.413 C  
HETATM   11  C   UNL     1     -13.470  14.100  72.527  1.00  0.00    -0.634 C  
ENDBRANCH   9  10
ENDBRANCH   8   9
ENDBRANCH   7   8
ENDBRANCH   6   7
BRANCH   6  12
HETATM   12  C   UNL     1     -10.029   9.426  68.458  1.00  0.00    -0.173 C  
BRANCH  12  13
HETATM   13  C   UNL     1     -10.344   8.679  67.171  1.00  0.00    -0.299 C  
BRANCH  13  14
HETATM   14  P   UNL     1     -10.431   6.842  67.401  1.00  0.00    -0.343 P  
BRANCH  14  15
HETATM   15  C   UNL     1      -8.724   6.307  66.907  1.00  0.00    -0.113 C  
BRANCH  15  16
HETATM   16  C   UNL     1      -8.066   7.346  65.995  1.00  0.00    -0.124 C  
BRANCH  16  17
HETATM   17  O   UNL     1      -6.757   7.670  66.473  1.00  0.00    -0.055 OA 
BRANCH  17  18
HETATM   18  C   UNL     1      -6.709   9.036  66.894  1.00  0.00    -0.072 C  
HETATM   19  C   UNL     1      -7.052   9.942  65.729  1.00  0.00    -0.110 C  
ENDBRANCH  17  18
ENDBRANCH  16  17
ENDBRANCH  15  16
ENDBRANCH  14  15
BRANCH  14  20
HETATM   20  C   UNL     1     -10.263   6.761  69.250  1.00  0.00    -0.181 C  
BRANCH  20  21
HETATM   21  C   UNL     1     -11.541   6.267  69.924  1.00  0.00    -0.291 C  
BRANCH  21  22
HETATM   22  O   UNL     1     -11.790   7.038  71.099  1.00  0.00    -0.301 OA 
BRANCH  22  23
HETATM   23  C   UNL     1     -11.429   6.304  72.272  1.00  0.00    -0.306 C  
HETATM   24  C   UNL     1     -10.774   7.245  73.264  1.00  0.00    -0.428 C  
ENDBRANCH  22  23
ENDBRANCH  21  22
ENDBRANCH  20  21
ENDBRANCH  14  20
ENDBRANCH  13  14
ENDBRANCH  12  13
ENDBRANCH   6  12
ENDBRANCH   5   6
ENDBRANCH   4   5
ENDBRANCH   3   4
ENDBRANCH   2   3
TORSDOF 19
ENDMDL
MODEL      222
REMARK 921   NORMALIZED FREE ENERGY PREDICTED BY IDOCK:   -3.12 KCAL/MOL
REMARK 922        TOTAL FREE ENERGY PREDICTED BY IDOCK:   -7.83 KCAL/MOL
REMARK 923 INTER-LIGAND FREE ENERGY PREDICTED BY IDOCK:   -7.16 KCAL/MOL
REMARK 924 INTRA-LIGAND FREE ENERGY PREDICTED BY IDOCK:   -0.67 KCAL/MOL
REMARK 927      BINDING AFFINITY PREDICTED BY RF-SCORE:    0.00 PKD
ROOT
HETATM    1  C   UNL     1     -11.951  12.506  65.500  1.00  0.00    -0.500 C  
HETATM    2  C   UNL     1     -11.629  12.101  66.924  1.00  0.00    -0.341 C  
ENDROOT
BRANCH   2   3
HETATM    3  O   UNL     1     -10.214  12.127  67.125  1.00  0.00    -0.208 OA 
BRANCH   3   4
HETATM    4  C   UNL     1      -9.781  13.466  67.381  1.00  0.00    -0.221 C  
BRANCH   4   5
HETATM    5  C   UNL     1     -10.455  14.022  68.633  1.00  0.00    -0.247 C  
BRANCH   5   6
HETATM    6  P   UNL     1     -10.740  15.851  68.520  1.00  0.00    -0.308 P  
BRANCH   6   7
HETATM    7  C   UNL     1     -10.941  16.313  70.310  1.00  0.00    -0.308 C  
BRANCH   7   8
HETATM    8  C   UNL     1     -12.138  15.593  70.931  1.00  0.00    -0.407 C  
BRANCH   8   9
HETATM    9  O   UNL     1     -11.767  15.013  72.184  1.00  0.00    -0.381 OA 
BRANCH   9  10
HETATM   10  C   UNL     1     -12.931  14.742  72.967  1.00  0.00    -0.510 C  
HETATM   11  C   UNL     1     -13.968  14.047  72.109  1.00  0.00    -0.633 C  
ENDBRANCH   9  10
ENDBRANCH   8   9
ENDBRANCH   7   8
ENDBRANCH   6   7
BRANCH   6  12
HETATM   12  C   UNL     1      -9.003  16.462  68.280  1.00  0.00    -0.206 C  
BRANCH  12  13
HETATM   13  C   UNL     1      -8.938  17.784  67.529  1.00  0.00    -0.244 C  
BRANCH  13  14
HETATM   14  P   UNL     1      -8.235  19.163  68.548  1.00  0.00    -0.355 P  
BRANCH  14  15
HETATM   15  C   UNL     1      -6.432  18.723  68.606  1.00  0.00    -0.241 C  
BRANCH  15  16
HETATM   16  C   UNL     1      -6.184  17.548  69.555  1.00  0.00    -0.246 C  
BRANCH  16  17
HETATM   17  O   UNL     1      -5.152  16.702  69.040  1.00  0.00    -0.117 OA 
BRANCH  17  18
HETATM   18  C   UNL     1      -5.602  15.346  68.993  1.00  0.00    -0.098 C  
HETATM   19  C   UNL     1      -6.132  14.936  70.352  1.00  0.00    -0.137 C  
ENDBRANCH  17  18
ENDBRANCH  16  17
ENDBRANCH  15  16
ENDBRANCH  14  15
BRANCH  14  20
HETATM   20  C   UNL     1      -8.191  20.500  67.258  1.00  0.00    -0.300 C  
BRANCH  20  21
HETATM   21  C   UNL     1      -7.898  19.948  65.865  1.00  0.00    -0.302 C  
BRANCH  21  22
HETATM   22  O   UNL     1      -6.519  20.145  65.552  1.00  0.00    -0.219 OA 
BRANCH  22  23
HETATM   23  C   UNL     1      -5.981  18.997  64.891  1.00  0.00    -0.283 C  
HETATM   24  C   UNL     1      -5.412  19.417  63.550  1.00  0.00    -0.346 C  
ENDBRANCH  22  23
ENDBRANCH  21  22
ENDBRANCH  20  21
ENDBRANCH  14  20
ENDBRANCH  13  14
ENDBRANCH  12  13
ENDBRANCH   6  12
ENDBRANCH   5   6
ENDBRANCH   4   5
ENDBRANCH   3   4
ENDBRANCH   2   3
TORSDOF 19
ENDMDL
MODEL      223
REMARK 921   NORMALIZED FREE ENERGY PREDICTED BY IDOCK:   -3.11 KCAL/MOL
REMARK 922        TOTAL FREE ENERGY PREDICTED BY IDOCK:   -7.80 KCAL/MOL
REMARK 923 INTER-LIGAND FREE ENERGY PREDICTED BY IDOCK:   -6.90 KCAL/MOL
REMARK 924 INTRA-LIGAND FREE ENERGY PREDICTED BY IDOCK:   -0.90 KCAL/MOL
REMARK 927      BINDING AFFINITY PREDICTED BY RF-SCORE:    0.00 PKD
ROOT
HETATM    1  C   UNL     1      -9.646   4.153  66.919  1.00  0.00    -0.232 C  
HETATM    2  C   UNL     1      -8.788   4.881  65.906  1.00  0.00    -0.130 C  
ENDROOT
BRANCH   2   3
HETATM    3  O   UNL     1      -7.823   5.691  66.583  1.00  0.00    -0.099 OA 
BRANCH   3   4
HETATM    4  C   UNL     1      -8.219   7.064  66.539  1.00  0.00    -0.114 C  
BRANCH   4   5
HETATM    5  C   UNL     1      -8.453   7.605  67.947  1.00  0.00    -0.123 C  
BRANCH   5   6
HETATM    6  P   UNL     1     -10.091   8.460  68.104  1.00  0.00    -0.209 P  
BRANCH   6   7
HETATM    7  C   UNL     1     -10.124   8.885  69.914  1.00  0.00    -0.195 C  
BRANCH   7   8
HETATM    8  C   UNL     1     -11.003   7.907  70.691  1.00  0.00    -0.245 C  
BRANCH   8   9
HETATM    9  O   UNL     1     -11.364   8.467  71.957  1.00  0.00    -0.294 OA 
BRANCH   9  10
HETATM   10  C   UNL     1     -12.747   8.232  72.226  1.00  0.00    -0.298 C  
HETATM   11  C   UNL     1     -13.532   9.506  71.985  1.00  0.00    -0.522 C  
ENDBRANCH   9  10
ENDBRANCH   8   9
ENDBRANCH   7   8
ENDBRANCH   6   7
BRANCH   6  12
HETATM   12  C   UNL     1      -9.672  10.144  67.442  1.00  0.00    -0.161 C  
BRANCH  12  13
HETATM   13  C   UNL     1      -9.502  11.187  68.536  1.00  0.00    -0.193 C  
BRANCH  13  14
HETATM   14  P   UNL     1     -10.687  12.602  68.380  1.00  0.00    -0.249 P  
BRANCH  14  15
HETATM   15  C   UNL     1     -11.683  12.113  66.892  1.00  0.00    -0.301 C  
BRANCH  15  16
HETATM   16  C   UNL     1     -11.563  13.161  65.783  1.00  0.00    -0.347 C  
BRANCH  16  17
HETATM   17  O   UNL     1     -11.390  14.465  66.347  1.00  0.00    -0.333 OA 
BRANCH  17  18
HETATM   18  C   UNL     1     -10.531  15.251  65.518  1.00  0.00    -0.374 C  
HETATM   19  C   UNL     1     -11.341  15.906  64.418  1.00  0.00    -0.276 C  
ENDBRANCH  17  18
ENDBRANCH  16  17
ENDBRANCH  15  16
ENDBRANCH  14  15
BRANCH  14  20
HETATM   20  C   UNL     1     -11.886  12.143  69.725  1.00  0.00    -0.327 C  
BRANCH  20  21
HETATM   21  C   UNL     1     -12.397  13.365  70.485  1.00  0.00    -0.329 C  
BRANCH  21  22
HETATM   22  O   UNL     1     -13.070  12.944  71.671  1.00  0.00    -0.394 OA 
BRANCH  22  23
HETATM   23  C   UNL     1     -13.829  14.019  72.230  1.00  0.00    -0.557 C  
HETATM   24  C   UNL     1     -12.913  14.892  73.065  1.00  0.00    -0.599 C  
ENDBRANCH  22  23
ENDBRANCH  21  22
ENDBRANCH  20  21
ENDBRANCH  14  20
ENDBRANCH  13  14
ENDBRANCH  12  13
ENDBRANCH   6  12
ENDBRANCH   5   6
ENDBRANCH   4   5
ENDBRANCH   3   4
ENDBRANCH   2   3
TORSDOF 19
ENDMDL
MODEL      224
REMARK 921   NORMALIZED FREE ENERGY PREDICTED BY IDOCK:   -3.10 KCAL/MOL
REMARK 922        TOTAL FREE ENERGY PREDICTED BY IDOCK:   -7.80 KCAL/MOL
REMARK 923 INTER-LIGAND FREE ENERGY PREDICTED BY IDOCK:   -6.31 KCAL/MOL
REMARK 924 INTRA-LIGAND FREE ENERGY PREDICTED BY IDOCK:   -1.49 KCAL/MOL
REMARK 927      BINDING AFFINITY PREDICTED BY RF-SCORE:    0.00 PKD
ROOT
HETATM    1  C   UNL     1     -11.046   6.232  67.165  1.00  0.00    -0.389 C  
HETATM    2  C   UNL     1      -9.540   6.240  67.323  1.00  0.00    -0.123 C  
ENDROOT
BRANCH   2   3
HETATM    3  O   UNL     1      -8.973   7.254  66.490  1.00  0.00    -0.140 OA 
BRANCH   3   4
HETATM    4  C   UNL     1      -9.880   8.354  66.371  1.00  0.00    -0.240 C  
BRANCH   4   5
HETATM    5  C   UNL     1      -9.225   9.648  66.848  1.00  0.00    -0.143 C  
BRANCH   5   6
HETATM    6  P   UNL     1     -10.398  10.709  67.815  1.00  0.00    -0.236 P  
BRANCH   6   7
HETATM    7  C   UNL     1     -10.595   9.727  69.381  1.00  0.00    -0.228 C  
BRANCH   7   8
HETATM    8  C   UNL     1      -9.246   9.512  70.066  1.00  0.00    -0.234 C  
BRANCH   8   9
HETATM    9  O   UNL     1      -8.975   8.114  70.194  1.00  0.00    -0.144 OA 
BRANCH   9  10
HETATM   10  C   UNL     1      -7.615   7.840  69.852  1.00  0.00    -0.090 C  
HETATM   11  C   UNL     1      -7.233   6.464  70.357  1.00  0.00    -0.083 C  
ENDBRANCH   9  10
ENDBRANCH   8   9
ENDBRANCH   7   8
ENDBRANCH   6   7
BRANCH   6  12
HETATM   12  C   UNL     1      -9.242  12.012  68.460  1.00  0.00    -0.114 C  
BRANCH  12  13
HETATM   13  C   UNL     1      -9.855  13.405  68.454  1.00  0.00    -0.216 C  
BRANCH  13  14
HETATM   14  P   UNL     1     -11.701  13.384  68.298  1.00  0.00    -0.354 P  
BRANCH  14  15
HETATM   15  C   UNL     1     -12.214  14.617  69.587  1.00  0.00    -0.283 C  
BRANCH  15  16
HETATM   16  C   UNL     1     -10.995  15.320  70.190  1.00  0.00    -0.291 C  
BRANCH  16  17
HETATM   17  O   UNL     1     -11.048  16.725  69.924  1.00  0.00    -0.242 OA 
BRANCH  17  18
HETATM   18  C   UNL     1      -9.995  17.099  69.032  1.00  0.00    -0.273 C  
HETATM   19  C   UNL     1     -10.566  17.881  67.867  1.00  0.00    -0.387 C  
ENDBRANCH  17  18
ENDBRANCH  16  17
ENDBRANCH  15  16
ENDBRANCH  14  15
BRANCH  14  20
HETATM   20  C   UNL     1     -11.888  14.429  66.772  1.00  0.00    -0.410 C  
BRANCH  20  21
HETATM   21  C   UNL     1     -10.583  14.539  65.986  1.00  0.00    -0.307 C  
BRANCH  21  22
HETATM   22  O   UNL     1     -10.824  14.232  64.613  1.00  0.00    -0.401 OA 
BRANCH  22  23
HETATM   23  C   UNL     1     -10.976  12.822  64.429  1.00  0.00    -0.361 C  
HETATM   24  C   UNL     1     -12.053  12.570  63.393  1.00  0.00    -0.621 C  
ENDBRANCH  22  23
ENDBRANCH  21  22
ENDBRANCH  20  21
ENDBRANCH  14  20
ENDBRANCH  13  14
ENDBRANCH  12  13
ENDBRANCH   6  12
ENDBRANCH   5   6
ENDBRANCH   4   5
ENDBRANCH   3   4
ENDBRANCH   2   3
TORSDOF 19
ENDMDL
MODEL      225
REMARK 921   NORMALIZED FREE ENERGY PREDICTED BY IDOCK:   -3.09 KCAL/MOL
REMARK 922        TOTAL FREE ENERGY PREDICTED BY IDOCK:   -7.78 KCAL/MOL
REMARK 923 INTER-LIGAND FREE ENERGY PREDICTED BY IDOCK:   -6.44 KCAL/MOL
REMARK 924 INTRA-LIGAND FREE ENERGY PREDICTED BY IDOCK:   -1.34 KCAL/MOL
REMARK 927      BINDING AFFINITY PREDICTED BY RF-SCORE:    0.00 PKD
ROOT
HETATM    1  C   UNL     1     -12.591  12.071  63.577  1.00  0.00    -0.625 C  
HETATM    2  C   UNL     1     -11.184  12.630  63.530  1.00  0.00    -0.429 C  
ENDROOT
BRANCH   2   3
HETATM    3  O   UNL     1     -10.389  12.024  64.552  1.00  0.00    -0.271 OA 
BRANCH   3   4
HETATM    4  C   UNL     1     -10.629  12.670  65.805  1.00  0.00    -0.272 C  
BRANCH   4   5
HETATM    5  C   UNL     1      -9.856  11.979  66.926  1.00  0.00    -0.204 C  
BRANCH   5   6
HETATM    6  P   UNL     1     -10.861  10.663  67.760  1.00  0.00    -0.319 P  
BRANCH   6   7
HETATM    7  C   UNL     1     -10.406   9.156  66.771  1.00  0.00    -0.238 C  
BRANCH   7   8
HETATM    8  C   UNL     1      -8.954   9.226  66.302  1.00  0.00    -0.159 C  
BRANCH   8   9
HETATM    9  O   UNL     1      -8.776   8.429  65.128  1.00  0.00    -0.162 OA 
BRANCH   9  10
HETATM   10  C   UNL     1      -8.374   9.249  64.029  1.00  0.00    -0.178 C  
HETATM   11  C   UNL     1      -8.281   8.405  62.775  1.00  0.00    -0.166 C  
ENDBRANCH   9  10
ENDBRANCH   8   9
ENDBRANCH   7   8
ENDBRANCH   6   7
BRANCH   6  12
HETATM   12  C   UNL     1      -9.820  10.324  69.259  1.00  0.00    -0.228 C  
BRANCH  12  13
HETATM   13  C   UNL     1     -10.166   9.006  69.937  1.00  0.00    -0.202 C  
BRANCH  13  14
HETATM   14  P   UNL     1      -9.097   8.643  71.406  1.00  0.00    -0.256 P  
BRANCH  14  15
HETATM   15  C   UNL     1     -10.326   7.972  72.625  1.00  0.00    -0.329 C  
BRANCH  15  16
HETATM   16  C   UNL     1     -11.724   7.891  72.006  1.00  0.00    -0.311 C  
BRANCH  16  17
HETATM   17  O   UNL     1     -12.584   8.873  72.590  1.00  0.00    -0.352 OA 
BRANCH  17  18
HETATM   18  C   UNL     1     -13.404   9.473  71.584  1.00  0.00    -0.407 C  
HETATM   19  C   UNL     1     -13.035  10.934  71.428  1.00  0.00    -0.527 C  
ENDBRANCH  17  18
ENDBRANCH  16  17
ENDBRANCH  15  16
ENDBRANCH  14  15
BRANCH  14  20
HETATM   20  C   UNL     1      -8.323   7.054  70.832  1.00  0.00    -0.129 C  
BRANCH  20  21
HETATM   21  C   UNL     1      -9.161   6.358  69.761  1.00  0.00    -0.144 C  
BRANCH  21  22
HETATM   22  O   UNL     1      -8.443   6.341  68.528  1.00  0.00    -0.115 OA 
BRANCH  22  23
HETATM   23  C   UNL     1      -9.176   5.634  67.525  1.00  0.00    -0.109 C  
HETATM   24  C   UNL     1     -10.659   5.763  67.810  1.00  0.00    -0.310 C  
ENDBRANCH  22  23
ENDBRANCH  21  22
ENDBRANCH  20  21
ENDBRANCH  14  20
ENDBRANCH  13  14
ENDBRANCH  12  13
ENDBRANCH   6  12
ENDBRANCH   5   6
ENDBRANCH   4   5
ENDBRANCH   3   4
ENDBRANCH   2   3
TORSDOF 19
ENDMDL
MODEL      226
REMARK 921   NORMALIZED FREE ENERGY PREDICTED BY IDOCK:   -3.09 KCAL/MOL
REMARK 922        TOTAL FREE ENERGY PREDICTED BY IDOCK:   -7.78 KCAL/MOL
REMARK 923 INTER-LIGAND FREE ENERGY PREDICTED BY IDOCK:   -6.62 KCAL/MOL
REMARK 924 INTRA-LIGAND FREE ENERGY PREDICTED BY IDOCK:   -1.16 KCAL/MOL
REMARK 927      BINDING AFFINITY PREDICTED BY RF-SCORE:    0.00 PKD
ROOT
HETATM    1  C   UNL     1     -10.991  15.423  64.923  1.00  0.00    -0.453 C  
HETATM    2  C   UNL     1     -12.356  15.327  64.272  1.00  0.00    -0.121 C  
ENDROOT
BRANCH   2   3
HETATM    3  O   UNL     1     -12.538  14.019  63.724  1.00  0.00    -0.772 OA 
BRANCH   3   4
HETATM    4  C   UNL     1     -12.643  13.058  64.777  1.00  0.00    -0.397 C  
BRANCH   4   5
HETATM    5  C   UNL     1     -11.751  11.851  64.498  1.00  0.00    -0.248 C  
BRANCH   5   6
HETATM    6  P   UNL     1     -10.394  11.680  65.749  1.00  0.00    -0.269 P  
BRANCH   6   7
HETATM    7  C   UNL     1     -11.355  11.573  67.337  1.00  0.00    -0.298 C  
BRANCH   7   8
HETATM    8  C   UNL     1     -11.517  12.952  67.975  1.00  0.00    -0.319 C  
BRANCH   8   9
HETATM    9  O   UNL     1     -11.727  12.823  69.383  1.00  0.00    -0.292 OA 
BRANCH   9  10
HETATM   10  C   UNL     1     -12.156  11.497  69.700  1.00  0.00    -0.296 C  
HETATM   11  C   UNL     1     -12.668  11.458  71.125  1.00  0.00    -0.479 C  
ENDBRANCH   9  10
ENDBRANCH   8   9
ENDBRANCH   7   8
ENDBRANCH   6   7
BRANCH   6  12
HETATM   12  C   UNL     1      -9.974   9.880  65.569  1.00  0.00    -0.292 C  
BRANCH  12  13
HETATM   13  C   UNL     1      -9.960   9.138  66.896  1.00  0.00    -0.238 C  
BRANCH  13  14
HETATM   14  P   UNL     1      -8.263   8.598  67.407  1.00  0.00    -0.104 P  
BRANCH  14  15
HETATM   15  C   UNL     1      -8.030   9.511  69.007  1.00  0.00    -0.092 C  
BRANCH  15  16
HETATM   16  C   UNL     1      -9.313   9.493  69.841  1.00  0.00    -0.223 C  
BRANCH  16  17
HETATM   17  O   UNL     1      -9.006   9.280  71.222  1.00  0.00    -0.285 OA 
BRANCH  17  18
HETATM   18  C   UNL     1      -7.783   8.551  71.350  1.00  0.00    -0.109 C  
HETATM   19  C   UNL     1      -7.781   7.781  72.655  1.00  0.00    -0.129 C  
ENDBRANCH  17  18
ENDBRANCH  16  17
ENDBRANCH  15  16
ENDBRANCH  14  15
BRANCH  14  20
HETATM   20  C   UNL     1      -8.669   6.908  68.067  1.00  0.00    -0.125 C  
BRANCH  20  21
HETATM   21  C   UNL     1      -9.998   6.383  67.529  1.00  0.00    -0.136 C  
BRANCH  21  22
HETATM   22  O   UNL     1     -10.610   5.539  68.504  1.00  0.00    -0.193 OA 
BRANCH  22  23
HETATM   23  C   UNL     1     -11.335   6.316  69.461  1.00  0.00    -0.404 C  
HETATM   24  C   UNL     1     -10.852   5.965  70.854  1.00  0.00    -0.347 C  
ENDBRANCH  22  23
ENDBRANCH  21  22
ENDBRANCH  20  21
ENDBRANCH  14  20
ENDBRANCH  13  14
ENDBRANCH  12  13
ENDBRANCH   6  12
ENDBRANCH   5   6
ENDBRANCH   4   5
ENDBRANCH   3   4
ENDBRANCH   2   3
TORSDOF 19
ENDMDL
MODEL      227
REMARK 921   NORMALIZED FREE ENERGY PREDICTED BY IDOCK:   -3.09 KCAL/MOL
REMARK 922        TOTAL FREE ENERGY PREDICTED BY IDOCK:   -7.77 KCAL/MOL
REMARK 923 INTER-LIGAND FREE ENERGY PREDICTED BY IDOCK:   -6.53 KCAL/MOL
REMARK 924 INTRA-LIGAND FREE ENERGY PREDICTED BY IDOCK:   -1.24 KCAL/MOL
REMARK 927      BINDING AFFINITY PREDICTED BY RF-SCORE:    0.00 PKD
ROOT
HETATM    1  C   UNL     1     -11.793  14.388  66.471  1.00  0.00    -0.406 C  
HETATM    2  C   UNL     1     -11.963  13.500  67.687  1.00  0.00    -0.336 C  
ENDROOT
BRANCH   2   3
HETATM    3  O   UNL     1     -12.074  12.135  67.276  1.00  0.00    -0.565 OA 
BRANCH   3   4
HETATM    4  C   UNL     1     -11.688  11.269  68.347  1.00  0.00    -0.294 C  
BRANCH   4   5
HETATM    5  C   UNL     1     -10.168  11.146  68.421  1.00  0.00    -0.188 C  
BRANCH   5   6
HETATM    6  P   UNL     1      -9.629   9.865  69.649  1.00  0.00    -0.209 P  
BRANCH   6   7
HETATM    7  C   UNL     1     -11.261   9.242  70.286  1.00  0.00    -0.231 C  
BRANCH   7   8
HETATM    8  C   UNL     1     -11.070   8.388  71.539  1.00  0.00    -0.266 C  
BRANCH   8   9
HETATM    9  O   UNL     1     -12.102   7.402  71.626  1.00  0.00    -0.289 OA 
BRANCH   9  10
HETATM   10  C   UNL     1     -11.558   6.152  72.053  1.00  0.00    -0.310 C  
HETATM   11  C   UNL     1     -10.245   5.901  71.339  1.00  0.00    -0.261 C  
ENDBRANCH   9  10
ENDBRANCH   8   9
ENDBRANCH   7   8
ENDBRANCH   6   7
BRANCH   6  12
HETATM   12  C   UNL     1      -9.224   8.447  68.521  1.00  0.00    -0.135 C  
BRANCH  12  13
HETATM   13  C   UNL     1      -9.515   8.749  67.058  1.00  0.00    -0.169 C  
BRANCH  13  14
HETATM   14  P   UNL     1      -7.995   8.743  65.999  1.00  0.00    -0.113 P  
BRANCH  14  15
HETATM   15  C   UNL     1      -8.264   7.241  64.942  1.00  0.00    -0.073 C  
BRANCH  15  16
HETATM   16  C   UNL     1      -8.131   5.958  65.767  1.00  0.00    -0.121 C  
BRANCH  16  17
HETATM   17  O   UNL     1      -9.333   5.187  65.684  1.00  0.00    -0.160 OA 
BRANCH  17  18
HETATM   18  C   UNL     1      -9.912   5.032  66.983  1.00  0.00    -0.203 C  
HETATM   19  C   UNL     1      -9.468   3.716  67.586  1.00  0.00    -0.234 C  
ENDBRANCH  17  18
ENDBRANCH  16  17
ENDBRANCH  15  16
ENDBRANCH  14  15
BRANCH  14  20
HETATM   20  C   UNL     1      -8.466  10.070  64.786  1.00  0.00    -0.173 C  
BRANCH  20  21
HETATM   21  C   UNL     1      -9.968  10.344  64.785  1.00  0.00    -0.339 C  
BRANCH  21  22
HETATM   22  O   UNL     1     -10.376  10.773  63.486  1.00  0.00    -0.312 OA 
BRANCH  22  23
HETATM   23  C   UNL     1     -10.832  12.128  63.520  1.00  0.00    -0.458 C  
HETATM   24  C   UNL     1     -12.347  12.143  63.488  1.00  0.00    -0.682 C  
ENDBRANCH  22  23
ENDBRANCH  21  22
ENDBRANCH  20  21
ENDBRANCH  14  20
ENDBRANCH  13  14
ENDBRANCH  12  13
ENDBRANCH   6  12
ENDBRANCH   5   6
ENDBRANCH   4   5
ENDBRANCH   3   4
ENDBRANCH   2   3
TORSDOF 19
ENDMDL
MODEL      228
REMARK 921   NORMALIZED FREE ENERGY PREDICTED BY IDOCK:   -3.08 KCAL/MOL
REMARK 922        TOTAL FREE ENERGY PREDICTED BY IDOCK:   -7.76 KCAL/MOL
REMARK 923 INTER-LIGAND FREE ENERGY PREDICTED BY IDOCK:   -6.42 KCAL/MOL
REMARK 924 INTRA-LIGAND FREE ENERGY PREDICTED BY IDOCK:   -1.33 KCAL/MOL
REMARK 927      BINDING AFFINITY PREDICTED BY RF-SCORE:    0.00 PKD
ROOT
HETATM    1  C   UNL     1      -6.750   8.446  64.741  1.00  0.00    -0.068 C  
HETATM    2  C   UNL     1      -8.211   8.714  65.036  1.00  0.00    -0.157 C  
ENDROOT
BRANCH   2   3
HETATM    3  O   UNL     1      -8.330   9.465  66.247  1.00  0.00    -0.113 OA 
BRANCH   3   4
HETATM    4  C   UNL     1      -7.989  10.833  66.010  1.00  0.00    -0.154 C  
BRANCH   4   5
HETATM    5  C   UNL     1      -9.246  11.692  65.897  1.00  0.00    -0.196 C  
BRANCH   5   6
HETATM    6  P   UNL     1      -9.273  13.060  67.147  1.00  0.00    -0.239 P  
BRANCH   6   7
HETATM    7  C   UNL     1     -10.261  14.363  66.261  1.00  0.00    -0.299 C  
BRANCH   7   8
HETATM    8  C   UNL     1     -11.726  14.330  66.695  1.00  0.00    -0.400 C  
BRANCH   8   9
HETATM    9  O   UNL     1     -12.514  13.644  65.718  1.00  0.00    -0.458 OA 
BRANCH   9  10
HETATM   10  C   UNL     1     -12.062  13.970  64.402  1.00  0.00    -0.458 C  
HETATM   11  C   UNL     1     -12.161  12.745  63.516  1.00  0.00    -0.642 C  
ENDBRANCH   9  10
ENDBRANCH   8   9
ENDBRANCH   7   8
ENDBRANCH   6   7
BRANCH   6  12
HETATM   12  C   UNL     1     -10.599  12.457  68.299  1.00  0.00    -0.222 C  
BRANCH  12  13
HETATM   13  C   UNL     1     -11.182  11.115  67.882  1.00  0.00    -0.302 C  
BRANCH  13  14
HETATM   14  P   UNL     1     -10.878   9.775  69.124  1.00  0.00    -0.136 P  
BRANCH  14  15
HETATM   15  C   UNL     1      -9.110  10.080  69.600  1.00  0.00    -0.210 C  
BRANCH  15  16
HETATM   16  C   UNL     1      -8.482   8.825  70.211  1.00  0.00    -0.149 C  
BRANCH  16  17
HETATM   17  O   UNL     1      -8.153   9.051  71.585  1.00  0.00    -0.329 OA 
BRANCH  17  18
HETATM   18  C   UNL     1      -6.846   8.545  71.870  1.00  0.00    -0.090 C  
HETATM   19  C   UNL     1      -6.942   7.097  72.304  1.00  0.00    -0.064 C  
ENDBRANCH  17  18
ENDBRANCH  16  17
ENDBRANCH  15  16
ENDBRANCH  14  15
BRANCH  14  20
HETATM   20  C   UNL     1     -11.733  10.526  70.594  1.00  0.00    -0.357 C  
BRANCH  20  21
HETATM   21  C   UNL     1     -12.111   9.478  71.639  1.00  0.00    -0.398 C  
BRANCH  21  22
HETATM   22  O   UNL     1     -12.116   8.183  71.038  1.00  0.00    -0.286 OA 
BRANCH  22  23
HETATM   23  C   UNL     1     -12.108   7.161  72.038  1.00  0.00    -0.292 C  
HETATM   24  C   UNL     1     -10.894   7.345  72.927  1.00  0.00    -0.402 C  
ENDBRANCH  22  23
ENDBRANCH  21  22
ENDBRANCH  20  21
ENDBRANCH  14  20
ENDBRANCH  13  14
ENDBRANCH  12  13
ENDBRANCH   6  12
ENDBRANCH   5   6
ENDBRANCH   4   5
ENDBRANCH   3   4
ENDBRANCH   2   3
TORSDOF 19
ENDMDL
MODEL      229
REMARK 921   NORMALIZED FREE ENERGY PREDICTED BY IDOCK:   -3.08 KCAL/MOL
REMARK 922        TOTAL FREE ENERGY PREDICTED BY IDOCK:   -7.75 KCAL/MOL
REMARK 923 INTER-LIGAND FREE ENERGY PREDICTED BY IDOCK:   -6.56 KCAL/MOL
REMARK 924 INTRA-LIGAND FREE ENERGY PREDICTED BY IDOCK:   -1.19 KCAL/MOL
REMARK 927      BINDING AFFINITY PREDICTED BY RF-SCORE:    0.00 PKD
ROOT
HETATM    1  C   UNL     1     -10.752  11.459  63.771  1.00  0.00    -0.470 C  
HETATM    2  C   UNL     1      -9.901  10.743  64.798  1.00  0.00    -0.300 C  
ENDROOT
BRANCH   2   3
HETATM    3  O   UNL     1     -10.388  11.026  66.112  1.00  0.00    -0.239 OA 
BRANCH   3   4
HETATM    4  C   UNL     1      -9.490  10.499  67.092  1.00  0.00    -0.159 C  
BRANCH   4   5
HETATM    5  C   UNL     1      -9.775  11.100  68.466  1.00  0.00    -0.196 C  
BRANCH   5   6
HETATM    6  P   UNL     1     -11.517  10.783  69.019  1.00  0.00    -0.287 P  
BRANCH   6   7
HETATM    7  C   UNL     1     -11.250  10.038  70.702  1.00  0.00    -0.350 C  
BRANCH   7   8
HETATM    8  C   UNL     1      -9.909   9.308  70.771  1.00  0.00    -0.283 C  
BRANCH   8   9
HETATM    9  O   UNL     1      -9.605   8.964  72.125  1.00  0.00    -0.301 OA 
BRANCH   9  10
HETATM   10  C   UNL     1     -10.679   8.217  72.699  1.00  0.00    -0.351 C  
HETATM   11  C   UNL     1     -10.528   6.753  72.338  1.00  0.00    -0.230 C  
ENDBRANCH   9  10
ENDBRANCH   8   9
ENDBRANCH   7   8
ENDBRANCH   6   7
BRANCH   6  12
HETATM   12  C   UNL     1     -12.028  12.485  69.559  1.00  0.00    -0.266 C  
BRANCH  12  13
HETATM   13  C   UNL     1     -11.017  13.556  69.180  1.00  0.00    -0.177 C  
BRANCH  13  14
HETATM   14  P   UNL     1     -11.772  15.240  69.017  1.00  0.00    -0.315 P  
BRANCH  14  15
HETATM   15  C   UNL     1     -10.347  16.349  69.449  1.00  0.00    -0.290 C  
BRANCH  15  16
HETATM   16  C   UNL     1     -10.512  17.729  68.806  1.00  0.00    -0.249 C  
BRANCH  16  17
HETATM   17  O   UNL     1      -9.232  18.324  68.572  1.00  0.00    -0.309 OA 
BRANCH  17  18
HETATM   18  C   UNL     1      -9.203  18.942  67.282  1.00  0.00    -0.283 C  
HETATM   19  C   UNL     1     -10.582  18.885  66.658  1.00  0.00    -0.469 C  
ENDBRANCH  17  18
ENDBRANCH  16  17
ENDBRANCH  15  16
ENDBRANCH  14  15
BRANCH  14  20
HETATM   20  C   UNL     1     -11.747  15.404  67.165  1.00  0.00     0.040 C  
BRANCH  20  21
HETATM   21  C   UNL     1     -11.272  14.125  66.479  1.00  0.00    -0.330 C  
BRANCH  21  22
HETATM   22  O   UNL     1     -10.208  14.432  65.579  1.00  0.00    -0.323 OA 
BRANCH  22  23
HETATM   23  C   UNL     1      -9.157  15.127  66.255  1.00  0.00    -0.278 C  
HETATM   24  C   UNL     1      -8.327  14.130  67.039  1.00  0.00    -0.142 C  
ENDBRANCH  22  23
ENDBRANCH  21  22
ENDBRANCH  20  21
ENDBRANCH  14  20
ENDBRANCH  13  14
ENDBRANCH  12  13
ENDBRANCH   6  12
ENDBRANCH   5   6
ENDBRANCH   4   5
ENDBRANCH   3   4
ENDBRANCH   2   3
TORSDOF 19
ENDMDL
MODEL      230
REMARK 921   NORMALIZED FREE ENERGY PREDICTED BY IDOCK:   -3.07 KCAL/MOL
REMARK 922        TOTAL FREE ENERGY PREDICTED BY IDOCK:   -7.73 KCAL/MOL
REMARK 923 INTER-LIGAND FREE ENERGY PREDICTED BY IDOCK:   -6.92 KCAL/MOL
REMARK 924 INTRA-LIGAND FREE ENERGY PREDICTED BY IDOCK:   -0.81 KCAL/MOL
REMARK 927      BINDING AFFINITY PREDICTED BY RF-SCORE:    0.00 PKD
ROOT
HETATM    1  C   UNL     1      -8.574   8.308  71.435  1.00  0.00    -0.186 C  
HETATM    2  C   UNL     1      -7.316   9.106  71.164  1.00  0.00    -0.067 C  
ENDROOT
BRANCH   2   3
HETATM    3  O   UNL     1      -7.003   9.056  69.769  1.00  0.00    -0.051 OA 
BRANCH   3   4
HETATM    4  C   UNL     1      -8.098   9.567  69.004  1.00  0.00    -0.101 C  
BRANCH   4   5
HETATM    5  C   UNL     1      -7.594  10.325  67.778  1.00  0.00    -0.089 C  
BRANCH   5   6
HETATM    6  P   UNL     1      -8.983  10.943  66.718  1.00  0.00    -0.158 P  
BRANCH   6   7
HETATM    7  C   UNL     1      -9.534   9.383  65.869  1.00  0.00    -0.251 C  
BRANCH   7   8
HETATM    8  C   UNL     1     -10.447   8.559  66.776  1.00  0.00    -0.238 C  
BRANCH   8   9
HETATM    9  O   UNL     1     -10.018   7.195  66.798  1.00  0.00    -0.204 OA 
BRANCH   9  10
HETATM   10  C   UNL     1     -11.063   6.355  67.292  1.00  0.00    -0.330 C  
HETATM   11  C   UNL     1     -10.910   6.184  68.789  1.00  0.00    -0.402 C  
ENDBRANCH   9  10
ENDBRANCH   8   9
ENDBRANCH   7   8
ENDBRANCH   6   7
BRANCH   6  12
HETATM   12  C   UNL     1     -10.351  11.065  67.967  1.00  0.00    -0.185 C  
BRANCH  12  13
HETATM   13  C   UNL     1     -10.577  12.486  68.463  1.00  0.00    -0.243 C  
BRANCH  13  14
HETATM   14  P   UNL     1     -10.665  13.727  67.090  1.00  0.00    -0.285 P  
BRANCH  14  15
HETATM   15  C   UNL     1     -12.243  13.250  66.235  1.00  0.00    -0.377 C  
BRANCH  15  16
HETATM   16  C   UNL     1     -12.518  14.167  65.041  1.00  0.00    -0.419 C  
BRANCH  16  17
HETATM   17  O   UNL     1     -11.853  13.677  63.873  1.00  0.00    -0.420 OA 
BRANCH  17  18
HETATM   18  C   UNL     1     -12.221  12.317  63.629  1.00  0.00    -0.567 C  
HETATM   19  C   UNL     1     -10.980  11.494  63.350  1.00  0.00    -0.397 C  
ENDBRANCH  17  18
ENDBRANCH  16  17
ENDBRANCH  15  16
ENDBRANCH  14  15
BRANCH  14  20
HETATM   20  C   UNL     1     -11.263  15.200  68.053  1.00  0.00    -0.323 C  
BRANCH  20  21
HETATM   21  C   UNL     1     -11.325  14.923  69.553  1.00  0.00    -0.281 C  
BRANCH  21  22
HETATM   22  O   UNL     1     -12.586  15.351  70.067  1.00  0.00    -0.332 OA 
BRANCH  22  23
HETATM   23  C   UNL     1     -13.070  14.431  71.049  1.00  0.00    -0.353 C  
HETATM   24  C   UNL     1     -14.042  15.149  71.965  1.00  0.00    -0.659 C  
ENDBRANCH  22  23
ENDBRANCH  21  22
ENDBRANCH  20  21
ENDBRANCH  14  20
ENDBRANCH  13  14
ENDBRANCH  12  13
ENDBRANCH   6  12
ENDBRANCH   5   6
ENDBRANCH   4   5
ENDBRANCH   3   4
ENDBRANCH   2   3
TORSDOF 19
ENDMDL
MODEL      231
REMARK 921   NORMALIZED FREE ENERGY PREDICTED BY IDOCK:   -3.06 KCAL/MOL
REMARK 922        TOTAL FREE ENERGY PREDICTED BY IDOCK:   -7.72 KCAL/MOL
REMARK 923 INTER-LIGAND FREE ENERGY PREDICTED BY IDOCK:   -6.56 KCAL/MOL
REMARK 924 INTRA-LIGAND FREE ENERGY PREDICTED BY IDOCK:   -1.16 KCAL/MOL
REMARK 927      BINDING AFFINITY PREDICTED BY RF-SCORE:    0.00 PKD
ROOT
HETATM    1  C   UNL     1      -9.437   3.750  67.820  1.00  0.00    -0.231 C  
HETATM    2  C   UNL     1      -8.245   4.609  67.455  1.00  0.00    -0.101 C  
ENDROOT
BRANCH   2   3
HETATM    3  O   UNL     1      -7.734   5.249  68.627  1.00  0.00    -0.081 OA 
BRANCH   3   4
HETATM    4  C   UNL     1      -7.879   6.667  68.513  1.00  0.00    -0.110 C  
BRANCH   4   5
HETATM    5  C   UNL     1      -8.725   7.217  69.658  1.00  0.00    -0.141 C  
BRANCH   5   6
HETATM    6  P   UNL     1     -10.167   8.210  69.048  1.00  0.00    -0.210 P  
BRANCH   6   7
HETATM    7  C   UNL     1     -10.140   9.666  70.204  1.00  0.00    -0.262 C  
BRANCH   7   8
HETATM    8  C   UNL     1     -11.515   9.894  70.832  1.00  0.00    -0.376 C  
BRANCH   8   9
HETATM    9  O   UNL     1     -12.191   8.645  71.001  1.00  0.00    -0.273 OA 
BRANCH   9  10
HETATM   10  C   UNL     1     -11.977   8.141  72.321  1.00  0.00    -0.377 C  
HETATM   11  C   UNL     1     -11.763   6.642  72.262  1.00  0.00    -0.305 C  
ENDBRANCH   9  10
ENDBRANCH   8   9
ENDBRANCH   7   8
ENDBRANCH   6   7
BRANCH   6  12
HETATM   12  C   UNL     1      -9.421   9.036  67.561  1.00  0.00    -0.137 C  
BRANCH  12  13
HETATM   13  C   UNL     1      -8.927  10.445  67.851  1.00  0.00    -0.128 C  
BRANCH  13  14
HETATM   14  P   UNL     1      -9.536  11.693  66.624  1.00  0.00    -0.216 P  
BRANCH  14  15
HETATM   15  C   UNL     1     -10.187  10.613  65.262  1.00  0.00    -0.282 C  
BRANCH  15  16
HETATM   16  C   UNL     1     -10.487  11.436  64.006  1.00  0.00    -0.378 C  
BRANCH  16  17
HETATM   17  O   UNL     1     -11.880  11.757  63.941  1.00  0.00    -0.396 OA 
BRANCH  17  18
HETATM   18  C   UNL     1     -12.063  13.049  63.357  1.00  0.00    -0.515 C  
HETATM   19  C   UNL     1     -12.169  14.093  64.450  1.00  0.00    -0.466 C  
ENDBRANCH  17  18
ENDBRANCH  16  17
ENDBRANCH  15  16
ENDBRANCH  14  15
BRANCH  14  20
HETATM   20  C   UNL     1     -11.137  12.165  67.443  1.00  0.00    -0.276 C  
BRANCH  20  21
HETATM   21  C   UNL     1     -10.918  13.019  68.690  1.00  0.00    -0.265 C  
BRANCH  21  22
HETATM   22  O   UNL     1     -12.112  13.742  68.991  1.00  0.00    -0.346 OA 
BRANCH  22  23
HETATM   23  C   UNL     1     -12.055  14.285  70.312  1.00  0.00    -0.335 C  
HETATM   24  C   UNL     1     -11.055  15.424  70.338  1.00  0.00    -0.351 C  
ENDBRANCH  22  23
ENDBRANCH  21  22
ENDBRANCH  20  21
ENDBRANCH  14  20
ENDBRANCH  13  14
ENDBRANCH  12  13
ENDBRANCH   6  12
ENDBRANCH   5   6
ENDBRANCH   4   5
ENDBRANCH   3   4
ENDBRANCH   2   3
TORSDOF 19
ENDMDL
MODEL      232
REMARK 921   NORMALIZED FREE ENERGY PREDICTED BY IDOCK:   -3.06 KCAL/MOL
REMARK 922        TOTAL FREE ENERGY PREDICTED BY IDOCK:   -7.70 KCAL/MOL
REMARK 923 INTER-LIGAND FREE ENERGY PREDICTED BY IDOCK:   -6.56 KCAL/MOL
REMARK 924 INTRA-LIGAND FREE ENERGY PREDICTED BY IDOCK:   -1.14 KCAL/MOL
REMARK 927      BINDING AFFINITY PREDICTED BY RF-SCORE:    0.00 PKD
ROOT
HETATM    1  C   UNL     1      -5.821  10.993  70.260  1.00  0.00    -0.128 C  
HETATM    2  C   UNL     1      -7.133  10.262  70.065  1.00  0.00    -0.158 C  
ENDROOT
BRANCH   2   3
HETATM    3  O   UNL     1      -7.417   9.463  71.216  1.00  0.00    -0.322 OA 
BRANCH   3   4
HETATM    4  C   UNL     1      -8.001   8.220  70.818  1.00  0.00    -0.100 C  
BRANCH   4   5
HETATM    5  C   UNL     1      -9.151   8.452  69.841  1.00  0.00    -0.146 C  
BRANCH   5   6
HETATM    6  P   UNL     1      -9.149   7.223  68.453  1.00  0.00    -0.133 P  
BRANCH   6   7
HETATM    7  C   UNL     1     -10.879   6.548  68.543  1.00  0.00    -0.288 C  
BRANCH   7   8
HETATM    8  C   UNL     1     -11.306   6.325  69.994  1.00  0.00    -0.416 C  
BRANCH   8   9
HETATM    9  O   UNL     1     -10.538   5.269  70.576  1.00  0.00    -0.262 OA 
BRANCH   9  10
HETATM   10  C   UNL     1     -10.328   5.519  71.967  1.00  0.00    -0.213 C  
HETATM   11  C   UNL     1      -9.896   4.238  72.652  1.00  0.00    -0.201 C  
ENDBRANCH   9  10
ENDBRANCH   8   9
ENDBRANCH   7   8
ENDBRANCH   6   7
BRANCH   6  12
HETATM   12  C   UNL     1      -9.376   8.345  66.991  1.00  0.00    -0.159 C  
BRANCH  12  13
HETATM   13  C   UNL     1     -10.437   9.411  67.220  1.00  0.00    -0.264 C  
BRANCH  13  14
HETATM   14  P   UNL     1      -9.849  11.120  66.810  1.00  0.00    -0.212 P  
BRANCH  14  15
HETATM   15  C   UNL     1     -11.339  11.858  65.986  1.00  0.00    -0.316 C  
BRANCH  15  16
HETATM   16  C   UNL     1     -11.021  12.272  64.547  1.00  0.00    -0.315 C  
BRANCH  16  17
HETATM   17  O   UNL     1     -10.323  13.521  64.532  1.00  0.00    -0.423 OA 
BRANCH  17  18
HETATM   18  C   UNL     1     -11.107  14.533  65.170  1.00  0.00    -0.370 C  
HETATM   19  C   UNL     1     -12.364  14.789  64.364  1.00  0.00    -0.389 C  
ENDBRANCH  17  18
ENDBRANCH  16  17
ENDBRANCH  15  16
ENDBRANCH  14  15
BRANCH  14  20
HETATM   20  C   UNL     1      -9.999  11.903  68.490  1.00  0.00    -0.192 C  
BRANCH  20  21
HETATM   21  C   UNL     1     -11.316  12.658  68.658  1.00  0.00    -0.291 C  
BRANCH  21  22
HETATM   22  O   UNL     1     -11.791  12.499  69.995  1.00  0.00    -0.331 OA 
BRANCH  22  23
HETATM   23  C   UNL     1     -11.997  11.116  70.297  1.00  0.00    -0.373 C  
HETATM   24  C   UNL     1     -12.852  11.003  71.543  1.00  0.00    -0.555 C  
ENDBRANCH  22  23
ENDBRANCH  21  22
ENDBRANCH  20  21
ENDBRANCH  14  20
ENDBRANCH  13  14
ENDBRANCH  12  13
ENDBRANCH   6  12
ENDBRANCH   5   6
ENDBRANCH   4   5
ENDBRANCH   3   4
ENDBRANCH   2   3
TORSDOF 19
ENDMDL
MODEL      233
REMARK 921   NORMALIZED FREE ENERGY PREDICTED BY IDOCK:   -3.04 KCAL/MOL
REMARK 922        TOTAL FREE ENERGY PREDICTED BY IDOCK:   -7.67 KCAL/MOL
REMARK 923 INTER-LIGAND FREE ENERGY PREDICTED BY IDOCK:   -6.37 KCAL/MOL
REMARK 924 INTRA-LIGAND FREE ENERGY PREDICTED BY IDOCK:   -1.30 KCAL/MOL
REMARK 927      BINDING AFFINITY PREDICTED BY RF-SCORE:    0.00 PKD
ROOT
HETATM    1  C   UNL     1     -11.035  16.007  68.261  1.00  0.00    -0.335 C  
HETATM    2  C   UNL     1     -11.362  14.769  67.452  1.00  0.00    -0.351 C  
ENDROOT
BRANCH   2   3
HETATM    3  O   UNL     1     -12.136  13.865  68.243  1.00  0.00    -0.366 OA 
BRANCH   3   4
HETATM    4  C   UNL     1     -11.969  12.528  67.763  1.00  0.00    -0.223 C  
BRANCH   4   5
HETATM    5  C   UNL     1     -10.667  11.926  68.285  1.00  0.00    -0.223 C  
BRANCH   5   6
HETATM    6  P   UNL     1     -10.443  10.167  67.744  1.00  0.00    -0.268 P  
BRANCH   6   7
HETATM    7  C   UNL     1      -8.954  10.297  66.638  1.00  0.00    -0.140 C  
BRANCH   7   8
HETATM    8  C   UNL     1      -9.274  11.102  65.380  1.00  0.00    -0.205 C  
BRANCH   8   9
HETATM    9  O   UNL     1     -10.392  10.527  64.698  1.00  0.00    -0.344 OA 
BRANCH   9  10
HETATM   10  C   UNL     1     -11.043  11.513  63.895  1.00  0.00    -0.380 C  
HETATM   11  C   UNL     1     -10.504  12.885  64.242  1.00  0.00    -0.430 C  
ENDBRANCH   9  10
ENDBRANCH   8   9
ENDBRANCH   7   8
ENDBRANCH   6   7
BRANCH   6  12
HETATM   12  C   UNL     1      -9.606   9.444  69.236  1.00  0.00    -0.171 C  
BRANCH  12  13
HETATM   13  C   UNL     1      -9.474   7.930  69.168  1.00  0.00    -0.155 C  
BRANCH  13  14
HETATM   14  P   UNL     1      -9.974   7.087  70.741  1.00  0.00    -0.188 P  
BRANCH  14  15
HETATM   15  C   UNL     1     -11.715   7.689  70.968  1.00  0.00    -0.286 C  
BRANCH  15  16
HETATM   16  C   UNL     1     -11.860   8.465  72.280  1.00  0.00    -0.389 C  
BRANCH  16  17
HETATM   17  O   UNL     1     -13.005   9.321  72.227  1.00  0.00    -0.400 OA 
BRANCH  17  18
HETATM   18  C   UNL     1     -13.026  10.042  70.993  1.00  0.00    -0.360 C  
HETATM   19  C   UNL     1     -12.871  11.525  71.264  1.00  0.00    -0.463 C  
ENDBRANCH  17  18
ENDBRANCH  16  17
ENDBRANCH  15  16
ENDBRANCH  14  15
BRANCH  14  20
HETATM   20  C   UNL     1     -10.314   5.385  70.077  1.00  0.00    -0.296 C  
BRANCH  20  21
HETATM   21  C   UNL     1     -10.246   5.336  68.552  1.00  0.00    -0.144 C  
BRANCH  21  22
HETATM   22  O   UNL     1      -9.142   4.527  68.147  1.00  0.00    -0.112 OA 
BRANCH  22  23
HETATM   23  C   UNL     1      -8.769   3.623  69.190  1.00  0.00    -0.091 C  
HETATM   24  C   UNL     1      -7.772   2.620  68.645  1.00  0.00    -0.054 C  
ENDBRANCH  22  23
ENDBRANCH  21  22
ENDBRANCH  20  21
ENDBRANCH  14  20
ENDBRANCH  13  14
ENDBRANCH  12  13
ENDBRANCH   6  12
ENDBRANCH   5   6
ENDBRANCH   4   5
ENDBRANCH   3   4
ENDBRANCH   2   3
TORSDOF 19
ENDMDL
MODEL      234
REMARK 921   NORMALIZED FREE ENERGY PREDICTED BY IDOCK:   -3.04 KCAL/MOL
REMARK 922        TOTAL FREE ENERGY PREDICTED BY IDOCK:   -7.66 KCAL/MOL
REMARK 923 INTER-LIGAND FREE ENERGY PREDICTED BY IDOCK:   -7.36 KCAL/MOL
REMARK 924 INTRA-LIGAND FREE ENERGY PREDICTED BY IDOCK:   -0.30 KCAL/MOL
REMARK 927      BINDING AFFINITY PREDICTED BY RF-SCORE:    0.00 PKD
ROOT
HETATM    1  C   UNL     1     -13.141   9.972  71.420  1.00  0.00    -0.512 C  
HETATM    2  C   UNL     1     -11.683   9.618  71.218  1.00  0.00    -0.382 C  
ENDROOT
BRANCH   2   3
HETATM    3  O   UNL     1     -11.229  10.135  69.965  1.00  0.00    -0.259 OA 
BRANCH   3   4
HETATM    4  C   UNL     1     -10.264   9.250  69.391  1.00  0.00    -0.210 C  
BRANCH   4   5
HETATM    5  C   UNL     1     -10.124   9.502  67.892  1.00  0.00    -0.191 C  
BRANCH   5   6
HETATM    6  P   UNL     1      -8.895  10.839  67.519  1.00  0.00    -0.128 P  
BRANCH   6   7
HETATM    7  C   UNL     1      -8.098  10.199  65.966  1.00  0.00    -0.129 C  
BRANCH   7   8
HETATM    8  C   UNL     1      -8.672   8.837  65.577  1.00  0.00    -0.185 C  
BRANCH   8   9
HETATM    9  O   UNL     1      -8.313   7.855  66.552  1.00  0.00    -0.118 OA 
BRANCH   9  10
HETATM   10  C   UNL     1      -6.957   8.039  66.963  1.00  0.00    -0.074 C  
HETATM   11  C   UNL     1      -6.782   7.520  68.376  1.00  0.00    -0.054 C  
ENDBRANCH   9  10
ENDBRANCH   8   9
ENDBRANCH   7   8
ENDBRANCH   6   7
BRANCH   6  12
HETATM   12  C   UNL     1      -9.995  12.121  66.746  1.00  0.00    -0.203 C  
BRANCH  12  13
HETATM   13  C   UNL     1      -9.817  13.502  67.359  1.00  0.00    -0.227 C  
BRANCH  13  14
HETATM   14  P   UNL     1     -11.415  14.418  67.558  1.00  0.00    -0.379 P  
BRANCH  14  15
HETATM   15  C   UNL     1     -12.423  13.752  66.148  1.00  0.00    -0.418 C  
BRANCH  15  16
HETATM   16  C   UNL     1     -12.064  14.457  64.837  1.00  0.00    -0.436 C  
BRANCH  16  17
HETATM   17  O   UNL     1     -12.656  13.774  63.727  1.00  0.00    -0.712 OA 
BRANCH  17  18
HETATM   18  C   UNL     1     -12.523  12.360  63.889  1.00  0.00    -0.476 C  
HETATM   19  C   UNL     1     -11.231  11.893  63.250  1.00  0.00    -0.382 C  
ENDBRANCH  17  18
ENDBRANCH  16  17
ENDBRANCH  15  16
ENDBRANCH  14  15
BRANCH  14  20
HETATM   20  C   UNL     1     -12.151  13.442  68.958  1.00  0.00    -0.259 C  
BRANCH  20  21
HETATM   21  C   UNL     1     -12.049  14.179  70.291  1.00  0.00    -0.342 C  
BRANCH  21  22
HETATM   22  O   UNL     1     -12.175  15.584  70.072  1.00  0.00    -0.358 OA 
BRANCH  22  23
HETATM   23  C   UNL     1     -11.458  16.318  71.069  1.00  0.00    -0.302 C  
HETATM   24  C   UNL     1     -11.924  15.875  72.442  1.00  0.00    -0.620 C  
ENDBRANCH  22  23
ENDBRANCH  21  22
ENDBRANCH  20  21
ENDBRANCH  14  20
ENDBRANCH  13  14
ENDBRANCH  12  13
ENDBRANCH   6  12
ENDBRANCH   5   6
ENDBRANCH   4   5
ENDBRANCH   3   4
ENDBRANCH   2   3
TORSDOF 19
ENDMDL
MODEL      235
REMARK 921   NORMALIZED FREE ENERGY PREDICTED BY IDOCK:   -3.03 KCAL/MOL
REMARK 922        TOTAL FREE ENERGY PREDICTED BY IDOCK:   -7.65 KCAL/MOL
REMARK 923 INTER-LIGAND FREE ENERGY PREDICTED BY IDOCK:   -6.79 KCAL/MOL
REMARK 924 INTRA-LIGAND FREE ENERGY PREDICTED BY IDOCK:   -0.86 KCAL/MOL
REMARK 927      BINDING AFFINITY PREDICTED BY RF-SCORE:    0.00 PKD
ROOT
HETATM    1  C   UNL     1     -11.610  11.756  63.589  1.00  0.00    -0.521 C  
HETATM    2  C   UNL     1     -12.172  13.091  64.034  1.00  0.00    -0.417 C  
ENDROOT
BRANCH   2   3
HETATM    3  O   UNL     1     -12.923  12.921  65.239  1.00  0.00    -0.703 OA 
BRANCH   3   4
HETATM    4  C   UNL     1     -12.555  13.925  66.189  1.00  0.00    -0.380 C  
BRANCH   4   5
HETATM    5  C   UNL     1     -11.074  13.816  66.545  1.00  0.00    -0.306 C  
BRANCH   5   6
HETATM    6  P   UNL     1     -10.814  13.332  68.315  1.00  0.00    -0.276 P  
BRANCH   6   7
HETATM    7  C   UNL     1     -12.273  14.133  69.145  1.00  0.00    -0.255 C  
BRANCH   7   8
HETATM    8  C   UNL     1     -12.021  14.313  70.642  1.00  0.00    -0.322 C  
BRANCH   8   9
HETATM    9  O   UNL     1     -12.676  13.277  71.379  1.00  0.00    -0.354 OA 
BRANCH   9  10
HETATM   10  C   UNL     1     -13.744  13.822  72.157  1.00  0.00    -0.540 C  
HETATM   11  C   UNL     1     -13.496  15.298  72.392  1.00  0.00    -0.565 C  
ENDBRANCH   9  10
ENDBRANCH   8   9
ENDBRANCH   7   8
ENDBRANCH   6   7
BRANCH   6  12
HETATM   12  C   UNL     1     -11.444  11.585  68.298  1.00  0.00    -0.299 C  
BRANCH  12  13
HETATM   13  C   UNL     1     -10.831  10.744  67.187  1.00  0.00    -0.277 C  
BRANCH  13  14
HETATM   14  P   UNL     1      -9.530   9.575  67.797  1.00  0.00    -0.134 P  
BRANCH  14  15
HETATM   15  C   UNL     1     -10.524   8.385  68.819  1.00  0.00    -0.178 C  
BRANCH  15  16
HETATM   16  C   UNL     1      -9.984   8.307  70.249  1.00  0.00    -0.186 C  
BRANCH  16  17
HETATM   17  O   UNL     1      -8.706   7.664  70.264  1.00  0.00    -0.141 OA 
BRANCH  17  18
HETATM   18  C   UNL     1      -8.723   6.512  69.417  1.00  0.00    -0.134 C  
HETATM   19  C   UNL     1      -8.832   5.259  70.261  1.00  0.00    -0.145 C  
ENDBRANCH  17  18
ENDBRANCH  16  17
ENDBRANCH  15  16
ENDBRANCH  14  15
BRANCH  14  20
HETATM   20  C   UNL     1      -9.298   8.553  66.262  1.00  0.00    -0.224 C  
BRANCH  20  21
HETATM   21  C   UNL     1      -7.841   8.147  66.054  1.00  0.00    -0.093 C  
BRANCH  21  22
HETATM   22  O   UNL     1      -7.481   8.340  64.686  1.00  0.00    -0.089 OA 
BRANCH  22  23
HETATM   23  C   UNL     1      -7.332   9.732  64.393  1.00  0.00    -0.132 C  
HETATM   24  C   UNL     1      -5.908  10.153  64.695  1.00  0.00    -0.124 C  
ENDBRANCH  22  23
ENDBRANCH  21  22
ENDBRANCH  20  21
ENDBRANCH  14  20
ENDBRANCH  13  14
ENDBRANCH  12  13
ENDBRANCH   6  12
ENDBRANCH   5   6
ENDBRANCH   4   5
ENDBRANCH   3   4
ENDBRANCH   2   3
TORSDOF 19
ENDMDL
MODEL      236
REMARK 921   NORMALIZED FREE ENERGY PREDICTED BY IDOCK:   -3.03 KCAL/MOL
REMARK 922        TOTAL FREE ENERGY PREDICTED BY IDOCK:   -7.64 KCAL/MOL
REMARK 923 INTER-LIGAND FREE ENERGY PREDICTED BY IDOCK:   -6.55 KCAL/MOL
REMARK 924 INTRA-LIGAND FREE ENERGY PREDICTED BY IDOCK:   -1.09 KCAL/MOL
REMARK 927      BINDING AFFINITY PREDICTED BY RF-SCORE:    0.00 PKD
ROOT
HETATM    1  C   UNL     1      -8.916   4.233  65.553  1.00  0.00    -0.132 C  
HETATM    2  C   UNL     1      -8.372   5.053  64.402  1.00  0.00    -0.136 C  
ENDROOT
BRANCH   2   3
HETATM    3  O   UNL     1      -7.536   6.098  64.905  1.00  0.00    -0.074 OA 
BRANCH   3   4
HETATM    4  C   UNL     1      -7.820   7.323  64.225  1.00  0.00    -0.125 C  
BRANCH   4   5
HETATM    5  C   UNL     1      -8.522   8.308  65.157  1.00  0.00    -0.146 C  
BRANCH   5   6
HETATM    6  P   UNL     1      -8.186  10.071  64.693  1.00  0.00    -0.176 P  
BRANCH   6   7
HETATM    7  C   UNL     1      -9.490  10.378  63.403  1.00  0.00    -0.315 C  
BRANCH   7   8
HETATM    8  C   UNL     1     -10.647  11.195  63.977  1.00  0.00    -0.368 C  
BRANCH   8   9
HETATM    9  O   UNL     1     -10.713  12.472  63.336  1.00  0.00    -0.426 OA 
BRANCH   9  10
HETATM   10  C   UNL     1     -12.053  12.968  63.360  1.00  0.00    -0.515 C  
HETATM   11  C   UNL     1     -12.836  12.262  64.447  1.00  0.00    -0.294 C  
ENDBRANCH   9  10
ENDBRANCH   8   9
ENDBRANCH   7   8
ENDBRANCH   6   7
BRANCH   6  12
HETATM   12  C   UNL     1      -8.992  10.966  66.106  1.00  0.00    -0.183 C  
BRANCH  12  13
HETATM   13  C   UNL     1      -9.526  10.025  67.176  1.00  0.00    -0.155 C  
BRANCH  13  14
HETATM   14  P   UNL     1      -9.873  10.879  68.784  1.00  0.00    -0.168 P  
BRANCH  14  15
HETATM   15  C   UNL     1     -11.655  11.363  68.591  1.00  0.00    -0.320 C  
BRANCH  15  16
HETATM   16  C   UNL     1     -11.805  12.885  68.520  1.00  0.00    -0.313 C  
BRANCH  16  17
HETATM   17  O   UNL     1     -11.512  13.353  67.200  1.00  0.00    -0.307 OA 
BRANCH  17  18
HETATM   18  C   UNL     1     -10.750  14.561  67.262  1.00  0.00    -0.287 C  
HETATM   19  C   UNL     1     -10.055  14.795  65.936  1.00  0.00    -0.343 C  
ENDBRANCH  17  18
ENDBRANCH  16  17
ENDBRANCH  15  16
ENDBRANCH  14  15
BRANCH  14  20
HETATM   20  C   UNL     1     -10.069   9.391  69.881  1.00  0.00    -0.218 C  
BRANCH  20  21
HETATM   21  C   UNL     1     -11.066   9.636  71.012  1.00  0.00    -0.368 C  
BRANCH  21  22
HETATM   22  O   UNL     1     -11.964   8.530  71.105  1.00  0.00    -0.287 OA 
BRANCH  22  23
HETATM   23  C   UNL     1     -13.222   8.945  71.645  1.00  0.00    -0.362 C  
HETATM   24  C   UNL     1     -13.243  10.456  71.752  1.00  0.00    -0.529 C  
ENDBRANCH  22  23
ENDBRANCH  21  22
ENDBRANCH  20  21
ENDBRANCH  14  20
ENDBRANCH  13  14
ENDBRANCH  12  13
ENDBRANCH   6  12
ENDBRANCH   5   6
ENDBRANCH   4   5
ENDBRANCH   3   4
ENDBRANCH   2   3
TORSDOF 19
ENDMDL
MODEL      237
REMARK 921   NORMALIZED FREE ENERGY PREDICTED BY IDOCK:   -3.01 KCAL/MOL
REMARK 922        TOTAL FREE ENERGY PREDICTED BY IDOCK:   -7.61 KCAL/MOL
REMARK 923 INTER-LIGAND FREE ENERGY PREDICTED BY IDOCK:   -6.71 KCAL/MOL
REMARK 924 INTRA-LIGAND FREE ENERGY PREDICTED BY IDOCK:   -0.90 KCAL/MOL
REMARK 927      BINDING AFFINITY PREDICTED BY RF-SCORE:    0.00 PKD
ROOT
HETATM    1  C   UNL     1     -10.782  19.673  65.720  1.00  0.00    -0.493 C  
HETATM    2  C   UNL     1     -10.097  20.292  66.921  1.00  0.00    -0.425 C  
ENDROOT
BRANCH   2   3
HETATM    3  O   UNL     1     -10.660  19.763  68.124  1.00  0.00    -0.413 OA 
BRANCH   3   4
HETATM    4  C   UNL     1      -9.694  18.958  68.805  1.00  0.00    -0.400 C  
BRANCH   4   5
HETATM    5  C   UNL     1     -10.191  17.522  68.948  1.00  0.00    -0.353 C  
BRANCH   5   6
HETATM    6  P   UNL     1      -9.727  16.473  67.490  1.00  0.00    -0.250 P  
BRANCH   6   7
HETATM    7  C   UNL     1      -7.967  16.027  67.891  1.00  0.00    -0.137 C  
BRANCH   7   8
HETATM    8  C   UNL     1      -7.008  16.575  66.834  1.00  0.00    -0.223 C  
BRANCH   8   9
HETATM    9  O   UNL     1      -7.250  17.969  66.626  1.00  0.00    -0.189 OA 
BRANCH   9  10
HETATM   10  C   UNL     1      -6.607  18.410  65.429  1.00  0.00    -0.185 C  
HETATM   11  C   UNL     1      -6.714  19.917  65.321  1.00  0.00    -0.330 C  
ENDBRANCH   9  10
ENDBRANCH   8   9
ENDBRANCH   7   8
ENDBRANCH   6   7
BRANCH   6  12
HETATM   12  C   UNL     1     -10.523  14.860  67.951  1.00  0.00    -0.250 C  
BRANCH  12  13
HETATM   13  C   UNL     1     -10.101  13.711  67.048  1.00  0.00    -0.248 C  
BRANCH  13  14
HETATM   14  P   UNL     1      -9.949  12.099  67.950  1.00  0.00    -0.210 P  
BRANCH  14  15
HETATM   15  C   UNL     1     -11.727  11.640  68.227  1.00  0.00    -0.304 C  
BRANCH  15  16
HETATM   16  C   UNL     1     -11.966  11.228  69.682  1.00  0.00    -0.353 C  
BRANCH  16  17
HETATM   17  O   UNL     1     -11.328   9.977  69.956  1.00  0.00    -0.253 OA 
BRANCH  17  18
HETATM   18  C   UNL     1     -11.376   9.695  71.357  1.00  0.00    -0.374 C  
HETATM   19  C   UNL     1     -12.818   9.631  71.816  1.00  0.00    -0.514 C  
ENDBRANCH  17  18
ENDBRANCH  16  17
ENDBRANCH  15  16
ENDBRANCH  14  15
BRANCH  14  20
HETATM   20  C   UNL     1      -9.558  10.985  66.514  1.00  0.00    -0.195 C  
BRANCH  20  21
HETATM   21  C   UNL     1      -9.588   9.509  66.904  1.00  0.00    -0.165 C  
BRANCH  21  22
HETATM   22  O   UNL     1      -9.526   8.702  65.728  1.00  0.00    -0.206 OA 
BRANCH  22  23
HETATM   23  C   UNL     1      -8.994   7.409  66.030  1.00  0.00    -0.121 C  
HETATM   24  C   UNL     1      -8.336   7.449  67.394  1.00  0.00    -0.116 C  
ENDBRANCH  22  23
ENDBRANCH  21  22
ENDBRANCH  20  21
ENDBRANCH  14  20
ENDBRANCH  13  14
ENDBRANCH  12  13
ENDBRANCH   6  12
ENDBRANCH   5   6
ENDBRANCH   4   5
ENDBRANCH   3   4
ENDBRANCH   2   3
TORSDOF 19
ENDMDL
MODEL      238
REMARK 921   NORMALIZED FREE ENERGY PREDICTED BY IDOCK:   -3.01 KCAL/MOL
REMARK 922        TOTAL FREE ENERGY PREDICTED BY IDOCK:   -7.60 KCAL/MOL
REMARK 923 INTER-LIGAND FREE ENERGY PREDICTED BY IDOCK:   -6.38 KCAL/MOL
REMARK 924 INTRA-LIGAND FREE ENERGY PREDICTED BY IDOCK:   -1.22 KCAL/MOL
REMARK 927      BINDING AFFINITY PREDICTED BY RF-SCORE:    0.00 PKD
ROOT
HETATM    1  C   UNL     1      -6.718   8.664  63.815  1.00  0.00    -0.087 C  
HETATM    2  C   UNL     1      -7.504   9.940  64.034  1.00  0.00    -0.135 C  
ENDROOT
BRANCH   2   3
HETATM    3  O   UNL     1      -8.905   9.657  63.995  1.00  0.00    -0.208 OA 
BRANCH   3   4
HETATM    4  C   UNL     1      -9.577  10.368  65.038  1.00  0.00    -0.280 C  
BRANCH   4   5
HETATM    5  C   UNL     1      -8.682  10.494  66.269  1.00  0.00    -0.151 C  
BRANCH   5   6
HETATM    6  P   UNL     1      -9.236  11.856  67.400  1.00  0.00    -0.189 P  
BRANCH   6   7
HETATM    7  C   UNL     1     -10.205  12.940  66.241  1.00  0.00    -0.278 C  
BRANCH   7   8
HETATM    8  C   UNL     1     -11.659  13.063  66.693  1.00  0.00    -0.359 C  
BRANCH   8   9
HETATM    9  O   UNL     1     -12.531  12.514  65.702  1.00  0.00    -0.648 OA 
BRANCH   9  10
HETATM   10  C   UNL     1     -12.274  13.111  64.430  1.00  0.00    -0.398 C  
HETATM   11  C   UNL     1     -12.531  12.098  63.333  1.00  0.00    -0.625 C  
ENDBRANCH   9  10
ENDBRANCH   8   9
ENDBRANCH   7   8
ENDBRANCH   6   7
BRANCH   6  12
HETATM   12  C   UNL     1     -10.665  11.039  68.259  1.00  0.00    -0.196 C  
BRANCH  12  13
HETATM   13  C   UNL     1     -10.258  10.325  69.539  1.00  0.00    -0.236 C  
BRANCH  13  14
HETATM   14  P   UNL     1     -10.487   8.488  69.450  1.00  0.00    -0.162 P  
BRANCH  14  15
HETATM   15  C   UNL     1      -8.880   7.932  68.705  1.00  0.00    -0.138 C  
BRANCH  15  16
HETATM   16  C   UNL     1      -8.680   6.426  68.896  1.00  0.00    -0.126 C  
BRANCH  16  17
HETATM   17  O   UNL     1      -7.899   5.888  67.825  1.00  0.00    -0.096 OA 
BRANCH  17  18
HETATM   18  C   UNL     1      -8.117   6.641  66.629  1.00  0.00    -0.110 C  
HETATM   19  C   UNL     1      -8.005   5.729  65.424  1.00  0.00    -0.117 C  
ENDBRANCH  17  18
ENDBRANCH  16  17
ENDBRANCH  15  16
ENDBRANCH  14  15
BRANCH  14  20
HETATM   20  C   UNL     1     -10.174   8.057  71.231  1.00  0.00    -0.192 C  
BRANCH  20  21
HETATM   21  C   UNL     1     -11.196   8.698  72.167  1.00  0.00    -0.367 C  
BRANCH  21  22
HETATM   22  O   UNL     1     -12.404   7.939  72.149  1.00  0.00    -0.308 OA 
BRANCH  22  23
HETATM   23  C   UNL     1     -13.539   8.790  72.326  1.00  0.00    -0.430 C  
HETATM   24  C   UNL     1     -13.227  10.159  71.756  1.00  0.00    -0.542 C  
ENDBRANCH  22  23
ENDBRANCH  21  22
ENDBRANCH  20  21
ENDBRANCH  14  20
ENDBRANCH  13  14
ENDBRANCH  12  13
ENDBRANCH   6  12
ENDBRANCH   5   6
ENDBRANCH   4   5
ENDBRANCH   3   4
ENDBRANCH   2   3
TORSDOF 19
ENDMDL
MODEL      239
REMARK 921   NORMALIZED FREE ENERGY PREDICTED BY IDOCK:   -3.00 KCAL/MOL
REMARK 922        TOTAL FREE ENERGY PREDICTED BY IDOCK:   -7.58 KCAL/MOL
REMARK 923 INTER-LIGAND FREE ENERGY PREDICTED BY IDOCK:   -6.51 KCAL/MOL
REMARK 924 INTRA-LIGAND FREE ENERGY PREDICTED BY IDOCK:   -1.07 KCAL/MOL
REMARK 927      BINDING AFFINITY PREDICTED BY RF-SCORE:    0.00 PKD
ROOT
HETATM    1  C   UNL     1      -5.962  12.230  70.015  1.00  0.00    -0.153 C  
HETATM    2  C   UNL     1      -6.771  11.369  69.068  1.00  0.00    -0.092 C  
ENDROOT
BRANCH   2   3
HETATM    3  O   UNL     1      -6.237  10.043  69.044  1.00  0.00    -0.044 OA 
BRANCH   3   4
HETATM    4  C   UNL     1      -6.677   9.359  67.868  1.00  0.00    -0.067 C  
BRANCH   4   5
HETATM    5  C   UNL     1      -7.824  10.114  67.202  1.00  0.00    -0.099 C  
BRANCH   5   6
HETATM    6  P   UNL     1      -9.140   8.970  66.569  1.00  0.00    -0.190 P  
BRANCH   6   7
HETATM    7  C   UNL     1     -10.388   9.031  67.946  1.00  0.00    -0.235 C  
BRANCH   7   8
HETATM    8  C   UNL     1      -9.943   8.169  69.127  1.00  0.00    -0.192 C  
BRANCH   8   9
HETATM    9  O   UNL     1      -9.964   6.786  68.763  1.00  0.00    -0.141 OA 
BRANCH   9  10
HETATM   10  C   UNL     1     -11.096   6.138  69.346  1.00  0.00    -0.409 C  
HETATM   11  C   UNL     1     -11.332   6.686  70.739  1.00  0.00    -0.389 C  
ENDBRANCH   9  10
ENDBRANCH   8   9
ENDBRANCH   7   8
ENDBRANCH   6   7
BRANCH   6  12
HETATM   12  C   UNL     1     -10.017  10.077  65.364  1.00  0.00    -0.294 C  
BRANCH  12  13
HETATM   13  C   UNL     1      -9.837  11.556  65.676  1.00  0.00    -0.236 C  
BRANCH  13  14
HETATM   14  P   UNL     1     -11.269  12.593  65.124  1.00  0.00    -0.328 P  
BRANCH  14  15
HETATM   15  C   UNL     1     -12.032  13.095  66.741  1.00  0.00    -0.373 C  
BRANCH  15  16
HETATM   16  C   UNL     1     -11.236  12.531  67.921  1.00  0.00    -0.264 C  
BRANCH  16  17
HETATM   17  O   UNL     1     -12.076  11.718  68.745  1.00  0.00    -0.358 OA 
BRANCH  17  18
HETATM   18  C   UNL     1     -11.677  11.824  70.114  1.00  0.00    -0.269 C  
HETATM   19  C   UNL     1     -12.413  10.791  70.942  1.00  0.00    -0.500 C  
ENDBRANCH  17  18
ENDBRANCH  16  17
ENDBRANCH  15  16
ENDBRANCH  14  15
BRANCH  14  20
HETATM   20  C   UNL     1     -10.363  14.161  64.706  1.00  0.00    -0.359 C  
BRANCH  20  21
HETATM   21  C   UNL     1     -10.948  15.375  65.424  1.00  0.00    -0.368 C  
BRANCH  21  22
HETATM   22  O   UNL     1     -10.052  16.480  65.305  1.00  0.00    -0.564 OA 
BRANCH  22  23
HETATM   23  C   UNL     1     -10.164  17.347  66.437  1.00  0.00    -0.338 C  
HETATM   24  C   UNL     1      -8.792  17.542  67.050  1.00  0.00    -0.252 C  
ENDBRANCH  22  23
ENDBRANCH  21  22
ENDBRANCH  20  21
ENDBRANCH  14  20
ENDBRANCH  13  14
ENDBRANCH  12  13
ENDBRANCH   6  12
ENDBRANCH   5   6
ENDBRANCH   4   5
ENDBRANCH   3   4
ENDBRANCH   2   3
TORSDOF 19
ENDMDL
MODEL      240
REMARK 921   NORMALIZED FREE ENERGY PREDICTED BY IDOCK:   -3.00 KCAL/MOL
REMARK 922        TOTAL FREE ENERGY PREDICTED BY IDOCK:   -7.58 KCAL/MOL
REMARK 923 INTER-LIGAND FREE ENERGY PREDICTED BY IDOCK:   -6.55 KCAL/MOL
REMARK 924 INTRA-LIGAND FREE ENERGY PREDICTED BY IDOCK:   -1.03 KCAL/MOL
REMARK 927      BINDING AFFINITY PREDICTED BY RF-SCORE:    0.00 PKD
ROOT
HETATM    1  C   UNL     1      -9.494   4.178  64.198  1.00  0.00    -0.156 C  
HETATM    2  C   UNL     1      -8.175   4.920  64.152  1.00  0.00    -0.122 C  
ENDROOT
BRANCH   2   3
HETATM    3  O   UNL     1      -8.311   6.098  63.352  1.00  0.00    -0.052 OA 
BRANCH   3   4
HETATM    4  C   UNL     1      -7.453   7.129  63.849  1.00  0.00    -0.103 C  
BRANCH   4   5
HETATM    5  C   UNL     1      -8.187   7.997  64.868  1.00  0.00    -0.134 C  
BRANCH   5   6
HETATM    6  P   UNL     1      -8.004   9.806  64.506  1.00  0.00    -0.162 P  
BRANCH   6   7
HETATM    7  C   UNL     1      -9.730  10.266  63.990  1.00  0.00    -0.278 C  
BRANCH   7   8
HETATM    8  C   UNL     1      -9.722  11.497  63.085  1.00  0.00    -0.390 C  
BRANCH   8   9
HETATM    9  O   UNL     1     -10.891  12.287  63.318  1.00  0.00    -0.435 OA 
BRANCH   9  10
HETATM   10  C   UNL     1     -11.088  12.477  64.720  1.00  0.00    -0.301 C  
HETATM   11  C   UNL     1     -12.556  12.734  64.995  1.00  0.00    -0.538 C  
ENDBRANCH   9  10
ENDBRANCH   8   9
ENDBRANCH   7   8
ENDBRANCH   6   7
BRANCH   6  12
HETATM   12  C   UNL     1      -8.041  10.513  66.223  1.00  0.00    -0.142 C  
BRANCH  12  13
HETATM   13  C   UNL     1      -9.268  10.086  67.014  1.00  0.00    -0.146 C  
BRANCH  13  14
HETATM   14  P   UNL     1      -9.592  11.163  68.486  1.00  0.00    -0.176 P  
BRANCH  14  15
HETATM   15  C   UNL     1     -11.420  11.460  68.355  1.00  0.00    -0.299 C  
BRANCH  15  16
HETATM   16  C   UNL     1     -11.822  12.739  69.095  1.00  0.00    -0.301 C  
BRANCH  16  17
HETATM   17  O   UNL     1     -12.190  12.439  70.444  1.00  0.00    -0.346 OA 
BRANCH  17  18
HETATM   18  C   UNL     1     -12.598  13.630  71.122  1.00  0.00    -0.371 C  
HETATM   19  C   UNL     1     -13.553  13.278  72.244  1.00  0.00    -0.703 C  
ENDBRANCH  17  18
ENDBRANCH  16  17
ENDBRANCH  15  16
ENDBRANCH  14  15
BRANCH  14  20
HETATM   20  C   UNL     1      -9.580   9.866  69.818  1.00  0.00    -0.231 C  
BRANCH  20  21
HETATM   21  C   UNL     1     -10.012   8.498  69.295  1.00  0.00    -0.195 C  
BRANCH  21  22
HETATM   22  O   UNL     1     -10.573   7.733  70.362  1.00  0.00    -0.218 OA 
BRANCH  22  23
HETATM   23  C   UNL     1     -11.566   8.490  71.059  1.00  0.00    -0.279 C  
HETATM   24  C   UNL     1     -11.524   8.127  72.530  1.00  0.00    -0.470 C  
ENDBRANCH  22  23
ENDBRANCH  21  22
ENDBRANCH  20  21
ENDBRANCH  14  20
ENDBRANCH  13  14
ENDBRANCH  12  13
ENDBRANCH   6  12
ENDBRANCH   5   6
ENDBRANCH   4   5
ENDBRANCH   3   4
ENDBRANCH   2   3
TORSDOF 19
ENDMDL
MODEL      241
REMARK 921   NORMALIZED FREE ENERGY PREDICTED BY IDOCK:   -2.99 KCAL/MOL
REMARK 922        TOTAL FREE ENERGY PREDICTED BY IDOCK:   -7.57 KCAL/MOL
REMARK 923 INTER-LIGAND FREE ENERGY PREDICTED BY IDOCK:   -7.22 KCAL/MOL
REMARK 924 INTRA-LIGAND FREE ENERGY PREDICTED BY IDOCK:   -0.36 KCAL/MOL
REMARK 927      BINDING AFFINITY PREDICTED BY RF-SCORE:    0.00 PKD
ROOT
HETATM    1  C   UNL     1      -9.343   9.945  66.110  1.00  0.00    -0.232 C  
HETATM    2  C   UNL     1     -10.320   9.104  66.905  1.00  0.00    -0.251 C  
ENDROOT
BRANCH   2   3
HETATM    3  O   UNL     1     -11.184   9.954  67.664  1.00  0.00    -0.211 OA 
BRANCH   3   4
HETATM    4  C   UNL     1     -10.536  10.354  68.874  1.00  0.00    -0.212 C  
BRANCH   4   5
HETATM    5  C   UNL     1     -11.114  11.670  69.387  1.00  0.00    -0.206 C  
BRANCH   5   6
HETATM    6  P   UNL     1     -10.641  13.107  68.315  1.00  0.00    -0.255 P  
BRANCH   6   7
HETATM    7  C   UNL     1     -12.105  13.228  67.176  1.00  0.00    -0.298 C  
BRANCH   7   8
HETATM    8  C   UNL     1     -11.698  12.948  65.729  1.00  0.00    -0.390 C  
BRANCH   8   9
HETATM    9  O   UNL     1     -12.852  12.633  64.945  1.00  0.00    -0.763 OA 
BRANCH   9  10
HETATM   10  C   UNL     1     -12.461  12.061  63.696  1.00  0.00    -0.525 C  
HETATM   11  C   UNL     1     -10.959  12.179  63.534  1.00  0.00    -0.521 C  
ENDBRANCH   9  10
ENDBRANCH   8   9
ENDBRANCH   7   8
ENDBRANCH   6   7
BRANCH   6  12
HETATM   12  C   UNL     1     -11.054  14.531  69.434  1.00  0.00    -0.268 C  
BRANCH  12  13
HETATM   13  C   UNL     1      -9.855  15.418  69.734  1.00  0.00    -0.227 C  
BRANCH  13  14
HETATM   14  P   UNL     1     -10.122  17.186  69.249  1.00  0.00    -0.034 P  
BRANCH  14  15
HETATM   15  C   UNL     1      -8.426  17.698  68.696  1.00  0.00    -0.266 C  
BRANCH  15  16
HETATM   16  C   UNL     1      -8.174  19.178  68.998  1.00  0.00    -0.221 C  
BRANCH  16  17
HETATM   17  O   UNL     1      -6.895  19.349  69.617  1.00  0.00    -0.292 OA 
BRANCH  17  18
HETATM   18  C   UNL     1      -6.163  18.121  69.585  1.00  0.00    -0.210 C  
HETATM   19  C   UNL     1      -5.352  17.977  70.856  1.00  0.00    -0.228 C  
ENDBRANCH  17  18
ENDBRANCH  16  17
ENDBRANCH  15  16
ENDBRANCH  14  15
BRANCH  14  20
HETATM   20  C   UNL     1     -10.928  16.928  67.594  1.00  0.00    -0.165 C  
BRANCH  20  21
HETATM   21  C   UNL     1     -10.086  17.489  66.450  1.00  0.00    -0.345 C  
BRANCH  21  22
HETATM   22  O   UNL     1     -10.817  17.393  65.227  1.00  0.00    -0.588 OA 
BRANCH  22  23
HETATM   23  C   UNL     1     -10.923  16.030  64.807  1.00  0.00    -0.356 C  
HETATM   24  C   UNL     1      -9.672  15.283  65.224  1.00  0.00    -0.152 C  
ENDBRANCH  22  23
ENDBRANCH  21  22
ENDBRANCH  20  21
ENDBRANCH  14  20
ENDBRANCH  13  14
ENDBRANCH  12  13
ENDBRANCH   6  12
ENDBRANCH   5   6
ENDBRANCH   4   5
ENDBRANCH   3   4
ENDBRANCH   2   3
TORSDOF 19
ENDMDL
MODEL      242
REMARK 921   NORMALIZED FREE ENERGY PREDICTED BY IDOCK:   -2.99 KCAL/MOL
REMARK 922        TOTAL FREE ENERGY PREDICTED BY IDOCK:   -7.57 KCAL/MOL
REMARK 923 INTER-LIGAND FREE ENERGY PREDICTED BY IDOCK:   -6.29 KCAL/MOL
REMARK 924 INTRA-LIGAND FREE ENERGY PREDICTED BY IDOCK:   -1.28 KCAL/MOL
REMARK 927      BINDING AFFINITY PREDICTED BY RF-SCORE:    0.00 PKD
ROOT
HETATM    1  C   UNL     1      -6.329   8.882  63.825  1.00  0.00    -0.087 C  
HETATM    2  C   UNL     1      -7.217   9.042  65.042  1.00  0.00    -0.092 C  
ENDROOT
BRANCH   2   3
HETATM    3  O   UNL     1      -8.348   8.175  64.932  1.00  0.00    -0.160 OA 
BRANCH   3   4
HETATM    4  C   UNL     1      -9.126   8.231  66.131  1.00  0.00    -0.189 C  
BRANCH   4   5
HETATM    5  C   UNL     1      -8.298   8.789  67.286  1.00  0.00    -0.104 C  
BRANCH   5   6
HETATM    6  P   UNL     1      -9.204  10.109  68.222  1.00  0.00    -0.135 P  
BRANCH   6   7
HETATM    7  C   UNL     1     -10.149  10.956  66.863  1.00  0.00    -0.212 C  
BRANCH   7   8
HETATM    8  C   UNL     1     -11.519  11.420  67.355  1.00  0.00    -0.251 C  
BRANCH   8   9
HETATM    9  O   UNL     1     -12.189  12.155  66.327  1.00  0.00    -0.604 OA 
BRANCH   9  10
HETATM   10  C   UNL     1     -11.621  13.460  66.201  1.00  0.00    -0.346 C  
HETATM   11  C   UNL     1     -11.788  14.212  67.506  1.00  0.00    -0.437 C  
ENDBRANCH   9  10
ENDBRANCH   8   9
ENDBRANCH   7   8
ENDBRANCH   6   7
BRANCH   6  12
HETATM   12  C   UNL     1     -10.604   9.126  68.947  1.00  0.00    -0.191 C  
BRANCH  12  13
HETATM   13  C   UNL     1     -10.130   7.989  69.839  1.00  0.00    -0.198 C  
BRANCH  13  14
HETATM   14  P   UNL     1     -11.266   6.525  69.811  1.00  0.00    -0.372 P  
BRANCH  14  15
HETATM   15  C   UNL     1     -10.070   5.105  69.789  1.00  0.00    -0.266 C  
BRANCH  15  16
HETATM   16  C   UNL     1      -9.457   4.926  68.398  1.00  0.00    -0.139 C  
BRANCH  16  17
HETATM   17  O   UNL     1     -10.415   5.251  67.387  1.00  0.00    -0.199 OA 
BRANCH  17  18
HETATM   18  C   UNL     1     -10.059   4.629  66.150  1.00  0.00    -0.266 C  
HETATM   19  C   UNL     1      -8.552   4.623  65.996  1.00  0.00    -0.115 C  
ENDBRANCH  17  18
ENDBRANCH  16  17
ENDBRANCH  15  16
ENDBRANCH  14  15
BRANCH  14  20
HETATM   20  C   UNL     1     -11.760   6.491  71.603  1.00  0.00    -0.324 C  
BRANCH  20  21
HETATM   21  C   UNL     1     -12.070   7.886  72.142  1.00  0.00    -0.326 C  
BRANCH  21  22
HETATM   22  O   UNL     1     -13.207   8.419  71.464  1.00  0.00    -0.327 OA 
BRANCH  22  23
HETATM   23  C   UNL     1     -13.636   9.638  72.077  1.00  0.00    -0.385 C  
HETATM   24  C   UNL     1     -12.829  10.790  71.510  1.00  0.00    -0.567 C  
ENDBRANCH  22  23
ENDBRANCH  21  22
ENDBRANCH  20  21
ENDBRANCH  14  20
ENDBRANCH  13  14
ENDBRANCH  12  13
ENDBRANCH   6  12
ENDBRANCH   5   6
ENDBRANCH   4   5
ENDBRANCH   3   4
ENDBRANCH   2   3
TORSDOF 19
ENDMDL
MODEL      243
REMARK 921   NORMALIZED FREE ENERGY PREDICTED BY IDOCK:   -2.99 KCAL/MOL
REMARK 922        TOTAL FREE ENERGY PREDICTED BY IDOCK:   -7.56 KCAL/MOL
REMARK 923 INTER-LIGAND FREE ENERGY PREDICTED BY IDOCK:   -6.56 KCAL/MOL
REMARK 924 INTRA-LIGAND FREE ENERGY PREDICTED BY IDOCK:   -1.01 KCAL/MOL
REMARK 927      BINDING AFFINITY PREDICTED BY RF-SCORE:    0.00 PKD
ROOT
HETATM    1  C   UNL     1     -10.593  16.610  65.245  1.00  0.00    -0.224 C  
HETATM    2  C   UNL     1     -10.903  15.177  65.627  1.00  0.00    -0.360 C  
ENDROOT
BRANCH   2   3
HETATM    3  O   UNL     1     -12.028  14.710  64.880  1.00  0.00    -0.394 OA 
BRANCH   3   4
HETATM    4  C   UNL     1     -12.615  13.581  65.533  1.00  0.00    -0.481 C  
BRANCH   4   5
HETATM    5  C   UNL     1     -11.928  13.314  66.870  1.00  0.00    -0.375 C  
BRANCH   5   6
HETATM    6  P   UNL     1     -11.361  11.555  67.025  1.00  0.00    -0.105 P  
BRANCH   6   7
HETATM    7  C   UNL     1      -9.883  11.533  65.897  1.00  0.00    -0.231 C  
BRANCH   7   8
HETATM    8  C   UNL     1     -10.149  10.672  64.663  1.00  0.00    -0.349 C  
BRANCH   8   9
HETATM    9  O   UNL     1     -10.065  11.470  63.479  1.00  0.00    -0.329 OA 
BRANCH   9  10
HETATM   10  C   UNL     1      -9.106  10.916  62.576  1.00  0.00    -0.326 C  
HETATM   11  C   UNL     1      -8.751   9.510  63.014  1.00  0.00    -0.233 C  
ENDBRANCH   9  10
ENDBRANCH   8   9
ENDBRANCH   7   8
ENDBRANCH   6   7
BRANCH   6  12
HETATM   12  C   UNL     1     -10.458  11.620  68.647  1.00  0.00    -0.213 C  
BRANCH  12  13
HETATM   13  C   UNL     1     -11.199  10.908  69.768  1.00  0.00    -0.281 C  
BRANCH  13  14
HETATM   14  P   UNL     1     -10.185   9.591  70.586  1.00  0.00    -0.242 P  
BRANCH  14  15
HETATM   15  C   UNL     1     -11.297   9.046  71.969  1.00  0.00    -0.324 C  
BRANCH  15  16
HETATM   16  C   UNL     1     -11.538   7.535  71.916  1.00  0.00    -0.275 C  
BRANCH  16  17
HETATM   17  O   UNL     1     -11.031   6.909  73.098  1.00  0.00    -0.285 OA 
BRANCH  17  18
HETATM   18  C   UNL     1     -10.062   5.915  72.754  1.00  0.00    -0.183 C  
HETATM   19  C   UNL     1     -10.694   4.540  72.824  1.00  0.00    -0.258 C  
ENDBRANCH  17  18
ENDBRANCH  16  17
ENDBRANCH  15  16
ENDBRANCH  14  15
BRANCH  14  20
HETATM   20  C   UNL     1     -10.470   8.200  69.387  1.00  0.00    -0.220 C  
BRANCH  20  21
HETATM   21  C   UNL     1      -9.499   8.246  68.209  1.00  0.00    -0.138 C  
BRANCH  21  22
HETATM   22  O   UNL     1     -10.138   7.727  67.042  1.00  0.00    -0.218 OA 
BRANCH  22  23
HETATM   23  C   UNL     1      -9.461   6.558  66.573  1.00  0.00    -0.154 C  
HETATM   24  C   UNL     1     -10.426   5.389  66.580  1.00  0.00    -0.356 C  
ENDBRANCH  22  23
ENDBRANCH  21  22
ENDBRANCH  20  21
ENDBRANCH  14  20
ENDBRANCH  13  14
ENDBRANCH  12  13
ENDBRANCH   6  12
ENDBRANCH   5   6
ENDBRANCH   4   5
ENDBRANCH   3   4
ENDBRANCH   2   3
TORSDOF 19
ENDMDL
MODEL      244
REMARK 921   NORMALIZED FREE ENERGY PREDICTED BY IDOCK:   -2.98 KCAL/MOL
REMARK 922        TOTAL FREE ENERGY PREDICTED BY IDOCK:   -7.55 KCAL/MOL
REMARK 923 INTER-LIGAND FREE ENERGY PREDICTED BY IDOCK:   -6.21 KCAL/MOL
REMARK 924 INTRA-LIGAND FREE ENERGY PREDICTED BY IDOCK:   -1.34 KCAL/MOL
REMARK 927      BINDING AFFINITY PREDICTED BY RF-SCORE:    0.00 PKD
ROOT
HETATM    1  C   UNL     1     -14.342   8.137  71.724  1.00  0.00    -0.582 C  
HETATM    2  C   UNL     1     -13.741   9.416  72.267  1.00  0.00    -0.426 C  
ENDROOT
BRANCH   2   3
HETATM    3  O   UNL     1     -12.315   9.323  72.257  1.00  0.00    -0.344 OA 
BRANCH   3   4
HETATM    4  C   UNL     1     -11.794   9.916  71.064  1.00  0.00    -0.376 C  
BRANCH   4   5
HETATM    5  C   UNL     1     -10.877   8.939  70.332  1.00  0.00    -0.236 C  
BRANCH   5   6
HETATM    6  P   UNL     1      -9.260   8.706  71.208  1.00  0.00    -0.261 P  
BRANCH   6   7
HETATM    7  C   UNL     1      -9.510   7.058  72.031  1.00  0.00    -0.138 C  
BRANCH   7   8
HETATM    8  C   UNL     1     -10.706   6.321  71.430  1.00  0.00    -0.248 C  
BRANCH   8   9
HETATM    9  O   UNL     1     -11.563   5.842  72.470  1.00  0.00    -0.302 OA 
BRANCH   9  10
HETATM   10  C   UNL     1     -10.794   5.203  73.490  1.00  0.00    -0.303 C  
HETATM   11  C   UNL     1     -11.153   3.732  73.548  1.00  0.00    -0.328 C  
ENDBRANCH   9  10
ENDBRANCH   8   9
ENDBRANCH   7   8
ENDBRANCH   6   7
BRANCH   6  12
HETATM   12  C   UNL     1      -8.179   8.145  69.807  1.00  0.00    -0.122 C  
BRANCH  12  13
HETATM   13  C   UNL     1      -8.244   9.069  68.600  1.00  0.00    -0.118 C  
BRANCH  13  14
HETATM   14  P   UNL     1      -8.656   8.179  67.027  1.00  0.00    -0.128 P  
BRANCH  14  15
HETATM   15  C   UNL     1      -9.476   6.637  67.656  1.00  0.00    -0.124 C  
BRANCH  15  16
HETATM   16  C   UNL     1      -8.836   5.388  67.047  1.00  0.00    -0.110 C  
BRANCH  16  17
HETATM   17  O   UNL     1      -9.841   4.422  66.722  1.00  0.00    -0.202 OA 
BRANCH  17  18
HETATM   18  C   UNL     1      -9.486   3.724  65.526  1.00  0.00    -0.169 C  
HETATM   19  C   UNL     1      -9.269   4.715  64.401  1.00  0.00    -0.090 C  
ENDBRANCH  17  18
ENDBRANCH  16  17
ENDBRANCH  15  16
ENDBRANCH  14  15
BRANCH  14  20
HETATM   20  C   UNL     1     -10.157   9.148  66.516  1.00  0.00    -0.287 C  
BRANCH  20  21
HETATM   21  C   UNL     1     -10.100  10.597  66.995  1.00  0.00    -0.211 C  
BRANCH  21  22
HETATM   22  O   UNL     1     -11.425  11.113  67.117  1.00  0.00    -0.461 OA 
BRANCH  22  23
HETATM   23  C   UNL     1     -11.659  12.141  66.151  1.00  0.00    -0.354 C  
HETATM   24  C   UNL     1     -10.484  13.098  66.150  1.00  0.00    -0.287 C  
ENDBRANCH  22  23
ENDBRANCH  21  22
ENDBRANCH  20  21
ENDBRANCH  14  20
ENDBRANCH  13  14
ENDBRANCH  12  13
ENDBRANCH   6  12
ENDBRANCH   5   6
ENDBRANCH   4   5
ENDBRANCH   3   4
ENDBRANCH   2   3
TORSDOF 19
ENDMDL
MODEL      245
REMARK 921   NORMALIZED FREE ENERGY PREDICTED BY IDOCK:   -2.98 KCAL/MOL
REMARK 922        TOTAL FREE ENERGY PREDICTED BY IDOCK:   -7.54 KCAL/MOL
REMARK 923 INTER-LIGAND FREE ENERGY PREDICTED BY IDOCK:   -6.67 KCAL/MOL
REMARK 924 INTRA-LIGAND FREE ENERGY PREDICTED BY IDOCK:   -0.87 KCAL/MOL
REMARK 927      BINDING AFFINITY PREDICTED BY RF-SCORE:    0.00 PKD
ROOT
HETATM    1  C   UNL     1     -13.593  14.057  72.041  1.00  0.00    -0.552 C  
HETATM    2  C   UNL     1     -12.324  14.633  71.446  1.00  0.00    -0.348 C  
ENDROOT
BRANCH   2   3
HETATM    3  O   UNL     1     -12.645  15.751  70.615  1.00  0.00    -0.426 OA 
BRANCH   3   4
HETATM    4  C   UNL     1     -12.233  15.495  69.270  1.00  0.00    -0.181 C  
BRANCH   4   5
HETATM    5  C   UNL     1     -11.171  16.499  68.830  1.00  0.00    -0.277 C  
BRANCH   5   6
HETATM    6  P   UNL     1     -10.456  16.079  67.171  1.00  0.00    -0.283 P  
BRANCH   6   7
HETATM    7  C   UNL     1     -10.239  17.764  66.415  1.00  0.00    -0.365 C  
BRANCH   7   8
HETATM    8  C   UNL     1     -10.829  18.849  67.316  1.00  0.00    -0.372 C  
BRANCH   8   9
HETATM    9  O   UNL     1      -9.824  19.807  67.657  1.00  0.00    -0.346 OA 
BRANCH   9  10
HETATM   10  C   UNL     1      -8.818  19.851  66.643  1.00  0.00    -0.358 C  
HETATM   11  C   UNL     1      -7.548  20.447  67.215  1.00  0.00    -0.371 C  
ENDBRANCH   9  10
ENDBRANCH   8   9
ENDBRANCH   7   8
ENDBRANCH   6   7
BRANCH   6  12
HETATM   12  C   UNL     1      -8.684  15.758  67.623  1.00  0.00    -0.170 C  
BRANCH  12  13
HETATM   13  C   UNL     1      -8.173  14.421  67.107  1.00  0.00    -0.178 C  
BRANCH  13  14
HETATM   14  P   UNL     1      -9.044  12.971  67.865  1.00  0.00    -0.222 P  
BRANCH  14  15
HETATM   15  C   UNL     1      -9.568  12.007  66.368  1.00  0.00    -0.228 C  
BRANCH  15  16
HETATM   16  C   UNL     1     -10.087  12.938  65.269  1.00  0.00    -0.238 C  
BRANCH  16  17
HETATM   17  O   UNL     1     -10.261  12.217  64.046  1.00  0.00    -0.329 OA 
BRANCH  17  18
HETATM   18  C   UNL     1     -11.517  12.550  63.450  1.00  0.00    -0.452 C  
HETATM   19  C   UNL     1     -12.603  12.536  64.507  1.00  0.00    -0.503 C  
ENDBRANCH  17  18
ENDBRANCH  16  17
ENDBRANCH  15  16
ENDBRANCH  14  15
BRANCH  14  20
HETATM   20  C   UNL     1      -7.567  11.968  68.383  1.00  0.00    -0.128 C  
BRANCH  20  21
HETATM   21  C   UNL     1      -6.987  11.156  67.227  1.00  0.00    -0.096 C  
BRANCH  21  22
HETATM   22  O   UNL     1      -7.153   9.763  67.491  1.00  0.00    -0.086 OA 
BRANCH  22  23
HETATM   23  C   UNL     1      -6.575   8.978  66.445  1.00  0.00    -0.067 C  
HETATM   24  C   UNL     1      -6.763   9.697  65.123  1.00  0.00    -0.094 C  
ENDBRANCH  22  23
ENDBRANCH  21  22
ENDBRANCH  20  21
ENDBRANCH  14  20
ENDBRANCH  13  14
ENDBRANCH  12  13
ENDBRANCH   6  12
ENDBRANCH   5   6
ENDBRANCH   4   5
ENDBRANCH   3   4
ENDBRANCH   2   3
TORSDOF 19
ENDMDL
MODEL      246
REMARK 921   NORMALIZED FREE ENERGY PREDICTED BY IDOCK:   -2.97 KCAL/MOL
REMARK 922        TOTAL FREE ENERGY PREDICTED BY IDOCK:   -7.52 KCAL/MOL
REMARK 923 INTER-LIGAND FREE ENERGY PREDICTED BY IDOCK:   -6.26 KCAL/MOL
REMARK 924 INTRA-LIGAND FREE ENERGY PREDICTED BY IDOCK:   -1.26 KCAL/MOL
REMARK 927      BINDING AFFINITY PREDICTED BY RF-SCORE:    0.00 PKD
ROOT
HETATM    1  C   UNL     1      -6.041  14.005  68.855  1.00  0.00    -0.086 C  
HETATM    2  C   UNL     1      -7.107  15.030  69.182  1.00  0.00    -0.149 C  
ENDROOT
BRANCH   2   3
HETATM    3  O   UNL     1      -8.285  14.763  68.417  1.00  0.00    -0.140 OA 
BRANCH   3   4
HETATM    4  C   UNL     1      -8.086  13.607  67.600  1.00  0.00    -0.177 C  
BRANCH   4   5
HETATM    5  C   UNL     1      -9.405  13.148  66.984  1.00  0.00    -0.238 C  
BRANCH   5   6
HETATM    6  P   UNL     1     -10.689  12.783  68.271  1.00  0.00    -0.253 P  
BRANCH   6   7
HETATM    7  C   UNL     1     -12.158  13.714  67.615  1.00  0.00    -0.293 C  
BRANCH   7   8
HETATM    8  C   UNL     1     -11.919  14.172  66.176  1.00  0.00    -0.422 C  
BRANCH   8   9
HETATM    9  O   UNL     1     -13.021  13.792  65.349  1.00  0.00    -0.706 OA 
BRANCH   9  10
HETATM   10  C   UNL     1     -12.781  12.512  64.762  1.00  0.00    -0.330 C  
HETATM   11  C   UNL     1     -12.030  12.686  63.458  1.00  0.00    -0.630 C  
ENDBRANCH   9  10
ENDBRANCH   8   9
ENDBRANCH   7   8
ENDBRANCH   6   7
BRANCH   6  12
HETATM   12  C   UNL     1     -11.211  11.073  67.772  1.00  0.00    -0.308 C  
BRANCH  12  13
HETATM   13  C   UNL     1     -10.931  10.030  68.843  1.00  0.00    -0.207 C  
BRANCH  13  14
HETATM   14  P   UNL     1     -10.269   8.442  68.155  1.00  0.00    -0.186 P  
BRANCH  14  15
HETATM   15  C   UNL     1      -8.448   8.610  68.472  1.00  0.00    -0.131 C  
BRANCH  15  16
HETATM   16  C   UNL     1      -7.667   8.684  67.157  1.00  0.00    -0.096 C  
BRANCH  16  17
HETATM   17  O   UNL     1      -7.942   9.916  66.484  1.00  0.00    -0.108 OA 
BRANCH  17  18
HETATM   18  C   UNL     1      -8.075   9.691  65.078  1.00  0.00    -0.127 C  
HETATM   19  C   UNL     1      -9.474  10.063  64.631  1.00  0.00    -0.367 C  
ENDBRANCH  17  18
ENDBRANCH  16  17
ENDBRANCH  15  16
ENDBRANCH  14  15
BRANCH  14  20
HETATM   20  C   UNL     1     -10.725   7.296  69.545  1.00  0.00    -0.232 C  
BRANCH  20  21
HETATM   21  C   UNL     1     -10.848   5.846  69.080  1.00  0.00    -0.336 C  
BRANCH  21  22
HETATM   22  O   UNL     1     -10.296   4.978  70.070  1.00  0.00    -0.275 OA 
BRANCH  22  23
HETATM   23  C   UNL     1     -10.225   5.637  71.337  1.00  0.00    -0.214 C  
HETATM   24  C   UNL     1     -10.536   4.638  72.434  1.00  0.00    -0.250 C  
ENDBRANCH  22  23
ENDBRANCH  21  22
ENDBRANCH  20  21
ENDBRANCH  14  20
ENDBRANCH  13  14
ENDBRANCH  12  13
ENDBRANCH   6  12
ENDBRANCH   5   6
ENDBRANCH   4   5
ENDBRANCH   3   4
ENDBRANCH   2   3
TORSDOF 19
ENDMDL
MODEL      247
REMARK 921   NORMALIZED FREE ENERGY PREDICTED BY IDOCK:   -2.97 KCAL/MOL
REMARK 922        TOTAL FREE ENERGY PREDICTED BY IDOCK:   -7.52 KCAL/MOL
REMARK 923 INTER-LIGAND FREE ENERGY PREDICTED BY IDOCK:   -6.12 KCAL/MOL
REMARK 924 INTRA-LIGAND FREE ENERGY PREDICTED BY IDOCK:   -1.40 KCAL/MOL
REMARK 927      BINDING AFFINITY PREDICTED BY RF-SCORE:    0.00 PKD
ROOT
HETATM    1  C   UNL     1     -11.025  14.390  65.729  1.00  0.00    -0.314 C  
HETATM    2  C   UNL     1     -12.375  13.730  65.920  1.00  0.00    -0.476 C  
ENDROOT
BRANCH   2   3
HETATM    3  O   UNL     1     -12.195  12.387  66.377  1.00  0.00    -0.604 OA 
BRANCH   3   4
HETATM    4  C   UNL     1     -10.899  12.239  66.963  1.00  0.00    -0.250 C  
BRANCH   4   5
HETATM    5  C   UNL     1     -10.564  10.763  67.167  1.00  0.00    -0.256 C  
BRANCH   5   6
HETATM    6  P   UNL     1     -10.120  10.384  68.927  1.00  0.00    -0.225 P  
BRANCH   6   7
HETATM    7  C   UNL     1     -11.311  11.465  69.859  1.00  0.00    -0.219 C  
BRANCH   7   8
HETATM    8  C   UNL     1     -12.621  10.727  70.134  1.00  0.00    -0.240 C  
BRANCH   8   9
HETATM    9  O   UNL     1     -12.886  10.702  71.539  1.00  0.00    -0.395 OA 
BRANCH   9  10
HETATM   10  C   UNL     1     -13.501   9.465  71.905  1.00  0.00    -0.426 C  
HETATM   11  C   UNL     1     -12.455   8.528  72.471  1.00  0.00    -0.358 C  
ENDBRANCH   9  10
ENDBRANCH   8   9
ENDBRANCH   7   8
ENDBRANCH   6   7
BRANCH   6  12
HETATM   12  C   UNL     1     -10.989   8.761  69.166  1.00  0.00     0.043 C  
BRANCH  12  13
HETATM   13  C   UNL     1     -10.067   7.664  69.679  1.00  0.00    -0.194 C  
BRANCH  13  14
HETATM   14  P   UNL     1     -10.892   6.007  69.767  1.00  0.00    -0.377 P  
BRANCH  14  15
HETATM   15  C   UNL     1     -10.188   5.144  68.282  1.00  0.00    -0.111 C  
BRANCH  15  16
HETATM   16  C   UNL     1     -10.418   5.965  67.010  1.00  0.00    -0.278 C  
BRANCH  16  17
HETATM   17  O   UNL     1      -9.186   6.146  66.305  1.00  0.00    -0.153 OA 
BRANCH  17  18
HETATM   18  C   UNL     1      -8.903   7.539  66.154  1.00  0.00    -0.159 C  
HETATM   19  C   UNL     1      -7.633   7.887  66.903  1.00  0.00    -0.099 C  
ENDBRANCH  17  18
ENDBRANCH  16  17
ENDBRANCH  15  16
ENDBRANCH  14  15
BRANCH  14  20
HETATM   20  C   UNL     1      -9.860   5.226  71.102  1.00  0.00    -0.189 C  
BRANCH  20  21
HETATM   21  C   UNL     1      -9.032   6.256  71.867  1.00  0.00    -0.139 C  
BRANCH  21  22
HETATM   22  O   UNL     1      -9.124   5.998  73.268  1.00  0.00    -0.131 OA 
BRANCH  22  23
HETATM   23  C   UNL     1      -9.425   7.198  73.985  1.00  0.00    -0.263 C  
HETATM   24  C   UNL     1      -8.303   8.195  73.779  1.00  0.00    -0.311 C  
ENDBRANCH  22  23
ENDBRANCH  21  22
ENDBRANCH  20  21
ENDBRANCH  14  20
ENDBRANCH  13  14
ENDBRANCH  12  13
ENDBRANCH   6  12
ENDBRANCH   5   6
ENDBRANCH   4   5
ENDBRANCH   3   4
ENDBRANCH   2   3
TORSDOF 19
ENDMDL
MODEL      248
REMARK 921   NORMALIZED FREE ENERGY PREDICTED BY IDOCK:   -2.97 KCAL/MOL
REMARK 922        TOTAL FREE ENERGY PREDICTED BY IDOCK:   -7.52 KCAL/MOL
REMARK 923 INTER-LIGAND FREE ENERGY PREDICTED BY IDOCK:   -6.10 KCAL/MOL
REMARK 924 INTRA-LIGAND FREE ENERGY PREDICTED BY IDOCK:   -1.42 KCAL/MOL
REMARK 927      BINDING AFFINITY PREDICTED BY RF-SCORE:    0.00 PKD
ROOT
HETATM    1  C   UNL     1     -10.966  15.861  64.940  1.00  0.00    -0.427 C  
HETATM    2  C   UNL     1     -10.882  14.364  64.720  1.00  0.00    -0.399 C  
ENDROOT
BRANCH   2   3
HETATM    3  O   UNL     1     -12.185  13.786  64.834  1.00  0.00    -0.381 OA 
BRANCH   3   4
HETATM    4  C   UNL     1     -12.112  12.556  65.559  1.00  0.00    -0.419 C  
BRANCH   4   5
HETATM    5  C   UNL     1     -12.033  12.818  67.061  1.00  0.00    -0.295 C  
BRANCH   5   6
HETATM    6  P   UNL     1     -11.303  11.386  67.984  1.00  0.00    -0.305 P  
BRANCH   6   7
HETATM    7  C   UNL     1      -9.481  11.720  67.821  1.00  0.00    -0.181 C  
BRANCH   7   8
HETATM    8  C   UNL     1      -8.787  10.605  67.040  1.00  0.00    -0.137 C  
BRANCH   8   9
HETATM    9  O   UNL     1      -8.957  10.808  65.635  1.00  0.00    -0.178 OA 
BRANCH   9  10
HETATM   10  C   UNL     1      -9.498   9.633  65.027  1.00  0.00    -0.245 C  
HETATM   11  C   UNL     1      -8.957   8.405  65.730  1.00  0.00    -0.207 C  
ENDBRANCH   9  10
ENDBRANCH   8   9
ENDBRANCH   7   8
ENDBRANCH   6   7
BRANCH   6  12
HETATM   12  C   UNL     1     -11.522  11.951  69.739  1.00  0.00    -0.229 C  
BRANCH  12  13
HETATM   13  C   UNL     1     -11.783  10.803  70.704  1.00  0.00    -0.342 C  
BRANCH  13  14
HETATM   14  P   UNL     1     -11.035   9.203  70.145  1.00  0.00    -0.193 P  
BRANCH  14  15
HETATM   15  C   UNL     1      -9.367   9.248  70.959  1.00  0.00    -0.227 C  
BRANCH  15  16
HETATM   16  C   UNL     1      -8.455   8.153  70.400  1.00  0.00    -0.129 C  
BRANCH  16  17
HETATM   17  O   UNL     1      -9.157   7.364  69.435  1.00  0.00    -0.140 OA 
BRANCH  17  18
HETATM   18  C   UNL     1      -8.317   6.315  68.949  1.00  0.00    -0.120 C  
HETATM   19  C   UNL     1      -7.133   6.137  69.876  1.00  0.00    -0.072 C  
ENDBRANCH  17  18
ENDBRANCH  16  17
ENDBRANCH  15  16
ENDBRANCH  14  15
BRANCH  14  20
HETATM   20  C   UNL     1     -11.915   8.039  71.298  1.00  0.00    -0.296 C  
BRANCH  20  21
HETATM   21  C   UNL     1     -11.305   8.043  72.698  1.00  0.00    -0.405 C  
BRANCH  21  22
HETATM   22  O   UNL     1     -10.699   6.778  72.959  1.00  0.00    -0.248 OA 
BRANCH  22  23
HETATM   23  C   UNL     1     -11.270   5.762  72.129  1.00  0.00    -0.269 C  
HETATM   24  C   UNL     1     -10.247   4.665  71.913  1.00  0.00    -0.254 C  
ENDBRANCH  22  23
ENDBRANCH  21  22
ENDBRANCH  20  21
ENDBRANCH  14  20
ENDBRANCH  13  14
ENDBRANCH  12  13
ENDBRANCH   6  12
ENDBRANCH   5   6
ENDBRANCH   4   5
ENDBRANCH   3   4
ENDBRANCH   2   3
TORSDOF 19
ENDMDL
MODEL      249
REMARK 921   NORMALIZED FREE ENERGY PREDICTED BY IDOCK:   -2.97 KCAL/MOL
REMARK 922        TOTAL FREE ENERGY PREDICTED BY IDOCK:   -7.51 KCAL/MOL
REMARK 923 INTER-LIGAND FREE ENERGY PREDICTED BY IDOCK:   -6.75 KCAL/MOL
REMARK 924 INTRA-LIGAND FREE ENERGY PREDICTED BY IDOCK:   -0.76 KCAL/MOL
REMARK 927      BINDING AFFINITY PREDICTED BY RF-SCORE:    0.00 PKD
ROOT
HETATM    1  C   UNL     1      -7.263  17.702  67.374  1.00  0.00    -0.198 C  
HETATM    2  C   UNL     1      -7.826  18.066  66.016  1.00  0.00    -0.141 C  
ENDROOT
BRANCH   2   3
HETATM    3  O   UNL     1      -8.810  17.103  65.627  1.00  0.00    -0.482 OA 
BRANCH   3   4
HETATM    4  C   UNL     1      -9.386  16.497  66.787  1.00  0.00    -0.243 C  
BRANCH   4   5
HETATM    5  C   UNL     1      -9.133  14.992  66.792  1.00  0.00    -0.262 C  
BRANCH   5   6
HETATM    6  P   UNL     1      -9.986  14.144  68.203  1.00  0.00    -0.241 P  
BRANCH   6   7
HETATM    7  C   UNL     1     -11.691  13.880  67.511  1.00  0.00    -0.380 C  
BRANCH   7   8
HETATM    8  C   UNL     1     -11.966  12.393  67.283  1.00  0.00    -0.176 C  
BRANCH   8   9
HETATM    9  O   UNL     1     -12.125  12.131  65.887  1.00  0.00    -0.594 OA 
BRANCH   9  10
HETATM   10  C   UNL     1     -12.584  13.303  65.212  1.00  0.00    -0.470 C  
HETATM   11  C   UNL     1     -12.082  13.294  63.782  1.00  0.00    -0.546 C  
ENDBRANCH   9  10
ENDBRANCH   8   9
ENDBRANCH   7   8
ENDBRANCH   6   7
BRANCH   6  12
HETATM   12  C   UNL     1      -9.347  12.411  68.009  1.00  0.00    -0.204 C  
BRANCH  12  13
HETATM   13  C   UNL     1      -9.303  11.644  69.322  1.00  0.00     0.481 C  
BRANCH  13  14
HETATM   14  P   UNL     1      -9.082   9.819  69.089  1.00  0.00    -0.188 P  
BRANCH  14  15
HETATM   15  C   UNL     1     -10.614   9.137  69.885  1.00  0.00    -0.230 C  
BRANCH  15  16
HETATM   16  C   UNL     1     -11.238  10.159  70.839  1.00  0.00    -0.307 C  
BRANCH  16  17
HETATM   17  O   UNL     1     -11.889   9.493  71.925  1.00  0.00    -0.373 OA 
BRANCH  17  18
HETATM   18  C   UNL     1     -13.285   9.804  71.929  1.00  0.00    -0.449 C  
HETATM   19  C   UNL     1     -14.092   8.529  71.795  1.00  0.00    -0.515 C  
ENDBRANCH  17  18
ENDBRANCH  16  17
ENDBRANCH  15  16
ENDBRANCH  14  15
BRANCH  14  20
HETATM   20  C   UNL     1      -9.570   9.681  67.300  1.00  0.00    -0.164 C  
BRANCH  20  21
HETATM   21  C   UNL     1     -10.733   8.714  67.093  1.00  0.00    -0.129 C  
BRANCH  21  22
HETATM   22  O   UNL     1     -10.239   7.474  66.587  1.00  0.00    -0.250 OA 
BRANCH  22  23
HETATM   23  C   UNL     1     -11.099   6.395  66.965  1.00  0.00    -0.329 C  
HETATM   24  C   UNL     1     -10.810   6.010  68.402  1.00  0.00    -0.361 C  
ENDBRANCH  22  23
ENDBRANCH  21  22
ENDBRANCH  20  21
ENDBRANCH  14  20
ENDBRANCH  13  14
ENDBRANCH  12  13
ENDBRANCH   6  12
ENDBRANCH   5   6
ENDBRANCH   4   5
ENDBRANCH   3   4
ENDBRANCH   2   3
TORSDOF 19
ENDMDL
MODEL      250
REMARK 921   NORMALIZED FREE ENERGY PREDICTED BY IDOCK:   -2.96 KCAL/MOL
REMARK 922        TOTAL FREE ENERGY PREDICTED BY IDOCK:   -7.50 KCAL/MOL
REMARK 923 INTER-LIGAND FREE ENERGY PREDICTED BY IDOCK:   -6.58 KCAL/MOL
REMARK 924 INTRA-LIGAND FREE ENERGY PREDICTED BY IDOCK:   -0.92 KCAL/MOL
REMARK 927      BINDING AFFINITY PREDICTED BY RF-SCORE:    0.00 PKD
ROOT
HETATM    1  C   UNL     1      -9.905   4.382  65.571  1.00  0.00    -0.225 C  
HETATM    2  C   UNL     1     -10.638   5.242  66.580  1.00  0.00    -0.270 C  
ENDROOT
BRANCH   2   3
HETATM    3  O   UNL     1      -9.823   6.359  66.945  1.00  0.00    -0.144 OA 
BRANCH   3   4
HETATM    4  C   UNL     1     -10.644   7.505  67.184  1.00  0.00    -0.345 C  
BRANCH   4   5
HETATM    5  C   UNL     1      -9.823   8.788  67.081  1.00  0.00    -0.207 C  
BRANCH   5   6
HETATM    6  P   UNL     1     -10.814  10.291  67.526  1.00  0.00    -0.215 P  
BRANCH   6   7
HETATM    7  C   UNL     1     -10.157  10.689  69.219  1.00  0.00    -0.206 C  
BRANCH   7   8
HETATM    8  C   UNL     1     -11.022  10.053  70.306  1.00  0.00    -0.316 C  
BRANCH   8   9
HETATM    9  O   UNL     1     -11.809  11.054  70.958  1.00  0.00    -0.280 OA 
BRANCH   9  10
HETATM   10  C   UNL     1     -13.141  10.581  71.163  1.00  0.00    -0.358 C  
HETATM   11  C   UNL     1     -13.146   9.537  72.260  1.00  0.00    -0.492 C  
ENDBRANCH   9  10
ENDBRANCH   8   9
ENDBRANCH   7   8
ENDBRANCH   6   7
BRANCH   6  12
HETATM   12  C   UNL     1      -9.909  11.603  66.573  1.00  0.00    -0.204 C  
BRANCH  12  13
HETATM   13  C   UNL     1      -9.588  12.831  67.412  1.00  0.00    -0.199 C  
BRANCH  13  14
HETATM   14  P   UNL     1     -10.085  14.417  66.594  1.00  0.00    -0.291 P  
BRANCH  14  15
HETATM   15  C   UNL     1     -11.752  14.737  67.346  1.00  0.00    -0.350 C  
BRANCH  15  16
HETATM   16  C   UNL     1     -11.623  15.107  68.826  1.00  0.00    -0.349 C  
BRANCH  16  17
HETATM   17  O   UNL     1     -12.315  14.154  69.639  1.00  0.00    -0.326 OA 
BRANCH  17  18
HETATM   18  C   UNL     1     -12.270  14.550  71.012  1.00  0.00    -0.339 C  
HETATM   19  C   UNL     1     -13.402  15.512  71.304  1.00  0.00    -0.588 C  
ENDBRANCH  17  18
ENDBRANCH  16  17
ENDBRANCH  15  16
ENDBRANCH  14  15
BRANCH  14  20
HETATM   20  C   UNL     1      -9.058  15.605  67.589  1.00  0.00    -0.192 C  
BRANCH  20  21
HETATM   21  C   UNL     1      -7.714  15.900  66.927  1.00  0.00    -0.233 C  
BRANCH  21  22
HETATM   22  O   UNL     1      -6.741  14.957  67.380  1.00  0.00    -0.236 OA 
BRANCH  22  23
HETATM   23  C   UNL     1      -6.467  15.142  68.771  1.00  0.00    -0.086 C  
HETATM   24  C   UNL     1      -5.704  16.438  68.959  1.00  0.00    -0.130 C  
ENDBRANCH  22  23
ENDBRANCH  21  22
ENDBRANCH  20  21
ENDBRANCH  14  20
ENDBRANCH  13  14
ENDBRANCH  12  13
ENDBRANCH   6  12
ENDBRANCH   5   6
ENDBRANCH   4   5
ENDBRANCH   3   4
ENDBRANCH   2   3
TORSDOF 19
ENDMDL
MODEL      251
REMARK 921   NORMALIZED FREE ENERGY PREDICTED BY IDOCK:   -2.95 KCAL/MOL
REMARK 922        TOTAL FREE ENERGY PREDICTED BY IDOCK:   -7.49 KCAL/MOL
REMARK 923 INTER-LIGAND FREE ENERGY PREDICTED BY IDOCK:   -6.51 KCAL/MOL
REMARK 924 INTRA-LIGAND FREE ENERGY PREDICTED BY IDOCK:   -0.97 KCAL/MOL
REMARK 927      BINDING AFFINITY PREDICTED BY RF-SCORE:    0.00 PKD
ROOT
HETATM    1  C   UNL     1     -12.003  13.087  65.163  1.00  0.00    -0.440 C  
HETATM    2  C   UNL     1     -12.303  13.596  66.558  1.00  0.00    -0.361 C  
ENDROOT
BRANCH   2   3
HETATM    3  O   UNL     1     -11.457  14.710  66.857  1.00  0.00    -0.347 OA 
BRANCH   3   4
HETATM    4  C   UNL     1     -11.720  15.181  68.182  1.00  0.00    -0.302 C  
BRANCH   4   5
HETATM    5  C   UNL     1     -10.417  15.372  68.955  1.00  0.00    -0.238 C  
BRANCH   5   6
HETATM    6  P   UNL     1      -8.926  15.195  67.867  1.00  0.00    -0.181 P  
BRANCH   6   7
HETATM    7  C   UNL     1      -7.659  16.187  68.798  1.00  0.00    -0.193 C  
BRANCH   7   8
HETATM    8  C   UNL     1      -7.861  17.685  68.571  1.00  0.00    -0.282 C  
BRANCH   8   9
HETATM    9  O   UNL     1      -6.608  18.369  68.650  1.00  0.00    -0.217 OA 
BRANCH   9  10
HETATM   10  C   UNL     1      -6.810  19.730  69.035  1.00  0.00    -0.337 C  
HETATM   11  C   UNL     1      -6.936  20.593  67.797  1.00  0.00    -0.351 C  
ENDBRANCH   9  10
ENDBRANCH   8   9
ENDBRANCH   7   8
ENDBRANCH   6   7
BRANCH   6  12
HETATM   12  C   UNL     1      -8.342  13.498  68.347  1.00  0.00    -0.140 C  
BRANCH  12  13
HETATM   13  C   UNL     1      -8.906  12.402  67.455  1.00  0.00    -0.181 C  
BRANCH  13  14
HETATM   14  P   UNL     1      -9.627  10.989  68.412  1.00  0.00    -0.190 P  
BRANCH  14  15
HETATM   15  C   UNL     1     -11.037  11.803  69.304  1.00  0.00    -0.218 C  
BRANCH  15  16
HETATM   16  C   UNL     1     -12.099  10.776  69.705  1.00  0.00    -0.318 C  
BRANCH  16  17
HETATM   17  O   UNL     1     -11.906  10.365  71.062  1.00  0.00    -0.343 OA 
BRANCH  17  18
HETATM   18  C   UNL     1     -13.091  10.605  71.824  1.00  0.00    -0.466 C  
HETATM   19  C   UNL     1     -13.688   9.286  72.270  1.00  0.00    -0.527 C  
ENDBRANCH  17  18
ENDBRANCH  16  17
ENDBRANCH  15  16
ENDBRANCH  14  15
BRANCH  14  20
HETATM   20  C   UNL     1     -10.566  10.147  67.046  1.00  0.00    -0.225 C  
BRANCH  20  21
HETATM   21  C   UNL     1     -10.040   8.740  66.767  1.00  0.00    -0.288 C  
BRANCH  21  22
HETATM   22  O   UNL     1      -9.122   8.361  67.792  1.00  0.00    -0.135 OA 
BRANCH  22  23
HETATM   23  C   UNL     1      -8.446   7.150  67.444  1.00  0.00    -0.122 C  
HETATM   24  C   UNL     1      -7.821   6.554  68.689  1.00  0.00    -0.110 C  
ENDBRANCH  22  23
ENDBRANCH  21  22
ENDBRANCH  20  21
ENDBRANCH  14  20
ENDBRANCH  13  14
ENDBRANCH  12  13
ENDBRANCH   6  12
ENDBRANCH   5   6
ENDBRANCH   4   5
ENDBRANCH   3   4
ENDBRANCH   2   3
TORSDOF 19
ENDMDL
MODEL      252
REMARK 921   NORMALIZED FREE ENERGY PREDICTED BY IDOCK:   -2.94 KCAL/MOL
REMARK 922        TOTAL FREE ENERGY PREDICTED BY IDOCK:   -7.46 KCAL/MOL
REMARK 923 INTER-LIGAND FREE ENERGY PREDICTED BY IDOCK:   -6.34 KCAL/MOL
REMARK 924 INTRA-LIGAND FREE ENERGY PREDICTED BY IDOCK:   -1.13 KCAL/MOL
REMARK 927      BINDING AFFINITY PREDICTED BY RF-SCORE:    0.00 PKD
ROOT
HETATM    1  C   UNL     1     -12.196  12.743  63.344  1.00  0.00    -0.594 C  
HETATM    2  C   UNL     1     -11.208  13.236  64.381  1.00  0.00    -0.381 C  
ENDROOT
BRANCH   2   3
HETATM    3  O   UNL     1     -11.909  13.893  65.441  1.00  0.00    -0.329 OA 
BRANCH   3   4
HETATM    4  C   UNL     1     -11.858  13.097  66.628  1.00  0.00    -0.391 C  
BRANCH   4   5
HETATM    5  C   UNL     1     -10.440  13.059  67.193  1.00  0.00    -0.243 C  
BRANCH   5   6
HETATM    6  P   UNL     1     -10.190  11.642  68.362  1.00  0.00    -0.206 P  
BRANCH   6   7
HETATM    7  C   UNL     1     -11.939  11.231  68.838  1.00  0.00    -0.310 C  
BRANCH   7   8
HETATM    8  C   UNL     1     -12.090  11.150  70.357  1.00  0.00    -0.385 C  
BRANCH   8   9
HETATM    9  O   UNL     1     -13.134  10.235  70.700  1.00  0.00    -0.365 OA 
BRANCH   9  10
HETATM   10  C   UNL     1     -12.727   9.407  71.792  1.00  0.00    -0.390 C  
HETATM   11  C   UNL     1     -11.223   9.227  71.758  1.00  0.00    -0.413 C  
ENDBRANCH   9  10
ENDBRANCH   8   9
ENDBRANCH   7   8
ENDBRANCH   6   7
BRANCH   6  12
HETATM   12  C   UNL     1      -9.903  10.249  67.168  1.00  0.00    -0.185 C  
BRANCH  12  13
HETATM   13  C   UNL     1     -10.717   9.007  67.499  1.00  0.00    -0.169 C  
BRANCH  13  14
HETATM   14  P   UNL     1      -9.735   7.713  68.391  1.00  0.00    -0.166 P  
BRANCH  14  15
HETATM   15  C   UNL     1     -11.047   6.490  68.869  1.00  0.00    -0.301 C  
BRANCH  15  16
HETATM   16  C   UNL     1     -10.666   5.751  70.154  1.00  0.00    -0.320 C  
BRANCH  16  17
HETATM   17  O   UNL     1     -11.614   6.030  71.189  1.00  0.00    -0.254 OA 
BRANCH  17  18
HETATM   18  C   UNL     1     -11.066   5.691  72.465  1.00  0.00    -0.276 C  
HETATM   19  C   UNL     1     -10.156   4.487  72.327  1.00  0.00    -0.253 C  
ENDBRANCH  17  18
ENDBRANCH  16  17
ENDBRANCH  15  16
ENDBRANCH  14  15
BRANCH  14  20
HETATM   20  C   UNL     1      -9.000   6.830  66.930  1.00  0.00    -0.128 C  
BRANCH  20  21
HETATM   21  C   UNL     1      -7.700   6.112  67.284  1.00  0.00    -0.094 C  
BRANCH  21  22
HETATM   22  O   UNL     1      -7.409   6.304  68.669  1.00  0.00    -0.082 OA 
BRANCH  22  23
HETATM   23  C   UNL     1      -6.722   5.170  69.204  1.00  0.00    -0.052 C  
HETATM   24  C   UNL     1      -6.934   5.123  70.704  1.00  0.00    -0.052 C  
ENDBRANCH  22  23
ENDBRANCH  21  22
ENDBRANCH  20  21
ENDBRANCH  14  20
ENDBRANCH  13  14
ENDBRANCH  12  13
ENDBRANCH   6  12
ENDBRANCH   5   6
ENDBRANCH   4   5
ENDBRANCH   3   4
ENDBRANCH   2   3
TORSDOF 19
ENDMDL
MODEL      253
REMARK 921   NORMALIZED FREE ENERGY PREDICTED BY IDOCK:   -2.92 KCAL/MOL
REMARK 922        TOTAL FREE ENERGY PREDICTED BY IDOCK:   -7.41 KCAL/MOL
REMARK 923 INTER-LIGAND FREE ENERGY PREDICTED BY IDOCK:   -6.29 KCAL/MOL
REMARK 924 INTRA-LIGAND FREE ENERGY PREDICTED BY IDOCK:   -1.12 KCAL/MOL
REMARK 927      BINDING AFFINITY PREDICTED BY RF-SCORE:    0.00 PKD
ROOT
HETATM    1  C   UNL     1      -9.515  11.258  62.870  1.00  0.00    -0.385 C  
HETATM    2  C   UNL     1     -10.635  11.439  63.873  1.00  0.00    -0.392 C  
ENDROOT
BRANCH   2   3
HETATM    3  O   UNL     1     -10.205  12.305  64.927  1.00  0.00    -0.277 OA 
BRANCH   3   4
HETATM    4  C   UNL     1     -10.715  11.842  66.180  1.00  0.00    -0.277 C  
BRANCH   4   5
HETATM    5  C   UNL     1      -9.695  10.949  66.882  1.00  0.00    -0.181 C  
BRANCH   5   6
HETATM    6  P   UNL     1     -10.390   9.281  67.294  1.00  0.00    -0.245 P  
BRANCH   6   7
HETATM    7  C   UNL     1      -9.220   8.150  66.395  1.00  0.00    -0.199 C  
BRANCH   7   8
HETATM    8  C   UNL     1      -8.242   8.947  65.533  1.00  0.00    -0.129 C  
BRANCH   8   9
HETATM    9  O   UNL     1      -6.942   8.940  66.128  1.00  0.00    -0.079 OA 
BRANCH   9  10
HETATM   10  C   UNL     1      -6.569   7.609  66.488  1.00  0.00    -0.050 C  
HETATM   11  C   UNL     1      -5.774   7.635  67.777  1.00  0.00    -0.036 C  
ENDBRANCH   9  10
ENDBRANCH   8   9
ENDBRANCH   7   8
ENDBRANCH   6   7
BRANCH   6  12
HETATM   12  C   UNL     1      -9.729   9.039  69.012  1.00  0.00    -0.167 C  
BRANCH  12  13
HETATM   13  C   UNL     1     -10.328  10.008  70.020  1.00  0.00    -0.272 C  
BRANCH  13  14
HETATM   14  P   UNL     1     -11.204   9.156  71.412  1.00  0.00    -0.398 P  
BRANCH  14  15
HETATM   15  C   UNL     1     -12.969   9.656  71.125  1.00  0.00    -0.309 C  
BRANCH  15  16
HETATM   16  C   UNL     1     -13.349  10.852  72.002  1.00  0.00    -0.289 C  
BRANCH  16  17
HETATM   17  O   UNL     1     -12.910  12.072  71.397  1.00  0.00    -0.381 OA 
BRANCH  17  18
HETATM   18  C   UNL     1     -13.473  13.194  72.082  1.00  0.00    -0.560 C  
HETATM   19  C   UNL     1     -12.759  14.461  71.660  1.00  0.00    -0.419 C  
ENDBRANCH  17  18
ENDBRANCH  16  17
ENDBRANCH  15  16
ENDBRANCH  14  15
BRANCH  14  20
HETATM   20  C   UNL     1     -11.253   7.429  70.727  1.00  0.00    -0.271 C  
BRANCH  20  21
HETATM   21  C   UNL     1     -10.754   6.394  71.734  1.00  0.00    -0.233 C  
BRANCH  21  22
HETATM   22  O   UNL     1     -10.322   5.223  71.042  1.00  0.00    -0.224 OA 
BRANCH  22  23
HETATM   23  C   UNL     1     -10.363   5.427  69.627  1.00  0.00    -0.291 C  
HETATM   24  C   UNL     1      -9.444   4.426  68.955  1.00  0.00    -0.232 C  
ENDBRANCH  22  23
ENDBRANCH  21  22
ENDBRANCH  20  21
ENDBRANCH  14  20
ENDBRANCH  13  14
ENDBRANCH  12  13
ENDBRANCH   6  12
ENDBRANCH   5   6
ENDBRANCH   4   5
ENDBRANCH   3   4
ENDBRANCH   2   3
TORSDOF 19
ENDMDL
MODEL      254
REMARK 921   NORMALIZED FREE ENERGY PREDICTED BY IDOCK:   -2.91 KCAL/MOL
REMARK 922        TOTAL FREE ENERGY PREDICTED BY IDOCK:   -7.40 KCAL/MOL
REMARK 923 INTER-LIGAND FREE ENERGY PREDICTED BY IDOCK:   -6.42 KCAL/MOL
REMARK 924 INTRA-LIGAND FREE ENERGY PREDICTED BY IDOCK:   -0.98 KCAL/MOL
REMARK 927      BINDING AFFINITY PREDICTED BY RF-SCORE:    0.00 PKD
ROOT
HETATM    1  C   UNL     1      -7.505   2.777  66.996  1.00  0.00    -0.069 C  
HETATM    2  C   UNL     1      -6.922   4.155  66.760  1.00  0.00    -0.059 C  
ENDROOT
BRANCH   2   3
HETATM    3  O   UNL     1      -7.277   5.021  67.840  1.00  0.00    -0.065 OA 
BRANCH   3   4
HETATM    4  C   UNL     1      -7.221   6.385  67.412  1.00  0.00    -0.082 C  
BRANCH   4   5
HETATM    5  C   UNL     1      -8.365   7.190  68.024  1.00  0.00    -0.119 C  
BRANCH   5   6
HETATM    6  P   UNL     1      -9.667   7.615  66.774  1.00  0.00    -0.209 P  
BRANCH   6   7
HETATM    7  C   UNL     1     -11.021   6.420  67.217  1.00  0.00    -0.392 C  
BRANCH   7   8
HETATM    8  C   UNL     1     -10.786   5.813  68.600  1.00  0.00    -0.233 C  
BRANCH   8   9
HETATM    9  O   UNL     1     -11.651   6.425  69.559  1.00  0.00    -0.404 OA 
BRANCH   9  10
HETATM   10  C   UNL     1     -10.921   6.765  70.739  1.00  0.00    -0.262 C  
HETATM   11  C   UNL     1     -11.838   6.687  71.943  1.00  0.00    -0.375 C  
ENDBRANCH   9  10
ENDBRANCH   8   9
ENDBRANCH   7   8
ENDBRANCH   6   7
BRANCH   6  12
HETATM   12  C   UNL     1     -10.399   9.142  67.536  1.00  0.00    -0.261 C  
BRANCH  12  13
HETATM   13  C   UNL     1      -9.400  10.283  67.656  1.00  0.00    -0.144 C  
BRANCH  13  14
HETATM   14  P   UNL     1     -10.168  11.858  68.258  1.00  0.00    -0.207 P  
BRANCH  14  15
HETATM   15  C   UNL     1     -11.510  12.141  67.007  1.00  0.00    -0.350 C  
BRANCH  15  16
HETATM   16  C   UNL     1     -10.936  12.709  65.706  1.00  0.00    -0.280 C  
BRANCH  16  17
HETATM   17  O   UNL     1     -10.728  11.662  64.754  1.00  0.00    -0.285 OA 
BRANCH  17  18
HETATM   18  C   UNL     1     -11.262  12.038  63.482  1.00  0.00    -0.445 C  
HETATM   19  C   UNL     1     -12.007  13.350  63.608  1.00  0.00    -0.504 C  
ENDBRANCH  17  18
ENDBRANCH  16  17
ENDBRANCH  15  16
ENDBRANCH  14  15
BRANCH  14  20
HETATM   20  C   UNL     1     -11.184  11.183  69.660  1.00  0.00    -0.264 C  
BRANCH  20  21
HETATM   21  C   UNL     1     -12.351  12.100  70.022  1.00  0.00    -0.096 C  
BRANCH  21  22
HETATM   22  O   UNL     1     -11.852  13.390  70.376  1.00  0.00    -0.297 OA 
BRANCH  22  23
HETATM   23  C   UNL     1     -12.835  14.129  71.106  1.00  0.00    -0.360 C  
HETATM   24  C   UNL     1     -13.418  13.244  72.190  1.00  0.00    -0.655 C  
ENDBRANCH  22  23
ENDBRANCH  21  22
ENDBRANCH  20  21
ENDBRANCH  14  20
ENDBRANCH  13  14
ENDBRANCH  12  13
ENDBRANCH   6  12
ENDBRANCH   5   6
ENDBRANCH   4   5
ENDBRANCH   3   4
ENDBRANCH   2   3
TORSDOF 19
ENDMDL
MODEL      255
REMARK 921   NORMALIZED FREE ENERGY PREDICTED BY IDOCK:   -2.91 KCAL/MOL
REMARK 922        TOTAL FREE ENERGY PREDICTED BY IDOCK:   -7.39 KCAL/MOL
REMARK 923 INTER-LIGAND FREE ENERGY PREDICTED BY IDOCK:   -6.25 KCAL/MOL
REMARK 924 INTRA-LIGAND FREE ENERGY PREDICTED BY IDOCK:   -1.14 KCAL/MOL
REMARK 927      BINDING AFFINITY PREDICTED BY RF-SCORE:    0.00 PKD
ROOT
HETATM    1  C   UNL     1      -9.129  13.796  68.151  1.00  0.00    -0.194 C  
HETATM    2  C   UNL     1     -10.564  14.267  68.038  1.00  0.00    -0.238 C  
ENDROOT
BRANCH   2   3
HETATM    3  O   UNL     1     -11.451  13.213  68.422  1.00  0.00    -0.271 OA 
BRANCH   3   4
HETATM    4  C   UNL     1     -11.508  12.222  67.392  1.00  0.00    -0.352 C  
BRANCH   4   5
HETATM    5  C   UNL     1     -11.258  10.830  67.967  1.00  0.00    -0.307 C  
BRANCH   5   6
HETATM    6  P   UNL     1     -10.351   9.734  66.778  1.00  0.00    -0.158 P  
BRANCH   6   7
HETATM    7  C   UNL     1      -9.671  10.971  65.567  1.00  0.00    -0.229 C  
BRANCH   7   8
HETATM    8  C   UNL     1      -9.897  10.510  64.128  1.00  0.00    -0.337 C  
BRANCH   8   9
HETATM    9  O   UNL     1     -10.037  11.641  63.265  1.00  0.00    -0.390 OA 
BRANCH   9  10
HETATM   10  C   UNL     1     -10.997  12.555  63.799  1.00  0.00    -0.447 C  
HETATM   11  C   UNL     1     -12.390  12.121  63.393  1.00  0.00    -0.648 C  
ENDBRANCH   9  10
ENDBRANCH   8   9
ENDBRANCH   7   8
ENDBRANCH   6   7
BRANCH   6  12
HETATM   12  C   UNL     1      -8.790   9.403  67.727  1.00  0.00    -0.123 C  
BRANCH  12  13
HETATM   13  C   UNL     1      -9.044   9.062  69.188  1.00  0.00    -0.140 C  
BRANCH  13  14
HETATM   14  P   UNL     1      -9.039   7.239  69.519  1.00  0.00    -0.140 P  
BRANCH  14  15
HETATM   15  C   UNL     1     -10.787   6.765  69.111  1.00  0.00    -0.258 C  
BRANCH  15  16
HETATM   16  C   UNL     1     -11.591   6.488  70.383  1.00  0.00    -0.407 C  
BRANCH  16  17
HETATM   17  O   UNL     1     -11.504   7.600  71.279  1.00  0.00    -0.259 OA 
BRANCH  17  18
HETATM   18  C   UNL     1     -11.499   7.144  72.634  1.00  0.00    -0.235 C  
HETATM   19  C   UNL     1     -10.221   7.585  73.317  1.00  0.00    -0.398 C  
ENDBRANCH  17  18
ENDBRANCH  16  17
ENDBRANCH  15  16
ENDBRANCH  14  15
BRANCH  14  20
HETATM   20  C   UNL     1      -8.186   6.653  67.974  1.00  0.00    -0.117 C  
BRANCH  20  21
HETATM   21  C   UNL     1      -9.052   5.686  67.169  1.00  0.00    -0.111 C  
BRANCH  21  22
HETATM   22  O   UNL     1      -9.062   6.082  65.797  1.00  0.00    -0.148 OA 
BRANCH  22  23
HETATM   23  C   UNL     1      -8.996   4.939  64.941  1.00  0.00    -0.138 C  
HETATM   24  C   UNL     1     -10.290   4.159  65.054  1.00  0.00    -0.209 C  
ENDBRANCH  22  23
ENDBRANCH  21  22
ENDBRANCH  20  21
ENDBRANCH  14  20
ENDBRANCH  13  14
ENDBRANCH  12  13
ENDBRANCH   6  12
ENDBRANCH   5   6
ENDBRANCH   4   5
ENDBRANCH   3   4
ENDBRANCH   2   3
TORSDOF 19
ENDMDL
MODEL      256
REMARK 921   NORMALIZED FREE ENERGY PREDICTED BY IDOCK:   -2.91 KCAL/MOL
REMARK 922        TOTAL FREE ENERGY PREDICTED BY IDOCK:   -7.39 KCAL/MOL
REMARK 923 INTER-LIGAND FREE ENERGY PREDICTED BY IDOCK:   -6.77 KCAL/MOL
REMARK 924 INTRA-LIGAND FREE ENERGY PREDICTED BY IDOCK:   -0.62 KCAL/MOL
REMARK 927      BINDING AFFINITY PREDICTED BY RF-SCORE:    0.00 PKD
ROOT
HETATM    1  C   UNL     1     -13.124  10.048  71.925  1.00  0.00    -0.563 C  
HETATM    2  C   UNL     1     -11.687   9.589  71.784  1.00  0.00    -0.341 C  
ENDROOT
BRANCH   2   3
HETATM    3  O   UNL     1     -11.071  10.259  70.681  1.00  0.00    -0.315 OA 
BRANCH   3   4
HETATM    4  C   UNL     1     -10.174   9.372  70.008  1.00  0.00    -0.229 C  
BRANCH   4   5
HETATM    5  C   UNL     1     -10.450   9.361  68.507  1.00  0.00    -0.208 C  
BRANCH   5   6
HETATM    6  P   UNL     1      -9.228  10.389  67.564  1.00  0.00    -0.145 P  
BRANCH   6   7
HETATM    7  C   UNL     1      -9.271   9.585  65.888  1.00  0.00    -0.206 C  
BRANCH   7   8
HETATM    8  C   UNL     1      -8.462   8.288  65.882  1.00  0.00    -0.140 C  
BRANCH   8   9
HETATM    9  O   UNL     1      -7.065   8.579  65.797  1.00  0.00    -0.073 OA 
BRANCH   9  10
HETATM   10  C   UNL     1      -6.790   9.346  64.623  1.00  0.00    -0.096 C  
HETATM   11  C   UNL     1      -5.696  10.351  64.920  1.00  0.00    -0.139 C  
ENDBRANCH   9  10
ENDBRANCH   8   9
ENDBRANCH   7   8
ENDBRANCH   6   7
BRANCH   6  12
HETATM   12  C   UNL     1     -10.257  11.883  67.170  1.00  0.00    -0.208 C  
BRANCH  12  13
HETATM   13  C   UNL     1      -9.434  13.047  66.638  1.00  0.00    -0.256 C  
BRANCH  13  14
HETATM   14  P   UNL     1     -10.364  14.650  66.632  1.00  0.00    -0.288 P  
BRANCH  14  15
HETATM   15  C   UNL     1     -12.029  14.131  65.996  1.00  0.00    -0.413 C  
BRANCH  15  16
HETATM   16  C   UNL     1     -12.239  14.607  64.556  1.00  0.00    -0.456 C  
BRANCH  16  17
HETATM   17  O   UNL     1     -12.756  13.543  63.751  1.00  0.00    -0.682 OA 
BRANCH  17  18
HETATM   18  C   UNL     1     -12.441  12.279  64.340  1.00  0.00    -0.392 C  
HETATM   19  C   UNL     1     -11.278  11.648  63.603  1.00  0.00    -0.497 C  
ENDBRANCH  17  18
ENDBRANCH  16  17
ENDBRANCH  15  16
ENDBRANCH  14  15
BRANCH  14  20
HETATM   20  C   UNL     1     -10.748  14.783  68.446  1.00  0.00    -0.243 C  
BRANCH  20  21
HETATM   21  C   UNL     1      -9.775  15.708  69.175  1.00  0.00    -0.249 C  
BRANCH  21  22
HETATM   22  O   UNL     1      -9.423  16.799  68.324  1.00  0.00    -0.227 OA 
BRANCH  22  23
HETATM   23  C   UNL     1      -8.046  16.723  67.948  1.00  0.00    -0.185 C  
HETATM   24  C   UNL     1      -7.208  17.449  68.982  1.00  0.00    -0.224 C  
ENDBRANCH  22  23
ENDBRANCH  21  22
ENDBRANCH  20  21
ENDBRANCH  14  20
ENDBRANCH  13  14
ENDBRANCH  12  13
ENDBRANCH   6  12
ENDBRANCH   5   6
ENDBRANCH   4   5
ENDBRANCH   3   4
ENDBRANCH   2   3
TORSDOF 19
ENDMDL
MODEL      257
REMARK 921   NORMALIZED FREE ENERGY PREDICTED BY IDOCK:   -2.90 KCAL/MOL
REMARK 922        TOTAL FREE ENERGY PREDICTED BY IDOCK:   -7.38 KCAL/MOL
REMARK 923 INTER-LIGAND FREE ENERGY PREDICTED BY IDOCK:   -6.52 KCAL/MOL
REMARK 924 INTRA-LIGAND FREE ENERGY PREDICTED BY IDOCK:   -0.86 KCAL/MOL
REMARK 927      BINDING AFFINITY PREDICTED BY RF-SCORE:    0.00 PKD
ROOT
HETATM    1  C   UNL     1      -5.131  12.808  67.656  1.00  0.00    -0.094 C  
HETATM    2  C   UNL     1      -6.319  13.721  67.881  1.00  0.00    -0.157 C  
ENDROOT
BRANCH   2   3
HETATM    3  O   UNL     1      -7.533  12.980  67.737  1.00  0.00    -0.116 OA 
BRANCH   3   4
HETATM    4  C   UNL     1      -7.259  11.700  67.162  1.00  0.00    -0.145 C  
BRANCH   4   5
HETATM    5  C   UNL     1      -8.464  10.774  67.307  1.00  0.00    -0.124 C  
BRANCH   5   6
HETATM    6  P   UNL     1     -10.056  11.713  67.440  1.00  0.00    -0.204 P  
BRANCH   6   7
HETATM    7  C   UNL     1     -10.884  11.286  65.831  1.00  0.00    -0.202 C  
BRANCH   7   8
HETATM    8  C   UNL     1     -10.085  11.824  64.644  1.00  0.00    -0.272 C  
BRANCH   8   9
HETATM    9  O   UNL     1     -10.843  11.689  63.439  1.00  0.00    -0.391 OA 
BRANCH   9  10
HETATM   10  C   UNL     1     -12.167  12.191  63.627  1.00  0.00    -0.562 C  
HETATM   11  C   UNL     1     -12.139  13.706  63.616  1.00  0.00    -0.397 C  
ENDBRANCH   9  10
ENDBRANCH   8   9
ENDBRANCH   7   8
ENDBRANCH   6   7
BRANCH   6  12
HETATM   12  C   UNL     1     -11.034  10.591  68.550  1.00  0.00    -0.252 C  
BRANCH  12  13
HETATM   13  C   UNL     1     -11.650  11.318  69.736  1.00  0.00    -0.333 C  
BRANCH  13  14
HETATM   14  P   UNL     1     -12.762  10.238  70.751  1.00  0.00    -0.274 P  
BRANCH  14  15
HETATM   15  C   UNL     1     -11.544   9.261  71.755  1.00  0.00    -0.388 C  
BRANCH  15  16
HETATM   16  C   UNL     1     -11.676   7.763  71.470  1.00  0.00    -0.280 C  
BRANCH  16  17
HETATM   17  O   UNL     1     -11.325   7.482  70.112  1.00  0.00    -0.244 OA 
BRANCH  17  18
HETATM   18  C   UNL     1     -10.121   6.713  70.061  1.00  0.00    -0.177 C  
HETATM   19  C   UNL     1      -8.965   7.602  69.649  1.00  0.00    -0.140 C  
ENDBRANCH  17  18
ENDBRANCH  16  17
ENDBRANCH  15  16
ENDBRANCH  14  15
BRANCH  14  20
HETATM   20  C   UNL     1     -13.301  11.476  72.029  1.00  0.00    -0.292 C  
BRANCH  20  21
HETATM   21  C   UNL     1     -13.231  12.910  71.509  1.00  0.00    -0.257 C  
BRANCH  21  22
HETATM   22  O   UNL     1     -12.936  13.796  72.589  1.00  0.00    -0.390 OA 
BRANCH  22  23
HETATM   23  C   UNL     1     -13.827  14.914  72.583  1.00  0.00    -0.416 C  
HETATM   24  C   UNL     1     -13.931  15.460  71.173  1.00  0.00    -0.410 C  
ENDBRANCH  22  23
ENDBRANCH  21  22
ENDBRANCH  20  21
ENDBRANCH  14  20
ENDBRANCH  13  14
ENDBRANCH  12  13
ENDBRANCH   6  12
ENDBRANCH   5   6
ENDBRANCH   4   5
ENDBRANCH   3   4
ENDBRANCH   2   3
TORSDOF 19
ENDMDL
MODEL      258
REMARK 921   NORMALIZED FREE ENERGY PREDICTED BY IDOCK:   -2.90 KCAL/MOL
REMARK 922        TOTAL FREE ENERGY PREDICTED BY IDOCK:   -7.38 KCAL/MOL
REMARK 923 INTER-LIGAND FREE ENERGY PREDICTED BY IDOCK:   -6.53 KCAL/MOL
REMARK 924 INTRA-LIGAND FREE ENERGY PREDICTED BY IDOCK:   -0.85 KCAL/MOL
REMARK 927      BINDING AFFINITY PREDICTED BY RF-SCORE:    0.00 PKD
ROOT
HETATM    1  C   UNL     1      -6.198  12.718  69.098  1.00  0.00    -0.098 C  
HETATM    2  C   UNL     1      -7.404  13.495  68.611  1.00  0.00    -0.112 C  
ENDROOT
BRANCH   2   3
HETATM    3  O   UNL     1      -7.781  13.036  67.310  1.00  0.00    -0.160 OA 
BRANCH   3   4
HETATM    4  C   UNL     1      -9.036  13.610  66.933  1.00  0.00    -0.218 C  
BRANCH   4   5
HETATM    5  C   UNL     1      -9.827  14.035  68.167  1.00  0.00    -0.235 C  
BRANCH   5   6
HETATM    6  P   UNL     1     -11.379  13.042  68.379  1.00  0.00    -0.341 P  
BRANCH   6   7
HETATM    7  C   UNL     1     -11.899  12.771  66.615  1.00  0.00    -0.393 C  
BRANCH   7   8
HETATM    8  C   UNL     1     -12.536  14.032  66.031  1.00  0.00    -0.455 C  
BRANCH   8   9
HETATM    9  O   UNL     1     -13.051  13.764  64.725  1.00  0.00    -0.651 OA 
BRANCH   9  10
HETATM   10  C   UNL     1     -12.027  13.219  63.890  1.00  0.00    -0.483 C  
HETATM   11  C   UNL     1     -12.513  11.925  63.271  1.00  0.00    -0.506 C  
ENDBRANCH   9  10
ENDBRANCH   8   9
ENDBRANCH   7   8
ENDBRANCH   6   7
BRANCH   6  12
HETATM   12  C   UNL     1     -10.674  11.356  68.712  1.00  0.00    -0.203 C  
BRANCH  12  13
HETATM   13  C   UNL     1     -10.936  10.370  67.583  1.00  0.00    -0.312 C  
BRANCH  13  14
HETATM   14  P   UNL     1     -10.439   8.636  68.006  1.00  0.00    -0.106 P  
BRANCH  14  15
HETATM   15  C   UNL     1      -8.604   8.678  67.726  1.00  0.00    -0.136 C  
BRANCH  15  16
HETATM   16  C   UNL     1      -8.146   7.466  66.912  1.00  0.00    -0.120 C  
BRANCH  16  17
HETATM   17  O   UNL     1      -9.032   6.362  67.121  1.00  0.00    -0.109 OA 
BRANCH  17  18
HETATM   18  C   UNL     1      -8.973   5.464  66.010  1.00  0.00    -0.147 C  
HETATM   19  C   UNL     1      -8.276   4.184  66.424  1.00  0.00    -0.101 C  
ENDBRANCH  17  18
ENDBRANCH  16  17
ENDBRANCH  15  16
ENDBRANCH  14  15
BRANCH  14  20
HETATM   20  C   UNL     1     -10.477   8.754  69.861  1.00  0.00    -0.221 C  
BRANCH  20  21
HETATM   21  C   UNL     1     -11.226   7.586  70.498  1.00  0.00    -0.269 C  
BRANCH  21  22
HETATM   22  O   UNL     1     -11.979   8.054  71.617  1.00  0.00    -0.276 OA 
BRANCH  22  23
HETATM   23  C   UNL     1     -13.328   7.583  71.552  1.00  0.00    -0.352 C  
HETATM   24  C   UNL     1     -14.262   8.692  71.993  1.00  0.00    -0.524 C  
ENDBRANCH  22  23
ENDBRANCH  21  22
ENDBRANCH  20  21
ENDBRANCH  14  20
ENDBRANCH  13  14
ENDBRANCH  12  13
ENDBRANCH   6  12
ENDBRANCH   5   6
ENDBRANCH   4   5
ENDBRANCH   3   4
ENDBRANCH   2   3
TORSDOF 19
ENDMDL
MODEL      259
REMARK 921   NORMALIZED FREE ENERGY PREDICTED BY IDOCK:   -2.89 KCAL/MOL
REMARK 922        TOTAL FREE ENERGY PREDICTED BY IDOCK:   -7.36 KCAL/MOL
REMARK 923 INTER-LIGAND FREE ENERGY PREDICTED BY IDOCK:   -6.30 KCAL/MOL
REMARK 924 INTRA-LIGAND FREE ENERGY PREDICTED BY IDOCK:   -1.06 KCAL/MOL
REMARK 927      BINDING AFFINITY PREDICTED BY RF-SCORE:    0.00 PKD
ROOT
HETATM    1  C   UNL     1     -10.237  19.349  68.854  1.00  0.00    -0.367 C  
HETATM    2  C   UNL     1      -8.787  19.784  68.878  1.00  0.00    -0.105 C  
ENDROOT
BRANCH   2   3
HETATM    3  O   UNL     1      -7.980  18.813  68.205  1.00  0.00    -0.272 OA 
BRANCH   3   4
HETATM    4  C   UNL     1      -8.809  17.786  67.654  1.00  0.00    -0.248 C  
BRANCH   4   5
HETATM    5  C   UNL     1      -7.989  16.845  66.775  1.00  0.00    -0.236 C  
BRANCH   5   6
HETATM    6  P   UNL     1      -8.688  15.127  66.748  1.00  0.00    -0.229 P  
BRANCH   6   7
HETATM    7  C   UNL     1      -7.555  14.240  67.925  1.00  0.00    -0.153 C  
BRANCH   7   8
HETATM    8  C   UNL     1      -7.133  12.883  67.361  1.00  0.00    -0.125 C  
BRANCH   8   9
HETATM    9  O   UNL     1      -6.708  12.021  68.420  1.00  0.00    -0.057 OA 
BRANCH   9  10
HETATM   10  C   UNL     1      -5.503  12.516  69.008  1.00  0.00    -0.067 C  
HETATM   11  C   UNL     1      -5.198  11.736  70.270  1.00  0.00    -0.098 C  
ENDBRANCH   9  10
ENDBRANCH   8   9
ENDBRANCH   7   8
ENDBRANCH   6   7
BRANCH   6  12
HETATM   12  C   UNL     1     -10.147  15.324  67.879  1.00  0.00    -0.233 C  
BRANCH  12  13
HETATM   13  C   UNL     1     -10.262  14.203  68.900  1.00  0.00    -0.175 C  
BRANCH  13  14
HETATM   14  P   UNL     1     -11.781  13.167  68.671  1.00  0.00    -0.315 P  
BRANCH  14  15
HETATM   15  C   UNL     1     -11.112  11.689  67.769  1.00  0.00    -0.249 C  
BRANCH  15  16
HETATM   16  C   UNL     1     -11.391  11.791  66.267  1.00  0.00    -0.287 C  
BRANCH  16  17
HETATM   17  O   UNL     1     -10.328  12.486  65.609  1.00  0.00    -0.261 OA 
BRANCH  17  18
HETATM   18  C   UNL     1     -10.784  13.020  64.363  1.00  0.00    -0.394 C  
HETATM   19  C   UNL     1     -10.893  11.908  63.340  1.00  0.00    -0.469 C  
ENDBRANCH  17  18
ENDBRANCH  16  17
ENDBRANCH  15  16
ENDBRANCH  14  15
BRANCH  14  20
HETATM   20  C   UNL     1     -11.921  12.452  70.382  1.00  0.00    -0.257 C  
BRANCH  20  21
HETATM   21  C   UNL     1     -12.699  13.366  71.327  1.00  0.00    -0.338 C  
BRANCH  21  22
HETATM   22  O   UNL     1     -13.265  14.449  70.587  1.00  0.00    -0.322 OA 
BRANCH  22  23
HETATM   23  C   UNL     1     -13.271  15.646  71.369  1.00  0.00    -0.465 C  
HETATM   24  C   UNL     1     -11.973  15.740  72.145  1.00  0.00    -0.580 C  
ENDBRANCH  22  23
ENDBRANCH  21  22
ENDBRANCH  20  21
ENDBRANCH  14  20
ENDBRANCH  13  14
ENDBRANCH  12  13
ENDBRANCH   6  12
ENDBRANCH   5   6
ENDBRANCH   4   5
ENDBRANCH   3   4
ENDBRANCH   2   3
TORSDOF 19
ENDMDL
MODEL      260
REMARK 921   NORMALIZED FREE ENERGY PREDICTED BY IDOCK:   -2.89 KCAL/MOL
REMARK 922        TOTAL FREE ENERGY PREDICTED BY IDOCK:   -7.35 KCAL/MOL
REMARK 923 INTER-LIGAND FREE ENERGY PREDICTED BY IDOCK:   -6.29 KCAL/MOL
REMARK 924 INTRA-LIGAND FREE ENERGY PREDICTED BY IDOCK:   -1.07 KCAL/MOL
REMARK 927      BINDING AFFINITY PREDICTED BY RF-SCORE:    0.00 PKD
ROOT
HETATM    1  C   UNL     1     -12.057  12.497  63.746  1.00  0.00    -0.615 C  
HETATM    2  C   UNL     1     -10.728  11.881  63.359  1.00  0.00    -0.413 C  
ENDROOT
BRANCH   2   3
HETATM    3  O   UNL     1     -10.287  10.995  64.392  1.00  0.00    -0.317 OA 
BRANCH   3   4
HETATM    4  C   UNL     1     -10.594  11.549  65.675  1.00  0.00    -0.274 C  
BRANCH   4   5
HETATM    5  C   UNL     1      -9.698  10.943  66.752  1.00  0.00    -0.190 C  
BRANCH   5   6
HETATM    6  P   UNL     1     -10.611   9.740  67.826  1.00  0.00    -0.240 P  
BRANCH   6   7
HETATM    7  C   UNL     1     -10.477   8.171  66.837  1.00  0.00    -0.309 C  
BRANCH   7   8
HETATM    8  C   UNL     1      -9.185   7.424  67.168  1.00  0.00    -0.136 C  
BRANCH   8   9
HETATM    9  O   UNL     1      -8.287   7.478  66.056  1.00  0.00    -0.121 OA 
BRANCH   9  10
HETATM   10  C   UNL     1      -7.023   6.916  66.414  1.00  0.00    -0.069 C  
HETATM   11  C   UNL     1      -6.959   6.727  67.916  1.00  0.00    -0.083 C  
ENDBRANCH   9  10
ENDBRANCH   8   9
ENDBRANCH   7   8
ENDBRANCH   6   7
BRANCH   6  12
HETATM   12  C   UNL     1      -9.320   9.361  69.106  1.00  0.00    -0.159 C  
BRANCH  12  13
HETATM   13  C   UNL     1      -9.871   9.363  70.524  1.00  0.00    -0.270 C  
BRANCH  13  14
HETATM   14  P   UNL     1      -9.356   7.877  71.504  1.00  0.00    -0.159 P  
BRANCH  14  15
HETATM   15  C   UNL     1     -10.599   7.870  72.882  1.00  0.00    -0.368 C  
BRANCH  15  16
HETATM   16  C   UNL     1     -12.026   7.778  72.333  1.00  0.00    -0.289 C  
BRANCH  16  17
HETATM   17  O   UNL     1     -12.818   8.865  72.822  1.00  0.00    -0.347 OA 
BRANCH  17  18
HETATM   18  C   UNL     1     -14.118   8.834  72.229  1.00  0.00    -0.441 C  
HETATM   19  C   UNL     1     -14.318   7.519  71.505  1.00  0.00    -0.603 C  
ENDBRANCH  17  18
ENDBRANCH  16  17
ENDBRANCH  15  16
ENDBRANCH  14  15
BRANCH  14  20
HETATM   20  C   UNL     1     -10.073   6.542  70.428  1.00  0.00    -0.184 C  
BRANCH  20  21
HETATM   21  C   UNL     1      -9.269   5.245  70.505  1.00  0.00    -0.146 C  
BRANCH  21  22
HETATM   22  O   UNL     1      -9.319   4.730  71.836  1.00  0.00    -0.134 OA 
BRANCH  22  23
HETATM   23  C   UNL     1      -9.894   3.421  71.850  1.00  0.00    -0.167 C  
HETATM   24  C   UNL     1     -10.468   3.146  73.225  1.00  0.00    -0.255 C  
ENDBRANCH  22  23
ENDBRANCH  21  22
ENDBRANCH  20  21
ENDBRANCH  14  20
ENDBRANCH  13  14
ENDBRANCH  12  13
ENDBRANCH   6  12
ENDBRANCH   5   6
ENDBRANCH   4   5
ENDBRANCH   3   4
ENDBRANCH   2   3
TORSDOF 19
ENDMDL
MODEL      261
REMARK 921   NORMALIZED FREE ENERGY PREDICTED BY IDOCK:   -2.89 KCAL/MOL
REMARK 922        TOTAL FREE ENERGY PREDICTED BY IDOCK:   -7.35 KCAL/MOL
REMARK 923 INTER-LIGAND FREE ENERGY PREDICTED BY IDOCK:   -6.51 KCAL/MOL
REMARK 924 INTRA-LIGAND FREE ENERGY PREDICTED BY IDOCK:   -0.84 KCAL/MOL
REMARK 927      BINDING AFFINITY PREDICTED BY RF-SCORE:    0.00 PKD
ROOT
HETATM    1  C   UNL     1     -10.237   4.609  66.460  1.00  0.00    -0.273 C  
HETATM    2  C   UNL     1      -9.288   5.269  65.482  1.00  0.00    -0.079 C  
ENDROOT
BRANCH   2   3
HETATM    3  O   UNL     1      -8.294   6.008  66.197  1.00  0.00    -0.116 OA 
BRANCH   3   4
HETATM    4  C   UNL     1      -8.720   7.362  66.368  1.00  0.00    -0.142 C  
BRANCH   4   5
HETATM    5  C   UNL     1      -8.791   7.722  67.850  1.00  0.00    -0.123 C  
BRANCH   5   6
HETATM    6  P   UNL     1      -8.184   9.442  68.182  1.00  0.00    -0.119 P  
BRANCH   6   7
HETATM    7  C   UNL     1      -8.765  10.347  66.665  1.00  0.00    -0.135 C  
BRANCH   7   8
HETATM    8  C   UNL     1      -9.714  11.486  67.037  1.00  0.00    -0.184 C  
BRANCH   8   9
HETATM    9  O   UNL     1     -10.342  12.007  65.862  1.00  0.00    -0.230 OA 
BRANCH   9  10
HETATM   10  C   UNL     1     -11.703  12.344  66.137  1.00  0.00    -0.400 C  
HETATM   11  C   UNL     1     -11.765  13.265  67.338  1.00  0.00    -0.419 C  
ENDBRANCH   9  10
ENDBRANCH   8   9
ENDBRANCH   7   8
ENDBRANCH   6   7
BRANCH   6  12
HETATM   12  C   UNL     1      -9.478  10.049  69.367  1.00  0.00    -0.223 C  
BRANCH  12  13
HETATM   13  C   UNL     1     -10.438   8.954  69.808  1.00  0.00    -0.212 C  
BRANCH  13  14
HETATM   14  P   UNL     1     -11.411   9.408  71.318  1.00  0.00    -0.408 P  
BRANCH  14  15
HETATM   15  C   UNL     1     -12.548  10.724  70.667  1.00  0.00    -0.357 C  
BRANCH  15  16
HETATM   16  C   UNL     1     -13.134  11.557  71.810  1.00  0.00    -0.398 C  
BRANCH  16  17
HETATM   17  O   UNL     1     -13.048  12.952  71.503  1.00  0.00    -0.374 OA 
BRANCH  17  18
HETATM   18  C   UNL     1     -13.938  13.697  72.339  1.00  0.00    -0.548 C  
HETATM   19  C   UNL     1     -13.278  14.995  72.758  1.00  0.00    -0.565 C  
ENDBRANCH  17  18
ENDBRANCH  16  17
ENDBRANCH  15  16
ENDBRANCH  14  15
BRANCH  14  20
HETATM   20  C   UNL     1     -12.589   7.971  71.364  1.00  0.00    -0.289 C  
BRANCH  20  21
HETATM   21  C   UNL     1     -11.862   6.634  71.497  1.00  0.00    -0.337 C  
BRANCH  21  22
HETATM   22  O   UNL     1     -10.784   6.766  72.423  1.00  0.00    -0.212 OA 
BRANCH  22  23
HETATM   23  C   UNL     1      -9.657   5.995  72.001  1.00  0.00    -0.152 C  
HETATM   24  C   UNL     1      -9.839   4.559  72.453  1.00  0.00    -0.220 C  
ENDBRANCH  22  23
ENDBRANCH  21  22
ENDBRANCH  20  21
ENDBRANCH  14  20
ENDBRANCH  13  14
ENDBRANCH  12  13
ENDBRANCH   6  12
ENDBRANCH   5   6
ENDBRANCH   4   5
ENDBRANCH   3   4
ENDBRANCH   2   3
TORSDOF 19
ENDMDL
MODEL      262
REMARK 921   NORMALIZED FREE ENERGY PREDICTED BY IDOCK:   -2.88 KCAL/MOL
REMARK 922        TOTAL FREE ENERGY PREDICTED BY IDOCK:   -7.34 KCAL/MOL
REMARK 923 INTER-LIGAND FREE ENERGY PREDICTED BY IDOCK:   -6.49 KCAL/MOL
REMARK 924 INTRA-LIGAND FREE ENERGY PREDICTED BY IDOCK:   -0.85 KCAL/MOL
REMARK 927      BINDING AFFINITY PREDICTED BY RF-SCORE:    0.00 PKD
ROOT
HETATM    1  C   UNL     1      -5.300  12.988  70.408  1.00  0.00    -0.128 C  
HETATM    2  C   UNL     1      -6.175  11.903  69.816  1.00  0.00    -0.137 C  
ENDROOT
BRANCH   2   3
HETATM    3  O   UNL     1      -5.470  11.232  68.768  1.00  0.00    -0.044 OA 
BRANCH   3   4
HETATM    4  C   UNL     1      -6.356  10.960  67.678  1.00  0.00    -0.055 C  
BRANCH   4   5
HETATM    5  C   UNL     1      -7.786  11.361  68.032  1.00  0.00    -0.114 C  
BRANCH   5   6
HETATM    6  P   UNL     1      -9.039  10.242  67.247  1.00  0.00    -0.137 P  
BRANCH   6   7
HETATM    7  C   UNL     1     -10.098   9.779  68.704  1.00  0.00    -0.169 C  
BRANCH   7   8
HETATM    8  C   UNL     1     -10.021   8.277  68.981  1.00  0.00    -0.189 C  
BRANCH   8   9
HETATM    9  O   UNL     1      -9.096   7.658  68.084  1.00  0.00    -0.133 OA 
BRANCH   9  10
HETATM   10  C   UNL     1      -9.620   6.415  67.612  1.00  0.00    -0.122 C  
HETATM   11  C   UNL     1     -11.029   6.624  67.095  1.00  0.00    -0.478 C  
ENDBRANCH   9  10
ENDBRANCH   8   9
ENDBRANCH   7   8
ENDBRANCH   6   7
BRANCH   6  12
HETATM   12  C   UNL     1     -10.181  11.485  66.472  1.00  0.00    -0.218 C  
BRANCH  12  13
HETATM   13  C   UNL     1     -10.267  12.784  67.259  1.00  0.00    -0.232 C  
BRANCH  13  14
HETATM   14  P   UNL     1     -11.629  13.896  66.676  1.00  0.00    -0.416 P  
BRANCH  14  15
HETATM   15  C   UNL     1     -11.835  15.048  68.118  1.00  0.00    -0.260 C  
BRANCH  15  16
HETATM   16  C   UNL     1     -11.580  14.321  69.441  1.00  0.00    -0.306 C  
BRANCH  16  17
HETATM   17  O   UNL     1     -12.801  14.178  70.172  1.00  0.00    -0.267 OA 
BRANCH  17  18
HETATM   18  C   UNL     1     -12.585  14.465  71.556  1.00  0.00    -0.350 C  
HETATM   19  C   UNL     1     -11.569  15.581  71.693  1.00  0.00    -0.502 C  
ENDBRANCH  17  18
ENDBRANCH  16  17
ENDBRANCH  15  16
ENDBRANCH  14  15
BRANCH  14  20
HETATM   20  C   UNL     1     -10.657  14.994  65.534  1.00  0.00    -0.363 C  
BRANCH  20  21
HETATM   21  C   UNL     1     -11.552  15.963  64.765  1.00  0.00    -0.137 C  
BRANCH  21  22
HETATM   22  O   UNL     1     -10.916  17.239  64.682  1.00  0.00    -1.013 OA 
BRANCH  22  23
HETATM   23  C   UNL     1     -10.521  17.691  65.980  1.00  0.00    -0.278 C  
HETATM   24  C   UNL     1     -10.763  19.184  66.080  1.00  0.00    -0.442 C  
ENDBRANCH  22  23
ENDBRANCH  21  22
ENDBRANCH  20  21
ENDBRANCH  14  20
ENDBRANCH  13  14
ENDBRANCH  12  13
ENDBRANCH   6  12
ENDBRANCH   5   6
ENDBRANCH   4   5
ENDBRANCH   3   4
ENDBRANCH   2   3
TORSDOF 19
ENDMDL
MODEL      263
REMARK 921   NORMALIZED FREE ENERGY PREDICTED BY IDOCK:   -2.88 KCAL/MOL
REMARK 922        TOTAL FREE ENERGY PREDICTED BY IDOCK:   -7.33 KCAL/MOL
REMARK 923 INTER-LIGAND FREE ENERGY PREDICTED BY IDOCK:   -6.51 KCAL/MOL
REMARK 924 INTRA-LIGAND FREE ENERGY PREDICTED BY IDOCK:   -0.82 KCAL/MOL
REMARK 927      BINDING AFFINITY PREDICTED BY RF-SCORE:    0.00 PKD
ROOT
HETATM    1  C   UNL     1      -6.079   5.289  67.009  1.00  0.00    -0.030 C  
HETATM    2  C   UNL     1      -7.121   5.568  68.071  1.00  0.00    -0.067 C  
ENDROOT
BRANCH   2   3
HETATM    3  O   UNL     1      -7.067   6.946  68.452  1.00  0.00    -0.080 OA 
BRANCH   3   4
HETATM    4  C   UNL     1      -8.278   7.318  69.114  1.00  0.00    -0.122 C  
BRANCH   4   5
HETATM    5  C   UNL     1      -8.808   8.641  68.565  1.00  0.00    -0.142 C  
BRANCH   5   6
HETATM    6  P   UNL     1     -10.593   8.909  68.990  1.00  0.00    -0.074 P  
BRANCH   6   7
HETATM    7  C   UNL     1     -10.770   7.896  70.539  1.00  0.00    -0.233 C  
BRANCH   7   8
HETATM    8  C   UNL     1     -10.471   8.737  71.780  1.00  0.00    -0.346 C  
BRANCH   8   9
HETATM    9  O   UNL     1     -10.598   7.937  72.959  1.00  0.00    -0.346 OA 
BRANCH   9  10
HETATM   10  C   UNL     1      -9.341   7.346  73.294  1.00  0.00    -0.200 C  
HETATM   11  C   UNL     1      -8.227   8.335  73.017  1.00  0.00    -0.227 C  
ENDBRANCH   9  10
ENDBRANCH   8   9
ENDBRANCH   7   8
ENDBRANCH   6   7
BRANCH   6  12
HETATM   12  C   UNL     1     -10.518  10.590  69.776  1.00  0.00    -0.200 C  
BRANCH  12  13
HETATM   13  C   UNL     1     -11.865  11.297  69.795  1.00  0.00    -0.364 C  
BRANCH  13  14
HETATM   14  P   UNL     1     -11.885  12.844  68.775  1.00  0.00    -0.209 P  
BRANCH  14  15
HETATM   15  C   UNL     1     -11.286  14.116  69.988  1.00  0.00    -0.134 C  
BRANCH  15  16
HETATM   16  C   UNL     1     -12.033  15.441  69.806  1.00  0.00    -0.358 C  
BRANCH  16  17
HETATM   17  O   UNL     1     -12.792  15.748  70.979  1.00  0.00    -0.475 OA 
BRANCH  17  18
HETATM   18  C   UNL     1     -12.450  14.851  72.039  1.00  0.00    -0.334 C  
HETATM   19  C   UNL     1     -12.886  15.438  73.366  1.00  0.00    -0.662 C  
ENDBRANCH  17  18
ENDBRANCH  16  17
ENDBRANCH  15  16
ENDBRANCH  14  15
BRANCH  14  20
HETATM   20  C   UNL     1     -10.325  12.583  67.798  1.00  0.00    -0.222 C  
BRANCH  20  21
HETATM   21  C   UNL     1     -10.604  12.379  66.311  1.00  0.00    -0.249 C  
BRANCH  21  22
HETATM   22  O   UNL     1     -11.990  12.093  66.119  1.00  0.00    -0.593 OA 
BRANCH  22  23
HETATM   23  C   UNL     1     -12.399  12.441  64.793  1.00  0.00    -0.423 C  
HETATM   24  C   UNL     1     -11.298  13.242  64.128  1.00  0.00    -0.424 C  
ENDBRANCH  22  23
ENDBRANCH  21  22
ENDBRANCH  20  21
ENDBRANCH  14  20
ENDBRANCH  13  14
ENDBRANCH  12  13
ENDBRANCH   6  12
ENDBRANCH   5   6
ENDBRANCH   4   5
ENDBRANCH   3   4
ENDBRANCH   2   3
TORSDOF 19
ENDMDL
MODEL      264
REMARK 921   NORMALIZED FREE ENERGY PREDICTED BY IDOCK:   -2.88 KCAL/MOL
REMARK 922        TOTAL FREE ENERGY PREDICTED BY IDOCK:   -7.33 KCAL/MOL
REMARK 923 INTER-LIGAND FREE ENERGY PREDICTED BY IDOCK:   -6.14 KCAL/MOL
REMARK 924 INTRA-LIGAND FREE ENERGY PREDICTED BY IDOCK:   -1.19 KCAL/MOL
REMARK 927      BINDING AFFINITY PREDICTED BY RF-SCORE:    0.00 PKD
ROOT
HETATM    1  C   UNL     1     -13.791  13.630  72.183  1.00  0.00    -0.642 C  
HETATM    2  C   UNL     1     -12.888  12.617  71.509  1.00  0.00    -0.268 C  
ENDROOT
BRANCH   2   3
HETATM    3  O   UNL     1     -13.221  11.300  71.956  1.00  0.00    -0.506 OA 
BRANCH   3   4
HETATM    4  C   UNL     1     -12.614  10.326  71.103  1.00  0.00    -0.400 C  
BRANCH   4   5
HETATM    5  C   UNL     1     -11.710   9.394  71.907  1.00  0.00    -0.306 C  
BRANCH   5   6
HETATM    6  P   UNL     1     -10.137   8.999  71.008  1.00  0.00    -0.319 P  
BRANCH   6   7
HETATM    7  C   UNL     1      -9.925   7.192  71.392  1.00  0.00    -0.187 C  
BRANCH   7   8
HETATM    8  C   UNL     1      -8.515   6.718  71.041  1.00  0.00    -0.132 C  
BRANCH   8   9
HETATM    9  O   UNL     1      -8.564   5.407  70.472  1.00  0.00    -0.118 OA 
BRANCH   9  10
HETATM   10  C   UNL     1      -9.808   5.205  69.800  1.00  0.00    -0.212 C  
HETATM   11  C   UNL     1      -9.654   4.105  68.770  1.00  0.00    -0.210 C  
ENDBRANCH   9  10
ENDBRANCH   8   9
ENDBRANCH   7   8
ENDBRANCH   6   7
BRANCH   6  12
HETATM   12  C   UNL     1     -10.761   8.830  69.267  1.00  0.00    -0.151 C  
BRANCH  12  13
HETATM   13  C   UNL     1      -9.834   9.463  68.240  1.00  0.00    -0.160 C  
BRANCH  13  14
HETATM   14  P   UNL     1     -10.542  10.991  67.468  1.00  0.00    -0.262 P  
BRANCH  14  15
HETATM   15  C   UNL     1      -9.410  12.313  68.114  1.00  0.00    -0.205 C  
BRANCH  15  16
HETATM   16  C   UNL     1      -8.188  11.700  68.803  1.00  0.00    -0.055 C  
BRANCH  16  17
HETATM   17  O   UNL     1      -7.014  11.909  68.012  1.00  0.00    -0.069 OA 
BRANCH  17  18
HETATM   18  C   UNL     1      -6.303  10.680  67.850  1.00  0.00    -0.058 C  
HETATM   19  C   UNL     1      -6.155  10.365  66.375  1.00  0.00    -0.081 C  
ENDBRANCH  17  18
ENDBRANCH  16  17
ENDBRANCH  15  16
ENDBRANCH  14  15
BRANCH  14  20
HETATM   20  C   UNL     1      -9.859  10.806  65.749  1.00  0.00    -0.240 C  
BRANCH  20  21
HETATM   21  C   UNL     1     -10.746  11.474  64.701  1.00  0.00    -0.319 C  
BRANCH  21  22
HETATM   22  O   UNL     1     -10.227  12.766  64.388  1.00  0.00    -0.350 OA 
BRANCH  22  23
HETATM   23  C   UNL     1     -11.198  13.780  64.658  1.00  0.00    -0.378 C  
HETATM   24  C   UNL     1     -12.527  13.124  64.976  1.00  0.00    -0.516 C  
ENDBRANCH  22  23
ENDBRANCH  21  22
ENDBRANCH  20  21
ENDBRANCH  14  20
ENDBRANCH  13  14
ENDBRANCH  12  13
ENDBRANCH   6  12
ENDBRANCH   5   6
ENDBRANCH   4   5
ENDBRANCH   3   4
ENDBRANCH   2   3
TORSDOF 19
ENDMDL
MODEL      265
REMARK 921   NORMALIZED FREE ENERGY PREDICTED BY IDOCK:   -2.87 KCAL/MOL
REMARK 922        TOTAL FREE ENERGY PREDICTED BY IDOCK:   -7.30 KCAL/MOL
REMARK 923 INTER-LIGAND FREE ENERGY PREDICTED BY IDOCK:   -6.32 KCAL/MOL
REMARK 924 INTRA-LIGAND FREE ENERGY PREDICTED BY IDOCK:   -0.98 KCAL/MOL
REMARK 927      BINDING AFFINITY PREDICTED BY RF-SCORE:    0.00 PKD
ROOT
HETATM    1  C   UNL     1     -12.279  12.138  63.478  1.00  0.00    -0.670 C  
HETATM    2  C   UNL     1     -12.781  13.083  64.550  1.00  0.00    -0.249 C  
ENDROOT
BRANCH   2   3
HETATM    3  O   UNL     1     -11.694  13.488  65.385  1.00  0.00    -0.315 OA 
BRANCH   3   4
HETATM    4  C   UNL     1     -11.904  13.024  66.721  1.00  0.00    -0.388 C  
BRANCH   4   5
HETATM    5  C   UNL     1     -11.091  11.759  66.988  1.00  0.00    -0.304 C  
BRANCH   5   6
HETATM    6  P   UNL     1      -9.374  11.873  66.297  1.00  0.00    -0.184 P  
BRANCH   6   7
HETATM    7  C   UNL     1      -8.391  12.345  67.803  1.00  0.00    -0.164 C  
BRANCH   7   8
HETATM    8  C   UNL     1      -8.637  13.805  68.183  1.00  0.00    -0.175 C  
BRANCH   8   9
HETATM    9  O   UNL     1      -8.691  14.617  67.007  1.00  0.00    -0.215 OA 
BRANCH   9  10
HETATM   10  C   UNL     1      -7.682  15.627  67.057  1.00  0.00    -0.222 C  
HETATM   11  C   UNL     1      -8.274  16.955  66.631  1.00  0.00    -0.292 C  
ENDBRANCH   9  10
ENDBRANCH   8   9
ENDBRANCH   7   8
ENDBRANCH   6   7
BRANCH   6  12
HETATM   12  C   UNL     1      -8.906  10.077  66.225  1.00  0.00    -0.143 C  
BRANCH  12  13
HETATM   13  C   UNL     1     -10.072   9.147  66.527  1.00  0.00    -0.287 C  
BRANCH  13  14
HETATM   14  P   UNL     1      -9.790   8.096  68.026  1.00  0.00    -0.184 P  
BRANCH  14  15
HETATM   15  C   UNL     1     -10.675   9.055  69.346  1.00  0.00    -0.191 C  
BRANCH  15  16
HETATM   16  C   UNL     1     -10.737   8.261  70.654  1.00  0.00    -0.220 C  
BRANCH  16  17
HETATM   17  O   UNL     1     -11.166   9.103  71.728  1.00  0.00    -0.355 OA 
BRANCH  17  18
HETATM   18  C   UNL     1     -12.485   8.739  72.144  1.00  0.00    -0.393 C  
HETATM   19  C   UNL     1     -13.381   9.960  72.125  1.00  0.00    -0.498 C  
ENDBRANCH  17  18
ENDBRANCH  16  17
ENDBRANCH  15  16
ENDBRANCH  14  15
BRANCH  14  20
HETATM   20  C   UNL     1     -11.050   6.768  67.706  1.00  0.00    -0.201 C  
BRANCH  20  21
HETATM   21  C   UNL     1     -10.618   5.819  66.589  1.00  0.00    -0.280 C  
BRANCH  21  22
HETATM   22  O   UNL     1      -9.197   5.680  66.604  1.00  0.00    -0.127 OA 
BRANCH  22  23
HETATM   23  C   UNL     1      -8.792   4.547  65.831  1.00  0.00    -0.121 C  
HETATM   24  C   UNL     1      -8.446   5.001  64.427  1.00  0.00    -0.142 C  
ENDBRANCH  22  23
ENDBRANCH  21  22
ENDBRANCH  20  21
ENDBRANCH  14  20
ENDBRANCH  13  14
ENDBRANCH  12  13
ENDBRANCH   6  12
ENDBRANCH   5   6
ENDBRANCH   4   5
ENDBRANCH   3   4
ENDBRANCH   2   3
TORSDOF 19
ENDMDL
MODEL      266
REMARK 921   NORMALIZED FREE ENERGY PREDICTED BY IDOCK:   -2.85 KCAL/MOL
REMARK 922        TOTAL FREE ENERGY PREDICTED BY IDOCK:   -7.27 KCAL/MOL
REMARK 923 INTER-LIGAND FREE ENERGY PREDICTED BY IDOCK:   -6.22 KCAL/MOL
REMARK 924 INTRA-LIGAND FREE ENERGY PREDICTED BY IDOCK:   -1.05 KCAL/MOL
REMARK 927      BINDING AFFINITY PREDICTED BY RF-SCORE:    0.00 PKD
ROOT
HETATM    1  C   UNL     1     -11.802  14.679  66.010  1.00  0.00    -0.280 C  
HETATM    2  C   UNL     1     -13.007  13.869  65.579  1.00  0.00    -0.332 C  
ENDROOT
BRANCH   2   3
HETATM    3  O   UNL     1     -12.585  12.587  65.109  1.00  0.00    -0.631 OA 
BRANCH   3   4
HETATM    4  C   UNL     1     -11.169  12.580  64.912  1.00  0.00    -0.305 C  
BRANCH   4   5
HETATM    5  C   UNL     1     -10.660  11.157  64.695  1.00  0.00    -0.318 C  
BRANCH   5   6
HETATM    6  P   UNL     1      -9.576  10.582  66.086  1.00  0.00    -0.212 P  
BRANCH   6   7
HETATM    7  C   UNL     1     -10.108  11.705  67.469  1.00  0.00    -0.191 C  
BRANCH   7   8
HETATM    8  C   UNL     1     -11.322  11.135  68.202  1.00  0.00    -0.309 C  
BRANCH   8   9
HETATM    9  O   UNL     1     -11.057  11.054  69.605  1.00  0.00    -0.251 OA 
BRANCH   9  10
HETATM   10  C   UNL     1     -12.280  10.941  70.334  1.00  0.00    -0.365 C  
HETATM   11  C   UNL     1     -12.154   9.840  71.367  1.00  0.00    -0.486 C  
ENDBRANCH   9  10
ENDBRANCH   8   9
ENDBRANCH   7   8
ENDBRANCH   6   7
BRANCH   6  12
HETATM   12  C   UNL     1     -10.478   9.051  66.623  1.00  0.00    -0.165 C  
BRANCH  12  13
HETATM   13  C   UNL     1      -9.658   7.783  66.436  1.00  0.00    -0.165 C  
BRANCH  13  14
HETATM   14  P   UNL     1     -10.547   6.255  66.993  1.00  0.00    -0.340 P  
BRANCH  14  15
HETATM   15  C   UNL     1      -9.467   4.907  66.312  1.00  0.00    -0.158 C  
BRANCH  15  16
HETATM   16  C   UNL     1      -8.220   4.713  67.178  1.00  0.00    -0.105 C  
BRANCH  16  17
HETATM   17  O   UNL     1      -8.187   3.387  67.713  1.00  0.00    -0.079 OA 
BRANCH  17  18
HETATM   18  C   UNL     1      -7.773   3.416  69.081  1.00  0.00    -0.051 C  
HETATM   19  C   UNL     1      -8.781   2.675  69.935  1.00  0.00    -0.126 C  
ENDBRANCH  17  18
ENDBRANCH  16  17
ENDBRANCH  15  16
ENDBRANCH  14  15
BRANCH  14  20
HETATM   20  C   UNL     1     -10.006   6.222  68.771  1.00  0.00    -0.149 C  
BRANCH  20  21
HETATM   21  C   UNL     1     -11.185   6.339  69.735  1.00  0.00    -0.430 C  
BRANCH  21  22
HETATM   22  O   UNL     1     -10.709   6.695  71.033  1.00  0.00    -0.225 OA 
BRANCH  22  23
HETATM   23  C   UNL     1     -11.427   5.988  72.047  1.00  0.00    -0.287 C  
HETATM   24  C   UNL     1     -10.631   4.764  72.456  1.00  0.00    -0.262 C  
ENDBRANCH  22  23
ENDBRANCH  21  22
ENDBRANCH  20  21
ENDBRANCH  14  20
ENDBRANCH  13  14
ENDBRANCH  12  13
ENDBRANCH   6  12
ENDBRANCH   5   6
ENDBRANCH   4   5
ENDBRANCH   3   4
ENDBRANCH   2   3
TORSDOF 19
ENDMDL
MODEL      267
REMARK 921   NORMALIZED FREE ENERGY PREDICTED BY IDOCK:   -2.85 KCAL/MOL
REMARK 922        TOTAL FREE ENERGY PREDICTED BY IDOCK:   -7.27 KCAL/MOL
REMARK 923 INTER-LIGAND FREE ENERGY PREDICTED BY IDOCK:   -6.59 KCAL/MOL
REMARK 924 INTRA-LIGAND FREE ENERGY PREDICTED BY IDOCK:   -0.67 KCAL/MOL
REMARK 927      BINDING AFFINITY PREDICTED BY RF-SCORE:    0.00 PKD
ROOT
HETATM    1  C   UNL     1      -9.204  11.039  62.862  1.00  0.00    -0.362 C  
HETATM    2  C   UNL     1      -9.695  10.537  64.204  1.00  0.00    -0.327 C  
ENDROOT
BRANCH   2   3
HETATM    3  O   UNL     1      -8.617  10.542  65.144  1.00  0.00    -0.175 OA 
BRANCH   3   4
HETATM    4  C   UNL     1      -9.102  10.200  66.446  1.00  0.00    -0.152 C  
BRANCH   4   5
HETATM    5  C   UNL     1     -10.608  10.433  66.539  1.00  0.00    -0.151 C  
BRANCH   5   6
HETATM    6  P   UNL     1     -11.017  12.020  67.408  1.00  0.00    -0.298 P  
BRANCH   6   7
HETATM    7  C   UNL     1     -11.898  11.404  68.925  1.00  0.00    -0.347 C  
BRANCH   7   8
HETATM    8  C   UNL     1     -10.959  10.581  69.807  1.00  0.00    -0.294 C  
BRANCH   8   9
HETATM    9  O   UNL     1     -11.709   9.644  70.584  1.00  0.00    -0.269 OA 
BRANCH   9  10
HETATM   10  C   UNL     1     -12.927  10.239  71.037  1.00  0.00    -0.397 C  
HETATM   11  C   UNL     1     -13.501   9.416  72.172  1.00  0.00    -0.543 C  
ENDBRANCH   9  10
ENDBRANCH   8   9
ENDBRANCH   7   8
ENDBRANCH   6   7
BRANCH   6  12
HETATM   12  C   UNL     1      -9.383  12.422  68.192  1.00  0.00    -0.209 C  
BRANCH  12  13
HETATM   13  C   UNL     1      -8.440  13.161  67.253  1.00  0.00    -0.198 C  
BRANCH  13  14
HETATM   14  P   UNL     1      -8.548  15.003  67.419  1.00  0.00    -0.220 P  
BRANCH  14  15
HETATM   15  C   UNL     1     -10.208  15.364  66.669  1.00  0.00    -0.277 C  
BRANCH  15  16
HETATM   16  C   UNL     1     -10.130  16.556  65.712  1.00  0.00    -0.303 C  
BRANCH  16  17
HETATM   17  O   UNL     1     -10.603  17.743  66.356  1.00  0.00    -0.314 OA 
BRANCH  17  18
HETATM   18  C   UNL     1      -9.541  18.690  66.490  1.00  0.00    -0.337 C  
HETATM   19  C   UNL     1      -9.910  19.729  67.529  1.00  0.00    -0.516 C  
ENDBRANCH  17  18
ENDBRANCH  16  17
ENDBRANCH  15  16
ENDBRANCH  14  15
BRANCH  14  20
HETATM   20  C   UNL     1      -8.987  15.119  69.222  1.00  0.00    -0.202 C  
BRANCH  20  21
HETATM   21  C   UNL     1     -10.091  16.141  69.482  1.00  0.00    -0.241 C  
BRANCH  21  22
HETATM   22  O   UNL     1     -10.719  15.859  70.732  1.00  0.00    -0.226 OA 
BRANCH  22  23
HETATM   23  C   UNL     1     -11.559  14.706  70.628  1.00  0.00    -0.250 C  
HETATM   24  C   UNL     1     -12.672  14.991  69.639  1.00  0.00     0.015 C  
ENDBRANCH  22  23
ENDBRANCH  21  22
ENDBRANCH  20  21
ENDBRANCH  14  20
ENDBRANCH  13  14
ENDBRANCH  12  13
ENDBRANCH   6  12
ENDBRANCH   5   6
ENDBRANCH   4   5
ENDBRANCH   3   4
ENDBRANCH   2   3
TORSDOF 19
ENDMDL
MODEL      268
REMARK 921   NORMALIZED FREE ENERGY PREDICTED BY IDOCK:   -2.84 KCAL/MOL
REMARK 922        TOTAL FREE ENERGY PREDICTED BY IDOCK:   -7.25 KCAL/MOL
REMARK 923 INTER-LIGAND FREE ENERGY PREDICTED BY IDOCK:   -6.20 KCAL/MOL
REMARK 924 INTRA-LIGAND FREE ENERGY PREDICTED BY IDOCK:   -1.05 KCAL/MOL
REMARK 927      BINDING AFFINITY PREDICTED BY RF-SCORE:    0.00 PKD
ROOT
HETATM    1  C   UNL     1      -8.815   8.599  70.919  1.00  0.00    -0.221 C  
HETATM    2  C   UNL     1      -7.394   8.804  71.402  1.00  0.00    -0.097 C  
ENDROOT
BRANCH   2   3
HETATM    3  O   UNL     1      -6.613   9.406  70.367  1.00  0.00    -0.057 OA 
BRANCH   3   4
HETATM    4  C   UNL     1      -7.295  10.548  69.840  1.00  0.00    -0.108 C  
BRANCH   4   5
HETATM    5  C   UNL     1      -6.303  11.538  69.236  1.00  0.00    -0.091 C  
BRANCH   5   6
HETATM    6  P   UNL     1      -6.951  12.317  67.682  1.00  0.00    -0.157 P  
BRANCH   6   7
HETATM    7  C   UNL     1      -7.301  10.825  66.629  1.00  0.00    -0.134 C  
BRANCH   7   8
HETATM    8  C   UNL     1      -8.792  10.718  66.310  1.00  0.00    -0.173 C  
BRANCH   8   9
HETATM    9  O   UNL     1      -9.097  11.460  65.126  1.00  0.00    -0.163 OA 
BRANCH   9  10
HETATM   10  C   UNL     1     -10.224  10.888  64.460  1.00  0.00    -0.356 C  
HETATM   11  C   UNL     1     -11.018  11.984  63.778  1.00  0.00    -0.492 C  
ENDBRANCH   9  10
ENDBRANCH   8   9
ENDBRANCH   7   8
ENDBRANCH   6   7
BRANCH   6  12
HETATM   12  C   UNL     1      -8.696  12.705  68.185  1.00  0.00    -0.190 C  
BRANCH  12  13
HETATM   13  C   UNL     1      -8.906  14.175  68.515  1.00  0.00    -0.173 C  
BRANCH  13  14
HETATM   14  P   UNL     1     -10.413  14.891  67.708  1.00  0.00    -0.262 P  
BRANCH  14  15
HETATM   15  C   UNL     1     -11.751  13.749  68.303  1.00  0.00    -0.359 C  
BRANCH  15  16
HETATM   16  C   UNL     1     -11.885  12.534  67.381  1.00  0.00    -0.312 C  
BRANCH  16  17
HETATM   17  O   UNL     1     -12.169  11.359  68.145  1.00  0.00    -0.602 OA 
BRANCH  17  18
HETATM   18  C   UNL     1     -11.923  11.600  69.532  1.00  0.00    -0.317 C  
HETATM   19  C   UNL     1     -12.368  10.401  70.346  1.00  0.00    -0.370 C  
ENDBRANCH  17  18
ENDBRANCH  16  17
ENDBRANCH  15  16
ENDBRANCH  14  15
BRANCH  14  20
HETATM   20  C   UNL     1     -10.706  16.334  68.842  1.00  0.00    -0.300 C  
BRANCH  20  21
HETATM   21  C   UNL     1     -10.100  17.627  68.298  1.00  0.00    -0.362 C  
BRANCH  21  22
HETATM   22  O   UNL     1      -9.814  17.473  66.908  1.00  0.00    -0.277 OA 
BRANCH  22  23
HETATM   23  C   UNL     1      -8.673  18.251  66.537  1.00  0.00    -0.274 C  
HETATM   24  C   UNL     1      -7.511  17.322  66.247  1.00  0.00    -0.354 C  
ENDBRANCH  22  23
ENDBRANCH  21  22
ENDBRANCH  20  21
ENDBRANCH  14  20
ENDBRANCH  13  14
ENDBRANCH  12  13
ENDBRANCH   6  12
ENDBRANCH   5   6
ENDBRANCH   4   5
ENDBRANCH   3   4
ENDBRANCH   2   3
TORSDOF 19
ENDMDL
MODEL      269
REMARK 921   NORMALIZED FREE ENERGY PREDICTED BY IDOCK:   -2.83 KCAL/MOL
REMARK 922        TOTAL FREE ENERGY PREDICTED BY IDOCK:   -7.22 KCAL/MOL
REMARK 923 INTER-LIGAND FREE ENERGY PREDICTED BY IDOCK:   -5.84 KCAL/MOL
REMARK 924 INTRA-LIGAND FREE ENERGY PREDICTED BY IDOCK:   -1.38 KCAL/MOL
REMARK 927      BINDING AFFINITY PREDICTED BY RF-SCORE:    0.00 PKD
ROOT
HETATM    1  C   UNL     1      -9.156   2.415  67.605  1.00  0.00    -0.215 C  
HETATM    2  C   UNL     1      -9.052   2.897  66.173  1.00  0.00    -0.130 C  
ENDROOT
BRANCH   2   3
HETATM    3  O   UNL     1      -8.133   3.990  66.096  1.00  0.00    -0.097 OA 
BRANCH   3   4
HETATM    4  C   UNL     1      -8.713   5.066  65.355  1.00  0.00    -0.146 C  
BRANCH   4   5
HETATM    5  C   UNL     1      -8.895   6.296  66.241  1.00  0.00    -0.147 C  
BRANCH   5   6
HETATM    6  P   UNL     1     -10.546   6.313  67.084  1.00  0.00    -0.374 P  
BRANCH   6   7
HETATM    7  C   UNL     1     -10.112   5.685  68.779  1.00  0.00    -0.186 C  
BRANCH   7   8
HETATM    8  C   UNL     1     -10.566   6.666  69.860  1.00  0.00    -0.226 C  
BRANCH   8   9
HETATM    9  O   UNL     1     -11.908   6.373  70.258  1.00  0.00    -0.396 OA 
BRANCH   9  10
HETATM   10  C   UNL     1     -12.336   7.291  71.266  1.00  0.00    -0.366 C  
HETATM   11  C   UNL     1     -11.225   8.280  71.555  1.00  0.00    -0.316 C  
ENDBRANCH   9  10
ENDBRANCH   8   9
ENDBRANCH   7   8
ENDBRANCH   6   7
BRANCH   6  12
HETATM   12  C   UNL     1     -10.708   8.116  67.500  1.00  0.00    -0.156 C  
BRANCH  12  13
HETATM   13  C   UNL     1     -10.092   9.026  66.449  1.00  0.00    -0.281 C  
BRANCH  13  14
HETATM   14  P   UNL     1      -9.707  10.720  67.092  1.00  0.00    -0.177 P  
BRANCH  14  15
HETATM   15  C   UNL     1     -11.363  11.555  67.003  1.00  0.00    -0.269 C  
BRANCH  15  16
HETATM   16  C   UNL     1     -11.417  12.544  65.836  1.00  0.00    -0.373 C  
BRANCH  16  17
HETATM   17  O   UNL     1     -12.471  12.194  64.935  1.00  0.00    -0.467 OA 
BRANCH  17  18
HETATM   18  C   UNL     1     -12.100  12.514  63.592  1.00  0.00    -0.554 C  
HETATM   19  C   UNL     1     -10.780  11.852  63.255  1.00  0.00    -0.415 C  
ENDBRANCH  17  18
ENDBRANCH  16  17
ENDBRANCH  15  16
ENDBRANCH  14  15
BRANCH  14  20
HETATM   20  C   UNL     1      -9.642  10.345  68.911  1.00  0.00    -0.192 C  
BRANCH  20  21
HETATM   21  C   UNL     1      -8.209  10.195  69.418  1.00  0.00    -0.166 C  
BRANCH  21  22
HETATM   22  O   UNL     1      -7.380   9.695  68.369  1.00  0.00    -0.074 OA 
BRANCH  22  23
HETATM   23  C   UNL     1      -6.932   8.370  68.665  1.00  0.00    -0.068 C  
HETATM   24  C   UNL     1      -7.047   8.130  70.157  1.00  0.00    -0.048 C  
ENDBRANCH  22  23
ENDBRANCH  21  22
ENDBRANCH  20  21
ENDBRANCH  14  20
ENDBRANCH  13  14
ENDBRANCH  12  13
ENDBRANCH   6  12
ENDBRANCH   5   6
ENDBRANCH   4   5
ENDBRANCH   3   4
ENDBRANCH   2   3
TORSDOF 19
ENDMDL
MODEL      270
REMARK 921   NORMALIZED FREE ENERGY PREDICTED BY IDOCK:   -2.82 KCAL/MOL
REMARK 922        TOTAL FREE ENERGY PREDICTED BY IDOCK:   -7.21 KCAL/MOL
REMARK 923 INTER-LIGAND FREE ENERGY PREDICTED BY IDOCK:   -6.18 KCAL/MOL
REMARK 924 INTRA-LIGAND FREE ENERGY PREDICTED BY IDOCK:   -1.03 KCAL/MOL
REMARK 927      BINDING AFFINITY PREDICTED BY RF-SCORE:    0.00 PKD
ROOT
HETATM    1  C   UNL     1     -13.135   9.324  71.930  1.00  0.00    -0.490 C  
HETATM    2  C   UNL     1     -12.144   8.320  71.378  1.00  0.00    -0.300 C  
ENDROOT
BRANCH   2   3
HETATM    3  O   UNL     1     -10.810   8.769  71.631  1.00  0.00    -0.276 OA 
BRANCH   3   4
HETATM    4  C   UNL     1     -10.043   8.725  70.424  1.00  0.00    -0.192 C  
BRANCH   4   5
HETATM    5  C   UNL     1      -9.680  10.135  69.965  1.00  0.00    -0.093 C  
BRANCH   5   6
HETATM    6  P   UNL     1      -9.853  10.339  68.130  1.00  0.00    -0.157 P  
BRANCH   6   7
HETATM    7  C   UNL     1     -10.826   8.822  67.671  1.00  0.00    -0.022 C  
BRANCH   7   8
HETATM    8  C   UNL     1     -10.154   8.066  66.525  1.00  0.00    -0.200 C  
BRANCH   8   9
HETATM    9  O   UNL     1      -9.491   6.902  67.024  1.00  0.00    -0.139 OA 
BRANCH   9  10
HETATM   10  C   UNL     1     -10.364   5.772  66.966  1.00  0.00    -0.250 C  
HETATM   11  C   UNL     1      -9.820   4.762  65.977  1.00  0.00    -0.229 C  
ENDBRANCH   9  10
ENDBRANCH   8   9
ENDBRANCH   7   8
ENDBRANCH   6   7
BRANCH   6  12
HETATM   12  C   UNL     1     -11.234  11.577  68.044  1.00  0.00    -0.269 C  
BRANCH  12  13
HETATM   13  C   UNL     1     -11.642  11.914  66.617  1.00  0.00    -0.264 C  
BRANCH  13  14
HETATM   14  P   UNL     1     -10.452  13.057  65.774  1.00  0.00    -0.286 P  
BRANCH  14  15
HETATM   15  C   UNL     1     -10.778  12.703  63.980  1.00  0.00    -0.425 C  
BRANCH  15  16
HETATM   16  C   UNL     1     -10.445  11.249  63.639  1.00  0.00    -0.405 C  
BRANCH  16  17
HETATM   17  O   UNL     1      -9.045  11.107  63.376  1.00  0.00    -0.205 OA 
BRANCH  17  18
HETATM   18  C   UNL     1      -8.643   9.748  63.560  1.00  0.00    -0.201 C  
HETATM   19  C   UNL     1      -7.139   9.679  63.730  1.00  0.00    -0.115 C  
ENDBRANCH  17  18
ENDBRANCH  16  17
ENDBRANCH  15  16
ENDBRANCH  14  15
BRANCH  14  20
HETATM   20  C   UNL     1     -11.388  14.653  65.953  1.00  0.00    -0.338 C  
BRANCH  20  21
HETATM   21  C   UNL     1     -10.891  15.483  67.135  1.00  0.00    -0.316 C  
BRANCH  21  22
HETATM   22  O   UNL     1     -11.663  15.175  68.295  1.00  0.00    -0.338 OA 
BRANCH  22  23
HETATM   23  C   UNL     1     -10.824  15.066  69.448  1.00  0.00    -0.260 C  
HETATM   24  C   UNL     1     -11.457  15.827  70.596  1.00  0.00    -0.415 C  
ENDBRANCH  22  23
ENDBRANCH  21  22
ENDBRANCH  20  21
ENDBRANCH  14  20
ENDBRANCH  13  14
ENDBRANCH  12  13
ENDBRANCH   6  12
ENDBRANCH   5   6
ENDBRANCH   4   5
ENDBRANCH   3   4
ENDBRANCH   2   3
TORSDOF 19
ENDMDL
MODEL      271
REMARK 921   NORMALIZED FREE ENERGY PREDICTED BY IDOCK:   -2.82 KCAL/MOL
REMARK 922        TOTAL FREE ENERGY PREDICTED BY IDOCK:   -7.20 KCAL/MOL
REMARK 923 INTER-LIGAND FREE ENERGY PREDICTED BY IDOCK:   -6.02 KCAL/MOL
REMARK 924 INTRA-LIGAND FREE ENERGY PREDICTED BY IDOCK:   -1.18 KCAL/MOL
REMARK 927      BINDING AFFINITY PREDICTED BY RF-SCORE:    0.00 PKD
ROOT
HETATM    1  C   UNL     1     -12.057   8.271  72.382  1.00  0.00    -0.430 C  
HETATM    2  C   UNL     1     -10.559   8.202  72.167  1.00  0.00    -0.290 C  
ENDROOT
BRANCH   2   3
HETATM    3  O   UNL     1     -10.245   7.107  71.302  1.00  0.00    -0.191 OA 
BRANCH   3   4
HETATM    4  C   UNL     1      -9.169   7.465  70.431  1.00  0.00    -0.158 C  
BRANCH   4   5
HETATM    5  C   UNL     1      -9.680   8.294  69.255  1.00  0.00    -0.177 C  
BRANCH   5   6
HETATM    6  P   UNL     1      -8.387   8.520  67.945  1.00  0.00    -0.127 P  
BRANCH   6   7
HETATM    7  C   UNL     1      -8.105   6.769  67.386  1.00  0.00    -0.118 C  
BRANCH   7   8
HETATM    8  C   UNL     1      -9.023   6.412  66.217  1.00  0.00    -0.156 C  
BRANCH   8   9
HETATM    9  O   UNL     1     -10.023   5.483  66.642  1.00  0.00    -0.154 OA 
BRANCH   9  10
HETATM   10  C   UNL     1     -10.340   4.578  65.582  1.00  0.00    -0.247 C  
HETATM   11  C   UNL     1      -9.085   3.852  65.144  1.00  0.00    -0.142 C  
ENDBRANCH   9  10
ENDBRANCH   8   9
ENDBRANCH   7   8
ENDBRANCH   6   7
BRANCH   6  12
HETATM   12  C   UNL     1      -9.430   9.091  66.518  1.00  0.00    -0.206 C  
BRANCH  12  13
HETATM   13  C   UNL     1     -10.602   9.959  66.950  1.00  0.00    -0.178 C  
BRANCH  13  14
HETATM   14  P   UNL     1     -10.625  11.614  66.116  1.00  0.00    -0.275 P  
BRANCH  14  15
HETATM   15  C   UNL     1     -11.842  12.555  67.154  1.00  0.00    -0.316 C  
BRANCH  15  16
HETATM   16  C   UNL     1     -12.211  13.887  66.495  1.00  0.00    -0.442 C  
BRANCH  16  17
HETATM   17  O   UNL     1     -12.876  13.657  65.249  1.00  0.00    -0.672 OA 
BRANCH  17  18
HETATM   18  C   UNL     1     -12.243  14.403  64.206  1.00  0.00    -0.423 C  
HETATM   19  C   UNL     1     -11.260  15.387  64.806  1.00  0.00    -0.404 C  
ENDBRANCH  17  18
ENDBRANCH  16  17
ENDBRANCH  15  16
ENDBRANCH  14  15
BRANCH  14  20
HETATM   20  C   UNL     1      -9.037  12.311  66.784  1.00  0.00    -0.211 C  
BRANCH  20  21
HETATM   21  C   UNL     1      -9.070  12.468  68.303  1.00  0.00    -0.183 C  
BRANCH  21  22
HETATM   22  O   UNL     1      -8.442  13.696  68.671  1.00  0.00    -0.134 OA 
BRANCH  22  23
HETATM   23  C   UNL     1      -8.832  14.749  67.785  1.00  0.00    -0.175 C  
HETATM   24  C   UNL     1      -9.714  15.728  68.534  1.00  0.00    -0.206 C  
ENDBRANCH  22  23
ENDBRANCH  21  22
ENDBRANCH  20  21
ENDBRANCH  14  20
ENDBRANCH  13  14
ENDBRANCH  12  13
ENDBRANCH   6  12
ENDBRANCH   5   6
ENDBRANCH   4   5
ENDBRANCH   3   4
ENDBRANCH   2   3
TORSDOF 19
ENDMDL
MODEL      272
REMARK 921   NORMALIZED FREE ENERGY PREDICTED BY IDOCK:   -2.81 KCAL/MOL
REMARK 922        TOTAL FREE ENERGY PREDICTED BY IDOCK:   -7.17 KCAL/MOL
REMARK 923 INTER-LIGAND FREE ENERGY PREDICTED BY IDOCK:   -6.52 KCAL/MOL
REMARK 924 INTRA-LIGAND FREE ENERGY PREDICTED BY IDOCK:   -0.66 KCAL/MOL
REMARK 927      BINDING AFFINITY PREDICTED BY RF-SCORE:    0.00 PKD
ROOT
HETATM    1  C   UNL     1      -9.605  10.078  65.487  1.00  0.00    -0.328 C  
HETATM    2  C   UNL     1     -10.036   8.994  66.452  1.00  0.00    -0.300 C  
ENDROOT
BRANCH   2   3
HETATM    3  O   UNL     1     -10.748   9.576  67.546  1.00  0.00    -0.282 OA 
BRANCH   3   4
HETATM    4  C   UNL     1      -9.858  10.353  68.352  1.00  0.00    -0.162 C  
BRANCH   4   5
HETATM    5  C   UNL     1     -10.584  11.554  68.954  1.00  0.00    -0.204 C  
BRANCH   5   6
HETATM    6  P   UNL     1     -10.548  13.028  67.830  1.00  0.00    -0.236 P  
BRANCH   6   7
HETATM    7  C   UNL     1     -12.260  12.995  67.107  1.00  0.00    -0.138 C  
BRANCH   7   8
HETATM    8  C   UNL     1     -12.239  13.388  65.630  1.00  0.00    -0.463 C  
BRANCH   8   9
HETATM    9  O   UNL     1     -13.076  12.508  64.875  1.00  0.00    -0.833 OA 
BRANCH   9  10
HETATM   10  C   UNL     1     -12.292  11.752  63.951  1.00  0.00    -0.288 C  
HETATM   11  C   UNL     1     -11.089  12.567  63.522  1.00  0.00    -0.497 C  
ENDBRANCH   9  10
ENDBRANCH   8   9
ENDBRANCH   7   8
ENDBRANCH   6   7
BRANCH   6  12
HETATM   12  C   UNL     1     -10.799  14.406  69.050  1.00  0.00    -0.252 C  
BRANCH  12  13
HETATM   13  C   UNL     1      -9.991  15.650  68.715  1.00  0.00    -0.213 C  
BRANCH  13  14
HETATM   14  P   UNL     1      -8.784  15.381  67.335  1.00  0.00    -0.203 P  
BRANCH  14  15
HETATM   15  C   UNL     1      -7.815  16.965  67.352  1.00  0.00    -0.170 C  
BRANCH  15  16
HETATM   16  C   UNL     1      -8.207  17.861  66.174  1.00  0.00    -0.150 C  
BRANCH  16  17
HETATM   17  O   UNL     1      -8.883  19.031  66.644  1.00  0.00    -0.295 OA 
BRANCH  17  18
HETATM   18  C   UNL     1      -8.760  19.137  68.064  1.00  0.00    -0.310 C  
HETATM   19  C   UNL     1     -10.104  19.488  68.669  1.00  0.00    -0.535 C  
ENDBRANCH  17  18
ENDBRANCH  16  17
ENDBRANCH  15  16
ENDBRANCH  14  15
BRANCH  14  20
HETATM   20  C   UNL     1      -7.577  14.265  68.202  1.00  0.00    -0.134 C  
BRANCH  20  21
HETATM   21  C   UNL     1      -6.133  14.548  67.793  1.00  0.00    -0.117 C  
BRANCH  21  22
HETATM   22  O   UNL     1      -5.292  14.508  68.946  1.00  0.00    -0.085 OA 
BRANCH  22  23
HETATM   23  C   UNL     1      -5.972  15.040  70.086  1.00  0.00    -0.147 C  
HETATM   24  C   UNL     1      -5.458  16.439  70.363  1.00  0.00    -0.174 C  
ENDBRANCH  22  23
ENDBRANCH  21  22
ENDBRANCH  20  21
ENDBRANCH  14  20
ENDBRANCH  13  14
ENDBRANCH  12  13
ENDBRANCH   6  12
ENDBRANCH   5   6
ENDBRANCH   4   5
ENDBRANCH   3   4
ENDBRANCH   2   3
TORSDOF 19
ENDMDL
MODEL      273
REMARK 921   NORMALIZED FREE ENERGY PREDICTED BY IDOCK:   -2.80 KCAL/MOL
REMARK 922        TOTAL FREE ENERGY PREDICTED BY IDOCK:   -7.16 KCAL/MOL
REMARK 923 INTER-LIGAND FREE ENERGY PREDICTED BY IDOCK:   -6.24 KCAL/MOL
REMARK 924 INTRA-LIGAND FREE ENERGY PREDICTED BY IDOCK:   -0.92 KCAL/MOL
REMARK 927      BINDING AFFINITY PREDICTED BY RF-SCORE:    0.00 PKD
ROOT
HETATM    1  C   UNL     1     -14.031  13.466  72.314  1.00  0.00    -0.605 C  
HETATM    2  C   UNL     1     -12.940  12.541  71.818  1.00  0.00    -0.313 C  
ENDROOT
BRANCH   2   3
HETATM    3  O   UNL     1     -13.327  11.181  72.026  1.00  0.00    -0.454 OA 
BRANCH   3   4
HETATM    4  C   UNL     1     -12.789  10.355  70.990  1.00  0.00    -0.401 C  
BRANCH   4   5
HETATM    5  C   UNL     1     -11.808   9.337  71.567  1.00  0.00    -0.374 C  
BRANCH   5   6
HETATM    6  P   UNL     1     -10.463   8.904  70.367  1.00  0.00    -0.239 P  
BRANCH   6   7
HETATM    7  C   UNL     1     -10.977   7.204  69.818  1.00  0.00    -0.231 C  
BRANCH   7   8
HETATM    8  C   UNL     1     -12.045   6.628  70.748  1.00  0.00    -0.304 C  
BRANCH   8   9
HETATM    9  O   UNL     1     -11.449   5.723  71.682  1.00  0.00    -0.219 OA 
BRANCH   9  10
HETATM   10  C   UNL     1     -10.483   4.900  71.026  1.00  0.00    -0.094 C  
HETATM   11  C   UNL     1      -9.602   4.231  72.060  1.00  0.00    -0.209 C  
ENDBRANCH   9  10
ENDBRANCH   8   9
ENDBRANCH   7   8
ENDBRANCH   6   7
BRANCH   6  12
HETATM   12  C   UNL     1     -11.015   9.847  68.865  1.00  0.00    -0.179 C  
BRANCH  12  13
HETATM   13  C   UNL     1      -9.952   9.911  67.779  1.00  0.00    -0.165 C  
BRANCH  13  14
HETATM   14  P   UNL     1      -9.188  11.590  67.610  1.00  0.00    -0.182 P  
BRANCH  14  15
HETATM   15  C   UNL     1      -7.699  11.236  66.559  1.00  0.00    -0.125 C  
BRANCH  15  16
HETATM   16  C   UNL     1      -7.775   9.831  65.957  1.00  0.00    -0.104 C  
BRANCH  16  17
HETATM   17  O   UNL     1      -7.703   9.896  64.529  1.00  0.00    -0.132 OA 
BRANCH  17  18
HETATM   18  C   UNL     1      -8.997   9.684  63.960  1.00  0.00    -0.223 C  
HETATM   19  C   UNL     1      -9.275  10.744  62.914  1.00  0.00    -0.336 C  
ENDBRANCH  17  18
ENDBRANCH  16  17
ENDBRANCH  15  16
ENDBRANCH  14  15
BRANCH  14  20
HETATM   20  C   UNL     1     -10.318  12.308  66.320  1.00  0.00    -0.232 C  
BRANCH  20  21
HETATM   21  C   UNL     1     -10.466  13.821  66.460  1.00  0.00    -0.282 C  
BRANCH  21  22
HETATM   22  O   UNL     1      -9.684  14.472  65.458  1.00  0.00    -0.308 OA 
BRANCH  22  23
HETATM   23  C   UNL     1      -8.952  15.565  66.019  1.00  0.00    -0.215 C  
HETATM   24  C   UNL     1      -9.919  16.671  66.393  1.00  0.00    -0.316 C  
ENDBRANCH  22  23
ENDBRANCH  21  22
ENDBRANCH  20  21
ENDBRANCH  14  20
ENDBRANCH  13  14
ENDBRANCH  12  13
ENDBRANCH   6  12
ENDBRANCH   5   6
ENDBRANCH   4   5
ENDBRANCH   3   4
ENDBRANCH   2   3
TORSDOF 19
ENDMDL
MODEL      274
REMARK 921   NORMALIZED FREE ENERGY PREDICTED BY IDOCK:   -2.80 KCAL/MOL
REMARK 922        TOTAL FREE ENERGY PREDICTED BY IDOCK:   -7.15 KCAL/MOL
REMARK 923 INTER-LIGAND FREE ENERGY PREDICTED BY IDOCK:   -6.04 KCAL/MOL
REMARK 924 INTRA-LIGAND FREE ENERGY PREDICTED BY IDOCK:   -1.11 KCAL/MOL
REMARK 927      BINDING AFFINITY PREDICTED BY RF-SCORE:    0.00 PKD
ROOT
HETATM    1  C   UNL     1      -9.594  10.649  63.373  1.00  0.00    -0.373 C  
HETATM    2  C   UNL     1      -8.972   9.670  64.347  1.00  0.00    -0.234 C  
ENDROOT
BRANCH   2   3
HETATM    3  O   UNL     1      -9.872   9.428  65.431  1.00  0.00    -0.270 OA 
BRANCH   3   4
HETATM    4  C   UNL     1      -9.391   8.347  66.234  1.00  0.00    -0.219 C  
BRANCH   4   5
HETATM    5  C   UNL     1     -10.538   7.691  66.999  1.00  0.00    -0.336 C  
BRANCH   5   6
HETATM    6  P   UNL     1     -10.447   5.840  66.944  1.00  0.00    -0.290 P  
BRANCH   6   7
HETATM    7  C   UNL     1      -8.744   5.565  66.253  1.00  0.00    -0.128 C  
BRANCH   7   8
HETATM    8  C   UNL     1      -8.812   4.957  64.852  1.00  0.00    -0.152 C  
BRANCH   8   9
HETATM    9  O   UNL     1     -10.000   4.173  64.714  1.00  0.00    -0.185 OA 
BRANCH   9  10
HETATM   10  C   UNL     1     -10.125   3.697  63.372  1.00  0.00    -0.189 C  
HETATM   11  C   UNL     1      -8.759   3.663  62.718  1.00  0.00    -0.090 C  
ENDBRANCH   9  10
ENDBRANCH   8   9
ENDBRANCH   7   8
ENDBRANCH   6   7
BRANCH   6  12
HETATM   12  C   UNL     1     -10.079   5.454  68.723  1.00  0.00    -0.185 C  
BRANCH  12  13
HETATM   13  C   UNL     1     -11.128   6.004  69.679  1.00  0.00    -0.404 C  
BRANCH  13  14
HETATM   14  P   UNL     1     -10.593   5.947  71.452  1.00  0.00    -0.261 P  
BRANCH  14  15
HETATM   15  C   UNL     1      -9.002   6.902  71.410  1.00  0.00    -0.141 C  
BRANCH  15  16
HETATM   16  C   UNL     1      -9.263   8.390  71.160  1.00  0.00    -0.174 C  
BRANCH  16  17
HETATM   17  O   UNL     1      -8.800   8.764  69.859  1.00  0.00    -0.134 OA 
BRANCH  17  18
HETATM   18  C   UNL     1      -8.981  10.168  69.655  1.00  0.00    -0.169 C  
HETATM   19  C   UNL     1      -7.716  10.768  69.077  1.00  0.00    -0.133 C  
ENDBRANCH  17  18
ENDBRANCH  16  17
ENDBRANCH  15  16
ENDBRANCH  14  15
BRANCH  14  20
HETATM   20  C   UNL     1     -11.722   7.248  72.151  1.00  0.00    -0.285 C  
BRANCH  20  21
HETATM   21  C   UNL     1     -13.104   7.222  71.500  1.00  0.00    -0.384 C  
BRANCH  21  22
HETATM   22  O   UNL     1     -13.725   8.499  71.647  1.00  0.00    -0.365 OA 
BRANCH  22  23
HETATM   23  C   UNL     1     -12.829   9.431  72.259  1.00  0.00    -0.375 C  
HETATM   24  C   UNL     1     -12.923  10.759  71.535  1.00  0.00    -0.562 C  
ENDBRANCH  22  23
ENDBRANCH  21  22
ENDBRANCH  20  21
ENDBRANCH  14  20
ENDBRANCH  13  14
ENDBRANCH  12  13
ENDBRANCH   6  12
ENDBRANCH   5   6
ENDBRANCH   4   5
ENDBRANCH   3   4
ENDBRANCH   2   3
TORSDOF 19
ENDMDL
MODEL      275
REMARK 921   NORMALIZED FREE ENERGY PREDICTED BY IDOCK:   -2.78 KCAL/MOL
REMARK 922        TOTAL FREE ENERGY PREDICTED BY IDOCK:   -7.11 KCAL/MOL
REMARK 923 INTER-LIGAND FREE ENERGY PREDICTED BY IDOCK:   -5.67 KCAL/MOL
REMARK 924 INTRA-LIGAND FREE ENERGY PREDICTED BY IDOCK:   -1.44 KCAL/MOL
REMARK 927      BINDING AFFINITY PREDICTED BY RF-SCORE:    0.00 PKD
ROOT
HETATM    1  C   UNL     1      -8.807   8.612  70.850  1.00  0.00    -0.221 C  
HETATM    2  C   UNL     1      -7.391   8.794  71.357  1.00  0.00    -0.097 C  
ENDROOT
BRANCH   2   3
HETATM    3  O   UNL     1      -6.485   8.843  70.252  1.00  0.00    -0.037 OA 
BRANCH   3   4
HETATM    4  C   UNL     1      -6.955   9.776  69.275  1.00  0.00    -0.056 C  
BRANCH   4   5
HETATM    5  C   UNL     1      -5.901  10.844  68.998  1.00  0.00    -0.040 C  
BRANCH   5   6
HETATM    6  P   UNL     1      -6.471  12.079  67.737  1.00  0.00    -0.117 P  
BRANCH   6   7
HETATM    7  C   UNL     1      -6.450  11.065  66.179  1.00  0.00    -0.082 C  
BRANCH   7   8
HETATM    8  C   UNL     1      -7.868  10.685  65.753  1.00  0.00    -0.141 C  
BRANCH   8   9
HETATM    9  O   UNL     1      -8.112   9.304  66.032  1.00  0.00    -0.108 OA 
BRANCH   9  10
HETATM   10  C   UNL     1      -9.511   9.025  65.963  1.00  0.00    -0.256 C  
HETATM   11  C   UNL     1     -10.039   8.732  67.353  1.00  0.00    -0.289 C  
ENDBRANCH   9  10
ENDBRANCH   8   9
ENDBRANCH   7   8
ENDBRANCH   6   7
BRANCH   6  12
HETATM   12  C   UNL     1      -8.303  12.068  68.039  1.00  0.00    -0.162 C  
BRANCH  12  13
HETATM   13  C   UNL     1      -8.838  13.417  68.496  1.00  0.00    -0.068 C  
BRANCH  13  14
HETATM   14  P   UNL     1      -9.751  14.324  67.164  1.00  0.00    -0.269 P  
BRANCH  14  15
HETATM   15  C   UNL     1     -11.485  13.697  67.385  1.00  0.00    -0.336 C  
BRANCH  15  16
HETATM   16  C   UNL     1     -11.618  12.261  66.872  1.00  0.00    -0.361 C  
BRANCH  16  17
HETATM   17  O   UNL     1     -12.203  11.426  67.875  1.00  0.00    -0.592 OA 
BRANCH  17  18
HETATM   18  C   UNL     1     -11.970  11.977  69.174  1.00  0.00    -0.268 C  
HETATM   19  C   UNL     1     -11.682  10.862  70.158  1.00  0.00    -0.433 C  
ENDBRANCH  17  18
ENDBRANCH  16  17
ENDBRANCH  15  16
ENDBRANCH  14  15
BRANCH  14  20
HETATM   20  C   UNL     1      -9.912  15.985  67.984  1.00  0.00    -0.229 C  
BRANCH  20  21
HETATM   21  C   UNL     1      -9.891  15.880  69.507  1.00  0.00    -0.268 C  
BRANCH  21  22
HETATM   22  O   UNL     1     -11.084  16.452  70.043  1.00  0.00    -0.350 OA 
BRANCH  22  23
HETATM   23  C   UNL     1     -11.826  15.477  70.779  1.00  0.00    -0.367 C  
HETATM   24  C   UNL     1     -11.659  15.741  72.262  1.00  0.00    -0.522 C  
ENDBRANCH  22  23
ENDBRANCH  21  22
ENDBRANCH  20  21
ENDBRANCH  14  20
ENDBRANCH  13  14
ENDBRANCH  12  13
ENDBRANCH   6  12
ENDBRANCH   5   6
ENDBRANCH   4   5
ENDBRANCH   3   4
ENDBRANCH   2   3
TORSDOF 19
ENDMDL
MODEL      276
REMARK 921   NORMALIZED FREE ENERGY PREDICTED BY IDOCK:   -2.77 KCAL/MOL
REMARK 922        TOTAL FREE ENERGY PREDICTED BY IDOCK:   -7.09 KCAL/MOL
REMARK 923 INTER-LIGAND FREE ENERGY PREDICTED BY IDOCK:   -5.66 KCAL/MOL
REMARK 924 INTRA-LIGAND FREE ENERGY PREDICTED BY IDOCK:   -1.43 KCAL/MOL
REMARK 927      BINDING AFFINITY PREDICTED BY RF-SCORE:    0.00 PKD
ROOT
HETATM    1  C   UNL     1     -12.089  12.889  63.455  1.00  0.00    -0.633 C  
HETATM    2  C   UNL     1     -10.684  12.495  63.860  1.00  0.00    -0.437 C  
ENDROOT
BRANCH   2   3
HETATM    3  O   UNL     1     -10.213  11.445  63.012  1.00  0.00    -0.324 OA 
BRANCH   3   4
HETATM    4  C   UNL     1      -9.524  10.461  63.787  1.00  0.00    -0.305 C  
BRANCH   4   5
HETATM    5  C   UNL     1     -10.096  10.391  65.201  1.00  0.00    -0.308 C  
BRANCH   5   6
HETATM    6  P   UNL     1      -9.339   9.020  66.194  1.00  0.00    -0.258 P  
BRANCH   6   7
HETATM    7  C   UNL     1      -7.597   9.629  66.415  1.00  0.00    -0.101 C  
BRANCH   7   8
HETATM    8  C   UNL     1      -7.580  11.070  66.924  1.00  0.00    -0.133 C  
BRANCH   8   9
HETATM    9  O   UNL     1      -6.525  11.245  67.873  1.00  0.00    -0.056 OA 
BRANCH   9  10
HETATM   10  C   UNL     1      -7.063  11.525  69.166  1.00  0.00    -0.105 C  
HETATM   11  C   UNL     1      -6.786  10.358  70.092  1.00  0.00    -0.155 C  
ENDBRANCH   9  10
ENDBRANCH   8   9
ENDBRANCH   7   8
ENDBRANCH   6   7
BRANCH   6  12
HETATM   12  C   UNL     1      -9.979   9.421  67.890  1.00  0.00    -0.182 C  
BRANCH  12  13
HETATM   13  C   UNL     1      -9.744   8.301  68.894  1.00  0.00    -0.164 C  
BRANCH  13  14
HETATM   14  P   UNL     1     -10.463   6.681  68.354  1.00  0.00    -0.254 P  
BRANCH  14  15
HETATM   15  C   UNL     1      -9.004   5.542  68.497  1.00  0.00    -0.110 C  
BRANCH  15  16
HETATM   16  C   UNL     1      -7.794   6.271  69.088  1.00  0.00    -0.105 C  
BRANCH  16  17
HETATM   17  O   UNL     1      -6.798   6.477  68.082  1.00  0.00    -0.068 OA 
BRANCH  17  18
HETATM   18  C   UNL     1      -5.662   7.142  68.640  1.00  0.00    -0.022 C  
HETATM   19  C   UNL     1      -5.589   6.866  70.128  1.00  0.00    -0.023 C  
ENDBRANCH  17  18
ENDBRANCH  16  17
ENDBRANCH  15  16
ENDBRANCH  14  15
BRANCH  14  20
HETATM   20  C   UNL     1     -11.373   6.222  69.909  1.00  0.00    -0.434 C  
BRANCH  20  21
HETATM   21  C   UNL     1     -11.414   7.371  70.914  1.00  0.00    -0.286 C  
BRANCH  21  22
HETATM   22  O   UNL     1     -12.760   7.593  71.333  1.00  0.00    -0.333 OA 
BRANCH  22  23
HETATM   23  C   UNL     1     -12.884   8.858  71.987  1.00  0.00    -0.397 C  
HETATM   24  C   UNL     1     -12.190   9.918  71.154  1.00  0.00    -0.468 C  
ENDBRANCH  22  23
ENDBRANCH  21  22
ENDBRANCH  20  21
ENDBRANCH  14  20
ENDBRANCH  13  14
ENDBRANCH  12  13
ENDBRANCH   6  12
ENDBRANCH   5   6
ENDBRANCH   4   5
ENDBRANCH   3   4
ENDBRANCH   2   3
TORSDOF 19
ENDMDL
MODEL      277
REMARK 921   NORMALIZED FREE ENERGY PREDICTED BY IDOCK:   -2.76 KCAL/MOL
REMARK 922        TOTAL FREE ENERGY PREDICTED BY IDOCK:   -7.07 KCAL/MOL
REMARK 923 INTER-LIGAND FREE ENERGY PREDICTED BY IDOCK:   -5.88 KCAL/MOL
REMARK 924 INTRA-LIGAND FREE ENERGY PREDICTED BY IDOCK:   -1.19 KCAL/MOL
REMARK 927      BINDING AFFINITY PREDICTED BY RF-SCORE:    0.00 PKD
ROOT
HETATM    1  C   UNL     1     -10.369   8.152  68.444  1.00  0.00    -0.236 C  
HETATM    2  C   UNL     1     -10.370   8.782  67.066  1.00  0.00    -0.283 C  
ENDROOT
BRANCH   2   3
HETATM    3  O   UNL     1     -10.682  10.173  67.172  1.00  0.00    -0.250 OA 
BRANCH   3   4
HETATM    4  C   UNL     1     -10.512  10.612  68.522  1.00  0.00    -0.191 C  
BRANCH   4   5
HETATM    5  C   UNL     1     -10.124  12.088  68.566  1.00  0.00    -0.196 C  
BRANCH   5   6
HETATM    6  P   UNL     1     -10.107  12.857  66.879  1.00  0.00    -0.249 P  
BRANCH   6   7
HETATM    7  C   UNL     1     -11.611  13.948  66.946  1.00  0.00    -0.378 C  
BRANCH   7   8
HETATM    8  C   UNL     1     -12.197  13.988  68.357  1.00  0.00    -0.167 C  
BRANCH   8   9
HETATM    9  O   UNL     1     -12.028  15.290  68.923  1.00  0.00    -0.322 OA 
BRANCH   9  10
HETATM   10  C   UNL     1     -12.491  15.306  70.275  1.00  0.00    -0.363 C  
HETATM   11  C   UNL     1     -11.306  15.270  71.217  1.00  0.00    -0.416 C  
ENDBRANCH   9  10
ENDBRANCH   8   9
ENDBRANCH   7   8
ENDBRANCH   6   7
BRANCH   6  12
HETATM   12  C   UNL     1      -8.814  14.170  67.105  1.00  0.00    -0.229 C  
BRANCH  12  13
HETATM   13  C   UNL     1      -8.691  14.640  68.547  1.00  0.00    -0.176 C  
BRANCH  13  14
HETATM   14  P   UNL     1      -7.691  16.190  68.721  1.00  0.00    -0.224 P  
BRANCH  14  15
HETATM   15  C   UNL     1      -6.134  15.561  69.513  1.00  0.00    -0.138 C  
BRANCH  15  16
HETATM   16  C   UNL     1      -6.283  14.094  69.926  1.00  0.00    -0.146 C  
BRANCH  16  17
HETATM   17  O   UNL     1      -5.632  13.243  68.978  1.00  0.00    -0.071 OA 
BRANCH  17  18
HETATM   18  C   UNL     1      -5.232  12.021  69.605  1.00  0.00    -0.069 C  
HETATM   19  C   UNL     1      -6.457  11.198  69.948  1.00  0.00    -0.142 C  
ENDBRANCH  17  18
ENDBRANCH  16  17
ENDBRANCH  15  16
ENDBRANCH  14  15
BRANCH  14  20
HETATM   20  C   UNL     1      -7.101  16.368  66.968  1.00  0.00    -0.224 C  
BRANCH  20  21
HETATM   21  C   UNL     1      -7.307  17.783  66.431  1.00  0.00    -0.275 C  
BRANCH  21  22
HETATM   22  O   UNL     1      -8.110  18.529  67.345  1.00  0.00    -0.238 OA 
BRANCH  22  23
HETATM   23  C   UNL     1      -9.068  19.326  66.644  1.00  0.00    -0.338 C  
HETATM   24  C   UNL     1     -10.362  19.355  67.432  1.00  0.00    -0.559 C  
ENDBRANCH  22  23
ENDBRANCH  21  22
ENDBRANCH  20  21
ENDBRANCH  14  20
ENDBRANCH  13  14
ENDBRANCH  12  13
ENDBRANCH   6  12
ENDBRANCH   5   6
ENDBRANCH   4   5
ENDBRANCH   3   4
ENDBRANCH   2   3
TORSDOF 19
ENDMDL
MODEL      278
REMARK 921   NORMALIZED FREE ENERGY PREDICTED BY IDOCK:   -2.76 KCAL/MOL
REMARK 922        TOTAL FREE ENERGY PREDICTED BY IDOCK:   -7.07 KCAL/MOL
REMARK 923 INTER-LIGAND FREE ENERGY PREDICTED BY IDOCK:   -5.86 KCAL/MOL
REMARK 924 INTRA-LIGAND FREE ENERGY PREDICTED BY IDOCK:   -1.21 KCAL/MOL
REMARK 927      BINDING AFFINITY PREDICTED BY RF-SCORE:    0.00 PKD
ROOT
HETATM    1  C   UNL     1      -9.375  11.037  62.935  1.00  0.00    -0.380 C  
HETATM    2  C   UNL     1      -9.144   9.768  63.729  1.00  0.00    -0.230 C  
ENDROOT
BRANCH   2   3
HETATM    3  O   UNL     1      -9.860   9.835  64.965  1.00  0.00    -0.306 OA 
BRANCH   3   4
HETATM    4  C   UNL     1      -9.446   8.772  65.828  1.00  0.00    -0.169 C  
BRANCH   4   5
HETATM    5  C   UNL     1     -10.528   8.461  66.858  1.00  0.00    -0.289 C  
BRANCH   5   6
HETATM    6  P   UNL     1     -10.701   6.640  67.163  1.00  0.00    -0.381 P  
BRANCH   6   7
HETATM    7  C   UNL     1      -9.090   5.990  66.498  1.00  0.00    -0.146 C  
BRANCH   7   8
HETATM    8  C   UNL     1      -8.311   5.246  67.582  1.00  0.00    -0.106 C  
BRANCH   8   9
HETATM    9  O   UNL     1      -7.950   3.941  67.121  1.00  0.00    -0.090 OA 
BRANCH   9  10
HETATM   10  C   UNL     1      -7.995   3.005  68.199  1.00  0.00    -0.062 C  
HETATM   11  C   UNL     1      -9.338   3.099  68.895  1.00  0.00    -0.231 C  
ENDBRANCH   9  10
ENDBRANCH   8   9
ENDBRANCH   7   8
ENDBRANCH   6   7
BRANCH   6  12
HETATM   12  C   UNL     1     -10.300   6.547  68.974  1.00  0.00    -0.195 C  
BRANCH  12  13
HETATM   13  C   UNL     1     -10.645   7.825  69.724  1.00  0.00    -0.241 C  
BRANCH  13  14
HETATM   14  P   UNL     1      -9.445   8.216  71.081  1.00  0.00    -0.175 P  
BRANCH  14  15
HETATM   15  C   UNL     1     -10.511   8.080  72.594  1.00  0.00    -0.339 C  
BRANCH  15  16
HETATM   16  C   UNL     1     -11.961   7.766  72.217  1.00  0.00    -0.309 C  
BRANCH  16  17
HETATM   17  O   UNL     1     -12.848   8.716  72.817  1.00  0.00    -0.308 OA 
BRANCH  17  18
HETATM   18  C   UNL     1     -14.101   8.724  72.129  1.00  0.00    -0.450 C  
HETATM   19  C   UNL     1     -14.389   7.344  71.575  1.00  0.00    -0.594 C  
ENDBRANCH  17  18
ENDBRANCH  16  17
ENDBRANCH  15  16
ENDBRANCH  14  15
BRANCH  14  20
HETATM   20  C   UNL     1      -8.555   6.587  71.176  1.00  0.00    -0.130 C  
BRANCH  20  21
HETATM   21  C   UNL     1      -8.520   6.031  72.599  1.00  0.00    -0.118 C  
BRANCH  21  22
HETATM   22  O   UNL     1      -9.172   4.762  72.633  1.00  0.00    -0.126 OA 
BRANCH  22  23
HETATM   23  C   UNL     1      -9.977   4.639  73.808  1.00  0.00    -0.156 C  
HETATM   24  C   UNL     1     -11.394   4.280  73.405  1.00  0.00    -0.324 C  
ENDBRANCH  22  23
ENDBRANCH  21  22
ENDBRANCH  20  21
ENDBRANCH  14  20
ENDBRANCH  13  14
ENDBRANCH  12  13
ENDBRANCH   6  12
ENDBRANCH   5   6
ENDBRANCH   4   5
ENDBRANCH   3   4
ENDBRANCH   2   3
TORSDOF 19
ENDMDL
MODEL      279
REMARK 921   NORMALIZED FREE ENERGY PREDICTED BY IDOCK:   -2.75 KCAL/MOL
REMARK 922        TOTAL FREE ENERGY PREDICTED BY IDOCK:   -7.06 KCAL/MOL
REMARK 923 INTER-LIGAND FREE ENERGY PREDICTED BY IDOCK:   -5.97 KCAL/MOL
REMARK 924 INTRA-LIGAND FREE ENERGY PREDICTED BY IDOCK:   -1.09 KCAL/MOL
REMARK 927      BINDING AFFINITY PREDICTED BY RF-SCORE:    0.00 PKD
ROOT
HETATM    1  C   UNL     1     -14.175  14.332  72.001  1.00  0.00    -0.631 C  
HETATM    2  C   UNL     1     -13.074  13.843  71.084  1.00  0.00    -0.281 C  
ENDROOT
BRANCH   2   3
HETATM    3  O   UNL     1     -11.919  14.673  71.231  1.00  0.00    -0.326 OA 
BRANCH   3   4
HETATM    4  C   UNL     1     -11.629  15.332  69.995  1.00  0.00    -0.305 C  
BRANCH   4   5
HETATM    5  C   UNL     1     -10.143  15.227  69.662  1.00  0.00    -0.237 C  
BRANCH   5   6
HETATM    6  P   UNL     1      -9.826  15.324  67.838  1.00  0.00    -0.217 P  
BRANCH   6   7
HETATM    7  C   UNL     1      -9.027  16.995  67.681  1.00  0.00    -0.221 C  
BRANCH   7   8
HETATM    8  C   UNL     1      -9.565  17.748  66.465  1.00  0.00    -0.308 C  
BRANCH   8   9
HETATM    9  O   UNL     1      -8.546  18.589  65.916  1.00  0.00    -0.497 OA 
BRANCH   9  10
HETATM   10  C   UNL     1      -7.367  18.528  66.721  1.00  0.00    -0.215 C  
HETATM   11  C   UNL     1      -6.143  18.621  65.834  1.00  0.00    -0.234 C  
ENDBRANCH   9  10
ENDBRANCH   8   9
ENDBRANCH   7   8
ENDBRANCH   6   7
BRANCH   6  12
HETATM   12  C   UNL     1      -8.296  14.281  67.691  1.00  0.00    -0.181 C  
BRANCH  12  13
HETATM   13  C   UNL     1      -8.567  12.911  67.088  1.00  0.00    -0.198 C  
BRANCH  13  14
HETATM   14  P   UNL     1      -7.258  11.666  67.499  1.00  0.00    -0.139 P  
BRANCH  14  15
HETATM   15  C   UNL     1      -8.242  10.325  68.324  1.00  0.00    -0.115 C  
BRANCH  15  16
HETATM   16  C   UNL     1      -9.296  10.917  69.263  1.00  0.00    -0.006 C  
BRANCH  16  17
HETATM   17  O   UNL     1     -10.452  10.075  69.309  1.00  0.00    -0.198 OA 
BRANCH  17  18
HETATM   18  C   UNL     1     -11.322  10.370  68.213  1.00  0.00    -0.224 C  
HETATM   19  C   UNL     1     -11.884  11.768  68.370  1.00  0.00    -0.347 C  
ENDBRANCH  17  18
ENDBRANCH  16  17
ENDBRANCH  15  16
ENDBRANCH  14  15
BRANCH  14  20
HETATM   20  C   UNL     1      -7.030  10.901  65.821  1.00  0.00     0.014 C  
BRANCH  20  21
HETATM   21  C   UNL     1      -8.315  10.258  65.301  1.00  0.00    -0.163 C  
BRANCH  21  22
HETATM   22  O   UNL     1      -8.592  10.739  63.985  1.00  0.00    -0.136 OA 
BRANCH  22  23
HETATM   23  C   UNL     1      -9.999  10.737  63.732  1.00  0.00    -0.351 C  
HETATM   24  C   UNL     1     -10.537  12.144  63.903  1.00  0.00    -0.457 C  
ENDBRANCH  22  23
ENDBRANCH  21  22
ENDBRANCH  20  21
ENDBRANCH  14  20
ENDBRANCH  13  14
ENDBRANCH  12  13
ENDBRANCH   6  12
ENDBRANCH   5   6
ENDBRANCH   4   5
ENDBRANCH   3   4
ENDBRANCH   2   3
TORSDOF 19
ENDMDL
MODEL      280
REMARK 921   NORMALIZED FREE ENERGY PREDICTED BY IDOCK:   -2.75 KCAL/MOL
REMARK 922        TOTAL FREE ENERGY PREDICTED BY IDOCK:   -7.05 KCAL/MOL
REMARK 923 INTER-LIGAND FREE ENERGY PREDICTED BY IDOCK:   -5.63 KCAL/MOL
REMARK 924 INTRA-LIGAND FREE ENERGY PREDICTED BY IDOCK:   -1.42 KCAL/MOL
REMARK 927      BINDING AFFINITY PREDICTED BY RF-SCORE:    0.00 PKD
ROOT
HETATM    1  C   UNL     1      -5.553   5.035  70.434  1.00  0.00    -0.015 C  
HETATM    2  C   UNL     1      -6.767   4.130  70.373  1.00  0.00    -0.033 C  
ENDROOT
BRANCH   2   3
HETATM    3  O   UNL     1      -7.071   3.822  69.010  1.00  0.00    -0.046 OA 
BRANCH   3   4
HETATM    4  C   UNL     1      -8.040   4.743  68.504  1.00  0.00    -0.084 C  
BRANCH   4   5
HETATM    5  C   UNL     1      -9.323   4.684  69.328  1.00  0.00    -0.142 C  
BRANCH   5   6
HETATM    6  P   UNL     1     -10.293   6.261  69.226  1.00  0.00    -0.275 P  
BRANCH   6   7
HETATM    7  C   UNL     1      -9.500   7.279  70.565  1.00  0.00    -0.165 C  
BRANCH   7   8
HETATM    8  C   UNL     1     -10.553   8.039  71.372  1.00  0.00    -0.216 C  
BRANCH   8   9
HETATM    9  O   UNL     1     -11.376   8.816  70.499  1.00  0.00    -0.260 OA 
BRANCH   9  10
HETATM   10  C   UNL     1     -11.671  10.082  71.093  1.00  0.00    -0.387 C  
HETATM   11  C   UNL     1     -13.040  10.031  71.740  1.00  0.00    -0.562 C  
ENDBRANCH   9  10
ENDBRANCH   8   9
ENDBRANCH   7   8
ENDBRANCH   6   7
BRANCH   6  12
HETATM   12  C   UNL     1      -9.490   7.073  67.762  1.00  0.00    -0.124 C  
BRANCH  12  13
HETATM   13  C   UNL     1     -10.483   7.805  66.871  1.00  0.00    -0.317 C  
BRANCH  13  14
HETATM   14  P   UNL     1     -10.393   9.648  67.048  1.00  0.00    -0.211 P  
BRANCH  14  15
HETATM   15  C   UNL     1      -8.796   9.873  67.967  1.00  0.00    -0.125 C  
BRANCH  15  16
HETATM   16  C   UNL     1      -8.750  11.237  68.661  1.00  0.00    -0.136 C  
BRANCH  16  17
HETATM   17  O   UNL     1      -7.958  12.155  67.902  1.00  0.00    -0.129 OA 
BRANCH  17  18
HETATM   18  C   UNL     1      -8.774  13.222  67.411  1.00  0.00    -0.206 C  
HETATM   19  C   UNL     1      -9.989  13.387  68.300  1.00  0.00    -0.240 C  
ENDBRANCH  17  18
ENDBRANCH  16  17
ENDBRANCH  15  16
ENDBRANCH  14  15
BRANCH  14  20
HETATM   20  C   UNL     1      -9.832  10.089  65.331  1.00  0.00    -0.314 C  
BRANCH  20  21
HETATM   21  C   UNL     1     -10.693  11.185  64.707  1.00  0.00    -0.264 C  
BRANCH  21  22
HETATM   22  O   UNL     1     -11.543  11.752  65.705  1.00  0.00    -0.274 OA 
BRANCH  22  23
HETATM   23  C   UNL     1     -12.316  12.825  65.161  1.00  0.00    -0.496 C  
HETATM   24  C   UNL     1     -11.979  12.985  63.692  1.00  0.00    -0.608 C  
ENDBRANCH  22  23
ENDBRANCH  21  22
ENDBRANCH  20  21
ENDBRANCH  14  20
ENDBRANCH  13  14
ENDBRANCH  12  13
ENDBRANCH   6  12
ENDBRANCH   5   6
ENDBRANCH   4   5
ENDBRANCH   3   4
ENDBRANCH   2   3
TORSDOF 19
ENDMDL
MODEL      281
REMARK 921   NORMALIZED FREE ENERGY PREDICTED BY IDOCK:   -2.75 KCAL/MOL
REMARK 922        TOTAL FREE ENERGY PREDICTED BY IDOCK:   -7.05 KCAL/MOL
REMARK 923 INTER-LIGAND FREE ENERGY PREDICTED BY IDOCK:   -6.26 KCAL/MOL
REMARK 924 INTRA-LIGAND FREE ENERGY PREDICTED BY IDOCK:   -0.79 KCAL/MOL
REMARK 927      BINDING AFFINITY PREDICTED BY RF-SCORE:    0.00 PKD
ROOT
HETATM    1  C   UNL     1      -9.116  10.998  62.647  1.00  0.00    -0.375 C  
HETATM    2  C   UNL     1      -9.656  10.299  63.877  1.00  0.00    -0.293 C  
ENDROOT
BRANCH   2   3
HETATM    3  O   UNL     1      -9.190  10.964  65.054  1.00  0.00    -0.199 OA 
BRANCH   3   4
HETATM    4  C   UNL     1      -9.879  10.465  66.203  1.00  0.00    -0.222 C  
BRANCH   4   5
HETATM    5  C   UNL     1      -9.182   9.224  66.754  1.00  0.00    -0.147 C  
BRANCH   5   6
HETATM    6  P   UNL     1     -10.385   7.882  67.191  1.00  0.00    -0.320 P  
BRANCH   6   7
HETATM    7  C   UNL     1      -9.557   6.382  66.469  1.00  0.00    -0.145 C  
BRANCH   7   8
HETATM    8  C   UNL     1     -10.408   5.130  66.684  1.00  0.00    -0.281 C  
BRANCH   8   9
HETATM    9  O   UNL     1      -9.819   4.013  66.013  1.00  0.00    -0.198 OA 
BRANCH   9  10
HETATM   10  C   UNL     1      -9.170   4.442  64.814  1.00  0.00    -0.157 C  
HETATM   11  C   UNL     1      -8.440   3.271  64.187  1.00  0.00    -0.089 C  
ENDBRANCH   9  10
ENDBRANCH   8   9
ENDBRANCH   7   8
ENDBRANCH   6   7
BRANCH   6  12
HETATM   12  C   UNL     1      -9.955   7.593  68.974  1.00  0.00    -0.181 C  
BRANCH  12  13
HETATM   13  C   UNL     1      -9.683   8.881  69.736  1.00  0.00    -0.175 C  
BRANCH  13  14
HETATM   14  P   UNL     1     -10.934   9.218  71.061  1.00  0.00    -0.381 P  
BRANCH  14  15
HETATM   15  C   UNL     1     -12.049  10.453  70.238  1.00  0.00    -0.286 C  
BRANCH  15  16
HETATM   16  C   UNL     1     -12.792  11.298  71.276  1.00  0.00    -0.389 C  
BRANCH  16  17
HETATM   17  O   UNL     1     -12.517  12.688  71.075  1.00  0.00    -0.368 OA 
BRANCH  17  18
HETATM   18  C   UNL     1     -13.333  13.483  71.940  1.00  0.00    -0.443 C  
HETATM   19  C   UNL     1     -13.018  14.950  71.733  1.00  0.00    -0.417 C  
ENDBRANCH  17  18
ENDBRANCH  16  17
ENDBRANCH  15  16
ENDBRANCH  14  15
BRANCH  14  20
HETATM   20  C   UNL     1     -11.977   7.689  70.887  1.00  0.00    -0.229 C  
BRANCH  20  21
HETATM   21  C   UNL     1     -12.103   6.924  72.203  1.00  0.00    -0.243 C  
BRANCH  21  22
HETATM   22  O   UNL     1     -10.852   6.315  72.524  1.00  0.00    -0.219 OA 
BRANCH  22  23
HETATM   23  C   UNL     1     -11.051   5.129  73.296  1.00  0.00    -0.327 C  
HETATM   24  C   UNL     1      -9.911   4.166  73.030  1.00  0.00    -0.178 C  
ENDBRANCH  22  23
ENDBRANCH  21  22
ENDBRANCH  20  21
ENDBRANCH  14  20
ENDBRANCH  13  14
ENDBRANCH  12  13
ENDBRANCH   6  12
ENDBRANCH   5   6
ENDBRANCH   4   5
ENDBRANCH   3   4
ENDBRANCH   2   3
TORSDOF 19
ENDMDL
MODEL      282
REMARK 921   NORMALIZED FREE ENERGY PREDICTED BY IDOCK:   -2.75 KCAL/MOL
REMARK 922        TOTAL FREE ENERGY PREDICTED BY IDOCK:   -7.05 KCAL/MOL
REMARK 923 INTER-LIGAND FREE ENERGY PREDICTED BY IDOCK:   -6.13 KCAL/MOL
REMARK 924 INTRA-LIGAND FREE ENERGY PREDICTED BY IDOCK:   -0.91 KCAL/MOL
REMARK 927      BINDING AFFINITY PREDICTED BY RF-SCORE:    0.00 PKD
ROOT
HETATM    1  C   UNL     1      -7.147  10.235  69.947  1.00  0.00    -0.152 C  
HETATM    2  C   UNL     1      -6.491  11.214  68.994  1.00  0.00    -0.066 C  
ENDROOT
BRANCH   2   3
HETATM    3  O   UNL     1      -7.454  12.171  68.546  1.00  0.00    -0.108 OA 
BRANCH   3   4
HETATM    4  C   UNL     1      -7.942  11.804  67.252  1.00  0.00    -0.161 C  
BRANCH   4   5
HETATM    5  C   UNL     1      -9.468  11.777  67.239  1.00  0.00    -0.170 C  
BRANCH   5   6
HETATM    6  P   UNL     1     -10.132  10.257  66.409  1.00  0.00    -0.211 P  
BRANCH   6   7
HETATM    7  C   UNL     1      -9.400  10.405  64.707  1.00  0.00    -0.251 C  
BRANCH   7   8
HETATM    8  C   UNL     1     -10.315  11.212  63.785  1.00  0.00    -0.386 C  
BRANCH   8   9
HETATM    9  O   UNL     1     -10.278  12.596  64.142  1.00  0.00    -0.373 OA 
BRANCH   9  10
HETATM   10  C   UNL     1     -11.602  13.129  64.195  1.00  0.00    -0.410 C  
HETATM   11  C   UNL     1     -12.560  12.174  63.513  1.00  0.00    -0.621 C  
ENDBRANCH   9  10
ENDBRANCH   8   9
ENDBRANCH   7   8
ENDBRANCH   6   7
BRANCH   6  12
HETATM   12  C   UNL     1      -8.986   8.961  67.081  1.00  0.00    -0.127 C  
BRANCH  12  13
HETATM   13  C   UNL     1      -9.169   7.604  66.417  1.00  0.00    -0.175 C  
BRANCH  13  14
HETATM   14  P   UNL     1     -10.709   6.731  66.965  1.00  0.00    -0.288 P  
BRANCH  14  15
HETATM   15  C   UNL     1     -10.187   4.951  66.911  1.00  0.00    -0.211 C  
BRANCH  15  16
HETATM   16  C   UNL     1      -9.758   4.547  65.498  1.00  0.00    -0.195 C  
BRANCH  16  17
HETATM   17  O   UNL     1     -10.894   4.134  64.732  1.00  0.00    -0.258 OA 
BRANCH  17  18
HETATM   18  C   UNL     1     -10.485   3.270  63.669  1.00  0.00    -0.244 C  
HETATM   19  C   UNL     1     -10.309   4.075  62.397  1.00  0.00    -0.180 C  
ENDBRANCH  17  18
ENDBRANCH  16  17
ENDBRANCH  15  16
ENDBRANCH  14  15
BRANCH  14  20
HETATM   20  C   UNL     1     -10.596   7.037  68.795  1.00  0.00    -0.212 C  
BRANCH  20  21
HETATM   21  C   UNL     1     -11.111   5.852  69.610  1.00  0.00    -0.343 C  
BRANCH  21  22
HETATM   22  O   UNL     1     -11.275   6.245  70.973  1.00  0.00    -0.288 OA 
BRANCH  22  23
HETATM   23  C   UNL     1     -11.142   7.662  71.110  1.00  0.00    -0.251 C  
HETATM   24  C   UNL     1     -11.097   8.016  72.584  1.00  0.00    -0.453 C  
ENDBRANCH  22  23
ENDBRANCH  21  22
ENDBRANCH  20  21
ENDBRANCH  14  20
ENDBRANCH  13  14
ENDBRANCH  12  13
ENDBRANCH   6  12
ENDBRANCH   5   6
ENDBRANCH   4   5
ENDBRANCH   3   4
ENDBRANCH   2   3
TORSDOF 19
ENDMDL
MODEL      283
REMARK 921   NORMALIZED FREE ENERGY PREDICTED BY IDOCK:   -2.74 KCAL/MOL
REMARK 922        TOTAL FREE ENERGY PREDICTED BY IDOCK:   -7.03 KCAL/MOL
REMARK 923 INTER-LIGAND FREE ENERGY PREDICTED BY IDOCK:   -6.00 KCAL/MOL
REMARK 924 INTRA-LIGAND FREE ENERGY PREDICTED BY IDOCK:   -1.04 KCAL/MOL
REMARK 927      BINDING AFFINITY PREDICTED BY RF-SCORE:    0.00 PKD
ROOT
HETATM    1  C   UNL     1     -13.936  14.053  72.377  1.00  0.00    -0.622 C  
HETATM    2  C   UNL     1     -12.925  13.330  71.512  1.00  0.00    -0.337 C  
ENDROOT
BRANCH   2   3
HETATM    3  O   UNL     1     -13.041  11.918  71.709  1.00  0.00    -0.451 OA 
BRANCH   3   4
HETATM    4  C   UNL     1     -12.535  11.222  70.567  1.00  0.00    -0.310 C  
BRANCH   4   5
HETATM    5  C   UNL     1     -11.618  10.079  70.995  1.00  0.00    -0.393 C  
BRANCH   5   6
HETATM    6  P   UNL     1     -10.327   9.703  69.718  1.00  0.00    -0.279 P  
BRANCH   6   7
HETATM    7  C   UNL     1     -10.418   7.848  69.623  1.00  0.00    -0.226 C  
BRANCH   7   8
HETATM    8  C   UNL     1      -9.305   7.290  68.737  1.00  0.00    -0.143 C  
BRANCH   8   9
HETATM    9  O   UNL     1      -9.180   5.879  68.932  1.00  0.00    -0.119 OA 
BRANCH   9  10
HETATM   10  C   UNL     1      -9.336   5.191  67.690  1.00  0.00    -0.122 C  
HETATM   11  C   UNL     1      -9.117   6.159  66.545  1.00  0.00    -0.156 C  
ENDBRANCH   9  10
ENDBRANCH   8   9
ENDBRANCH   7   8
ENDBRANCH   6   7
BRANCH   6  12
HETATM   12  C   UNL     1     -11.252  10.097  68.157  1.00  0.00    -0.180 C  
BRANCH  12  13
HETATM   13  C   UNL     1     -10.386  10.779  67.109  1.00  0.00    -0.224 C  
BRANCH  13  14
HETATM   14  P   UNL     1      -9.007  11.775  67.846  1.00  0.00    -0.193 P  
BRANCH  14  15
HETATM   15  C   UNL     1      -7.555  11.248  66.817  1.00  0.00    -0.151 C  
BRANCH  15  16
HETATM   16  C   UNL     1      -7.889  10.002  65.993  1.00  0.00    -0.119 C  
BRANCH  16  17
HETATM   17  O   UNL     1      -7.644  10.243  64.604  1.00  0.00    -0.146 OA 
BRANCH  17  18
HETATM   18  C   UNL     1      -8.767   9.824  63.824  1.00  0.00    -0.224 C  
HETATM   19  C   UNL     1      -9.711  10.990  63.619  1.00  0.00    -0.364 C  
ENDBRANCH  17  18
ENDBRANCH  16  17
ENDBRANCH  15  16
ENDBRANCH  14  15
BRANCH  14  20
HETATM   20  C   UNL     1      -9.368  13.420  67.059  1.00  0.00    -0.243 C  
BRANCH  20  21
HETATM   21  C   UNL     1     -10.167  14.338  67.982  1.00  0.00    -0.226 C  
BRANCH  21  22
HETATM   22  O   UNL     1      -9.313  14.844  69.008  1.00  0.00    -0.197 OA 
BRANCH  22  23
HETATM   23  C   UNL     1      -9.855  16.040  69.574  1.00  0.00    -0.235 C  
HETATM   24  C   UNL     1     -10.386  16.920  68.460  1.00  0.00    -0.336 C  
ENDBRANCH  22  23
ENDBRANCH  21  22
ENDBRANCH  20  21
ENDBRANCH  14  20
ENDBRANCH  13  14
ENDBRANCH  12  13
ENDBRANCH   6  12
ENDBRANCH   5   6
ENDBRANCH   4   5
ENDBRANCH   3   4
ENDBRANCH   2   3
TORSDOF 19
ENDMDL
MODEL      284
REMARK 921   NORMALIZED FREE ENERGY PREDICTED BY IDOCK:   -2.74 KCAL/MOL
REMARK 922        TOTAL FREE ENERGY PREDICTED BY IDOCK:   -7.02 KCAL/MOL
REMARK 923 INTER-LIGAND FREE ENERGY PREDICTED BY IDOCK:   -5.77 KCAL/MOL
REMARK 924 INTRA-LIGAND FREE ENERGY PREDICTED BY IDOCK:   -1.26 KCAL/MOL
REMARK 927      BINDING AFFINITY PREDICTED BY RF-SCORE:    0.00 PKD
ROOT
HETATM    1  C   UNL     1      -9.752  11.361  63.552  1.00  0.00    -0.362 C  
HETATM    2  C   UNL     1      -9.237  10.117  64.247  1.00  0.00    -0.266 C  
ENDROOT
BRANCH   2   3
HETATM    3  O   UNL     1      -9.792  10.033  65.561  1.00  0.00    -0.268 OA 
BRANCH   3   4
HETATM    4  C   UNL     1      -9.420   8.795  66.171  1.00  0.00    -0.247 C  
BRANCH   4   5
HETATM    5  C   UNL     1     -10.437   8.389  67.235  1.00  0.00    -0.303 C  
BRANCH   5   6
HETATM    6  P   UNL     1     -10.813   6.574  67.187  1.00  0.00    -0.337 P  
BRANCH   6   7
HETATM    7  C   UNL     1      -9.239   5.879  66.483  1.00  0.00    -0.145 C  
BRANCH   7   8
HETATM    8  C   UNL     1      -8.302   5.410  67.596  1.00  0.00    -0.099 C  
BRANCH   8   9
HETATM    9  O   UNL     1      -8.009   4.019  67.439  1.00  0.00    -0.090 OA 
BRANCH   9  10
HETATM   10  C   UNL     1      -7.123   3.580  68.470  1.00  0.00    -0.050 C  
HETATM   11  C   UNL     1      -7.713   3.919  69.823  1.00  0.00    -0.052 C  
ENDBRANCH   9  10
ENDBRANCH   8   9
ENDBRANCH   7   8
ENDBRANCH   6   7
BRANCH   6  12
HETATM   12  C   UNL     1     -10.539   6.112  68.964  1.00  0.00    -0.279 C  
BRANCH  12  13
HETATM   13  C   UNL     1     -11.622   6.644  69.890  1.00  0.00    -0.332 C  
BRANCH  13  14
HETATM   14  P   UNL     1     -11.103   6.678  71.669  1.00  0.00    -0.276 P  
BRANCH  14  15
HETATM   15  C   UNL     1      -9.287   7.038  71.537  1.00  0.00    -0.154 C  
BRANCH  15  16
HETATM   16  C   UNL     1      -9.028   8.546  71.493  1.00  0.00    -0.213 C  
BRANCH  16  17
HETATM   17  O   UNL     1      -8.950   8.998  70.138  1.00  0.00    -0.155 OA 
BRANCH  17  18
HETATM   18  C   UNL     1      -7.904   9.962  69.998  1.00  0.00    -0.180 C  
HETATM   19  C   UNL     1      -6.726   9.566  70.864  1.00  0.00    -0.085 C  
ENDBRANCH  17  18
ENDBRANCH  16  17
ENDBRANCH  15  16
ENDBRANCH  14  15
BRANCH  14  20
HETATM   20  C   UNL     1     -11.724   8.367  72.133  1.00  0.00    -0.375 C  
BRANCH  20  21
HETATM   21  C   UNL     1     -13.179   8.581  71.718  1.00  0.00    -0.364 C  
BRANCH  21  22
HETATM   22  O   UNL     1     -13.279   9.760  70.919  1.00  0.00    -0.315 OA 
BRANCH  22  23
HETATM   23  C   UNL     1     -12.074  10.526  70.994  1.00  0.00    -0.387 C  
HETATM   24  C   UNL     1     -11.922  11.337  69.722  1.00  0.00    -0.431 C  
ENDBRANCH  22  23
ENDBRANCH  21  22
ENDBRANCH  20  21
ENDBRANCH  14  20
ENDBRANCH  13  14
ENDBRANCH  12  13
ENDBRANCH   6  12
ENDBRANCH   5   6
ENDBRANCH   4   5
ENDBRANCH   3   4
ENDBRANCH   2   3
TORSDOF 19
ENDMDL
MODEL      285
REMARK 921   NORMALIZED FREE ENERGY PREDICTED BY IDOCK:   -2.73 KCAL/MOL
REMARK 922        TOTAL FREE ENERGY PREDICTED BY IDOCK:   -7.02 KCAL/MOL
REMARK 923 INTER-LIGAND FREE ENERGY PREDICTED BY IDOCK:   -6.49 KCAL/MOL
REMARK 924 INTRA-LIGAND FREE ENERGY PREDICTED BY IDOCK:   -0.53 KCAL/MOL
REMARK 927      BINDING AFFINITY PREDICTED BY RF-SCORE:    0.00 PKD
ROOT
HETATM    1  C   UNL     1     -10.370  11.855  63.510  1.00  0.00    -0.495 C  
HETATM    2  C   UNL     1     -11.604  12.321  64.254  1.00  0.00    -0.371 C  
ENDROOT
BRANCH   2   3
HETATM    3  O   UNL     1     -11.610  13.748  64.334  1.00  0.00    -0.380 OA 
BRANCH   3   4
HETATM    4  C   UNL     1     -10.564  14.194  65.201  1.00  0.00    -0.398 C  
BRANCH   4   5
HETATM    5  C   UNL     1     -10.829  13.752  66.638  1.00  0.00    -0.288 C  
BRANCH   5   6
HETATM    6  P   UNL     1      -9.265  13.321  67.537  1.00  0.00    -0.237 P  
BRANCH   6   7
HETATM    7  C   UNL     1      -9.282  14.546  68.935  1.00  0.00    -0.118 C  
BRANCH   7   8
HETATM    8  C   UNL     1     -10.656  14.599  69.601  1.00  0.00    -0.104 C  
BRANCH   8   9
HETATM    9  O   UNL     1     -10.760  15.763  70.425  1.00  0.00    -0.316 OA 
BRANCH   9  10
HETATM   10  C   UNL     1     -11.854  15.630  71.335  1.00  0.00    -0.421 C  
HETATM   11  C   UNL     1     -13.138  15.426  70.557  1.00  0.00    -0.318 C  
ENDBRANCH   9  10
ENDBRANCH   8   9
ENDBRANCH   7   8
ENDBRANCH   6   7
BRANCH   6  12
HETATM   12  C   UNL     1      -9.809  11.822  68.489  1.00  0.00    -0.189 C  
BRANCH  12  13
HETATM   13  C   UNL     1      -9.140  10.541  68.012  1.00  0.00    -0.138 C  
BRANCH  13  14
HETATM   14  P   UNL     1      -9.291   9.150  69.226  1.00  0.00    -0.167 P  
BRANCH  14  15
HETATM   15  C   UNL     1     -10.787   9.649  70.206  1.00  0.00    -0.285 C  
BRANCH  15  16
HETATM   16  C   UNL     1     -10.773   9.004  71.594  1.00  0.00    -0.371 C  
BRANCH  16  17
HETATM   17  O   UNL     1     -11.849   8.068  71.718  1.00  0.00    -0.270 OA 
BRANCH  17  18
HETATM   18  C   UNL     1     -13.091   8.698  71.395  1.00  0.00    -0.245 C  
HETATM   19  C   UNL     1     -14.240   7.792  71.788  1.00  0.00    -0.558 C  
ENDBRANCH  17  18
ENDBRANCH  16  17
ENDBRANCH  15  16
ENDBRANCH  14  15
BRANCH  14  20
HETATM   20  C   UNL     1     -10.054   7.865  68.120  1.00  0.00    -0.191 C  
BRANCH  20  21
HETATM   21  C   UNL     1     -10.965   6.910  68.889  1.00  0.00    -0.168 C  
BRANCH  21  22
HETATM   22  O   UNL     1     -10.609   5.561  68.585  1.00  0.00    -0.196 OA 
BRANCH  22  23
HETATM   23  C   UNL     1      -9.188   5.402  68.581  1.00  0.00    -0.117 C  
HETATM   24  C   UNL     1      -8.854   3.937  68.378  1.00  0.00    -0.145 C  
ENDBRANCH  22  23
ENDBRANCH  21  22
ENDBRANCH  20  21
ENDBRANCH  14  20
ENDBRANCH  13  14
ENDBRANCH  12  13
ENDBRANCH   6  12
ENDBRANCH   5   6
ENDBRANCH   4   5
ENDBRANCH   3   4
ENDBRANCH   2   3
TORSDOF 19
ENDMDL
MODEL      286
REMARK 921   NORMALIZED FREE ENERGY PREDICTED BY IDOCK:   -2.71 KCAL/MOL
REMARK 922        TOTAL FREE ENERGY PREDICTED BY IDOCK:   -6.96 KCAL/MOL
REMARK 923 INTER-LIGAND FREE ENERGY PREDICTED BY IDOCK:   -5.77 KCAL/MOL
REMARK 924 INTRA-LIGAND FREE ENERGY PREDICTED BY IDOCK:   -1.19 KCAL/MOL
REMARK 927      BINDING AFFINITY PREDICTED BY RF-SCORE:    0.00 PKD
ROOT
HETATM    1  C   UNL     1     -11.265  15.676  64.586  1.00  0.00    -0.380 C  
HETATM    2  C   UNL     1     -10.873  14.598  65.576  1.00  0.00    -0.345 C  
ENDROOT
BRANCH   2   3
HETATM    3  O   UNL     1     -12.023  14.181  66.316  1.00  0.00    -0.394 OA 
BRANCH   3   4
HETATM    4  C   UNL     1     -11.997  12.763  66.501  1.00  0.00    -0.358 C  
BRANCH   4   5
HETATM    5  C   UNL     1     -11.255  12.399  67.785  1.00  0.00    -0.275 C  
BRANCH   5   6
HETATM    6  P   UNL     1     -11.036  10.568  67.971  1.00  0.00    -0.293 P  
BRANCH   6   7
HETATM    7  C   UNL     1      -9.896  10.177  66.556  1.00  0.00    -0.212 C  
BRANCH   7   8
HETATM    8  C   UNL     1      -8.446  10.083  67.030  1.00  0.00    -0.125 C  
BRANCH   8   9
HETATM    9  O   UNL     1      -7.867   8.847  66.602  1.00  0.00    -0.098 OA 
BRANCH   9  10
HETATM   10  C   UNL     1      -8.631   8.287  65.532  1.00  0.00    -0.159 C  
HETATM   11  C   UNL     1      -7.825   7.201  64.850  1.00  0.00    -0.126 C  
ENDBRANCH   9  10
ENDBRANCH   8   9
ENDBRANCH   7   8
ENDBRANCH   6   7
BRANCH   6  12
HETATM   12  C   UNL     1      -9.788  10.501  69.345  1.00  0.00    -0.182 C  
BRANCH  12  13
HETATM   13  C   UNL     1     -10.255   9.670  70.531  1.00  0.00    -0.287 C  
BRANCH  13  14
HETATM   14  P   UNL     1     -10.830   7.976  70.048  1.00  0.00    -0.153 P  
BRANCH  14  15
HETATM   15  C   UNL     1      -9.281   7.224  69.352  1.00  0.00    -0.148 C  
BRANCH  15  16
HETATM   16  C   UNL     1      -9.496   5.749  69.004  1.00  0.00    -0.124 C  
BRANCH  16  17
HETATM   17  O   UNL     1      -8.302   5.001  69.250  1.00  0.00    -0.082 OA 
BRANCH  17  18
HETATM   18  C   UNL     1      -8.052   4.916  70.655  1.00  0.00    -0.086 C  
HETATM   19  C   UNL     1      -9.095   4.030  71.306  1.00  0.00    -0.177 C  
ENDBRANCH  17  18
ENDBRANCH  16  17
ENDBRANCH  15  16
ENDBRANCH  14  15
BRANCH  14  20
HETATM   20  C   UNL     1     -10.843   7.172  71.723  1.00  0.00    -0.225 C  
BRANCH  20  21
HETATM   21  C   UNL     1     -12.223   6.631  72.092  1.00  0.00    -0.228 C  
BRANCH  21  22
HETATM   22  O   UNL     1     -13.187   7.097  71.148  1.00  0.00    -0.347 OA 
BRANCH  22  23
HETATM   23  C   UNL     1     -14.333   7.630  71.817  1.00  0.00    -0.452 C  
HETATM   24  C   UNL     1     -13.997   9.006  72.357  1.00  0.00    -0.517 C  
ENDBRANCH  22  23
ENDBRANCH  21  22
ENDBRANCH  20  21
ENDBRANCH  14  20
ENDBRANCH  13  14
ENDBRANCH  12  13
ENDBRANCH   6  12
ENDBRANCH   5   6
ENDBRANCH   4   5
ENDBRANCH   3   4
ENDBRANCH   2   3
TORSDOF 19
ENDMDL
MODEL      287
REMARK 921   NORMALIZED FREE ENERGY PREDICTED BY IDOCK:   -2.71 KCAL/MOL
REMARK 922        TOTAL FREE ENERGY PREDICTED BY IDOCK:   -6.96 KCAL/MOL
REMARK 923 INTER-LIGAND FREE ENERGY PREDICTED BY IDOCK:   -5.48 KCAL/MOL
REMARK 924 INTRA-LIGAND FREE ENERGY PREDICTED BY IDOCK:   -1.48 KCAL/MOL
REMARK 927      BINDING AFFINITY PREDICTED BY RF-SCORE:    0.00 PKD
ROOT
HETATM    1  C   UNL     1     -10.506  11.533  63.372  1.00  0.00    -0.466 C  
HETATM    2  C   UNL     1      -9.443  10.545  63.808  1.00  0.00    -0.298 C  
ENDROOT
BRANCH   2   3
HETATM    3  O   UNL     1      -9.840   9.916  65.029  1.00  0.00    -0.317 OA 
BRANCH   3   4
HETATM    4  C   UNL     1      -8.772   9.108  65.532  1.00  0.00    -0.181 C  
BRANCH   4   5
HETATM    5  C   UNL     1      -8.889   8.940  67.045  1.00  0.00    -0.126 C  
BRANCH   5   6
HETATM    6  P   UNL     1     -10.626   8.568  67.575  1.00  0.00    -0.047 P  
BRANCH   6   7
HETATM    7  C   UNL     1     -10.360   7.209  68.816  1.00  0.00    -0.192 C  
BRANCH   7   8
HETATM    8  C   UNL     1      -8.957   6.618  68.689  1.00  0.00    -0.124 C  
BRANCH   8   9
HETATM    9  O   UNL     1      -8.634   5.861  69.859  1.00  0.00    -0.126 OA 
BRANCH   9  10
HETATM   10  C   UNL     1      -9.743   5.046  70.243  1.00  0.00    -0.215 C  
HETATM   11  C   UNL     1      -9.565   3.651  69.679  1.00  0.00    -0.211 C  
ENDBRANCH   9  10
ENDBRANCH   8   9
ENDBRANCH   7   8
ENDBRANCH   6   7
BRANCH   6  12
HETATM   12  C   UNL     1     -10.935   9.960  68.765  1.00  0.00    -0.179 C  
BRANCH  12  13
HETATM   13  C   UNL     1     -10.069  11.180  68.489  1.00  0.00    -0.201 C  
BRANCH  13  14
HETATM   14  P   UNL     1     -10.856  12.376  67.313  1.00  0.00    -0.265 P  
BRANCH  14  15
HETATM   15  C   UNL     1     -11.390  13.744  68.449  1.00  0.00    -0.293 C  
BRANCH  15  16
HETATM   16  C   UNL     1     -11.541  15.063  67.686  1.00  0.00    -0.312 C  
BRANCH  16  17
HETATM   17  O   UNL     1     -11.386  16.173  68.575  1.00  0.00    -0.359 OA 
BRANCH  17  18
HETATM   18  C   UNL     1     -10.659  17.223  67.933  1.00  0.00    -0.384 C  
HETATM   19  C   UNL     1     -10.480  16.896  66.465  1.00  0.00    -0.253 C  
ENDBRANCH  17  18
ENDBRANCH  16  17
ENDBRANCH  15  16
ENDBRANCH  14  15
BRANCH  14  20
HETATM   20  C   UNL     1      -9.324  13.145  66.593  1.00  0.00    -0.239 C  
BRANCH  20  21
HETATM   21  C   UNL     1      -8.050  12.470  67.095  1.00  0.00    -0.156 C  
BRANCH  21  22
HETATM   22  O   UNL     1      -7.127  13.463  67.542  1.00  0.00    -0.154 OA 
BRANCH  22  23
HETATM   23  C   UNL     1      -7.762  14.741  67.630  1.00  0.00    -0.182 C  
HETATM   24  C   UNL     1      -7.801  15.177  69.081  1.00  0.00    -0.199 C  
ENDBRANCH  22  23
ENDBRANCH  21  22
ENDBRANCH  20  21
ENDBRANCH  14  20
ENDBRANCH  13  14
ENDBRANCH  12  13
ENDBRANCH   6  12
ENDBRANCH   5   6
ENDBRANCH   4   5
ENDBRANCH   3   4
ENDBRANCH   2   3
TORSDOF 19
ENDMDL
MODEL      288
REMARK 921   NORMALIZED FREE ENERGY PREDICTED BY IDOCK:   -2.70 KCAL/MOL
REMARK 922        TOTAL FREE ENERGY PREDICTED BY IDOCK:   -6.94 KCAL/MOL
REMARK 923 INTER-LIGAND FREE ENERGY PREDICTED BY IDOCK:   -5.73 KCAL/MOL
REMARK 924 INTRA-LIGAND FREE ENERGY PREDICTED BY IDOCK:   -1.21 KCAL/MOL
REMARK 927      BINDING AFFINITY PREDICTED BY RF-SCORE:    0.00 PKD
ROOT
HETATM    1  C   UNL     1     -14.059   8.493  71.953  1.00  0.00    -0.519 C  
HETATM    2  C   UNL     1     -12.688   8.643  72.579  1.00  0.00    -0.294 C  
ENDROOT
BRANCH   2   3
HETATM    3  O   UNL     1     -11.710   7.998  71.760  1.00  0.00    -0.266 OA 
BRANCH   3   4
HETATM    4  C   UNL     1     -11.201   8.916  70.789  1.00  0.00    -0.272 C  
BRANCH   4   5
HETATM    5  C   UNL     1     -10.536   8.169  69.636  1.00  0.00    -0.223 C  
BRANCH   5   6
HETATM    6  P   UNL     1      -8.697   8.054  69.845  1.00  0.00    -0.140 P  
BRANCH   6   7
HETATM    7  C   UNL     1      -8.409   6.227  69.658  1.00  0.00    -0.125 C  
BRANCH   7   8
HETATM    8  C   UNL     1      -9.724   5.487  69.411  1.00  0.00    -0.160 C  
BRANCH   8   9
HETATM    9  O   UNL     1      -9.586   4.592  68.304  1.00  0.00    -0.140 OA 
BRANCH   9  10
HETATM   10  C   UNL     1      -9.473   5.328  67.085  1.00  0.00    -0.127 C  
HETATM   11  C   UNL     1     -10.823   5.909  66.717  1.00  0.00    -0.347 C  
ENDBRANCH   9  10
ENDBRANCH   8   9
ENDBRANCH   7   8
ENDBRANCH   6   7
BRANCH   6  12
HETATM   12  C   UNL     1      -8.119   8.590  68.164  1.00  0.00    -0.119 C  
BRANCH  12  13
HETATM   13  C   UNL     1      -9.052   9.596  67.508  1.00  0.00    -0.130 C  
BRANCH  13  14
HETATM   14  P   UNL     1      -8.437  10.191  65.864  1.00  0.00    -0.153 P  
BRANCH  14  15
HETATM   15  C   UNL     1      -9.564  11.626  65.523  1.00  0.00    -0.218 C  
BRANCH  15  16
HETATM   16  C   UNL     1     -10.742  11.642  66.501  1.00  0.00    -0.272 C  
BRANCH  16  17
HETATM   17  O   UNL     1     -11.936  12.065  65.835  1.00  0.00    -0.540 OA 
BRANCH  17  18
HETATM   18  C   UNL     1     -12.088  13.482  65.946  1.00  0.00    -0.435 C  
HETATM   19  C   UNL     1     -12.374  14.074  64.581  1.00  0.00    -0.425 C  
ENDBRANCH  17  18
ENDBRANCH  16  17
ENDBRANCH  15  16
ENDBRANCH  14  15
BRANCH  14  20
HETATM   20  C   UNL     1      -6.920  11.109  66.423  1.00  0.00    -0.093 C  
BRANCH  20  21
HETATM   21  C   UNL     1      -7.208  12.032  67.605  1.00  0.00    -0.117 C  
BRANCH  21  22
HETATM   22  O   UNL     1      -6.775  13.356  67.294  1.00  0.00    -0.196 OA 
BRANCH  22  23
HETATM   23  C   UNL     1      -7.610  14.325  67.934  1.00  0.00    -0.153 C  
HETATM   24  C   UNL     1      -8.619  14.849  66.933  1.00  0.00    -0.269 C  
ENDBRANCH  22  23
ENDBRANCH  21  22
ENDBRANCH  20  21
ENDBRANCH  14  20
ENDBRANCH  13  14
ENDBRANCH  12  13
ENDBRANCH   6  12
ENDBRANCH   5   6
ENDBRANCH   4   5
ENDBRANCH   3   4
ENDBRANCH   2   3
TORSDOF 19
ENDMDL
MODEL      289
REMARK 921   NORMALIZED FREE ENERGY PREDICTED BY IDOCK:   -2.70 KCAL/MOL
REMARK 922        TOTAL FREE ENERGY PREDICTED BY IDOCK:   -6.94 KCAL/MOL
REMARK 923 INTER-LIGAND FREE ENERGY PREDICTED BY IDOCK:   -5.95 KCAL/MOL
REMARK 924 INTRA-LIGAND FREE ENERGY PREDICTED BY IDOCK:   -0.99 KCAL/MOL
REMARK 927      BINDING AFFINITY PREDICTED BY RF-SCORE:    0.00 PKD
ROOT
HETATM    1  C   UNL     1      -7.931   5.227  73.873  1.00  0.00    -0.105 C  
HETATM    2  C   UNL     1      -7.274   4.883  72.553  1.00  0.00    -0.083 C  
ENDROOT
BRANCH   2   3
HETATM    3  O   UNL     1      -6.952   6.083  71.845  1.00  0.00    -0.073 OA 
BRANCH   3   4
HETATM    4  C   UNL     1      -8.114   6.582  71.176  1.00  0.00    -0.116 C  
BRANCH   4   5
HETATM    5  C   UNL     1      -8.623   5.570  70.152  1.00  0.00    -0.121 C  
BRANCH   5   6
HETATM    6  P   UNL     1     -10.420   5.813  69.764  1.00  0.00    -0.335 P  
BRANCH   6   7
HETATM    7  C   UNL     1     -11.111   6.257  71.431  1.00  0.00    -0.284 C  
BRANCH   7   8
HETATM    8  C   UNL     1     -12.352   7.139  71.293  1.00  0.00    -0.379 C  
BRANCH   8   9
HETATM    9  O   UNL     1     -12.077   8.456  71.779  1.00  0.00    -0.292 OA 
BRANCH   9  10
HETATM   10  C   UNL     1     -13.294   9.186  71.946  1.00  0.00    -0.427 C  
HETATM   11  C   UNL     1     -12.996  10.671  71.951  1.00  0.00    -0.542 C  
ENDBRANCH   9  10
ENDBRANCH   8   9
ENDBRANCH   7   8
ENDBRANCH   6   7
BRANCH   6  12
HETATM   12  C   UNL     1     -10.391   7.516  69.024  1.00  0.00    -0.212 C  
BRANCH  12  13
HETATM   13  C   UNL     1     -10.577   7.511  67.514  1.00  0.00    -0.261 C  
BRANCH  13  14
HETATM   14  P   UNL     1      -9.182   8.328  66.609  1.00  0.00    -0.206 P  
BRANCH  14  15
HETATM   15  C   UNL     1     -10.015   9.814  65.871  1.00  0.00    -0.275 C  
BRANCH  15  16
HETATM   16  C   UNL     1      -9.503  10.081  64.453  1.00  0.00    -0.286 C  
BRANCH  16  17
HETATM   17  O   UNL     1     -10.386  10.972  63.765  1.00  0.00    -0.342 OA 
BRANCH  17  18
HETATM   18  C   UNL     1     -11.128  11.755  64.704  1.00  0.00    -0.303 C  
HETATM   19  C   UNL     1     -12.120  12.631  63.967  1.00  0.00    -0.542 C  
ENDBRANCH  17  18
ENDBRANCH  16  17
ENDBRANCH  15  16
ENDBRANCH  14  15
BRANCH  14  20
HETATM   20  C   UNL     1      -8.320   9.133  68.046  1.00  0.00    -0.120 C  
BRANCH  20  21
HETATM   21  C   UNL     1      -7.957  10.589  67.759  1.00  0.00    -0.106 C  
BRANCH  21  22
HETATM   22  O   UNL     1      -8.609  11.439  68.702  1.00  0.00    -0.157 OA 
BRANCH  22  23
HETATM   23  C   UNL     1      -9.109  12.615  68.062  1.00  0.00    -0.207 C  
HETATM   24  C   UNL     1      -7.942  13.476  67.622  1.00  0.00    -0.177 C  
ENDBRANCH  22  23
ENDBRANCH  21  22
ENDBRANCH  20  21
ENDBRANCH  14  20
ENDBRANCH  13  14
ENDBRANCH  12  13
ENDBRANCH   6  12
ENDBRANCH   5   6
ENDBRANCH   4   5
ENDBRANCH   3   4
ENDBRANCH   2   3
TORSDOF 19
ENDMDL
MODEL      290
REMARK 921   NORMALIZED FREE ENERGY PREDICTED BY IDOCK:   -2.69 KCAL/MOL
REMARK 922        TOTAL FREE ENERGY PREDICTED BY IDOCK:   -6.94 KCAL/MOL
REMARK 923 INTER-LIGAND FREE ENERGY PREDICTED BY IDOCK:   -5.79 KCAL/MOL
REMARK 924 INTRA-LIGAND FREE ENERGY PREDICTED BY IDOCK:   -1.15 KCAL/MOL
REMARK 927      BINDING AFFINITY PREDICTED BY RF-SCORE:    0.00 PKD
ROOT
HETATM    1  C   UNL     1     -11.058  12.263  65.207  1.00  0.00    -0.359 C  
HETATM    2  C   UNL     1     -11.824  12.787  66.404  1.00  0.00    -0.408 C  
ENDROOT
BRANCH   2   3
HETATM    3  O   UNL     1     -12.039  11.728  67.340  1.00  0.00    -0.595 OA 
BRANCH   3   4
HETATM    4  C   UNL     1     -11.421  12.047  68.590  1.00  0.00    -0.297 C  
BRANCH   4   5
HETATM    5  C   UNL     1     -10.101  11.297  68.746  1.00  0.00    -0.194 C  
BRANCH   5   6
HETATM    6  P   UNL     1     -10.234   9.888  69.944  1.00  0.00    -0.254 P  
BRANCH   6   7
HETATM    7  C   UNL     1     -11.923  10.166  70.669  1.00  0.00    -0.332 C  
BRANCH   7   8
HETATM    8  C   UNL     1     -12.206   9.174  71.797  1.00  0.00    -0.372 C  
BRANCH   8   9
HETATM    9  O   UNL     1     -10.978   8.671  72.329  1.00  0.00    -0.354 OA 
BRANCH   9  10
HETATM   10  C   UNL     1     -11.133   7.307  72.727  1.00  0.00    -0.319 C  
HETATM   11  C   UNL     1     -12.100   6.613  71.790  1.00  0.00    -0.400 C  
ENDBRANCH   9  10
ENDBRANCH   8   9
ENDBRANCH   7   8
ENDBRANCH   6   7
BRANCH   6  12
HETATM   12  C   UNL     1     -10.661   8.491  68.798  1.00  0.00    -0.133 C  
BRANCH  12  13
HETATM   13  C   UNL     1      -9.461   7.625  68.445  1.00  0.00    -0.150 C  
BRANCH  13  14
HETATM   14  P   UNL     1      -9.896   6.195  67.350  1.00  0.00    -0.161 P  
BRANCH  14  15
HETATM   15  C   UNL     1      -8.604   6.316  66.022  1.00  0.00    -0.146 C  
BRANCH  15  16
HETATM   16  C   UNL     1      -8.450   4.983  65.284  1.00  0.00    -0.141 C  
BRANCH  16  17
HETATM   17  O   UNL     1      -9.728   4.492  64.871  1.00  0.00    -0.158 OA 
BRANCH  17  18
HETATM   18  C   UNL     1      -9.651   3.093  64.587  1.00  0.00    -0.148 C  
HETATM   19  C   UNL     1     -10.456   2.780  63.342  1.00  0.00    -0.205 C  
ENDBRANCH  17  18
ENDBRANCH  16  17
ENDBRANCH  15  16
ENDBRANCH  14  15
BRANCH  14  20
HETATM   20  C   UNL     1      -9.178   4.810  68.360  1.00  0.00    -0.124 C  
BRANCH  20  21
HETATM   21  C   UNL     1      -9.097   5.161  69.845  1.00  0.00    -0.123 C  
BRANCH  21  22
HETATM   22  O   UNL     1      -8.695   4.010  70.587  1.00  0.00    -0.073 OA 
BRANCH  22  23
HETATM   23  C   UNL     1      -9.783   3.507  71.367  1.00  0.00    -0.166 C  
HETATM   24  C   UNL     1      -9.550   3.852  72.825  1.00  0.00    -0.176 C  
ENDBRANCH  22  23
ENDBRANCH  21  22
ENDBRANCH  20  21
ENDBRANCH  14  20
ENDBRANCH  13  14
ENDBRANCH  12  13
ENDBRANCH   6  12
ENDBRANCH   5   6
ENDBRANCH   4   5
ENDBRANCH   3   4
ENDBRANCH   2   3
TORSDOF 19
ENDMDL
MODEL      291
REMARK 921   NORMALIZED FREE ENERGY PREDICTED BY IDOCK:   -2.69 KCAL/MOL
REMARK 922        TOTAL FREE ENERGY PREDICTED BY IDOCK:   -6.94 KCAL/MOL
REMARK 923 INTER-LIGAND FREE ENERGY PREDICTED BY IDOCK:   -5.71 KCAL/MOL
REMARK 924 INTRA-LIGAND FREE ENERGY PREDICTED BY IDOCK:   -1.23 KCAL/MOL
REMARK 927      BINDING AFFINITY PREDICTED BY RF-SCORE:    0.00 PKD
ROOT
HETATM    1  C   UNL     1     -10.233   5.285  66.312  1.00  0.00    -0.263 C  
HETATM    2  C   UNL     1      -9.841   4.374  67.457  1.00  0.00    -0.128 C  
ENDROOT
BRANCH   2   3
HETATM    3  O   UNL     1      -9.521   5.157  68.610  1.00  0.00    -0.120 OA 
BRANCH   3   4
HETATM    4  C   UNL     1      -8.368   5.963  68.350  1.00  0.00    -0.112 C  
BRANCH   4   5
HETATM    5  C   UNL     1      -8.333   7.171  69.282  1.00  0.00    -0.133 C  
BRANCH   5   6
HETATM    6  P   UNL     1      -8.031   8.754  68.364  1.00  0.00    -0.110 P  
BRANCH   6   7
HETATM    7  C   UNL     1      -7.690   8.134  66.644  1.00  0.00    -0.094 C  
BRANCH   7   8
HETATM    8  C   UNL     1      -8.809   8.537  65.685  1.00  0.00    -0.173 C  
BRANCH   8   9
HETATM    9  O   UNL     1      -8.435   8.236  64.338  1.00  0.00    -0.120 OA 
BRANCH   9  10
HETATM   10  C   UNL     1      -7.617   7.065  64.301  1.00  0.00    -0.112 C  
HETATM   11  C   UNL     1      -7.838   6.334  62.992  1.00  0.00    -0.103 C  
ENDBRANCH   9  10
ENDBRANCH   8   9
ENDBRANCH   7   8
ENDBRANCH   6   7
BRANCH   6  12
HETATM   12  C   UNL     1      -9.772   9.341  68.096  1.00  0.00    -0.150 C  
BRANCH  12  13
HETATM   13  C   UNL     1     -10.749   8.794  69.126  1.00  0.00    -0.131 C  
BRANCH  13  14
HETATM   14  P   UNL     1     -10.811   9.807  70.676  1.00  0.00    -0.314 P  
BRANCH  14  15
HETATM   15  C   UNL     1     -12.594  10.320  70.734  1.00  0.00    -0.352 C  
BRANCH  15  16
HETATM   16  C   UNL     1     -12.757  11.654  71.468  1.00  0.00    -0.318 C  
BRANCH  16  17
HETATM   17  O   UNL     1     -12.393  12.740  70.611  1.00  0.00    -0.360 OA 
BRANCH  17  18
HETATM   18  C   UNL     1     -12.826  13.981  71.175  1.00  0.00    -0.357 C  
HETATM   19  C   UNL     1     -13.865  13.720  72.246  1.00  0.00    -0.679 C  
ENDBRANCH  17  18
ENDBRANCH  16  17
ENDBRANCH  15  16
ENDBRANCH  14  15
BRANCH  14  20
HETATM   20  C   UNL     1     -10.837   8.437  71.932  1.00  0.00    -0.302 C  
BRANCH  20  21
HETATM   21  C   UNL     1     -12.205   7.763  72.021  1.00  0.00    -0.305 C  
BRANCH  21  22
HETATM   22  O   UNL     1     -12.088   6.392  71.641  1.00  0.00    -0.332 OA 
BRANCH  22  23
HETATM   23  C   UNL     1     -10.836   5.852  72.072  1.00  0.00    -0.252 C  
HETATM   24  C   UNL     1     -11.084   4.840  73.173  1.00  0.00    -0.388 C  
ENDBRANCH  22  23
ENDBRANCH  21  22
ENDBRANCH  20  21
ENDBRANCH  14  20
ENDBRANCH  13  14
ENDBRANCH  12  13
ENDBRANCH   6  12
ENDBRANCH   5   6
ENDBRANCH   4   5
ENDBRANCH   3   4
ENDBRANCH   2   3
TORSDOF 19
ENDMDL
MODEL      292
REMARK 921   NORMALIZED FREE ENERGY PREDICTED BY IDOCK:   -2.69 KCAL/MOL
REMARK 922        TOTAL FREE ENERGY PREDICTED BY IDOCK:   -6.93 KCAL/MOL
REMARK 923 INTER-LIGAND FREE ENERGY PREDICTED BY IDOCK:   -6.21 KCAL/MOL
REMARK 924 INTRA-LIGAND FREE ENERGY PREDICTED BY IDOCK:   -0.72 KCAL/MOL
REMARK 927      BINDING AFFINITY PREDICTED BY RF-SCORE:    0.00 PKD
ROOT
HETATM    1  C   UNL     1     -10.225   4.285  65.438  1.00  0.00    -0.235 C  
HETATM    2  C   UNL     1     -10.169   5.061  66.738  1.00  0.00    -0.248 C  
ENDROOT
BRANCH   2   3
HETATM    3  O   UNL     1      -9.772   6.409  66.479  1.00  0.00    -0.163 OA 
BRANCH   3   4
HETATM    4  C   UNL     1     -10.615   7.314  67.196  1.00  0.00    -0.346 C  
BRANCH   4   5
HETATM    5  C   UNL     1     -10.492   8.728  66.634  1.00  0.00    -0.170 C  
BRANCH   5   6
HETATM    6  P   UNL     1      -9.947   9.947  67.921  1.00  0.00    -0.179 P  
BRANCH   6   7
HETATM    7  C   UNL     1      -8.256   9.307  68.356  1.00  0.00    -0.115 C  
BRANCH   7   8
HETATM    8  C   UNL     1      -7.695  10.030  69.580  1.00  0.00    -0.156 C  
BRANCH   8   9
HETATM    9  O   UNL     1      -6.431  10.622  69.266  1.00  0.00    -0.051 OA 
BRANCH   9  10
HETATM   10  C   UNL     1      -6.035  11.522  70.302  1.00  0.00    -0.160 C  
HETATM   11  C   UNL     1      -6.159  12.949  69.808  1.00  0.00    -0.125 C  
ENDBRANCH   9  10
ENDBRANCH   8   9
ENDBRANCH   7   8
ENDBRANCH   6   7
BRANCH   6  12
HETATM   12  C   UNL     1      -9.425  11.374  66.854  1.00  0.00    -0.179 C  
BRANCH  12  13
HETATM   13  C   UNL     1      -9.205  12.657  67.643  1.00  0.00    -0.191 C  
BRANCH  13  14
HETATM   14  P   UNL     1     -10.253  14.064  67.047  1.00  0.00    -0.267 P  
BRANCH  14  15
HETATM   15  C   UNL     1     -11.721  13.961  68.179  1.00  0.00    -0.353 C  
BRANCH  15  16
HETATM   16  C   UNL     1     -11.537  14.868  69.398  1.00  0.00    -0.309 C  
BRANCH  16  17
HETATM   17  O   UNL     1     -12.424  14.474  70.449  1.00  0.00    -0.319 OA 
BRANCH  17  18
HETATM   18  C   UNL     1     -13.253  15.574  70.835  1.00  0.00    -0.415 C  
HETATM   19  C   UNL     1     -13.734  15.377  72.258  1.00  0.00    -0.629 C  
ENDBRANCH  17  18
ENDBRANCH  16  17
ENDBRANCH  15  16
ENDBRANCH  14  15
BRANCH  14  20
HETATM   20  C   UNL     1      -9.343  15.476  67.840  1.00  0.00    -0.192 C  
BRANCH  20  21
HETATM   21  C   UNL     1      -9.286  16.706  66.937  1.00  0.00    -0.231 C  
BRANCH  21  22
HETATM   22  O   UNL     1      -9.780  17.843  67.645  1.00  0.00    -0.269 OA 
BRANCH  22  23
HETATM   23  C   UNL     1     -10.451  18.740  66.757  1.00  0.00    -0.420 C  
HETATM   24  C   UNL     1     -10.409  20.139  67.338  1.00  0.00    -0.488 C  
ENDBRANCH  22  23
ENDBRANCH  21  22
ENDBRANCH  20  21
ENDBRANCH  14  20
ENDBRANCH  13  14
ENDBRANCH  12  13
ENDBRANCH   6  12
ENDBRANCH   5   6
ENDBRANCH   4   5
ENDBRANCH   3   4
ENDBRANCH   2   3
TORSDOF 19
ENDMDL
MODEL      293
REMARK 921   NORMALIZED FREE ENERGY PREDICTED BY IDOCK:   -2.69 KCAL/MOL
REMARK 922        TOTAL FREE ENERGY PREDICTED BY IDOCK:   -6.93 KCAL/MOL
REMARK 923 INTER-LIGAND FREE ENERGY PREDICTED BY IDOCK:   -5.73 KCAL/MOL
REMARK 924 INTRA-LIGAND FREE ENERGY PREDICTED BY IDOCK:   -1.20 KCAL/MOL
REMARK 927      BINDING AFFINITY PREDICTED BY RF-SCORE:    0.00 PKD
ROOT
HETATM    1  C   UNL     1     -13.100  10.146  71.703  1.00  0.00    -0.550 C  
HETATM    2  C   UNL     1     -13.724   8.842  72.156  1.00  0.00    -0.474 C  
ENDROOT
BRANCH   2   3
HETATM    3  O   UNL     1     -12.879   7.748  71.789  1.00  0.00    -0.319 OA 
BRANCH   3   4
HETATM    4  C   UNL     1     -11.693   8.237  71.157  1.00  0.00    -0.280 C  
BRANCH   4   5
HETATM    5  C   UNL     1     -11.175   7.233  70.130  1.00  0.00    -0.239 C  
BRANCH   5   6
HETATM    6  P   UNL     1     -10.355   8.065  68.690  1.00  0.00    -0.134 P  
BRANCH   6   7
HETATM    7  C   UNL     1     -10.548   9.861  69.131  1.00  0.00    -0.220 C  
BRANCH   7   8
HETATM    8  C   UNL     1     -11.214  10.636  67.994  1.00  0.00    -0.307 C  
BRANCH   8   9
HETATM    9  O   UNL     1     -12.224  11.504  68.515  1.00  0.00    -0.524 OA 
BRANCH   9  10
HETATM   10  C   UNL     1     -11.870  12.869  68.287  1.00  0.00    -0.330 C  
HETATM   11  C   UNL     1     -11.184  12.996  66.942  1.00  0.00    -0.331 C  
ENDBRANCH   9  10
ENDBRANCH   8   9
ENDBRANCH   7   8
ENDBRANCH   6   7
BRANCH   6  12
HETATM   12  C   UNL     1      -8.565   7.870  69.145  1.00  0.00    -0.138 C  
BRANCH  12  13
HETATM   13  C   UNL     1      -7.934   6.621  68.547  1.00  0.00    -0.118 C  
BRANCH  13  14
HETATM   14  P   UNL     1      -8.727   6.098  66.957  1.00  0.00    -0.109 P  
BRANCH  14  15
HETATM   15  C   UNL     1      -7.682   6.971  65.695  1.00  0.00    -0.102 C  
BRANCH  15  16
HETATM   16  C   UNL     1      -8.464   8.103  65.024  1.00  0.00    -0.099 C  
BRANCH  16  17
HETATM   17  O   UNL     1      -7.650   9.275  64.918  1.00  0.00    -0.103 OA 
BRANCH  17  18
HETATM   18  C   UNL     1      -8.435  10.445  65.164  1.00  0.00    -0.173 C  
HETATM   19  C   UNL     1      -9.698  10.396  64.330  1.00  0.00    -0.389 C  
ENDBRANCH  17  18
ENDBRANCH  16  17
ENDBRANCH  15  16
ENDBRANCH  14  15
BRANCH  14  20
HETATM   20  C   UNL     1      -8.022   4.384  66.817  1.00  0.00    -0.098 C  
BRANCH  20  21
HETATM   21  C   UNL     1      -8.931   3.450  66.020  1.00  0.00    -0.143 C  
BRANCH  21  22
HETATM   22  O   UNL     1      -9.993   4.202  65.432  1.00  0.00    -0.195 OA 
BRANCH  22  23
HETATM   23  C   UNL     1     -10.319   3.690  64.137  1.00  0.00    -0.246 C  
HETATM   24  C   UNL     1      -9.093   3.770  63.249  1.00  0.00    -0.106 C  
ENDBRANCH  22  23
ENDBRANCH  21  22
ENDBRANCH  20  21
ENDBRANCH  14  20
ENDBRANCH  13  14
ENDBRANCH  12  13
ENDBRANCH   6  12
ENDBRANCH   5   6
ENDBRANCH   4   5
ENDBRANCH   3   4
ENDBRANCH   2   3
TORSDOF 19
ENDMDL
MODEL      294
REMARK 921   NORMALIZED FREE ENERGY PREDICTED BY IDOCK:   -2.68 KCAL/MOL
REMARK 922        TOTAL FREE ENERGY PREDICTED BY IDOCK:   -6.90 KCAL/MOL
REMARK 923 INTER-LIGAND FREE ENERGY PREDICTED BY IDOCK:   -5.93 KCAL/MOL
REMARK 924 INTRA-LIGAND FREE ENERGY PREDICTED BY IDOCK:   -0.98 KCAL/MOL
REMARK 927      BINDING AFFINITY PREDICTED BY RF-SCORE:    0.00 PKD
ROOT
HETATM    1  C   UNL     1      -8.678   7.842  70.443  1.00  0.00    -0.139 C  
HETATM    2  C   UNL     1      -7.337   8.545  70.485  1.00  0.00    -0.060 C  
ENDROOT
BRANCH   2   3
HETATM    3  O   UNL     1      -6.958   8.943  69.164  1.00  0.00    -0.057 OA 
BRANCH   3   4
HETATM    4  C   UNL     1      -7.820   9.986  68.702  1.00  0.00    -0.091 C  
BRANCH   4   5
HETATM    5  C   UNL     1      -7.469  10.381  67.269  1.00  0.00    -0.094 C  
BRANCH   5   6
HETATM    6  P   UNL     1      -8.934  11.045  66.347  1.00  0.00    -0.190 P  
BRANCH   6   7
HETATM    7  C   UNL     1      -9.679   9.490  65.652  1.00  0.00    -0.290 C  
BRANCH   7   8
HETATM    8  C   UNL     1      -8.606   8.430  65.407  1.00  0.00    -0.167 C  
BRANCH   8   9
HETATM    9  O   UNL     1      -8.847   7.287  66.232  1.00  0.00    -0.149 OA 
BRANCH   9  10
HETATM   10  C   UNL     1     -10.052   7.461  66.980  1.00  0.00    -0.258 C  
HETATM   11  C   UNL     1     -10.871   6.188  66.924  1.00  0.00    -0.411 C  
ENDBRANCH   9  10
ENDBRANCH   8   9
ENDBRANCH   7   8
ENDBRANCH   6   7
BRANCH   6  12
HETATM   12  C   UNL     1     -10.132  11.316  67.740  1.00  0.00    -0.179 C  
BRANCH  12  13
HETATM   13  C   UNL     1     -10.129  12.747  68.256  1.00  0.00    -0.237 C  
BRANCH  13  14
HETATM   14  P   UNL     1     -11.816  13.350  68.729  1.00  0.00    -0.292 P  
BRANCH  14  15
HETATM   15  C   UNL     1     -12.066  12.549  70.384  1.00  0.00    -0.297 C  
BRANCH  15  16
HETATM   16  C   UNL     1     -12.561  11.109  70.228  1.00  0.00    -0.210 C  
BRANCH  16  17
HETATM   17  O   UNL     1     -12.779  10.515  71.511  1.00  0.00    -0.387 OA 
BRANCH  17  18
HETATM   18  C   UNL     1     -12.827   9.091  71.395  1.00  0.00    -0.300 C  
HETATM   19  C   UNL     1     -11.825   8.467  72.344  1.00  0.00    -0.452 C  
ENDBRANCH  17  18
ENDBRANCH  16  17
ENDBRANCH  15  16
ENDBRANCH  14  15
BRANCH  14  20
HETATM   20  C   UNL     1     -11.379  15.072  69.276  1.00  0.00    -0.296 C  
BRANCH  20  21
HETATM   21  C   UNL     1     -11.050  15.986  68.098  1.00  0.00    -0.344 C  
BRANCH  21  22
HETATM   22  O   UNL     1     -11.344  15.313  66.874  1.00  0.00    -0.307 OA 
BRANCH  22  23
HETATM   23  C   UNL     1     -10.622  15.900  65.787  1.00  0.00    -0.355 C  
HETATM   24  C   UNL     1      -9.136  15.781  66.057  1.00  0.00    -0.361 C  
ENDBRANCH  22  23
ENDBRANCH  21  22
ENDBRANCH  20  21
ENDBRANCH  14  20
ENDBRANCH  13  14
ENDBRANCH  12  13
ENDBRANCH   6  12
ENDBRANCH   5   6
ENDBRANCH   4   5
ENDBRANCH   3   4
ENDBRANCH   2   3
TORSDOF 19
ENDMDL
MODEL      295
REMARK 921   NORMALIZED FREE ENERGY PREDICTED BY IDOCK:   -2.67 KCAL/MOL
REMARK 922        TOTAL FREE ENERGY PREDICTED BY IDOCK:   -6.89 KCAL/MOL
REMARK 923 INTER-LIGAND FREE ENERGY PREDICTED BY IDOCK:   -5.47 KCAL/MOL
REMARK 924 INTRA-LIGAND FREE ENERGY PREDICTED BY IDOCK:   -1.42 KCAL/MOL
REMARK 927      BINDING AFFINITY PREDICTED BY RF-SCORE:    0.00 PKD
ROOT
HETATM    1  C   UNL     1     -12.459  12.440  64.055  1.00  0.00    -0.554 C  
HETATM    2  C   UNL     1     -12.359  12.859  65.507  1.00  0.00    -0.461 C  
ENDROOT
BRANCH   2   3
HETATM    3  O   UNL     1     -11.047  12.579  66.001  1.00  0.00    -0.274 OA 
BRANCH   3   4
HETATM    4  C   UNL     1     -11.077  11.425  66.845  1.00  0.00    -0.295 C  
BRANCH   4   5
HETATM    5  C   UNL     1     -10.158  10.334  66.302  1.00  0.00    -0.236 C  
BRANCH   5   6
HETATM    6  P   UNL     1      -8.391  10.595  66.801  1.00  0.00    -0.141 P  
BRANCH   6   7
HETATM    7  C   UNL     1      -8.580  11.251  68.530  1.00  0.00    -0.156 C  
BRANCH   7   8
HETATM    8  C   UNL     1      -8.524  10.118  69.555  1.00  0.00    -0.168 C  
BRANCH   8   9
HETATM    9  O   UNL     1      -9.808   9.936  70.158  1.00  0.00    -0.247 OA 
BRANCH   9  10
HETATM   10  C   UNL     1      -9.700   9.096  71.309  1.00  0.00    -0.281 C  
HETATM   11  C   UNL     1      -8.426   8.280  71.222  1.00  0.00    -0.164 C  
ENDBRANCH   9  10
ENDBRANCH   8   9
ENDBRANCH   7   8
ENDBRANCH   6   7
BRANCH   6  12
HETATM   12  C   UNL     1      -7.888   8.859  67.227  1.00  0.00    -0.096 C  
BRANCH  12  13
HETATM   13  C   UNL     1      -8.850   7.812  66.687  1.00  0.00    -0.148 C  
BRANCH  13  14
HETATM   14  P   UNL     1      -9.051   6.359  67.819  1.00  0.00    -0.107 P  
BRANCH  14  15
HETATM   15  C   UNL     1     -10.690   6.712  68.617  1.00  0.00    -0.254 C  
BRANCH  15  16
HETATM   16  C   UNL     1     -10.879   5.867  69.879  1.00  0.00    -0.369 C  
BRANCH  16  17
HETATM   17  O   UNL     1     -11.948   6.390  70.673  1.00  0.00    -0.340 OA 
BRANCH  17  18
HETATM   18  C   UNL     1     -11.722   6.104  72.055  1.00  0.00    -0.299 C  
HETATM   19  C   UNL     1     -10.672   5.020  72.188  1.00  0.00    -0.227 C  
ENDBRANCH  17  18
ENDBRANCH  16  17
ENDBRANCH  15  16
ENDBRANCH  14  15
BRANCH  14  20
HETATM   20  C   UNL     1      -9.576   5.079  66.578  1.00  0.00    -0.161 C  
BRANCH  20  21
HETATM   21  C   UNL     1      -9.244   3.661  67.037  1.00  0.00    -0.186 C  
BRANCH  21  22
HETATM   22  O   UNL     1      -9.042   2.824  65.898  1.00  0.00    -0.142 OA 
BRANCH  22  23
HETATM   23  C   UNL     1      -7.751   3.051  65.327  1.00  0.00    -0.081 C  
HETATM   24  C   UNL     1      -7.882   3.127  63.819  1.00  0.00    -0.080 C  
ENDBRANCH  22  23
ENDBRANCH  21  22
ENDBRANCH  20  21
ENDBRANCH  14  20
ENDBRANCH  13  14
ENDBRANCH  12  13
ENDBRANCH   6  12
ENDBRANCH   5   6
ENDBRANCH   4   5
ENDBRANCH   3   4
ENDBRANCH   2   3
TORSDOF 19
ENDMDL
MODEL      296
REMARK 921   NORMALIZED FREE ENERGY PREDICTED BY IDOCK:   -2.66 KCAL/MOL
REMARK 922        TOTAL FREE ENERGY PREDICTED BY IDOCK:   -6.86 KCAL/MOL
REMARK 923 INTER-LIGAND FREE ENERGY PREDICTED BY IDOCK:   -6.05 KCAL/MOL
REMARK 924 INTRA-LIGAND FREE ENERGY PREDICTED BY IDOCK:   -0.81 KCAL/MOL
REMARK 927      BINDING AFFINITY PREDICTED BY RF-SCORE:    0.00 PKD
ROOT
HETATM    1  C   UNL     1      -5.207  12.804  70.408  1.00  0.00    -0.119 C  
HETATM    2  C   UNL     1      -5.962  11.491  70.426  1.00  0.00    -0.138 C  
ENDROOT
BRANCH   2   3
HETATM    3  O   UNL     1      -5.548  10.681  69.323  1.00  0.00    -0.038 OA 
BRANCH   3   4
HETATM    4  C   UNL     1      -6.677  10.010  68.757  1.00  0.00    -0.049 C  
BRANCH   4   5
HETATM    5  C   UNL     1      -7.979  10.581  69.314  1.00  0.00    -0.154 C  
BRANCH   5   6
HETATM    6  P   UNL     1      -9.416   9.442  69.041  1.00  0.00    -0.171 P  
BRANCH   6   7
HETATM    7  C   UNL     1      -9.987   9.129  70.783  1.00  0.00    -0.269 C  
BRANCH   7   8
HETATM    8  C   UNL     1      -9.798   7.662  71.167  1.00  0.00    -0.173 C  
BRANCH   8   9
HETATM    9  O   UNL     1      -9.165   6.952  70.099  1.00  0.00    -0.155 OA 
BRANCH   9  10
HETATM   10  C   UNL     1      -9.709   5.635  69.989  1.00  0.00    -0.173 C  
HETATM   11  C   UNL     1      -8.593   4.646  69.722  1.00  0.00    -0.096 C  
ENDBRANCH   9  10
ENDBRANCH   8   9
ENDBRANCH   7   8
ENDBRANCH   6   7
BRANCH   6  12
HETATM   12  C   UNL     1     -10.733  10.652  68.541  1.00  0.00    -0.217 C  
BRANCH  12  13
HETATM   13  C   UNL     1     -10.334  12.099  68.788  1.00  0.00    -0.147 C  
BRANCH  13  14
HETATM   14  P   UNL     1     -11.744  13.284  68.586  1.00  0.00    -0.341 P  
BRANCH  14  15
HETATM   15  C   UNL     1     -11.107  14.797  69.454  1.00  0.00    -0.281 C  
BRANCH  15  16
HETATM   16  C   UNL     1     -11.359  16.055  68.618  1.00  0.00    -0.383 C  
BRANCH  16  17
HETATM   17  O   UNL     1     -10.126  16.732  68.355  1.00  0.00    -0.257 OA 
BRANCH  17  18
HETATM   18  C   UNL     1     -10.348  18.141  68.254  1.00  0.00    -0.363 C  
HETATM   19  C   UNL     1      -9.034  18.848  67.993  1.00  0.00    -0.338 C  
ENDBRANCH  17  18
ENDBRANCH  16  17
ENDBRANCH  15  16
ENDBRANCH  14  15
BRANCH  14  20
HETATM   20  C   UNL     1     -11.461  13.793  66.821  1.00  0.00    -0.348 C  
BRANCH  20  21
HETATM   21  C   UNL     1     -12.768  13.923  66.041  1.00  0.00    -0.362 C  
BRANCH  21  22
HETATM   22  O   UNL     1     -12.748  13.036  64.923  1.00  0.00    -0.644 OA 
BRANCH  22  23
HETATM   23  C   UNL     1     -11.579  12.213  64.950  1.00  0.00    -0.316 C  
HETATM   24  C   UNL     1     -11.034  12.078  63.543  1.00  0.00    -0.514 C  
ENDBRANCH  22  23
ENDBRANCH  21  22
ENDBRANCH  20  21
ENDBRANCH  14  20
ENDBRANCH  13  14
ENDBRANCH  12  13
ENDBRANCH   6  12
ENDBRANCH   5   6
ENDBRANCH   4   5
ENDBRANCH   3   4
ENDBRANCH   2   3
TORSDOF 19
ENDMDL
MODEL      297
REMARK 921   NORMALIZED FREE ENERGY PREDICTED BY IDOCK:   -2.64 KCAL/MOL
REMARK 922        TOTAL FREE ENERGY PREDICTED BY IDOCK:   -6.83 KCAL/MOL
REMARK 923 INTER-LIGAND FREE ENERGY PREDICTED BY IDOCK:   -5.96 KCAL/MOL
REMARK 924 INTRA-LIGAND FREE ENERGY PREDICTED BY IDOCK:   -0.87 KCAL/MOL
REMARK 927      BINDING AFFINITY PREDICTED BY RF-SCORE:    0.00 PKD
ROOT
HETATM    1  C   UNL     1      -5.463  12.618  70.772  1.00  0.00    -0.175 C  
HETATM    2  C   UNL     1      -5.638  11.156  70.419  1.00  0.00    -0.124 C  
ENDROOT
BRANCH   2   3
HETATM    3  O   UNL     1      -7.029  10.827  70.400  1.00  0.00    -0.252 OA 
BRANCH   3   4
HETATM    4  C   UNL     1      -7.196   9.407  70.358  1.00  0.00    -0.111 C  
BRANCH   4   5
HETATM    5  C   UNL     1      -8.583   9.011  70.858  1.00  0.00    -0.215 C  
BRANCH   5   6
HETATM    6  P   UNL     1      -9.821   8.916  69.481  1.00  0.00    -0.192 P  
BRANCH   6   7
HETATM    7  C   UNL     1     -10.783  10.488  69.728  1.00  0.00    -0.264 C  
BRANCH   7   8
HETATM    8  C   UNL     1     -12.006  10.250  70.613  1.00  0.00    -0.342 C  
BRANCH   8   9
HETATM    9  O   UNL     1     -12.124   8.859  70.925  1.00  0.00    -0.270 OA 
BRANCH   9  10
HETATM   10  C   UNL     1     -12.848   8.685  72.144  1.00  0.00    -0.391 C  
HETATM   11  C   UNL     1     -14.289   8.334  71.832  1.00  0.00    -0.564 C  
ENDBRANCH   9  10
ENDBRANCH   8   9
ENDBRANCH   7   8
ENDBRANCH   6   7
BRANCH   6  12
HETATM   12  C   UNL     1      -8.785   9.459  68.039  1.00  0.00    -0.124 C  
BRANCH  12  13
HETATM   13  C   UNL     1      -9.443   9.179  66.696  1.00  0.00    -0.185 C  
BRANCH  13  14
HETATM   14  P   UNL     1      -8.304   9.447  65.260  1.00  0.00    -0.162 P  
BRANCH  14  15
HETATM   15  C   UNL     1      -8.136   7.731  64.571  1.00  0.00    -0.108 C  
BRANCH  15  16
HETATM   16  C   UNL     1      -8.065   6.694  65.695  1.00  0.00    -0.125 C  
BRANCH  16  17
HETATM   17  O   UNL     1      -8.833   5.536  65.352  1.00  0.00    -0.154 OA 
BRANCH  17  18
HETATM   18  C   UNL     1      -9.667   5.155  66.449  1.00  0.00    -0.173 C  
HETATM   19  C   UNL     1      -9.011   5.556  67.754  1.00  0.00    -0.108 C  
ENDBRANCH  17  18
ENDBRANCH  16  17
ENDBRANCH  15  16
ENDBRANCH  14  15
BRANCH  14  20
HETATM   20  C   UNL     1      -9.514  10.157  64.042  1.00  0.00    -0.282 C  
BRANCH  20  21
HETATM   21  C   UNL     1     -10.486  11.136  64.698  1.00  0.00    -0.335 C  
BRANCH  21  22
HETATM   22  O   UNL     1     -10.315  12.434  64.128  1.00  0.00    -0.341 OA 
BRANCH  22  23
HETATM   23  C   UNL     1     -11.556  12.928  63.616  1.00  0.00    -0.485 C  
HETATM   24  C   UNL     1     -11.979  14.139  64.423  1.00  0.00    -0.478 C  
ENDBRANCH  22  23
ENDBRANCH  21  22
ENDBRANCH  20  21
ENDBRANCH  14  20
ENDBRANCH  13  14
ENDBRANCH  12  13
ENDBRANCH   6  12
ENDBRANCH   5   6
ENDBRANCH   4   5
ENDBRANCH   3   4
ENDBRANCH   2   3
TORSDOF 19
ENDMDL
MODEL      298
REMARK 921   NORMALIZED FREE ENERGY PREDICTED BY IDOCK:   -2.62 KCAL/MOL
REMARK 922        TOTAL FREE ENERGY PREDICTED BY IDOCK:   -6.79 KCAL/MOL
REMARK 923 INTER-LIGAND FREE ENERGY PREDICTED BY IDOCK:   -5.29 KCAL/MOL
REMARK 924 INTRA-LIGAND FREE ENERGY PREDICTED BY IDOCK:   -1.49 KCAL/MOL
REMARK 927      BINDING AFFINITY PREDICTED BY RF-SCORE:    0.00 PKD
ROOT
HETATM    1  C   UNL     1      -9.963   4.264  65.548  1.00  0.00    -0.233 C  
HETATM    2  C   UNL     1      -8.982   5.385  65.820  1.00  0.00    -0.158 C  
ENDROOT
BRANCH   2   3
HETATM    3  O   UNL     1      -9.632   6.429  66.551  1.00  0.00    -0.161 OA 
BRANCH   3   4
HETATM    4  C   UNL     1      -8.982   7.678  66.303  1.00  0.00    -0.169 C  
BRANCH   4   5
HETATM    5  C   UNL     1      -8.278   8.179  67.562  1.00  0.00    -0.123 C  
BRANCH   5   6
HETATM    6  P   UNL     1      -8.587   9.982  67.865  1.00  0.00    -0.121 P  
BRANCH   6   7
HETATM    7  C   UNL     1     -10.207  10.241  66.991  1.00  0.00    -0.228 C  
BRANCH   7   8
HETATM    8  C   UNL     1     -10.113  11.393  65.992  1.00  0.00    -0.234 C  
BRANCH   8   9
HETATM    9  O   UNL     1     -10.494  12.621  66.618  1.00  0.00    -0.242 OA 
BRANCH   9  10
HETATM   10  C   UNL     1     -11.750  12.468  67.282  1.00  0.00    -0.362 C  
HETATM   11  C   UNL     1     -11.909  13.557  68.323  1.00  0.00    -0.401 C  
ENDBRANCH   9  10
ENDBRANCH   8   9
ENDBRANCH   7   8
ENDBRANCH   6   7
BRANCH   6  12
HETATM   12  C   UNL     1      -9.228   9.939  69.608  1.00  0.00    -0.227 C  
BRANCH  12  13
HETATM   13  C   UNL     1      -9.700   8.557  70.033  1.00  0.00    -0.170 C  
BRANCH  13  14
HETATM   14  P   UNL     1     -11.514   8.495  70.407  1.00  0.00     0.045 P  
BRANCH  14  15
HETATM   15  C   UNL     1     -11.890   6.688  70.206  1.00  0.00    -0.316 C  
BRANCH  15  16
HETATM   16  C   UNL     1     -10.630   5.904  69.830  1.00  0.00    -0.299 C  
BRANCH  16  17
HETATM   17  O   UNL     1     -10.316   4.949  70.848  1.00  0.00    -0.217 OA 
BRANCH  17  18
HETATM   18  C   UNL     1      -8.908   4.940  71.100  1.00  0.00    -0.127 C  
HETATM   19  C   UNL     1      -8.154   5.022  69.788  1.00  0.00    -0.074 C  
ENDBRANCH  17  18
ENDBRANCH  16  17
ENDBRANCH  15  16
ENDBRANCH  14  15
BRANCH  14  20
HETATM   20  C   UNL     1     -11.444   8.596  72.262  1.00  0.00    -0.353 C  
BRANCH  20  21
HETATM   21  C   UNL     1     -10.124   8.067  72.819  1.00  0.00    -0.308 C  
BRANCH  21  22
HETATM   22  O   UNL     1     -10.385   7.027  73.761  1.00  0.00    -0.339 OA 
BRANCH  22  23
HETATM   23  C   UNL     1      -9.215   6.736  74.530  1.00  0.00    -0.210 C  
HETATM   24  C   UNL     1      -8.121   7.718  74.162  1.00  0.00    -0.265 C  
ENDBRANCH  22  23
ENDBRANCH  21  22
ENDBRANCH  20  21
ENDBRANCH  14  20
ENDBRANCH  13  14
ENDBRANCH  12  13
ENDBRANCH   6  12
ENDBRANCH   5   6
ENDBRANCH   4   5
ENDBRANCH   3   4
ENDBRANCH   2   3
TORSDOF 19
ENDMDL
MODEL      299
REMARK 921   NORMALIZED FREE ENERGY PREDICTED BY IDOCK:   -2.61 KCAL/MOL
REMARK 922        TOTAL FREE ENERGY PREDICTED BY IDOCK:   -6.76 KCAL/MOL
REMARK 923 INTER-LIGAND FREE ENERGY PREDICTED BY IDOCK:   -5.48 KCAL/MOL
REMARK 924 INTRA-LIGAND FREE ENERGY PREDICTED BY IDOCK:   -1.29 KCAL/MOL
REMARK 927      BINDING AFFINITY PREDICTED BY RF-SCORE:    0.00 PKD
ROOT
HETATM    1  C   UNL     1     -10.603  15.467  64.965  1.00  0.00    -0.435 C  
HETATM    2  C   UNL     1     -12.080  15.433  64.628  1.00  0.00    -0.123 C  
ENDROOT
BRANCH   2   3
HETATM    3  O   UNL     1     -12.376  14.256  63.872  1.00  0.00    -0.697 OA 
BRANCH   3   4
HETATM    4  C   UNL     1     -12.522  13.136  64.749  1.00  0.00    -0.402 C  
BRANCH   4   5
HETATM    5  C   UNL     1     -11.610  11.990  64.317  1.00  0.00    -0.358 C  
BRANCH   5   6
HETATM    6  P   UNL     1     -10.231  11.701  65.522  1.00  0.00    -0.282 P  
BRANCH   6   7
HETATM    7  C   UNL     1     -11.164  11.439  67.109  1.00  0.00    -0.296 C  
BRANCH   7   8
HETATM    8  C   UNL     1     -11.075  12.673  68.007  1.00  0.00    -0.251 C  
BRANCH   8   9
HETATM    9  O   UNL     1     -11.358  12.317  69.363  1.00  0.00    -0.258 OA 
BRANCH   9  10
HETATM   10  C   UNL     1     -11.130  10.921  69.566  1.00  0.00    -0.268 C  
HETATM   11  C   UNL     1     -11.717  10.500  70.897  1.00  0.00    -0.431 C  
ENDBRANCH   9  10
ENDBRANCH   8   9
ENDBRANCH   7   8
ENDBRANCH   6   7
BRANCH   6  12
HETATM   12  C   UNL     1      -9.816   9.927  65.161  1.00  0.00    -0.278 C  
BRANCH  12  13
HETATM   13  C   UNL     1      -9.585   9.103  66.419  1.00  0.00    -0.245 C  
BRANCH  13  14
HETATM   14  P   UNL     1      -7.891   8.355  66.495  1.00  0.00    -0.094 P  
BRANCH  14  15
HETATM   15  C   UNL     1      -6.842   9.815  66.957  1.00  0.00    -0.083 C  
BRANCH  15  16
HETATM   16  C   UNL     1      -7.409  10.532  68.185  1.00  0.00    -0.088 C  
BRANCH  16  17
HETATM   17  O   UNL     1      -7.655  11.910  67.887  1.00  0.00    -0.111 OA 
BRANCH  17  18
HETATM   18  C   UNL     1      -6.594  12.439  67.087  1.00  0.00    -0.089 C  
HETATM   19  C   UNL     1      -5.869  13.526  67.854  1.00  0.00    -0.133 C  
ENDBRANCH  17  18
ENDBRANCH  16  17
ENDBRANCH  15  16
ENDBRANCH  14  15
BRANCH  14  20
HETATM   20  C   UNL     1      -8.006   7.515  68.149  1.00  0.00    -0.123 C  
BRANCH  20  21
HETATM   21  C   UNL     1      -9.304   6.727  68.307  1.00  0.00    -0.124 C  
BRANCH  21  22
HETATM   22  O   UNL     1      -9.349   5.680  67.338  1.00  0.00    -0.112 OA 
BRANCH  22  23
HETATM   23  C   UNL     1      -8.398   4.659  67.652  1.00  0.00    -0.103 C  
HETATM   24  C   UNL     1      -7.712   4.210  66.377  1.00  0.00    -0.090 C  
ENDBRANCH  22  23
ENDBRANCH  21  22
ENDBRANCH  20  21
ENDBRANCH  14  20
ENDBRANCH  13  14
ENDBRANCH  12  13
ENDBRANCH   6  12
ENDBRANCH   5   6
ENDBRANCH   4   5
ENDBRANCH   3   4
ENDBRANCH   2   3
TORSDOF 19
ENDMDL
MODEL      300
REMARK 921   NORMALIZED FREE ENERGY PREDICTED BY IDOCK:   -2.60 KCAL/MOL
REMARK 922        TOTAL FREE ENERGY PREDICTED BY IDOCK:   -6.75 KCAL/MOL
REMARK 923 INTER-LIGAND FREE ENERGY PREDICTED BY IDOCK:   -5.86 KCAL/MOL
REMARK 924 INTRA-LIGAND FREE ENERGY PREDICTED BY IDOCK:   -0.89 KCAL/MOL
REMARK 927      BINDING AFFINITY PREDICTED BY RF-SCORE:    0.00 PKD
ROOT
HETATM    1  C   UNL     1     -12.692   7.717  72.312  1.00  0.00    -0.104 C  
HETATM    2  C   UNL     1     -11.480   6.852  72.033  1.00  0.00    -0.274 C  
ENDROOT
BRANCH   2   3
HETATM    3  O   UNL     1     -11.747   5.988  70.925  1.00  0.00    -0.207 OA 
BRANCH   3   4
HETATM    4  C   UNL     1     -10.600   5.915  70.074  1.00  0.00    -0.295 C  
BRANCH   4   5
HETATM    5  C   UNL     1     -10.649   7.006  69.008  1.00  0.00    -0.217 C  
BRANCH   5   6
HETATM    6  P   UNL     1      -9.008   7.245  68.177  1.00  0.00    -0.129 P  
BRANCH   6   7
HETATM    7  C   UNL     1      -8.771   5.606  67.331  1.00  0.00    -0.107 C  
BRANCH   7   8
HETATM    8  C   UNL     1      -9.422   5.604  65.948  1.00  0.00    -0.067 C  
BRANCH   8   9
HETATM    9  O   UNL     1     -10.586   4.773  65.954  1.00  0.00    -0.303 OA 
BRANCH   9  10
HETATM   10  C   UNL     1     -10.697   4.069  64.715  1.00  0.00    -0.117 C  
HETATM   11  C   UNL     1      -9.481   3.185  64.524  1.00  0.00    -0.147 C  
ENDBRANCH   9  10
ENDBRANCH   8   9
ENDBRANCH   7   8
ENDBRANCH   6   7
BRANCH   6  12
HETATM   12  C   UNL     1      -9.509   8.241  66.692  1.00  0.00    -0.209 C  
BRANCH  12  13
HETATM   13  C   UNL     1     -10.517   9.333  67.022  1.00  0.00    -0.233 C  
BRANCH  13  14
HETATM   14  P   UNL     1      -9.896  11.034  66.631  1.00  0.00    -0.213 P  
BRANCH  14  15
HETATM   15  C   UNL     1     -11.468  12.021  66.589  1.00  0.00    -0.346 C  
BRANCH  15  16
HETATM   16  C   UNL     1     -11.431  13.064  65.469  1.00  0.00    -0.321 C  
BRANCH  16  17
HETATM   17  O   UNL     1     -12.658  13.046  64.732  1.00  0.00    -0.575 OA 
BRANCH  17  18
HETATM   18  C   UNL     1     -12.400  12.807  63.347  1.00  0.00    -0.437 C  
HETATM   19  C   UNL     1     -11.065  12.108  63.190  1.00  0.00    -0.257 C  
ENDBRANCH  17  18
ENDBRANCH  16  17
ENDBRANCH  15  16
ENDBRANCH  14  15
BRANCH  14  20
HETATM   20  C   UNL     1      -9.265  11.520  68.310  1.00  0.00    -0.186 C  
BRANCH  20  21
HETATM   21  C   UNL     1     -10.004  10.799  69.435  1.00  0.00    -0.110 C  
BRANCH  21  22
HETATM   22  O   UNL     1     -11.145  11.563  69.825  1.00  0.00    -0.199 OA 
BRANCH  22  23
HETATM   23  C   UNL     1     -12.268  10.710  70.064  1.00  0.00    -0.298 C  
HETATM   24  C   UNL     1     -12.960  11.146  71.340  1.00  0.00    -0.506 C  
ENDBRANCH  22  23
ENDBRANCH  21  22
ENDBRANCH  20  21
ENDBRANCH  14  20
ENDBRANCH  13  14
ENDBRANCH  12  13
ENDBRANCH   6  12
ENDBRANCH   5   6
ENDBRANCH   4   5
ENDBRANCH   3   4
ENDBRANCH   2   3
TORSDOF 19
ENDMDL
MODEL      301
REMARK 921   NORMALIZED FREE ENERGY PREDICTED BY IDOCK:   -2.60 KCAL/MOL
REMARK 922        TOTAL FREE ENERGY PREDICTED BY IDOCK:   -6.75 KCAL/MOL
REMARK 923 INTER-LIGAND FREE ENERGY PREDICTED BY IDOCK:   -5.73 KCAL/MOL
REMARK 924 INTRA-LIGAND FREE ENERGY PREDICTED BY IDOCK:   -1.02 KCAL/MOL
REMARK 927      BINDING AFFINITY PREDICTED BY RF-SCORE:    0.00 PKD
ROOT
HETATM    1  C   UNL     1      -6.955   9.906  63.093  1.00  0.00    -0.124 C  
HETATM    2  C   UNL     1      -7.344   9.517  64.504  1.00  0.00    -0.114 C  
ENDROOT
BRANCH   2   3
HETATM    3  O   UNL     1      -8.721   9.133  64.536  1.00  0.00    -0.189 OA 
BRANCH   3   4
HETATM    4  C   UNL     1      -9.286   9.448  65.812  1.00  0.00    -0.239 C  
BRANCH   4   5
HETATM    5  C   UNL     1      -8.259  10.145  66.701  1.00  0.00    -0.123 C  
BRANCH   5   6
HETATM    6  P   UNL     1      -8.947  11.669  67.501  1.00  0.00    -0.178 P  
BRANCH   6   7
HETATM    7  C   UNL     1     -10.346  12.100  66.355  1.00  0.00    -0.218 C  
BRANCH   7   8
HETATM    8  C   UNL     1     -10.291  13.574  65.953  1.00  0.00    -0.299 C  
BRANCH   8   9
HETATM    9  O   UNL     1     -10.809  13.742  64.631  1.00  0.00    -0.375 OA 
BRANCH   9  10
HETATM   10  C   UNL     1     -10.821  12.492  63.940  1.00  0.00    -0.431 C  
HETATM   11  C   UNL     1     -12.212  12.224  63.403  1.00  0.00    -0.630 C  
ENDBRANCH   9  10
ENDBRANCH   8   9
ENDBRANCH   7   8
ENDBRANCH   6   7
BRANCH   6  12
HETATM   12  C   UNL     1      -9.947  10.923  68.876  1.00  0.00    -0.196 C  
BRANCH  12  13
HETATM   13  C   UNL     1      -9.181   9.871  69.665  1.00  0.00    -0.227 C  
BRANCH  13  14
HETATM   14  P   UNL     1     -10.232   8.429  70.162  1.00  0.00    -0.204 P  
BRANCH  14  15
HETATM   15  C   UNL     1      -8.971   7.083  70.374  1.00  0.00    -0.155 C  
BRANCH  15  16
HETATM   16  C   UNL     1      -9.420   5.796  69.677  1.00  0.00    -0.140 C  
BRANCH  16  17
HETATM   17  O   UNL     1      -8.311   4.907  69.512  1.00  0.00    -0.082 OA 
BRANCH  17  18
HETATM   18  C   UNL     1      -7.080   5.629  69.604  1.00  0.00    -0.064 C  
HETATM   19  C   UNL     1      -6.223   5.334  68.390  1.00  0.00    -0.031 C  
ENDBRANCH  17  18
ENDBRANCH  16  17
ENDBRANCH  15  16
ENDBRANCH  14  15
BRANCH  14  20
HETATM   20  C   UNL     1     -10.524   8.868  71.945  1.00  0.00    -0.345 C  
BRANCH  20  21
HETATM   21  C   UNL     1     -11.187   7.730  72.718  1.00  0.00    -0.398 C  
BRANCH  21  22
HETATM   22  O   UNL     1     -10.325   7.303  73.773  1.00  0.00    -0.360 OA 
BRANCH  22  23
HETATM   23  C   UNL     1     -10.112   5.890  73.711  1.00  0.00    -0.221 C  
HETATM   24  C   UNL     1     -11.274   5.244  72.984  1.00  0.00    -0.387 C  
ENDBRANCH  22  23
ENDBRANCH  21  22
ENDBRANCH  20  21
ENDBRANCH  14  20
ENDBRANCH  13  14
ENDBRANCH  12  13
ENDBRANCH   6  12
ENDBRANCH   5   6
ENDBRANCH   4   5
ENDBRANCH   3   4
ENDBRANCH   2   3
TORSDOF 19
ENDMDL
MODEL      302
REMARK 921   NORMALIZED FREE ENERGY PREDICTED BY IDOCK:   -2.60 KCAL/MOL
REMARK 922        TOTAL FREE ENERGY PREDICTED BY IDOCK:   -6.74 KCAL/MOL
REMARK 923 INTER-LIGAND FREE ENERGY PREDICTED BY IDOCK:   -5.77 KCAL/MOL
REMARK 924 INTRA-LIGAND FREE ENERGY PREDICTED BY IDOCK:   -0.97 KCAL/MOL
REMARK 927      BINDING AFFINITY PREDICTED BY RF-SCORE:    0.00 PKD
ROOT
HETATM    1  C   UNL     1     -13.553   9.066  72.198  1.00  0.00    -0.523 C  
HETATM    2  C   UNL     1     -12.214   8.357  72.220  1.00  0.00    -0.387 C  
ENDROOT
BRANCH   2   3
HETATM    3  O   UNL     1     -11.652   8.345  70.905  1.00  0.00    -0.277 OA 
BRANCH   3   4
HETATM    4  C   UNL     1     -11.107   7.054  70.618  1.00  0.00    -0.272 C  
BRANCH   4   5
HETATM    5  C   UNL     1     -10.208   7.110  69.386  1.00  0.00    -0.189 C  
BRANCH   5   6
HETATM    6  P   UNL     1      -9.102   8.598  69.394  1.00  0.00    -0.151 P  
BRANCH   6   7
HETATM    7  C   UNL     1      -7.761   8.079  68.215  1.00  0.00    -0.117 C  
BRANCH   7   8
HETATM    8  C   UNL     1      -7.339   6.632  68.467  1.00  0.00    -0.087 C  
BRANCH   8   9
HETATM    9  O   UNL     1      -7.360   5.893  67.244  1.00  0.00    -0.074 OA 
BRANCH   9  10
HETATM   10  C   UNL     1      -7.387   6.784  66.127  1.00  0.00    -0.072 C  
HETATM   11  C   UNL     1      -7.585   5.991  64.851  1.00  0.00    -0.092 C  
ENDBRANCH   9  10
ENDBRANCH   8   9
ENDBRANCH   7   8
ENDBRANCH   6   7
BRANCH   6  12
HETATM   12  C   UNL     1     -10.033   9.733  68.256  1.00  0.00    -0.153 C  
BRANCH  12  13
HETATM   13  C   UNL     1      -9.752  11.204  68.524  1.00  0.00    -0.196 C  
BRANCH  13  14
HETATM   14  P   UNL     1     -10.095  12.286  67.060  1.00  0.00    -0.216 P  
BRANCH  14  15
HETATM   15  C   UNL     1     -10.461  11.040  65.733  1.00  0.00    -0.228 C  
BRANCH  15  16
HETATM   16  C   UNL     1     -10.222  11.634  64.343  1.00  0.00    -0.300 C  
BRANCH  16  17
HETATM   17  O   UNL     1      -9.891  10.600  63.410  1.00  0.00    -0.315 OA 
BRANCH  17  18
HETATM   18  C   UNL     1      -9.017   9.647  64.020  1.00  0.00    -0.223 C  
HETATM   19  C   UNL     1      -7.579  10.095  63.858  1.00  0.00    -0.128 C  
ENDBRANCH  17  18
ENDBRANCH  16  17
ENDBRANCH  15  16
ENDBRANCH  14  15
BRANCH  14  20
HETATM   20  C   UNL     1     -11.827  12.818  67.477  1.00  0.00    -0.343 C  
BRANCH  20  21
HETATM   21  C   UNL     1     -11.851  14.074  68.346  1.00  0.00    -0.362 C  
BRANCH  21  22
HETATM   22  O   UNL     1     -12.389  13.757  69.629  1.00  0.00    -0.316 OA 
BRANCH  22  23
HETATM   23  C   UNL     1     -12.720  14.949  70.348  1.00  0.00    -0.321 C  
HETATM   24  C   UNL     1     -11.524  15.379  71.173  1.00  0.00    -0.425 C  
ENDBRANCH  22  23
ENDBRANCH  21  22
ENDBRANCH  20  21
ENDBRANCH  14  20
ENDBRANCH  13  14
ENDBRANCH  12  13
ENDBRANCH   6  12
ENDBRANCH   5   6
ENDBRANCH   4   5
ENDBRANCH   3   4
ENDBRANCH   2   3
TORSDOF 19
ENDMDL
MODEL      303
REMARK 921   NORMALIZED FREE ENERGY PREDICTED BY IDOCK:   -2.59 KCAL/MOL
REMARK 922        TOTAL FREE ENERGY PREDICTED BY IDOCK:   -6.72 KCAL/MOL
REMARK 923 INTER-LIGAND FREE ENERGY PREDICTED BY IDOCK:   -5.74 KCAL/MOL
REMARK 924 INTRA-LIGAND FREE ENERGY PREDICTED BY IDOCK:   -0.98 KCAL/MOL
REMARK 927      BINDING AFFINITY PREDICTED BY RF-SCORE:    0.00 PKD
ROOT
HETATM    1  C   UNL     1     -10.562  19.810  66.816  1.00  0.00    -0.586 C  
HETATM    2  C   UNL     1     -10.356  19.718  68.314  1.00  0.00    -0.410 C  
ENDROOT
BRANCH   2   3
HETATM    3  O   UNL     1      -9.019  19.293  68.592  1.00  0.00    -0.359 OA 
BRANCH   3   4
HETATM    4  C   UNL     1      -8.329  19.016  67.371  1.00  0.00    -0.276 C  
BRANCH   4   5
HETATM    5  C   UNL     1      -7.106  18.140  67.628  1.00  0.00    -0.200 C  
BRANCH   5   6
HETATM    6  P   UNL     1      -7.330  16.418  66.978  1.00  0.00    -0.238 P  
BRANCH   6   7
HETATM    7  C   UNL     1      -7.007  15.395  68.497  1.00  0.00    -0.113 C  
BRANCH   7   8
HETATM    8  C   UNL     1      -6.167  14.164  68.160  1.00  0.00    -0.133 C  
BRANCH   8   9
HETATM    9  O   UNL     1      -6.978  13.174  67.521  1.00  0.00    -0.150 OA 
BRANCH   9  10
HETATM   10  C   UNL     1      -6.155  12.169  66.927  1.00  0.00    -0.010 C  
HETATM   11  C   UNL     1      -6.998  11.293  66.023  1.00  0.00     0.143 C  
ENDBRANCH   9  10
ENDBRANCH   8   9
ENDBRANCH   7   8
ENDBRANCH   6   7
BRANCH   6  12
HETATM   12  C   UNL     1      -9.182  16.289  66.957  1.00  0.00    -0.214 C  
BRANCH  12  13
HETATM   13  C   UNL     1      -9.735  15.500  68.135  1.00  0.00    -0.208 C  
BRANCH  13  14
HETATM   14  P   UNL     1     -11.584  15.377  68.120  1.00  0.00    -0.160 P  
BRANCH  14  15
HETATM   15  C   UNL     1     -11.854  13.658  67.472  1.00  0.00    -0.381 C  
BRANCH  15  16
HETATM   16  C   UNL     1     -10.830  13.314  66.388  1.00  0.00    -0.288 C  
BRANCH  16  17
HETATM   17  O   UNL     1      -9.993  12.236  66.817  1.00  0.00    -0.201 OA 
BRANCH  17  18
HETATM   18  C   UNL     1     -10.791  11.110  67.191  1.00  0.00    -0.273 C  
HETATM   19  C   UNL     1      -9.903   9.898  67.388  1.00  0.00    -0.223 C  
ENDBRANCH  17  18
ENDBRANCH  16  17
ENDBRANCH  15  16
ENDBRANCH  14  15
BRANCH  14  20
HETATM   20  C   UNL     1     -11.881  15.079  69.931  1.00  0.00    -0.324 C  
BRANCH  20  21
HETATM   21  C   UNL     1     -12.411  16.324  70.640  1.00  0.00     0.418 C  
BRANCH  21  22
HETATM   22  O   UNL     1     -11.638  16.570  71.815  1.00  0.00    -0.415 OA 
BRANCH  22  23
HETATM   23  C   UNL     1     -11.624  15.418  72.662  1.00  0.00    -0.401 C  
HETATM   24  C   UNL     1     -12.708  15.560  73.712  1.00  0.00    -0.735 C  
ENDBRANCH  22  23
ENDBRANCH  21  22
ENDBRANCH  20  21
ENDBRANCH  14  20
ENDBRANCH  13  14
ENDBRANCH  12  13
ENDBRANCH   6  12
ENDBRANCH   5   6
ENDBRANCH   4   5
ENDBRANCH   3   4
ENDBRANCH   2   3
TORSDOF 19
ENDMDL
MODEL      304
REMARK 921   NORMALIZED FREE ENERGY PREDICTED BY IDOCK:   -2.59 KCAL/MOL
REMARK 922        TOTAL FREE ENERGY PREDICTED BY IDOCK:   -6.71 KCAL/MOL
REMARK 923 INTER-LIGAND FREE ENERGY PREDICTED BY IDOCK:   -5.65 KCAL/MOL
REMARK 924 INTRA-LIGAND FREE ENERGY PREDICTED BY IDOCK:   -1.07 KCAL/MOL
REMARK 927      BINDING AFFINITY PREDICTED BY RF-SCORE:    0.00 PKD
ROOT
HETATM    1  C   UNL     1     -12.482  12.617  70.732  1.00  0.00    -0.357 C  
HETATM    2  C   UNL     1     -12.084  14.012  71.167  1.00  0.00    -0.274 C  
ENDROOT
BRANCH   2   3
HETATM    3  O   UNL     1     -13.105  14.943  70.798  1.00  0.00    -0.366 OA 
BRANCH   3   4
HETATM    4  C   UNL     1     -12.641  15.782  69.736  1.00  0.00     0.090 C  
BRANCH   4   5
HETATM    5  C   UNL     1     -11.198  15.442  69.372  1.00  0.00    -0.296 C  
BRANCH   5   6
HETATM    6  P   UNL     1     -10.976  15.200  67.547  1.00  0.00    -0.315 P  
BRANCH   6   7
HETATM    7  C   UNL     1     -10.356  16.871  67.016  1.00  0.00    -0.307 C  
BRANCH   7   8
HETATM    8  C   UNL     1      -9.739  17.626  68.193  1.00  0.00    -0.310 C  
BRANCH   8   9
HETATM    9  O   UNL     1      -8.315  17.650  68.071  1.00  0.00    -0.233 OA 
BRANCH   9  10
HETATM   10  C   UNL     1      -7.912  18.695  67.184  1.00  0.00    -0.242 C  
HETATM   11  C   UNL     1      -7.030  18.122  66.093  1.00  0.00    -0.314 C  
ENDBRANCH   9  10
ENDBRANCH   8   9
ENDBRANCH   7   8
ENDBRANCH   6   7
BRANCH   6  12
HETATM   12  C   UNL     1      -9.357  14.290  67.508  1.00  0.00    -0.199 C  
BRANCH  12  13
HETATM   13  C   UNL     1      -9.433  12.976  66.745  1.00  0.00    -0.250 C  
BRANCH  13  14
HETATM   14  P   UNL     1     -11.160  12.317  66.607  1.00  0.00    -0.333 P  
BRANCH  14  15
HETATM   15  C   UNL     1     -11.198  11.693  64.859  1.00  0.00    -0.222 C  
BRANCH  15  16
HETATM   16  C   UNL     1      -9.868  11.962  64.151  1.00  0.00    -0.207 C  
BRANCH  16  17
HETATM   17  O   UNL     1     -10.000  11.741  62.743  1.00  0.00    -0.229 OA 
BRANCH  17  18
HETATM   18  C   UNL     1      -9.361  10.516  62.374  1.00  0.00    -0.249 C  
HETATM   19  C   UNL     1      -7.859  10.666  62.498  1.00  0.00    -0.173 C  
ENDBRANCH  17  18
ENDBRANCH  16  17
ENDBRANCH  15  16
ENDBRANCH  14  15
BRANCH  14  20
HETATM   20  C   UNL     1     -10.942  10.707  67.510  1.00  0.00    -0.310 C  
BRANCH  20  21
HETATM   21  C   UNL     1      -9.521  10.532  68.042  1.00  0.00    -0.148 C  
BRANCH  21  22
HETATM   22  O   UNL     1      -9.037   9.235  67.694  1.00  0.00    -0.125 OA 
BRANCH  22  23
HETATM   23  C   UNL     1      -8.134   9.312  66.589  1.00  0.00    -0.108 C  
HETATM   24  C   UNL     1      -8.452   8.199  65.609  1.00  0.00    -0.170 C  
ENDBRANCH  22  23
ENDBRANCH  21  22
ENDBRANCH  20  21
ENDBRANCH  14  20
ENDBRANCH  13  14
ENDBRANCH  12  13
ENDBRANCH   6  12
ENDBRANCH   5   6
ENDBRANCH   4   5
ENDBRANCH   3   4
ENDBRANCH   2   3
TORSDOF 19
ENDMDL
MODEL      305
REMARK 921   NORMALIZED FREE ENERGY PREDICTED BY IDOCK:   -2.59 KCAL/MOL
REMARK 922        TOTAL FREE ENERGY PREDICTED BY IDOCK:   -6.71 KCAL/MOL
REMARK 923 INTER-LIGAND FREE ENERGY PREDICTED BY IDOCK:   -5.86 KCAL/MOL
REMARK 924 INTRA-LIGAND FREE ENERGY PREDICTED BY IDOCK:   -0.85 KCAL/MOL
REMARK 927      BINDING AFFINITY PREDICTED BY RF-SCORE:    0.00 PKD
ROOT
HETATM    1  C   UNL     1     -11.205  13.436  68.764  1.00  0.00    -0.315 C  
HETATM    2  C   UNL     1     -11.958  13.081  67.499  1.00  0.00    -0.306 C  
ENDROOT
BRANCH   2   3
HETATM    3  O   UNL     1     -11.981  11.660  67.333  1.00  0.00    -0.621 OA 
BRANCH   3   4
HETATM    4  C   UNL     1     -10.646  11.146  67.333  1.00  0.00    -0.234 C  
BRANCH   4   5
HETATM    5  C   UNL     1     -10.646   9.646  67.615  1.00  0.00    -0.275 C  
BRANCH   5   6
HETATM    6  P   UNL     1     -10.091   9.259  69.341  1.00  0.00    -0.218 P  
BRANCH   6   7
HETATM    7  C   UNL     1     -11.419  10.073  70.357  1.00  0.00    -0.314 C  
BRANCH   7   8
HETATM    8  C   UNL     1     -12.241   9.033  71.118  1.00  0.00    -0.275 C  
BRANCH   8   9
HETATM    9  O   UNL     1     -12.952   9.656  72.191  1.00  0.00    -0.403 OA 
BRANCH   9  10
HETATM   10  C   UNL     1     -14.251   9.078  72.325  1.00  0.00    -0.356 C  
HETATM   11  C   UNL     1     -14.262   7.703  71.689  1.00  0.00    -0.578 C  
ENDBRANCH   9  10
ENDBRANCH   8   9
ENDBRANCH   7   8
ENDBRANCH   6   7
BRANCH   6  12
HETATM   12  C   UNL     1     -10.665   7.501  69.509  1.00  0.00    -0.217 C  
BRANCH  12  13
HETATM   13  C   UNL     1      -9.561   6.488  69.242  1.00  0.00    -0.139 C  
BRANCH  13  14
HETATM   14  P   UNL     1      -9.905   4.828  69.988  1.00  0.00    -0.227 P  
BRANCH  14  15
HETATM   15  C   UNL     1      -9.167   3.677  68.733  1.00  0.00    -0.160 C  
BRANCH  15  16
HETATM   16  C   UNL     1      -8.914   4.400  67.408  1.00  0.00    -0.117 C  
BRANCH  16  17
HETATM   17  O   UNL     1      -8.089   3.601  66.554  1.00  0.00    -0.095 OA 
BRANCH  17  18
HETATM   18  C   UNL     1      -8.690   2.321  66.344  1.00  0.00    -0.120 C  
HETATM   19  C   UNL     1      -7.851   1.517  65.371  1.00  0.00    -0.071 C  
ENDBRANCH  17  18
ENDBRANCH  16  17
ENDBRANCH  15  16
ENDBRANCH  14  15
BRANCH  14  20
HETATM   20  C   UNL     1      -8.564   4.791  71.275  1.00  0.00    -0.118 C  
BRANCH  20  21
HETATM   21  C   UNL     1      -8.595   6.024  72.176  1.00  0.00    -0.128 C  
BRANCH  21  22
HETATM   22  O   UNL     1      -7.813   5.781  73.345  1.00  0.00    -0.108 OA 
BRANCH  22  23
HETATM   23  C   UNL     1      -8.369   6.458  74.475  1.00  0.00    -0.132 C  
HETATM   24  C   UNL     1      -9.875   6.529  74.319  1.00  0.00    -0.337 C  
ENDBRANCH  22  23
ENDBRANCH  21  22
ENDBRANCH  20  21
ENDBRANCH  14  20
ENDBRANCH  13  14
ENDBRANCH  12  13
ENDBRANCH   6  12
ENDBRANCH   5   6
ENDBRANCH   4   5
ENDBRANCH   3   4
ENDBRANCH   2   3
TORSDOF 19
ENDMDL
MODEL      306
REMARK 921   NORMALIZED FREE ENERGY PREDICTED BY IDOCK:   -2.58 KCAL/MOL
REMARK 922        TOTAL FREE ENERGY PREDICTED BY IDOCK:   -6.70 KCAL/MOL
REMARK 923 INTER-LIGAND FREE ENERGY PREDICTED BY IDOCK:   -5.51 KCAL/MOL
REMARK 924 INTRA-LIGAND FREE ENERGY PREDICTED BY IDOCK:   -1.18 KCAL/MOL
REMARK 927      BINDING AFFINITY PREDICTED BY RF-SCORE:    0.00 PKD
ROOT
HETATM    1  C   UNL     1     -10.733  11.523  63.630  1.00  0.00    -0.491 C  
HETATM    2  C   UNL     1      -9.941  11.254  64.892  1.00  0.00    -0.274 C  
ENDROOT
BRANCH   2   3
HETATM    3  O   UNL     1     -10.176   9.914  65.334  1.00  0.00    -0.273 OA 
BRANCH   3   4
HETATM    4  C   UNL     1      -8.997   9.125  65.153  1.00  0.00    -0.189 C  
BRANCH   4   5
HETATM    5  C   UNL     1      -8.762   8.220  66.359  1.00  0.00    -0.142 C  
BRANCH   5   6
HETATM    6  P   UNL     1     -10.268   7.230  66.795  1.00  0.00    -0.139 P  
BRANCH   6   7
HETATM    7  C   UNL     1      -9.601   5.495  66.768  1.00  0.00    -0.146 C  
BRANCH   7   8
HETATM    8  C   UNL     1     -10.428   4.604  65.841  1.00  0.00    -0.268 C  
BRANCH   8   9
HETATM    9  O   UNL     1      -9.735   4.401  64.606  1.00  0.00    -0.156 OA 
BRANCH   9  10
HETATM   10  C   UNL     1     -10.066   3.124  64.057  1.00  0.00    -0.175 C  
HETATM   11  C   UNL     1      -9.267   2.048  64.762  1.00  0.00    -0.128 C  
ENDBRANCH   9  10
ENDBRANCH   8   9
ENDBRANCH   7   8
ENDBRANCH   6   7
BRANCH   6  12
HETATM   12  C   UNL     1     -10.323   7.467  68.636  1.00  0.00    -0.198 C  
BRANCH  12  13
HETATM   13  C   UNL     1      -8.956   7.754  69.239  1.00  0.00    -0.139 C  
BRANCH  13  14
HETATM   14  P   UNL     1      -8.942   9.260  70.318  1.00  0.00    -0.254 P  
BRANCH  14  15
HETATM   15  C   UNL     1      -7.825  10.404  69.374  1.00  0.00    -0.161 C  
BRANCH  15  16
HETATM   16  C   UNL     1      -8.621  11.239  68.367  1.00  0.00    -0.155 C  
BRANCH  16  17
HETATM   17  O   UNL     1      -7.735  12.014  67.554  1.00  0.00    -0.135 OA 
BRANCH  17  18
HETATM   18  C   UNL     1      -7.731  13.376  67.988  1.00  0.00    -0.147 C  
HETATM   19  C   UNL     1      -8.887  14.120  67.351  1.00  0.00    -0.211 C  
ENDBRANCH  17  18
ENDBRANCH  16  17
ENDBRANCH  15  16
ENDBRANCH  14  15
BRANCH  14  20
HETATM   20  C   UNL     1     -10.592   9.979  69.856  1.00  0.00    -0.282 C  
BRANCH  20  21
HETATM   21  C   UNL     1     -11.638   9.773  70.950  1.00  0.00    -0.361 C  
BRANCH  21  22
HETATM   22  O   UNL     1     -11.086   8.972  71.994  1.00  0.00    -0.364 OA 
BRANCH  22  23
HETATM   23  C   UNL     1     -12.084   8.115  72.555  1.00  0.00    -0.318 C  
HETATM   24  C   UNL     1     -12.863   7.458  71.433  1.00  0.00    -0.408 C  
ENDBRANCH  22  23
ENDBRANCH  21  22
ENDBRANCH  20  21
ENDBRANCH  14  20
ENDBRANCH  13  14
ENDBRANCH  12  13
ENDBRANCH   6  12
ENDBRANCH   5   6
ENDBRANCH   4   5
ENDBRANCH   3   4
ENDBRANCH   2   3
TORSDOF 19
ENDMDL
MODEL      307
REMARK 921   NORMALIZED FREE ENERGY PREDICTED BY IDOCK:   -2.57 KCAL/MOL
REMARK 922        TOTAL FREE ENERGY PREDICTED BY IDOCK:   -6.68 KCAL/MOL
REMARK 923 INTER-LIGAND FREE ENERGY PREDICTED BY IDOCK:   -5.51 KCAL/MOL
REMARK 924 INTRA-LIGAND FREE ENERGY PREDICTED BY IDOCK:   -1.17 KCAL/MOL
REMARK 927      BINDING AFFINITY PREDICTED BY RF-SCORE:    0.00 PKD
ROOT
HETATM    1  C   UNL     1     -10.283   8.514  67.647  1.00  0.00    -0.297 C  
HETATM    2  C   UNL     1     -10.600   7.166  67.032  1.00  0.00    -0.343 C  
ENDROOT
BRANCH   2   3
HETATM    3  O   UNL     1     -11.150   6.299  68.028  1.00  0.00    -0.333 OA 
BRANCH   3   4
HETATM    4  C   UNL     1     -10.288   6.256  69.168  1.00  0.00    -0.216 C  
BRANCH   4   5
HETATM    5  C   UNL     1     -11.100   6.113  70.453  1.00  0.00    -0.352 C  
BRANCH   5   6
HETATM    6  P   UNL     1     -11.277   7.725  71.352  1.00  0.00    -0.260 P  
BRANCH   6   7
HETATM    7  C   UNL     1     -13.099   7.756  71.718  1.00  0.00    -0.322 C  
BRANCH   7   8
HETATM    8  C   UNL     1     -13.573   9.177  72.024  1.00  0.00    -0.459 C  
BRANCH   8   9
HETATM    9  O   UNL     1     -13.404  10.010  70.874  1.00  0.00    -0.382 OA 
BRANCH   9  10
HETATM   10  C   UNL     1     -12.543  11.109  71.182  1.00  0.00    -0.409 C  
HETATM   11  C   UNL     1     -11.769  11.508  69.942  1.00  0.00    -0.420 C  
ENDBRANCH   9  10
ENDBRANCH   8   9
ENDBRANCH   7   8
ENDBRANCH   6   7
BRANCH   6  12
HETATM   12  C   UNL     1     -10.672   7.253  73.043  1.00  0.00    -0.339 C  
BRANCH  12  13
HETATM   13  C   UNL     1     -10.154   5.824  73.110  1.00  0.00    -0.183 C  
BRANCH  13  14
HETATM   14  P   UNL     1      -8.306   5.717  73.024  1.00  0.00    -0.116 P  
BRANCH  14  15
HETATM   15  C   UNL     1      -7.790   7.367  73.702  1.00  0.00    -0.112 C  
BRANCH  15  16
HETATM   16  C   UNL     1      -6.877   8.102  72.718  1.00  0.00    -0.091 C  
BRANCH  16  17
HETATM   17  O   UNL     1      -7.617   9.091  71.995  1.00  0.00    -0.343 OA 
BRANCH  17  18
HETATM   18  C   UNL     1      -6.775   9.737  71.037  1.00  0.00     0.039 C  
HETATM   19  C   UNL     1      -7.234   9.388  69.637  1.00  0.00    -0.067 C  
ENDBRANCH  17  18
ENDBRANCH  16  17
ENDBRANCH  15  16
ENDBRANCH  14  15
BRANCH  14  20
HETATM   20  C   UNL     1      -7.995   4.654  74.517  1.00  0.00    -0.095 C  
BRANCH  20  21
HETATM   21  C   UNL     1      -7.719   3.199  74.141  1.00  0.00    -0.064 C  
BRANCH  21  22
HETATM   22  O   UNL     1      -8.952   2.534  73.867  1.00  0.00    -0.073 OA 
BRANCH  22  23
HETATM   23  C   UNL     1      -8.864   1.787  72.650  1.00  0.00    -0.062 C  
HETATM   24  C   UNL     1     -10.022   2.168  71.750  1.00  0.00    -0.209 C  
ENDBRANCH  22  23
ENDBRANCH  21  22
ENDBRANCH  20  21
ENDBRANCH  14  20
ENDBRANCH  13  14
ENDBRANCH  12  13
ENDBRANCH   6  12
ENDBRANCH   5   6
ENDBRANCH   4   5
ENDBRANCH   3   4
ENDBRANCH   2   3
TORSDOF 19
ENDMDL
MODEL      308
REMARK 921   NORMALIZED FREE ENERGY PREDICTED BY IDOCK:   -2.57 KCAL/MOL
REMARK 922        TOTAL FREE ENERGY PREDICTED BY IDOCK:   -6.67 KCAL/MOL
REMARK 923 INTER-LIGAND FREE ENERGY PREDICTED BY IDOCK:   -5.85 KCAL/MOL
REMARK 924 INTRA-LIGAND FREE ENERGY PREDICTED BY IDOCK:   -0.82 KCAL/MOL
REMARK 927      BINDING AFFINITY PREDICTED BY RF-SCORE:    0.00 PKD
ROOT
HETATM    1  C   UNL     1     -13.500   7.888  71.677  1.00  0.00    -0.386 C  
HETATM    2  C   UNL     1     -12.167   7.172  71.616  1.00  0.00    -0.350 C  
ENDROOT
BRANCH   2   3
HETATM    3  O   UNL     1     -12.026   6.520  70.351  1.00  0.00    -0.397 OA 
BRANCH   3   4
HETATM    4  C   UNL     1     -10.652   6.513  69.955  1.00  0.00    -0.233 C  
BRANCH   4   5
HETATM    5  C   UNL     1     -10.485   7.139  68.572  1.00  0.00    -0.204 C  
BRANCH   5   6
HETATM    6  P   UNL     1      -9.232   6.238  67.544  1.00  0.00    -0.107 P  
BRANCH   6   7
HETATM    7  C   UNL     1     -10.314   5.132  66.513  1.00  0.00    -0.291 C  
BRANCH   7   8
HETATM    8  C   UNL     1      -9.694   3.743  66.365  1.00  0.00    -0.122 C  
BRANCH   8   9
HETATM    9  O   UNL     1      -9.593   3.393  64.982  1.00  0.00    -0.157 OA 
BRANCH   9  10
HETATM   10  C   UNL     1     -10.695   3.935  64.253  1.00  0.00    -0.199 C  
HETATM   11  C   UNL     1     -10.526   3.629  62.778  1.00  0.00    -0.204 C  
ENDBRANCH   9  10
ENDBRANCH   8   9
ENDBRANCH   7   8
ENDBRANCH   6   7
BRANCH   6  12
HETATM   12  C   UNL     1      -8.853   7.519  66.253  1.00  0.00    -0.160 C  
BRANCH  12  13
HETATM   13  C   UNL     1      -9.755   8.740  66.346  1.00  0.00    -0.265 C  
BRANCH  13  14
HETATM   14  P   UNL     1      -9.085  10.207  65.434  1.00  0.00    -0.229 P  
BRANCH  14  15
HETATM   15  C   UNL     1     -10.293  11.539  65.897  1.00  0.00    -0.247 C  
BRANCH  15  16
HETATM   16  C   UNL     1     -11.110  11.985  64.681  1.00  0.00    -0.322 C  
BRANCH  16  17
HETATM   17  O   UNL     1     -10.435  13.039  63.988  1.00  0.00    -0.418 OA 
BRANCH  17  18
HETATM   18  C   UNL     1     -10.737  14.299  64.591  1.00  0.00    -0.365 C  
HETATM   19  C   UNL     1     -12.238  14.503  64.624  1.00  0.00    -0.474 C  
ENDBRANCH  17  18
ENDBRANCH  16  17
ENDBRANCH  15  16
ENDBRANCH  14  15
BRANCH  14  20
HETATM   20  C   UNL     1      -7.679  10.652  66.566  1.00  0.00    -0.137 C  
BRANCH  20  21
HETATM   21  C   UNL     1      -8.140  10.843  68.010  1.00  0.00    -0.119 C  
BRANCH  21  22
HETATM   22  O   UNL     1      -7.554  12.029  68.546  1.00  0.00    -0.118 OA 
BRANCH  22  23
HETATM   23  C   UNL     1      -6.993  12.831  67.504  1.00  0.00    -0.149 C  
HETATM   24  C   UNL     1      -7.690  14.177  67.482  1.00  0.00    -0.201 C  
ENDBRANCH  22  23
ENDBRANCH  21  22
ENDBRANCH  20  21
ENDBRANCH  14  20
ENDBRANCH  13  14
ENDBRANCH  12  13
ENDBRANCH   6  12
ENDBRANCH   5   6
ENDBRANCH   4   5
ENDBRANCH   3   4
ENDBRANCH   2   3
TORSDOF 19
ENDMDL
MODEL      309
REMARK 921   NORMALIZED FREE ENERGY PREDICTED BY IDOCK:   -2.57 KCAL/MOL
REMARK 922        TOTAL FREE ENERGY PREDICTED BY IDOCK:   -6.67 KCAL/MOL
REMARK 923 INTER-LIGAND FREE ENERGY PREDICTED BY IDOCK:   -5.47 KCAL/MOL
REMARK 924 INTRA-LIGAND FREE ENERGY PREDICTED BY IDOCK:   -1.20 KCAL/MOL
REMARK 927      BINDING AFFINITY PREDICTED BY RF-SCORE:    0.00 PKD
ROOT
HETATM    1  C   UNL     1      -6.284   5.634  72.133  1.00  0.00    -0.043 C  
HETATM    2  C   UNL     1      -7.619   5.165  71.592  1.00  0.00    -0.101 C  
ENDROOT
BRANCH   2   3
HETATM    3  O   UNL     1      -7.491   4.841  70.205  1.00  0.00    -0.050 OA 
BRANCH   3   4
HETATM    4  C   UNL     1      -8.513   5.501  69.453  1.00  0.00    -0.105 C  
BRANCH   4   5
HETATM    5  C   UNL     1      -9.863   5.381  70.155  1.00  0.00    -0.207 C  
BRANCH   5   6
HETATM    6  P   UNL     1     -10.879   6.923  69.984  1.00  0.00    -0.293 P  
BRANCH   6   7
HETATM    7  C   UNL     1     -10.179   7.989  71.336  1.00  0.00    -0.196 C  
BRANCH   7   8
HETATM    8  C   UNL     1     -11.202   9.024  71.804  1.00  0.00    -0.378 C  
BRANCH   8   9
HETATM    9  O   UNL     1     -12.325   8.371  72.402  1.00  0.00    -0.366 OA 
BRANCH   9  10
HETATM   10  C   UNL     1     -13.499   9.172  72.257  1.00  0.00    -0.486 C  
HETATM   11  C   UNL     1     -13.122  10.522  71.683  1.00  0.00    -0.551 C  
ENDBRANCH   9  10
ENDBRANCH   8   9
ENDBRANCH   7   8
ENDBRANCH   6   7
BRANCH   6  12
HETATM   12  C   UNL     1     -10.041   7.737  68.541  1.00  0.00    -0.199 C  
BRANCH  12  13
HETATM   13  C   UNL     1     -10.829   8.912  67.982  1.00  0.00    -0.016 C  
BRANCH  13  14
HETATM   14  P   UNL     1      -9.879  10.503  68.013  1.00  0.00    -0.155 P  
BRANCH  14  15
HETATM   15  C   UNL     1      -8.126   9.906  68.140  1.00  0.00    -0.104 C  
BRANCH  15  16
HETATM   16  C   UNL     1      -7.555  10.172  69.536  1.00  0.00    -0.139 C  
BRANCH  16  17
HETATM   17  O   UNL     1      -7.207   8.941  70.175  1.00  0.00    -0.049 OA 
BRANCH  17  18
HETATM   18  C   UNL     1      -5.803   8.905  70.447  1.00  0.00    -0.030 C  
HETATM   19  C   UNL     1      -5.525   9.565  71.781  1.00  0.00    -0.074 C  
ENDBRANCH  17  18
ENDBRANCH  16  17
ENDBRANCH  15  16
ENDBRANCH  14  15
BRANCH  14  20
HETATM   20  C   UNL     1      -9.936  10.925  66.204  1.00  0.00    -0.233 C  
BRANCH  20  21
HETATM   21  C   UNL     1     -10.529  12.310  65.953  1.00  0.00    -0.256 C  
BRANCH  21  22
HETATM   22  O   UNL     1     -11.919  12.301  66.276  1.00  0.00    -0.588 OA 
BRANCH  22  23
HETATM   23  C   UNL     1     -12.472  13.616  66.169  1.00  0.00    -0.395 C  
HETATM   24  C   UNL     1     -12.284  14.120  64.752  1.00  0.00    -0.457 C  
ENDBRANCH  22  23
ENDBRANCH  21  22
ENDBRANCH  20  21
ENDBRANCH  14  20
ENDBRANCH  13  14
ENDBRANCH  12  13
ENDBRANCH   6  12
ENDBRANCH   5   6
ENDBRANCH   4   5
ENDBRANCH   3   4
ENDBRANCH   2   3
TORSDOF 19
ENDMDL
MODEL      310
REMARK 921   NORMALIZED FREE ENERGY PREDICTED BY IDOCK:   -2.57 KCAL/MOL
REMARK 922        TOTAL FREE ENERGY PREDICTED BY IDOCK:   -6.67 KCAL/MOL
REMARK 923 INTER-LIGAND FREE ENERGY PREDICTED BY IDOCK:   -5.63 KCAL/MOL
REMARK 924 INTRA-LIGAND FREE ENERGY PREDICTED BY IDOCK:   -1.04 KCAL/MOL
REMARK 927      BINDING AFFINITY PREDICTED BY RF-SCORE:    0.00 PKD
ROOT
HETATM    1  C   UNL     1      -6.438  10.483  62.405  1.00  0.00    -0.153 C  
HETATM    2  C   UNL     1      -7.154   9.749  63.520  1.00  0.00    -0.115 C  
ENDROOT
BRANCH   2   3
HETATM    3  O   UNL     1      -8.567   9.908  63.373  1.00  0.00    -0.169 OA 
BRANCH   3   4
HETATM    4  C   UNL     1      -9.205   9.816  64.650  1.00  0.00    -0.255 C  
BRANCH   4   5
HETATM    5  C   UNL     1      -8.217   9.346  65.714  1.00  0.00    -0.116 C  
BRANCH   5   6
HETATM    6  P   UNL     1      -8.543  10.127  67.364  1.00  0.00    -0.120 P  
BRANCH   6   7
HETATM    7  C   UNL     1     -10.114  11.065  67.035  1.00  0.00    -0.196 C  
BRANCH   7   8
HETATM    8  C   UNL     1      -9.831  12.553  66.830  1.00  0.00    -0.229 C  
BRANCH   8   9
HETATM    9  O   UNL     1     -10.470  13.016  65.637  1.00  0.00    -0.271 OA 
BRANCH   9  10
HETATM   10  C   UNL     1     -11.815  12.538  65.580  1.00  0.00    -0.439 C  
HETATM   11  C   UNL     1     -12.766  13.711  65.458  1.00  0.00    -0.514 C  
ENDBRANCH   9  10
ENDBRANCH   8   9
ENDBRANCH   7   8
ENDBRANCH   6   7
BRANCH   6  12
HETATM   12  C   UNL     1      -9.276   8.695  68.292  1.00  0.00    -0.137 C  
BRANCH  12  13
HETATM   13  C   UNL     1      -9.259   7.400  67.494  1.00  0.00    -0.130 C  
BRANCH  13  14
HETATM   14  P   UNL     1     -10.775   6.367  67.755  1.00  0.00    -0.345 P  
BRANCH  14  15
HETATM   15  C   UNL     1     -10.653   5.140  66.367  1.00  0.00    -0.276 C  
BRANCH  15  16
HETATM   16  C   UNL     1      -9.715   3.988  66.734  1.00  0.00    -0.190 C  
BRANCH  16  17
HETATM   17  O   UNL     1      -8.517   4.054  65.954  1.00  0.00    -0.108 OA 
BRANCH  17  18
HETATM   18  C   UNL     1      -8.810   3.806  64.577  1.00  0.00    -0.120 C  
HETATM   19  C   UNL     1      -9.219   2.359  64.395  1.00  0.00    -0.130 C  
ENDBRANCH  17  18
ENDBRANCH  16  17
ENDBRANCH  15  16
ENDBRANCH  14  15
BRANCH  14  20
HETATM   20  C   UNL     1     -10.180   5.308  69.163  1.00  0.00    -0.210 C  
BRANCH  20  21
HETATM   21  C   UNL     1     -10.665   5.823  70.516  1.00  0.00    -0.291 C  
BRANCH  21  22
HETATM   22  O   UNL     1     -11.667   6.820  70.318  1.00  0.00    -0.363 OA 
BRANCH  22  23
HETATM   23  C   UNL     1     -12.207   7.250  71.570  1.00  0.00    -0.352 C  
HETATM   24  C   UNL     1     -12.285   8.764  71.584  1.00  0.00    -0.399 C  
ENDBRANCH  22  23
ENDBRANCH  21  22
ENDBRANCH  20  21
ENDBRANCH  14  20
ENDBRANCH  13  14
ENDBRANCH  12  13
ENDBRANCH   6  12
ENDBRANCH   5   6
ENDBRANCH   4   5
ENDBRANCH   3   4
ENDBRANCH   2   3
TORSDOF 19
ENDMDL
MODEL      311
REMARK 921   NORMALIZED FREE ENERGY PREDICTED BY IDOCK:   -2.56 KCAL/MOL
REMARK 922        TOTAL FREE ENERGY PREDICTED BY IDOCK:   -6.65 KCAL/MOL
REMARK 923 INTER-LIGAND FREE ENERGY PREDICTED BY IDOCK:   -5.42 KCAL/MOL
REMARK 924 INTRA-LIGAND FREE ENERGY PREDICTED BY IDOCK:   -1.23 KCAL/MOL
REMARK 927      BINDING AFFINITY PREDICTED BY RF-SCORE:    0.00 PKD
ROOT
HETATM    1  C   UNL     1     -12.312  12.454  63.348  1.00  0.00    -0.603 C  
HETATM    2  C   UNL     1     -11.092  11.646  63.741  1.00  0.00    -0.420 C  
ENDROOT
BRANCH   2   3
HETATM    3  O   UNL     1     -11.043  11.508  65.163  1.00  0.00    -0.271 OA 
BRANCH   3   4
HETATM    4  C   UNL     1     -10.675  12.752  65.764  1.00  0.00    -0.272 C  
BRANCH   4   5
HETATM    5  C   UNL     1     -11.577  13.064  66.955  1.00  0.00    -0.360 C  
BRANCH   5   6
HETATM    6  P   UNL     1     -10.702  12.837  68.574  1.00  0.00    -0.232 P  
BRANCH   6   7
HETATM    7  C   UNL     1     -11.506  11.292  69.225  1.00  0.00    -0.301 C  
BRANCH   7   8
HETATM    8  C   UNL     1     -12.394  11.603  70.430  1.00  0.00    -0.288 C  
BRANCH   8   9
HETATM    9  O   UNL     1     -12.047  10.756  71.528  1.00  0.00    -0.269 OA 
BRANCH   9  10
HETATM   10  C   UNL     1     -11.554   9.503  71.051  1.00  0.00    -0.344 C  
HETATM   11  C   UNL     1     -12.457   8.386  71.532  1.00  0.00    -0.342 C  
ENDBRANCH   9  10
ENDBRANCH   8   9
ENDBRANCH   7   8
ENDBRANCH   6   7
BRANCH   6  12
HETATM   12  C   UNL     1      -9.102  12.086  68.005  1.00  0.00    -0.188 C  
BRANCH  12  13
HETATM   13  C   UNL     1      -8.956  10.625  68.404  1.00  0.00    -0.149 C  
BRANCH  13  14
HETATM   14  P   UNL     1      -7.448  10.301  69.430  1.00  0.00    -0.154 P  
BRANCH  14  15
HETATM   15  C   UNL     1      -8.000   8.886  70.497  1.00  0.00    -0.126 C  
BRANCH  15  16
HETATM   16  C   UNL     1      -7.036   8.672  71.667  1.00  0.00    -0.085 C  
BRANCH  16  17
HETATM   17  O   UNL     1      -7.455   7.558  72.460  1.00  0.00    -0.074 OA 
BRANCH  17  18
HETATM   18  C   UNL     1      -8.864   7.355  72.321  1.00  0.00    -0.124 C  
HETATM   19  C   UNL     1      -9.540   7.528  73.665  1.00  0.00    -0.347 C  
ENDBRANCH  17  18
ENDBRANCH  16  17
ENDBRANCH  15  16
ENDBRANCH  14  15
BRANCH  14  20
HETATM   20  C   UNL     1      -6.428   9.373  68.182  1.00  0.00    -0.054 C  
BRANCH  20  21
HETATM   21  C   UNL     1      -7.285   8.765  67.075  1.00  0.00    -0.079 C  
BRANCH  21  22
HETATM   22  O   UNL     1      -6.696   9.046  65.805  1.00  0.00    -0.070 OA 
BRANCH  22  23
HETATM   23  C   UNL     1      -7.371   8.332  64.765  1.00  0.00    -0.088 C  
HETATM   24  C   UNL     1      -8.316   9.275  64.048  1.00  0.00    -0.179 C  
ENDBRANCH  22  23
ENDBRANCH  21  22
ENDBRANCH  20  21
ENDBRANCH  14  20
ENDBRANCH  13  14
ENDBRANCH  12  13
ENDBRANCH   6  12
ENDBRANCH   5   6
ENDBRANCH   4   5
ENDBRANCH   3   4
ENDBRANCH   2   3
TORSDOF 19
ENDMDL
MODEL      312
REMARK 921   NORMALIZED FREE ENERGY PREDICTED BY IDOCK:   -2.55 KCAL/MOL
REMARK 922        TOTAL FREE ENERGY PREDICTED BY IDOCK:   -6.63 KCAL/MOL
REMARK 923 INTER-LIGAND FREE ENERGY PREDICTED BY IDOCK:   -5.53 KCAL/MOL
REMARK 924 INTRA-LIGAND FREE ENERGY PREDICTED BY IDOCK:   -1.10 KCAL/MOL
REMARK 927      BINDING AFFINITY PREDICTED BY RF-SCORE:    0.00 PKD
ROOT
HETATM    1  C   UNL     1     -13.918  14.065  72.345  1.00  0.00    -0.622 C  
HETATM    2  C   UNL     1     -12.890  13.349  71.493  1.00  0.00    -0.337 C  
ENDROOT
BRANCH   2   3
HETATM    3  O   UNL     1     -12.960  11.941  71.733  1.00  0.00    -0.414 OA 
BRANCH   3   4
HETATM    4  C   UNL     1     -12.482  11.226  70.590  1.00  0.00    -0.348 C  
BRANCH   4   5
HETATM    5  C   UNL     1     -11.496  10.138  71.008  1.00  0.00    -0.354 C  
BRANCH   5   6
HETATM    6  P   UNL     1     -10.303   9.717  69.652  1.00  0.00    -0.274 P  
BRANCH   6   7
HETATM    7  C   UNL     1     -10.432   7.863  69.597  1.00  0.00    -0.226 C  
BRANCH   7   8
HETATM    8  C   UNL     1      -9.373   7.268  68.669  1.00  0.00    -0.138 C  
BRANCH   8   9
HETATM    9  O   UNL     1      -8.080   7.359  69.275  1.00  0.00    -0.119 OA 
BRANCH   9  10
HETATM   10  C   UNL     1      -7.492   6.061  69.383  1.00  0.00    -0.088 C  
HETATM   11  C   UNL     1      -5.998   6.162  69.156  1.00  0.00    -0.024 C  
ENDBRANCH   9  10
ENDBRANCH   8   9
ENDBRANCH   7   8
ENDBRANCH   6   7
BRANCH   6  12
HETATM   12  C   UNL     1     -11.327  10.101  68.152  1.00  0.00    -0.099 C  
BRANCH  12  13
HETATM   13  C   UNL     1     -10.568  10.904  67.105  1.00  0.00    -0.255 C  
BRANCH  13  14
HETATM   14  P   UNL     1      -8.732  10.861  67.350  1.00  0.00    -0.131 P  
BRANCH  14  15
HETATM   15  C   UNL     1      -8.133  10.273  65.694  1.00  0.00    -0.155 C  
BRANCH  15  16
HETATM   16  C   UNL     1      -9.306   9.864  64.800  1.00  0.00    -0.278 C  
BRANCH  16  17
HETATM   17  O   UNL     1      -9.298  10.626  63.588  1.00  0.00    -0.232 OA 
BRANCH  17  18
HETATM   18  C   UNL     1     -10.577  11.226  63.373  1.00  0.00    -0.324 C  
HETATM   19  C   UNL     1     -10.592  12.622  63.961  1.00  0.00    -0.457 C  
ENDBRANCH  17  18
ENDBRANCH  16  17
ENDBRANCH  15  16
ENDBRANCH  14  15
BRANCH  14  20
HETATM   20  C   UNL     1      -8.363  12.676  67.190  1.00  0.00    -0.172 C  
BRANCH  20  21
HETATM   21  C   UNL     1      -8.093  13.331  68.543  1.00  0.00    -0.094 C  
BRANCH  21  22
HETATM   22  O   UNL     1      -6.772  13.006  68.976  1.00  0.00    -0.097 OA 
BRANCH  22  23
HETATM   23  C   UNL     1      -6.288  13.983  69.902  1.00  0.00    -0.128 C  
HETATM   24  C   UNL     1      -6.684  15.364  69.419  1.00  0.00    -0.166 C  
ENDBRANCH  22  23
ENDBRANCH  21  22
ENDBRANCH  20  21
ENDBRANCH  14  20
ENDBRANCH  13  14
ENDBRANCH  12  13
ENDBRANCH   6  12
ENDBRANCH   5   6
ENDBRANCH   4   5
ENDBRANCH   3   4
ENDBRANCH   2   3
TORSDOF 19
ENDMDL
MODEL      313
REMARK 921   NORMALIZED FREE ENERGY PREDICTED BY IDOCK:   -2.55 KCAL/MOL
REMARK 922        TOTAL FREE ENERGY PREDICTED BY IDOCK:   -6.63 KCAL/MOL
REMARK 923 INTER-LIGAND FREE ENERGY PREDICTED BY IDOCK:   -5.60 KCAL/MOL
REMARK 924 INTRA-LIGAND FREE ENERGY PREDICTED BY IDOCK:   -1.03 KCAL/MOL
REMARK 927      BINDING AFFINITY PREDICTED BY RF-SCORE:    0.00 PKD
ROOT
HETATM    1  C   UNL     1      -6.423   4.253  67.065  1.00  0.00    -0.042 C  
HETATM    2  C   UNL     1      -7.187   4.110  68.365  1.00  0.00    -0.056 C  
ENDROOT
BRANCH   2   3
HETATM    3  O   UNL     1      -7.175   5.352  69.072  1.00  0.00    -0.059 OA 
BRANCH   3   4
HETATM    4  C   UNL     1      -8.342   5.461  69.890  1.00  0.00    -0.100 C  
BRANCH   4   5
HETATM    5  C   UNL     1      -9.607   5.335  69.045  1.00  0.00    -0.144 C  
BRANCH   5   6
HETATM    6  P   UNL     1     -10.825   6.687  69.403  1.00  0.00    -0.316 P  
BRANCH   6   7
HETATM    7  C   UNL     1     -10.816   6.722  71.262  1.00  0.00    -0.232 C  
BRANCH   7   8
HETATM    8  C   UNL     1     -12.237   6.652  71.819  1.00  0.00    -0.353 C  
BRANCH   8   9
HETATM    9  O   UNL     1     -13.159   7.226  70.888  1.00  0.00    -0.220 OA 
BRANCH   9  10
HETATM   10  C   UNL     1     -13.461   8.573  71.258  1.00  0.00    -0.132 C  
HETATM   11  C   UNL     1     -14.247   8.579  72.553  1.00  0.00    -0.322 C  
ENDBRANCH   9  10
ENDBRANCH   8   9
ENDBRANCH   7   8
ENDBRANCH   6   7
BRANCH   6  12
HETATM   12  C   UNL     1      -9.778   8.191  69.102  1.00  0.00    -0.163 C  
BRANCH  12  13
HETATM   13  C   UNL     1     -10.553   9.492  69.242  1.00  0.00    -0.220 C  
BRANCH  13  14
HETATM   14  P   UNL     1     -10.589  10.486  67.678  1.00  0.00    -0.290 P  
BRANCH  14  15
HETATM   15  C   UNL     1     -11.063  12.170  68.299  1.00  0.00    -0.243 C  
BRANCH  15  16
HETATM   16  C   UNL     1     -11.744  12.988  67.199  1.00  0.00    -0.382 C  
BRANCH  16  17
HETATM   17  O   UNL     1     -11.876  12.208  66.007  1.00  0.00    -0.522 OA 
BRANCH  17  18
HETATM   18  C   UNL     1     -12.758  12.855  65.087  1.00  0.00    -0.374 C  
HETATM   19  C   UNL     1     -12.029  13.131  63.789  1.00  0.00    -0.572 C  
ENDBRANCH  17  18
ENDBRANCH  16  17
ENDBRANCH  15  16
ENDBRANCH  14  15
BRANCH  14  20
HETATM   20  C   UNL     1      -8.763  10.741  67.441  1.00  0.00    -0.126 C  
BRANCH  20  21
HETATM   21  C   UNL     1      -8.309  10.377  66.029  1.00  0.00    -0.149 C  
BRANCH  21  22
HETATM   22  O   UNL     1      -9.288   9.542  65.412  1.00  0.00    -0.229 OA 
BRANCH  22  23
HETATM   23  C   UNL     1      -8.955   9.298  64.043  1.00  0.00    -0.064 C  
HETATM   24  C   UNL     1      -9.659  10.319  63.171  1.00  0.00    -0.295 C  
ENDBRANCH  22  23
ENDBRANCH  21  22
ENDBRANCH  20  21
ENDBRANCH  14  20
ENDBRANCH  13  14
ENDBRANCH  12  13
ENDBRANCH   6  12
ENDBRANCH   5   6
ENDBRANCH   4   5
ENDBRANCH   3   4
ENDBRANCH   2   3
TORSDOF 19
ENDMDL
MODEL      314
REMARK 921   NORMALIZED FREE ENERGY PREDICTED BY IDOCK:   -2.55 KCAL/MOL
REMARK 922        TOTAL FREE ENERGY PREDICTED BY IDOCK:   -6.62 KCAL/MOL
REMARK 923 INTER-LIGAND FREE ENERGY PREDICTED BY IDOCK:   -5.49 KCAL/MOL
REMARK 924 INTRA-LIGAND FREE ENERGY PREDICTED BY IDOCK:   -1.13 KCAL/MOL
REMARK 927      BINDING AFFINITY PREDICTED BY RF-SCORE:    0.00 PKD
ROOT
HETATM    1  C   UNL     1     -12.187  13.840  66.641  1.00  0.00    -0.454 C  
HETATM    2  C   UNL     1     -11.901  13.169  67.968  1.00  0.00    -0.358 C  
ENDROOT
BRANCH   2   3
HETATM    3  O   UNL     1     -12.139  11.763  67.860  1.00  0.00    -0.592 OA 
BRANCH   3   4
HETATM    4  C   UNL     1     -11.833  11.119  69.100  1.00  0.00    -0.350 C  
BRANCH   4   5
HETATM    5  C   UNL     1     -10.367  10.698  69.142  1.00  0.00    -0.221 C  
BRANCH   5   6
HETATM    6  P   UNL     1     -10.050   9.395  70.423  1.00  0.00    -0.285 P  
BRANCH   6   7
HETATM    7  C   UNL     1     -11.756   9.112  71.105  1.00  0.00    -0.313 C  
BRANCH   7   8
HETATM    8  C   UNL     1     -11.726   8.109  72.258  1.00  0.00    -0.379 C  
BRANCH   8   9
HETATM    9  O   UNL     1     -12.216   6.840  71.818  1.00  0.00    -0.333 OA 
BRANCH   9  10
HETATM   10  C   UNL     1     -11.575   5.785  72.538  1.00  0.00    -0.267 C  
HETATM   11  C   UNL     1     -10.443   5.219  71.705  1.00  0.00    -0.280 C  
ENDBRANCH   9  10
ENDBRANCH   8   9
ENDBRANCH   7   8
ENDBRANCH   6   7
BRANCH   6  12
HETATM   12  C   UNL     1      -9.933   7.878  69.358  1.00  0.00    -0.189 C  
BRANCH  12  13
HETATM   13  C   UNL     1      -9.506   8.186  67.931  1.00  0.00    -0.146 C  
BRANCH  13  14
HETATM   14  P   UNL     1      -7.669   8.129  67.696  1.00  0.00    -0.104 P  
BRANCH  14  15
HETATM   15  C   UNL     1      -7.414   6.415  67.031  1.00  0.00    -0.084 C  
BRANCH  15  16
HETATM   16  C   UNL     1      -7.551   5.370  68.141  1.00  0.00    -0.081 C  
BRANCH  16  17
HETATM   17  O   UNL     1      -8.156   4.178  67.630  1.00  0.00    -0.093 OA 
BRANCH  17  18
HETATM   18  C   UNL     1      -9.387   4.490  66.974  1.00  0.00    -0.146 C  
HETATM   19  C   UNL     1      -9.501   3.690  65.693  1.00  0.00    -0.156 C  
ENDBRANCH  17  18
ENDBRANCH  16  17
ENDBRANCH  15  16
ENDBRANCH  14  15
BRANCH  14  20
HETATM   20  C   UNL     1      -7.535   9.102  66.118  1.00  0.00    -0.095 C  
BRANCH  20  21
HETATM   21  C   UNL     1      -8.784   8.967  65.250  1.00  0.00    -0.186 C  
BRANCH  21  22
HETATM   22  O   UNL     1      -8.409   8.940  63.873  1.00  0.00    -0.168 OA 
BRANCH  22  23
HETATM   23  C   UNL     1      -7.312   8.046  63.664  1.00  0.00    -0.106 C  
HETATM   24  C   UNL     1      -7.848   6.688  63.257  1.00  0.00    -0.108 C  
ENDBRANCH  22  23
ENDBRANCH  21  22
ENDBRANCH  20  21
ENDBRANCH  14  20
ENDBRANCH  13  14
ENDBRANCH  12  13
ENDBRANCH   6  12
ENDBRANCH   5   6
ENDBRANCH   4   5
ENDBRANCH   3   4
ENDBRANCH   2   3
TORSDOF 19
ENDMDL
MODEL      315
REMARK 921   NORMALIZED FREE ENERGY PREDICTED BY IDOCK:   -2.54 KCAL/MOL
REMARK 922        TOTAL FREE ENERGY PREDICTED BY IDOCK:   -6.62 KCAL/MOL
REMARK 923 INTER-LIGAND FREE ENERGY PREDICTED BY IDOCK:   -5.60 KCAL/MOL
REMARK 924 INTRA-LIGAND FREE ENERGY PREDICTED BY IDOCK:   -1.02 KCAL/MOL
REMARK 927      BINDING AFFINITY PREDICTED BY RF-SCORE:    0.00 PKD
ROOT
HETATM    1  C   UNL     1      -8.687   8.097  70.485  1.00  0.00    -0.135 C  
HETATM    2  C   UNL     1      -7.566   8.434  71.445  1.00  0.00    -0.097 C  
ENDROOT
BRANCH   2   3
HETATM    3  O   UNL     1      -6.807   9.533  70.935  1.00  0.00    -0.137 OA 
BRANCH   3   4
HETATM    4  C   UNL     1      -7.564  10.232  69.943  1.00  0.00    -0.143 C  
BRANCH   4   5
HETATM    5  C   UNL     1      -6.642  11.021  69.017  1.00  0.00    -0.065 C  
BRANCH   5   6
HETATM    6  P   UNL     1      -7.403  11.309  67.351  1.00  0.00    -0.131 P  
BRANCH   6   7
HETATM    7  C   UNL     1      -7.525   9.577  66.686  1.00  0.00    -0.093 C  
BRANCH   7   8
HETATM    8  C   UNL     1      -8.980   9.114  66.627  1.00  0.00    -0.137 C  
BRANCH   8   9
HETATM    9  O   UNL     1      -9.114   8.025  65.711  1.00  0.00    -0.147 OA 
BRANCH   9  10
HETATM   10  C   UNL     1      -7.927   7.229  65.712  1.00  0.00    -0.122 C  
HETATM   11  C   UNL     1      -8.125   6.025  64.814  1.00  0.00    -0.132 C  
ENDBRANCH   9  10
ENDBRANCH   8   9
ENDBRANCH   7   8
ENDBRANCH   6   7
BRANCH   6  12
HETATM   12  C   UNL     1      -9.185  11.543  67.816  1.00  0.00    -0.165 C  
BRANCH  12  13
HETATM   13  C   UNL     1      -9.517  12.980  68.191  1.00  0.00    -0.218 C  
BRANCH  13  14
HETATM   14  P   UNL     1     -11.338  13.326  68.196  1.00  0.00    -0.334 P  
BRANCH  14  15
HETATM   15  C   UNL     1     -11.876  12.600  66.575  1.00  0.00    -0.396 C  
BRANCH  15  16
HETATM   16  C   UNL     1     -12.529  13.663  65.688  1.00  0.00    -0.496 C  
BRANCH  16  17
HETATM   17  O   UNL     1     -11.659  14.012  64.607  1.00  0.00    -0.359 OA 
BRANCH  17  18
HETATM   18  C   UNL     1     -11.488  15.430  64.549  1.00  0.00    -0.311 C  
HETATM   19  C   UNL     1     -10.335  15.842  65.442  1.00  0.00    -0.399 C  
ENDBRANCH  17  18
ENDBRANCH  16  17
ENDBRANCH  15  16
ENDBRANCH  14  15
BRANCH  14  20
HETATM   20  C   UNL     1     -11.898  11.977  69.346  1.00  0.00    -0.324 C  
BRANCH  20  21
HETATM   21  C   UNL     1     -12.273  12.513  70.726  1.00  0.00    -0.240 C  
BRANCH  21  22
HETATM   22  O   UNL     1     -13.096  13.671  70.582  1.00  0.00    -0.135 OA 
BRANCH  22  23
HETATM   23  C   UNL     1     -13.213  14.366  71.826  1.00  0.00    -0.358 C  
HETATM   24  C   UNL     1     -12.561  15.729  71.696  1.00  0.00    -0.521 C  
ENDBRANCH  22  23
ENDBRANCH  21  22
ENDBRANCH  20  21
ENDBRANCH  14  20
ENDBRANCH  13  14
ENDBRANCH  12  13
ENDBRANCH   6  12
ENDBRANCH   5   6
ENDBRANCH   4   5
ENDBRANCH   3   4
ENDBRANCH   2   3
TORSDOF 19
ENDMDL
MODEL      316
REMARK 921   NORMALIZED FREE ENERGY PREDICTED BY IDOCK:   -2.54 KCAL/MOL
REMARK 922        TOTAL FREE ENERGY PREDICTED BY IDOCK:   -6.61 KCAL/MOL
REMARK 923 INTER-LIGAND FREE ENERGY PREDICTED BY IDOCK:   -5.58 KCAL/MOL
REMARK 924 INTRA-LIGAND FREE ENERGY PREDICTED BY IDOCK:   -1.03 KCAL/MOL
REMARK 927      BINDING AFFINITY PREDICTED BY RF-SCORE:    0.00 PKD
ROOT
HETATM    1  C   UNL     1     -12.234  13.334  63.465  1.00  0.00    -0.513 C  
HETATM    2  C   UNL     1     -12.502  11.854  63.644  1.00  0.00    -0.470 C  
ENDROOT
BRANCH   2   3
HETATM    3  O   UNL     1     -11.282  11.122  63.504  1.00  0.00    -0.253 OA 
BRANCH   3   4
HETATM    4  C   UNL     1     -10.164  11.992  63.698  1.00  0.00    -0.444 C  
BRANCH   4   5
HETATM    5  C   UNL     1      -9.379  11.594  64.945  1.00  0.00    -0.008 C  
BRANCH   5   6
HETATM    6  P   UNL     1      -9.951   9.974  65.643  1.00  0.00    -0.199 P  
BRANCH   6   7
HETATM    7  C   UNL     1      -8.337   9.106  65.956  1.00  0.00    -0.121 C  
BRANCH   7   8
HETATM    8  C   UNL     1      -7.163  10.080  65.856  1.00  0.00    -0.115 C  
BRANCH   8   9
HETATM    9  O   UNL     1      -6.069   9.463  65.171  1.00  0.00    -0.065 OA 
BRANCH   9  10
HETATM   10  C   UNL     1      -5.650  10.277  64.074  1.00  0.00    -0.143 C  
HETATM   11  C   UNL     1      -6.523   9.992  62.869  1.00  0.00    -0.128 C  
ENDBRANCH   9  10
ENDBRANCH   8   9
ENDBRANCH   7   8
ENDBRANCH   6   7
BRANCH   6  12
HETATM   12  C   UNL     1     -10.336  10.462  67.393  1.00  0.00    -0.228 C  
BRANCH  12  13
HETATM   13  C   UNL     1     -11.275  11.656  67.483  1.00  0.00    -0.293 C  
BRANCH  13  14
HETATM   14  P   UNL     1     -10.411  13.223  67.962  1.00  0.00    -0.251 P  
BRANCH  14  15
HETATM   15  C   UNL     1     -10.899  14.371  66.587  1.00  0.00    -0.304 C  
BRANCH  15  16
HETATM   16  C   UNL     1      -9.680  15.113  66.033  1.00  0.00    -0.330 C  
BRANCH  16  17
HETATM   17  O   UNL     1      -9.968  15.644  64.736  1.00  0.00    -0.249 OA 
BRANCH  17  18
HETATM   18  C   UNL     1     -11.143  16.457  64.785  1.00  0.00    -0.235 C  
HETATM   19  C   UNL     1     -10.812  17.796  65.410  1.00  0.00     0.151 C  
ENDBRANCH  17  18
ENDBRANCH  16  17
ENDBRANCH  15  16
ENDBRANCH  14  15
BRANCH  14  20
HETATM   20  C   UNL     1     -11.569  13.814  69.290  1.00  0.00    -0.312 C  
BRANCH  20  21
HETATM   21  C   UNL     1     -11.882  15.303  69.162  1.00  0.00    -0.321 C  
BRANCH  21  22
HETATM   22  O   UNL     1     -11.105  16.038  70.108  1.00  0.00    -0.320 OA 
BRANCH  22  23
HETATM   23  C   UNL     1      -9.886  16.494  69.517  1.00  0.00    -0.080 C  
HETATM   24  C   UNL     1     -10.108  17.871  68.921  1.00  0.00    -0.349 C  
ENDBRANCH  22  23
ENDBRANCH  21  22
ENDBRANCH  20  21
ENDBRANCH  14  20
ENDBRANCH  13  14
ENDBRANCH  12  13
ENDBRANCH   6  12
ENDBRANCH   5   6
ENDBRANCH   4   5
ENDBRANCH   3   4
ENDBRANCH   2   3
TORSDOF 19
ENDMDL
MODEL      317
REMARK 921   NORMALIZED FREE ENERGY PREDICTED BY IDOCK:   -2.54 KCAL/MOL
REMARK 922        TOTAL FREE ENERGY PREDICTED BY IDOCK:   -6.61 KCAL/MOL
REMARK 923 INTER-LIGAND FREE ENERGY PREDICTED BY IDOCK:   -5.68 KCAL/MOL
REMARK 924 INTRA-LIGAND FREE ENERGY PREDICTED BY IDOCK:   -0.93 KCAL/MOL
REMARK 927      BINDING AFFINITY PREDICTED BY RF-SCORE:    0.00 PKD
ROOT
HETATM    1  C   UNL     1      -9.047   9.172  64.886  1.00  0.00    -0.190 C  
HETATM    2  C   UNL     1      -8.528   8.250  65.969  1.00  0.00    -0.139 C  
ENDROOT
BRANCH   2   3
HETATM    3  O   UNL     1      -8.020   9.023  67.060  1.00  0.00    -0.101 OA 
BRANCH   3   4
HETATM    4  C   UNL     1      -6.969   9.879  66.605  1.00  0.00    -0.086 C  
BRANCH   4   5
HETATM    5  C   UNL     1      -7.363  11.346  66.758  1.00  0.00    -0.135 C  
BRANCH   5   6
HETATM    6  P   UNL     1      -8.356  11.646  68.295  1.00  0.00    -0.153 P  
BRANCH   6   7
HETATM    7  C   UNL     1      -7.942  13.419  68.673  1.00  0.00    -0.056 C  
BRANCH   7   8
HETATM    8  C   UNL     1      -8.713  14.369  67.757  1.00  0.00    -0.180 C  
BRANCH   8   9
HETATM    9  O   UNL     1      -8.753  15.679  68.328  1.00  0.00    -0.168 OA 
BRANCH   9  10
HETATM   10  C   UNL     1      -9.347  16.601  67.412  1.00  0.00    -0.222 C  
HETATM   11  C   UNL     1     -10.841  16.358  67.348  1.00  0.00    -0.219 C  
ENDBRANCH   9  10
ENDBRANCH   8   9
ENDBRANCH   7   8
ENDBRANCH   6   7
BRANCH   6  12
HETATM   12  C   UNL     1     -10.047  11.914  67.574  1.00  0.00    -0.193 C  
BRANCH  12  13
HETATM   13  C   UNL     1     -11.006  10.771  67.870  1.00  0.00    -0.289 C  
BRANCH  13  14
HETATM   14  P   UNL     1     -12.219  11.172  69.212  1.00  0.00     0.090 P  
BRANCH  14  15
HETATM   15  C   UNL     1     -11.502  10.268  70.666  1.00  0.00    -0.349 C  
BRANCH  15  16
HETATM   16  C   UNL     1     -12.608   9.692  71.554  1.00  0.00    -0.391 C  
BRANCH  16  17
HETATM   17  O   UNL     1     -12.648   8.266  71.435  1.00  0.00    -0.305 OA 
BRANCH  17  18
HETATM   18  C   UNL     1     -11.422   7.697  71.901  1.00  0.00    -0.272 C  
HETATM   19  C   UNL     1     -11.270   6.293  71.352  1.00  0.00    -0.349 C  
ENDBRANCH  17  18
ENDBRANCH  16  17
ENDBRANCH  15  16
ENDBRANCH  14  15
BRANCH  14  20
HETATM   20  C   UNL     1     -11.666  12.901  69.613  1.00  0.00    -0.299 C  
BRANCH  20  21
HETATM   21  C   UNL     1     -12.407  13.479  70.817  1.00  0.00    -0.363 C  
BRANCH  21  22
HETATM   22  O   UNL     1     -12.674  14.864  70.594  1.00  0.00    -0.340 OA 
BRANCH  22  23
HETATM   23  C   UNL     1     -12.309  15.640  71.738  1.00  0.00    -0.427 C  
HETATM   24  C   UNL     1     -13.538  15.875  72.592  1.00  0.00    -0.539 C  
ENDBRANCH  22  23
ENDBRANCH  21  22
ENDBRANCH  20  21
ENDBRANCH  14  20
ENDBRANCH  13  14
ENDBRANCH  12  13
ENDBRANCH   6  12
ENDBRANCH   5   6
ENDBRANCH   4   5
ENDBRANCH   3   4
ENDBRANCH   2   3
TORSDOF 19
ENDMDL
MODEL      318
REMARK 921   NORMALIZED FREE ENERGY PREDICTED BY IDOCK:   -2.53 KCAL/MOL
REMARK 922        TOTAL FREE ENERGY PREDICTED BY IDOCK:   -6.59 KCAL/MOL
REMARK 923 INTER-LIGAND FREE ENERGY PREDICTED BY IDOCK:   -5.76 KCAL/MOL
REMARK 924 INTRA-LIGAND FREE ENERGY PREDICTED BY IDOCK:   -0.82 KCAL/MOL
REMARK 927      BINDING AFFINITY PREDICTED BY RF-SCORE:    0.00 PKD
ROOT
HETATM    1  C   UNL     1     -11.932  12.084  68.721  1.00  0.00    -0.299 C  
HETATM    2  C   UNL     1     -11.462  12.262  67.293  1.00  0.00    -0.357 C  
ENDROOT
BRANCH   2   3
HETATM    3  O   UNL     1     -10.662  11.142  66.904  1.00  0.00    -0.249 OA 
BRANCH   3   4
HETATM    4  C   UNL     1      -9.309  11.556  66.694  1.00  0.00    -0.189 C  
BRANCH   4   5
HETATM    5  C   UNL     1      -8.713  12.126  67.978  1.00  0.00    -0.180 C  
BRANCH   5   6
HETATM    6  P   UNL     1      -6.863  12.011  68.002  1.00  0.00    -0.100 P  
BRANCH   6   7
HETATM    7  C   UNL     1      -6.505  11.329  66.309  1.00  0.00    -0.034 C  
BRANCH   7   8
HETATM    8  C   UNL     1      -6.274   9.819  66.365  1.00  0.00    -0.068 C  
BRANCH   8   9
HETATM    9  O   UNL     1      -6.536   9.234  65.086  1.00  0.00    -0.068 OA 
BRANCH   9  10
HETATM   10  C   UNL     1      -6.777   7.832  65.223  1.00  0.00    -0.047 C  
HETATM   11  C   UNL     1      -8.042   7.613  66.028  1.00  0.00    -0.118 C  
ENDBRANCH   9  10
ENDBRANCH   8   9
ENDBRANCH   7   8
ENDBRANCH   6   7
BRANCH   6  12
HETATM   12  C   UNL     1      -6.397  13.780  67.681  1.00  0.00    -0.128 C  
BRANCH  12  13
HETATM   13  C   UNL     1      -7.604  14.693  67.527  1.00  0.00    -0.194 C  
BRANCH  13  14
HETATM   14  P   UNL     1      -7.495  16.220  68.570  1.00  0.00    -0.200 P  
BRANCH  14  15
HETATM   15  C   UNL     1      -7.267  17.548  67.292  1.00  0.00    -0.170 C  
BRANCH  15  16
HETATM   16  C   UNL     1      -8.531  18.402  67.157  1.00  0.00    -0.254 C  
BRANCH  16  17
HETATM   17  O   UNL     1      -9.101  18.245  65.854  1.00  0.00    -0.503 OA 
BRANCH  17  18
HETATM   18  C   UNL     1     -10.486  18.599  65.875  1.00  0.00    -0.356 C  
HETATM   19  C   UNL     1     -10.796  19.374  67.139  1.00  0.00    -0.561 C  
ENDBRANCH  17  18
ENDBRANCH  16  17
ENDBRANCH  15  16
ENDBRANCH  14  15
BRANCH  14  20
HETATM   20  C   UNL     1      -9.299  16.457  68.950  1.00  0.00    -0.249 C  
BRANCH  20  21
HETATM   21  C   UNL     1      -9.940  15.191  69.516  1.00  0.00    -0.201 C  
BRANCH  21  22
HETATM   22  O   UNL     1     -10.889  15.545  70.522  1.00  0.00    -0.316 OA 
BRANCH  22  23
HETATM   23  C   UNL     1     -12.216  15.541  69.989  1.00  0.00    -0.355 C  
HETATM   24  C   UNL     1     -13.200  15.272  71.110  1.00  0.00    -0.567 C  
ENDBRANCH  22  23
ENDBRANCH  21  22
ENDBRANCH  20  21
ENDBRANCH  14  20
ENDBRANCH  13  14
ENDBRANCH  12  13
ENDBRANCH   6  12
ENDBRANCH   5   6
ENDBRANCH   4   5
ENDBRANCH   3   4
ENDBRANCH   2   3
TORSDOF 19
ENDMDL
MODEL      319
REMARK 921   NORMALIZED FREE ENERGY PREDICTED BY IDOCK:   -2.52 KCAL/MOL
REMARK 922        TOTAL FREE ENERGY PREDICTED BY IDOCK:   -6.57 KCAL/MOL
REMARK 923 INTER-LIGAND FREE ENERGY PREDICTED BY IDOCK:   -5.43 KCAL/MOL
REMARK 924 INTRA-LIGAND FREE ENERGY PREDICTED BY IDOCK:   -1.14 KCAL/MOL
REMARK 927      BINDING AFFINITY PREDICTED BY RF-SCORE:    0.00 PKD
ROOT
HETATM    1  C   UNL     1      -7.646   5.329  72.489  1.00  0.00    -0.097 C  
HETATM    2  C   UNL     1      -8.328   4.734  71.274  1.00  0.00    -0.106 C  
ENDROOT
BRANCH   2   3
HETATM    3  O   UNL     1      -7.552   5.005  70.104  1.00  0.00    -0.058 OA 
BRANCH   3   4
HETATM    4  C   UNL     1      -8.196   6.005  69.310  1.00  0.00    -0.115 C  
BRANCH   4   5
HETATM    5  C   UNL     1      -9.714   5.866  69.394  1.00  0.00    -0.152 C  
BRANCH   5   6
HETATM    6  P   UNL     1     -10.564   7.512  69.467  1.00  0.00    -0.185 P  
BRANCH   6   7
HETATM    7  C   UNL     1      -9.890   8.217  71.050  1.00  0.00    -0.179 C  
BRANCH   7   8
HETATM    8  C   UNL     1     -10.812   9.302  71.604  1.00  0.00    -0.348 C  
BRANCH   8   9
HETATM    9  O   UNL     1     -11.969   8.709  72.200  1.00  0.00    -0.343 OA 
BRANCH   9  10
HETATM   10  C   UNL     1     -13.098   9.573  72.057  1.00  0.00    -0.438 C  
HETATM   11  C   UNL     1     -12.738  10.729  71.146  1.00  0.00    -0.532 C  
ENDBRANCH   9  10
ENDBRANCH   8   9
ENDBRANCH   7   8
ENDBRANCH   6   7
BRANCH   6  12
HETATM   12  C   UNL     1      -9.530   8.494  68.276  1.00  0.00    -0.134 C  
BRANCH  12  13
HETATM   13  C   UNL     1     -10.349   9.472  67.447  1.00  0.00    -0.258 C  
BRANCH  13  14
HETATM   14  P   UNL     1      -9.312  10.773  66.630  1.00  0.00    -0.174 P  
BRANCH  14  15
HETATM   15  C   UNL     1     -10.252  12.324  67.026  1.00  0.00    -0.215 C  
BRANCH  15  16
HETATM   16  C   UNL     1     -10.453  13.179  65.771  1.00  0.00    -0.283 C  
BRANCH  16  17
HETATM   17  O   UNL     1     -11.171  14.374  66.093  1.00  0.00    -0.324 OA 
BRANCH  17  18
HETATM   18  C   UNL     1     -10.774  15.438  65.224  1.00  0.00    -0.421 C  
HETATM   19  C   UNL     1      -9.967  16.458  65.999  1.00  0.00    -0.369 C  
ENDBRANCH  17  18
ENDBRANCH  16  17
ENDBRANCH  15  16
ENDBRANCH  14  15
BRANCH  14  20
HETATM   20  C   UNL     1      -7.947  10.905  67.885  1.00  0.00    -0.111 C  
BRANCH  20  21
HETATM   21  C   UNL     1      -6.578  11.077  67.231  1.00  0.00    -0.078 C  
BRANCH  21  22
HETATM   22  O   UNL     1      -6.403  12.438  66.837  1.00  0.00    -0.169 OA 
BRANCH  22  23
HETATM   23  C   UNL     1      -6.550  13.312  67.959  1.00  0.00    -0.129 C  
HETATM   24  C   UNL     1      -7.179  14.611  67.498  1.00  0.00    -0.216 C  
ENDBRANCH  22  23
ENDBRANCH  21  22
ENDBRANCH  20  21
ENDBRANCH  14  20
ENDBRANCH  13  14
ENDBRANCH  12  13
ENDBRANCH   6  12
ENDBRANCH   5   6
ENDBRANCH   4   5
ENDBRANCH   3   4
ENDBRANCH   2   3
TORSDOF 19
ENDMDL
MODEL      320
REMARK 921   NORMALIZED FREE ENERGY PREDICTED BY IDOCK:   -2.51 KCAL/MOL
REMARK 922        TOTAL FREE ENERGY PREDICTED BY IDOCK:   -6.54 KCAL/MOL
REMARK 923 INTER-LIGAND FREE ENERGY PREDICTED BY IDOCK:   -5.53 KCAL/MOL
REMARK 924 INTRA-LIGAND FREE ENERGY PREDICTED BY IDOCK:   -1.01 KCAL/MOL
REMARK 927      BINDING AFFINITY PREDICTED BY RF-SCORE:    0.00 PKD
ROOT
HETATM    1  C   UNL     1      -5.577  13.486  68.465  1.00  0.00    -0.089 C  
HETATM    2  C   UNL     1      -6.558  14.289  69.292  1.00  0.00    -0.120 C  
ENDROOT
BRANCH   2   3
HETATM    3  O   UNL     1      -7.860  14.215  68.705  1.00  0.00    -0.135 OA 
BRANCH   3   4
HETATM    4  C   UNL     1      -7.828  13.372  67.550  1.00  0.00    -0.176 C  
BRANCH   4   5
HETATM    5  C   UNL     1      -9.241  12.973  67.133  1.00  0.00    -0.226 C  
BRANCH   5   6
HETATM    6  P   UNL     1     -10.501  13.415  68.420  1.00  0.00    -0.236 P  
BRANCH   6   7
HETATM    7  C   UNL     1     -11.745  14.368  67.420  1.00  0.00    -0.397 C  
BRANCH   7   8
HETATM    8  C   UNL     1     -12.533  13.439  66.496  1.00  0.00    -0.195 C  
BRANCH   8   9
HETATM    9  O   UNL     1     -12.999  14.161  65.353  1.00  0.00    -0.706 OA 
BRANCH   9  10
HETATM   10  C   UNL     1     -11.932  14.357  64.423  1.00  0.00    -0.452 C  
HETATM   11  C   UNL     1     -11.716  15.841  64.206  1.00  0.00    -0.162 C  
ENDBRANCH   9  10
ENDBRANCH   8   9
ENDBRANCH   7   8
ENDBRANCH   6   7
BRANCH   6  12
HETATM   12  C   UNL     1     -11.436  11.817  68.558  1.00  0.00    -0.296 C  
BRANCH  12  13
HETATM   13  C   UNL     1     -11.344  11.192  69.943  1.00  0.00    -0.268 C  
BRANCH  13  14
HETATM   14  P   UNL     1     -11.111   9.355  69.896  1.00  0.00    -0.101 P  
BRANCH  14  15
HETATM   15  C   UNL     1      -9.877   9.154  68.523  1.00  0.00    -0.164 C  
BRANCH  15  16
HETATM   16  C   UNL     1     -10.528   8.525  67.288  1.00  0.00    -0.296 C  
BRANCH  16  17
HETATM   17  O   UNL     1      -9.540   8.252  66.290  1.00  0.00    -0.220 OA 
BRANCH  17  18
HETATM   18  C   UNL     1      -8.925   9.468  65.858  1.00  0.00    -0.173 C  
HETATM   19  C   UNL     1      -9.784  10.126  64.799  1.00  0.00    -0.389 C  
ENDBRANCH  17  18
ENDBRANCH  16  17
ENDBRANCH  15  16
ENDBRANCH  14  15
BRANCH  14  20
HETATM   20  C   UNL     1      -9.986   9.155  71.361  1.00  0.00    -0.303 C  
BRANCH  20  21
HETATM   21  C   UNL     1      -8.807   8.232  71.061  1.00  0.00    -0.150 C  
BRANCH  21  22
HETATM   22  O   UNL     1      -7.600   8.826  71.540  1.00  0.00    -0.128 OA 
BRANCH  22  23
HETATM   23  C   UNL     1      -7.187   8.215  72.765  1.00  0.00    -0.107 C  
HETATM   24  C   UNL     1      -5.700   7.927  72.699  1.00  0.00    -0.041 C  
ENDBRANCH  22  23
ENDBRANCH  21  22
ENDBRANCH  20  21
ENDBRANCH  14  20
ENDBRANCH  13  14
ENDBRANCH  12  13
ENDBRANCH   6  12
ENDBRANCH   5   6
ENDBRANCH   4   5
ENDBRANCH   3   4
ENDBRANCH   2   3
TORSDOF 19
ENDMDL
MODEL      321
REMARK 921   NORMALIZED FREE ENERGY PREDICTED BY IDOCK:   -2.48 KCAL/MOL
REMARK 922        TOTAL FREE ENERGY PREDICTED BY IDOCK:   -6.48 KCAL/MOL
REMARK 923 INTER-LIGAND FREE ENERGY PREDICTED BY IDOCK:   -5.71 KCAL/MOL
REMARK 924 INTRA-LIGAND FREE ENERGY PREDICTED BY IDOCK:   -0.77 KCAL/MOL
REMARK 927      BINDING AFFINITY PREDICTED BY RF-SCORE:    0.00 PKD
ROOT
HETATM    1  C   UNL     1      -6.593   7.601  64.166  1.00  0.00    -0.052 C  
HETATM    2  C   UNL     1      -7.604   8.399  64.964  1.00  0.00    -0.094 C  
ENDROOT
BRANCH   2   3
HETATM    3  O   UNL     1      -7.881   7.731  66.198  1.00  0.00    -0.089 OA 
BRANCH   3   4
HETATM    4  C   UNL     1      -7.592   8.598  67.298  1.00  0.00    -0.093 C  
BRANCH   4   5
HETATM    5  C   UNL     1      -7.105   9.957  66.802  1.00  0.00    -0.090 C  
BRANCH   5   6
HETATM    6  P   UNL     1      -7.409  11.304  68.040  1.00  0.00    -0.104 P  
BRANCH   6   7
HETATM    7  C   UNL     1      -5.971  12.440  67.724  1.00  0.00    -0.111 C  
BRANCH   7   8
HETATM    8  C   UNL     1      -6.272  13.855  68.216  1.00  0.00    -0.111 C  
BRANCH   8   9
HETATM    9  O   UNL     1      -5.879  14.813  67.231  1.00  0.00    -0.303 OA 
BRANCH   9  10
HETATM   10  C   UNL     1      -5.708  16.099  67.831  1.00  0.00    -0.131 C  
HETATM   11  C   UNL     1      -7.049  16.613  68.314  1.00  0.00    -0.160 C  
ENDBRANCH   9  10
ENDBRANCH   8   9
ENDBRANCH   7   8
ENDBRANCH   6   7
BRANCH   6  12
HETATM   12  C   UNL     1      -8.723  12.288  67.173  1.00  0.00    -0.193 C  
BRANCH  12  13
HETATM   13  C   UNL     1      -9.925  11.448  66.770  1.00  0.00    -0.208 C  
BRANCH  13  14
HETATM   14  P   UNL     1     -11.481  11.942  67.646  1.00  0.00    -0.284 P  
BRANCH  14  15
HETATM   15  C   UNL     1     -11.071  11.554  69.415  1.00  0.00    -0.226 C  
BRANCH  15  16
HETATM   16  C   UNL     1     -11.601  10.173  69.810  1.00  0.00    -0.182 C  
BRANCH  16  17
HETATM   17  O   UNL     1     -12.671  10.302  70.751  1.00  0.00    -0.335 OA 
BRANCH  17  18
HETATM   18  C   UNL     1     -12.541   9.321  71.784  1.00  0.00    -0.382 C  
HETATM   19  C   UNL     1     -13.910   8.798  72.166  1.00  0.00    -0.513 C  
ENDBRANCH  17  18
ENDBRANCH  16  17
ENDBRANCH  15  16
ENDBRANCH  14  15
BRANCH  14  20
HETATM   20  C   UNL     1     -11.245  13.786  67.666  1.00  0.00    -0.293 C  
BRANCH  20  21
HETATM   21  C   UNL     1     -11.185  14.375  66.259  1.00  0.00    -0.338 C  
BRANCH  21  22
HETATM   22  O   UNL     1     -12.427  14.149  65.592  1.00  0.00    -0.457 OA 
BRANCH  22  23
HETATM   23  C   UNL     1     -12.245  14.135  64.174  1.00  0.00    -0.390 C  
HETATM   24  C   UNL     1     -11.883  12.731  63.733  1.00  0.00    -0.572 C  
ENDBRANCH  22  23
ENDBRANCH  21  22
ENDBRANCH  20  21
ENDBRANCH  14  20
ENDBRANCH  13  14
ENDBRANCH  12  13
ENDBRANCH   6  12
ENDBRANCH   5   6
ENDBRANCH   4   5
ENDBRANCH   3   4
ENDBRANCH   2   3
TORSDOF 19
ENDMDL
MODEL      322
REMARK 921   NORMALIZED FREE ENERGY PREDICTED BY IDOCK:   -2.47 KCAL/MOL
REMARK 922        TOTAL FREE ENERGY PREDICTED BY IDOCK:   -6.47 KCAL/MOL
REMARK 923 INTER-LIGAND FREE ENERGY PREDICTED BY IDOCK:   -5.13 KCAL/MOL
REMARK 924 INTRA-LIGAND FREE ENERGY PREDICTED BY IDOCK:   -1.34 KCAL/MOL
REMARK 927      BINDING AFFINITY PREDICTED BY RF-SCORE:    0.00 PKD
ROOT
HETATM    1  C   UNL     1     -12.110  13.351  63.363  1.00  0.00    -0.437 C  
HETATM    2  C   UNL     1     -12.432  11.945  63.825  1.00  0.00    -0.427 C  
ENDROOT
BRANCH   2   3
HETATM    3  O   UNL     1     -11.257  11.134  63.761  1.00  0.00    -0.275 OA 
BRANCH   3   4
HETATM    4  C   UNL     1     -10.090  11.957  63.837  1.00  0.00    -0.370 C  
BRANCH   4   5
HETATM    5  C   UNL     1      -9.234  11.571  65.040  1.00  0.00    -0.019 C  
BRANCH   5   6
HETATM    6  P   UNL     1      -9.355   9.763  65.434  1.00  0.00    -0.279 P  
BRANCH   6   7
HETATM    7  C   UNL     1      -7.606   9.364  65.921  1.00  0.00    -0.099 C  
BRANCH   7   8
HETATM    8  C   UNL     1      -7.390   9.581  67.418  1.00  0.00    -0.087 C  
BRANCH   8   9
HETATM    9  O   UNL     1      -6.109  10.172  67.650  1.00  0.00    -0.056 OA 
BRANCH   9  10
HETATM   10  C   UNL     1      -6.260  11.517  68.109  1.00  0.00    -0.045 C  
HETATM   11  C   UNL     1      -5.349  12.429  67.314  1.00  0.00    -0.072 C  
ENDBRANCH   9  10
ENDBRANCH   8   9
ENDBRANCH   7   8
ENDBRANCH   6   7
BRANCH   6  12
HETATM   12  C   UNL     1     -10.099   9.824  67.134  1.00  0.00    -0.211 C  
BRANCH  12  13
HETATM   13  C   UNL     1     -10.904  11.090  67.386  1.00  0.00    -0.274 C  
BRANCH  13  14
HETATM   14  P   UNL     1     -10.157  12.177  68.687  1.00  0.00    -0.022 P  
BRANCH  14  15
HETATM   15  C   UNL     1     -10.256  13.854  67.896  1.00  0.00    -0.241 C  
BRANCH  15  16
HETATM   16  C   UNL     1      -8.893  14.551  67.917  1.00  0.00    -0.176 C  
BRANCH  16  17
HETATM   17  O   UNL     1      -9.052  15.961  67.739  1.00  0.00    -0.194 OA 
BRANCH  17  18
HETATM   18  C   UNL     1      -9.366  16.255  66.375  1.00  0.00    -0.292 C  
HETATM   19  C   UNL     1      -9.741  17.717  66.241  1.00  0.00    -0.275 C  
ENDBRANCH  17  18
ENDBRANCH  16  17
ENDBRANCH  15  16
ENDBRANCH  14  15
BRANCH  14  20
HETATM   20  C   UNL     1     -11.603  12.293  69.850  1.00  0.00    -0.203 C  
BRANCH  20  21
HETATM   21  C   UNL     1     -12.509  13.480  69.527  1.00  0.00    -0.005 C  
BRANCH  21  22
HETATM   22  O   UNL     1     -13.005  14.047  70.740  1.00  0.00    -0.304 OA 
BRANCH  22  23
HETATM   23  C   UNL     1     -11.951  14.678  71.472  1.00  0.00    -0.334 C  
HETATM   24  C   UNL     1     -11.730  16.072  70.921  1.00  0.00    -0.438 C  
ENDBRANCH  22  23
ENDBRANCH  21  22
ENDBRANCH  20  21
ENDBRANCH  14  20
ENDBRANCH  13  14
ENDBRANCH  12  13
ENDBRANCH   6  12
ENDBRANCH   5   6
ENDBRANCH   4   5
ENDBRANCH   3   4
ENDBRANCH   2   3
TORSDOF 19
ENDMDL
MODEL      323
REMARK 921   NORMALIZED FREE ENERGY PREDICTED BY IDOCK:   -2.47 KCAL/MOL
REMARK 922        TOTAL FREE ENERGY PREDICTED BY IDOCK:   -6.46 KCAL/MOL
REMARK 923 INTER-LIGAND FREE ENERGY PREDICTED BY IDOCK:   -5.62 KCAL/MOL
REMARK 924 INTRA-LIGAND FREE ENERGY PREDICTED BY IDOCK:   -0.84 KCAL/MOL
REMARK 927      BINDING AFFINITY PREDICTED BY RF-SCORE:    0.00 PKD
ROOT
HETATM    1  C   UNL     1      -5.473  12.682  67.895  1.00  0.00    -0.099 C  
HETATM    2  C   UNL     1      -6.427  12.432  69.044  1.00  0.00    -0.097 C  
ENDROOT
BRANCH   2   3
HETATM    3  O   UNL     1      -7.576  11.723  68.572  1.00  0.00    -0.118 OA 
BRANCH   3   4
HETATM    4  C   UNL     1      -7.392  11.350  67.203  1.00  0.00    -0.138 C  
BRANCH   4   5
HETATM    5  C   UNL     1      -8.729  11.328  66.466  1.00  0.00    -0.178 C  
BRANCH   5   6
HETATM    6  P   UNL     1     -10.114  11.986  67.508  1.00  0.00    -0.200 P  
BRANCH   6   7
HETATM    7  C   UNL     1     -11.425  12.314  66.231  1.00  0.00    -0.380 C  
BRANCH   7   8
HETATM    8  C   UNL     1     -11.025  13.475  65.320  1.00  0.00    -0.295 C  
BRANCH   8   9
HETATM    9  O   UNL     1     -11.557  14.703  65.824  1.00  0.00    -0.351 OA 
BRANCH   9  10
HETATM   10  C   UNL     1     -10.812  15.811  65.317  1.00  0.00    -0.395 C  
HETATM   11  C   UNL     1      -9.520  15.951  66.094  1.00  0.00    -0.375 C  
ENDBRANCH   9  10
ENDBRANCH   8   9
ENDBRANCH   7   8
ENDBRANCH   6   7
BRANCH   6  12
HETATM   12  C   UNL     1     -10.808  10.411  68.204  1.00  0.00    -0.264 C  
BRANCH  12  13
HETATM   13  C   UNL     1     -10.793  10.377  69.725  1.00  0.00    -0.292 C  
BRANCH  13  14
HETATM   14  P   UNL     1     -10.971   8.667  70.415  1.00  0.00    -0.197 P  
BRANCH  14  15
HETATM   15  C   UNL     1      -9.951   7.663  69.232  1.00  0.00    -0.180 C  
BRANCH  15  16
HETATM   16  C   UNL     1     -10.799   6.584  68.555  1.00  0.00    -0.288 C  
BRANCH  16  17
HETATM   17  O   UNL     1     -10.520   5.301  69.125  1.00  0.00    -0.219 OA 
BRANCH  17  18
HETATM   18  C   UNL     1      -9.558   4.606  68.329  1.00  0.00    -0.149 C  
HETATM   19  C   UNL     1      -9.339   3.216  68.890  1.00  0.00    -0.231 C  
ENDBRANCH  17  18
ENDBRANCH  16  17
ENDBRANCH  15  16
ENDBRANCH  14  15
BRANCH  14  20
HETATM   20  C   UNL     1      -9.777   8.787  71.834  1.00  0.00    -0.316 C  
BRANCH  20  21
HETATM   21  C   UNL     1      -8.976   7.501  72.025  1.00  0.00    -0.125 C  
BRANCH  21  22
HETATM   22  O   UNL     1      -9.090   7.062  73.378  1.00  0.00    -0.132 OA 
BRANCH  22  23
HETATM   23  C   UNL     1     -10.371   6.470  73.611  1.00  0.00    -0.304 C  
HETATM   24  C   UNL     1     -10.197   5.234  74.472  1.00  0.00    -0.299 C  
ENDBRANCH  22  23
ENDBRANCH  21  22
ENDBRANCH  20  21
ENDBRANCH  14  20
ENDBRANCH  13  14
ENDBRANCH  12  13
ENDBRANCH   6  12
ENDBRANCH   5   6
ENDBRANCH   4   5
ENDBRANCH   3   4
ENDBRANCH   2   3
TORSDOF 19
ENDMDL
MODEL      324
REMARK 921   NORMALIZED FREE ENERGY PREDICTED BY IDOCK:   -2.46 KCAL/MOL
REMARK 922        TOTAL FREE ENERGY PREDICTED BY IDOCK:   -6.44 KCAL/MOL
REMARK 923 INTER-LIGAND FREE ENERGY PREDICTED BY IDOCK:   -5.46 KCAL/MOL
REMARK 924 INTRA-LIGAND FREE ENERGY PREDICTED BY IDOCK:   -0.98 KCAL/MOL
REMARK 927      BINDING AFFINITY PREDICTED BY RF-SCORE:    0.00 PKD
ROOT
HETATM    1  C   UNL     1     -10.825  11.524  65.790  1.00  0.00    -0.319 C  
HETATM    2  C   UNL     1     -10.028  10.517  66.594  1.00  0.00    -0.211 C  
ENDROOT
BRANCH   2   3
HETATM    3  O   UNL     1     -10.449   9.191  66.260  1.00  0.00    -0.185 OA 
BRANCH   3   4
HETATM    4  C   UNL     1      -9.339   8.293  66.330  1.00  0.00    -0.213 C  
BRANCH   4   5
HETATM    5  C   UNL     1      -9.299   7.588  67.684  1.00  0.00    -0.137 C  
BRANCH   5   6
HETATM    6  P   UNL     1     -10.356   6.065  67.710  1.00  0.00    -0.258 P  
BRANCH   6   7
HETATM    7  C   UNL     1      -9.200   4.816  68.460  1.00  0.00    -0.124 C  
BRANCH   7   8
HETATM    8  C   UNL     1      -9.399   3.438  67.830  1.00  0.00    -0.191 C  
BRANCH   8   9
HETATM    9  O   UNL     1      -8.493   3.260  66.738  1.00  0.00    -0.099 OA 
BRANCH   9  10
HETATM   10  C   UNL     1      -8.060   1.900  66.671  1.00  0.00    -0.079 C  
HETATM   11  C   UNL     1      -7.361   1.526  67.962  1.00  0.00    -0.046 C  
ENDBRANCH   9  10
ENDBRANCH   8   9
ENDBRANCH   7   8
ENDBRANCH   6   7
BRANCH   6  12
HETATM   12  C   UNL     1     -11.405   6.391  69.208  1.00  0.00    -0.338 C  
BRANCH  12  13
HETATM   13  C   UNL     1     -10.766   5.900  70.498  1.00  0.00    -0.294 C  
BRANCH  13  14
HETATM   14  P   UNL     1     -11.777   6.288  72.001  1.00  0.00    -0.237 P  
BRANCH  14  15
HETATM   15  C   UNL     1     -11.200   4.996  73.203  1.00  0.00    -0.335 C  
BRANCH  15  16
HETATM   16  C   UNL     1     -10.099   4.128  72.588  1.00  0.00    -0.165 C  
BRANCH  16  17
HETATM   17  O   UNL     1      -8.840   4.409  73.207  1.00  0.00    -0.106 OA 
BRANCH  17  18
HETATM   18  C   UNL     1      -7.818   4.535  72.215  1.00  0.00    -0.092 C  
HETATM   19  C   UNL     1      -6.538   3.899  72.716  1.00  0.00    -0.039 C  
ENDBRANCH  17  18
ENDBRANCH  16  17
ENDBRANCH  15  16
ENDBRANCH  14  15
BRANCH  14  20
HETATM   20  C   UNL     1     -10.827   7.754  72.636  1.00  0.00    -0.354 C  
BRANCH  20  21
HETATM   21  C   UNL     1     -11.118   9.021  71.834  1.00  0.00    -0.363 C  
BRANCH  21  22
HETATM   22  O   UNL     1     -12.504   9.065  71.496  1.00  0.00    -0.304 OA 
BRANCH  22  23
HETATM   23  C   UNL     1     -13.033  10.377  71.700  1.00  0.00    -0.475 C  
HETATM   24  C   UNL     1     -12.384  11.333  70.718  1.00  0.00    -0.495 C  
ENDBRANCH  22  23
ENDBRANCH  21  22
ENDBRANCH  20  21
ENDBRANCH  14  20
ENDBRANCH  13  14
ENDBRANCH  12  13
ENDBRANCH   6  12
ENDBRANCH   5   6
ENDBRANCH   4   5
ENDBRANCH   3   4
ENDBRANCH   2   3
TORSDOF 19
ENDMDL
MODEL      325
REMARK 921   NORMALIZED FREE ENERGY PREDICTED BY IDOCK:   -2.44 KCAL/MOL
REMARK 922        TOTAL FREE ENERGY PREDICTED BY IDOCK:   -6.41 KCAL/MOL
REMARK 923 INTER-LIGAND FREE ENERGY PREDICTED BY IDOCK:   -5.13 KCAL/MOL
REMARK 924 INTRA-LIGAND FREE ENERGY PREDICTED BY IDOCK:   -1.28 KCAL/MOL
REMARK 927      BINDING AFFINITY PREDICTED BY RF-SCORE:    0.00 PKD
ROOT
HETATM    1  C   UNL     1      -5.996   8.350  65.111  1.00  0.00    -0.045 C  
HETATM    2  C   UNL     1      -6.770   9.323  65.977  1.00  0.00    -0.077 C  
ENDROOT
BRANCH   2   3
HETATM    3  O   UNL     1      -6.213   9.345  67.294  1.00  0.00    -0.056 OA 
BRANCH   3   4
HETATM    4  C   UNL     1      -5.995  10.696  67.709  1.00  0.00    -0.043 C  
BRANCH   4   5
HETATM    5  C   UNL     1      -6.973  11.640  67.015  1.00  0.00    -0.144 C  
BRANCH   5   6
HETATM    6  P   UNL     1      -7.742  12.844  68.196  1.00  0.00    -0.159 P  
BRANCH   6   7
HETATM    7  C   UNL     1      -7.417  14.466  67.348  1.00  0.00    -0.159 C  
BRANCH   7   8
HETATM    8  C   UNL     1      -8.658  15.358  67.376  1.00  0.00    -0.179 C  
BRANCH   8   9
HETATM    9  O   UNL     1      -8.694  16.113  68.590  1.00  0.00    -0.192 OA 
BRANCH   9  10
HETATM   10  C   UNL     1     -10.043  16.443  68.928  1.00  0.00    -0.255 C  
HETATM   11  C   UNL     1     -10.511  17.601  68.070  1.00  0.00    -0.395 C  
ENDBRANCH   9  10
ENDBRANCH   8   9
ENDBRANCH   7   8
ENDBRANCH   6   7
BRANCH   6  12
HETATM   12  C   UNL     1      -9.538  12.669  67.757  1.00  0.00    -0.197 C  
BRANCH  12  13
HETATM   13  C   UNL     1      -9.884  11.290  67.214  1.00  0.00    -0.182 C  
BRANCH  13  14
HETATM   14  P   UNL     1     -11.136  10.397  68.247  1.00  0.00    -0.221 P  
BRANCH  14  15
HETATM   15  C   UNL     1     -10.130   9.885  69.721  1.00  0.00    -0.242 C  
BRANCH  15  16
HETATM   16  C   UNL     1      -9.110   8.809  69.341  1.00  0.00    -0.145 C  
BRANCH  16  17
HETATM   17  O   UNL     1      -9.755   7.732  68.654  1.00  0.00    -0.152 OA 
BRANCH  17  18
HETATM   18  C   UNL     1      -8.781   6.842  68.105  1.00  0.00    -0.122 C  
HETATM   19  C   UNL     1      -7.723   6.538  69.146  1.00  0.00    -0.102 C  
ENDBRANCH  17  18
ENDBRANCH  16  17
ENDBRANCH  15  16
ENDBRANCH  14  15
BRANCH  14  20
HETATM   20  C   UNL     1     -12.029  11.858  68.970  1.00  0.00    -0.262 C  
BRANCH  20  21
HETATM   21  C   UNL     1     -12.302  11.687  70.463  1.00  0.00    -0.321 C  
BRANCH  21  22
HETATM   22  O   UNL     1     -12.444  12.970  71.073  1.00  0.00    -0.368 OA 
BRANCH  22  23
HETATM   23  C   UNL     1     -13.451  12.939  72.088  1.00  0.00    -0.522 C  
HETATM   24  C   UNL     1     -13.721  14.352  72.563  1.00  0.00    -0.589 C  
ENDBRANCH  22  23
ENDBRANCH  21  22
ENDBRANCH  20  21
ENDBRANCH  14  20
ENDBRANCH  13  14
ENDBRANCH  12  13
ENDBRANCH   6  12
ENDBRANCH   5   6
ENDBRANCH   4   5
ENDBRANCH   3   4
ENDBRANCH   2   3
TORSDOF 19
ENDMDL
MODEL      326
REMARK 921   NORMALIZED FREE ENERGY PREDICTED BY IDOCK:   -2.44 KCAL/MOL
REMARK 922        TOTAL FREE ENERGY PREDICTED BY IDOCK:   -6.41 KCAL/MOL
REMARK 923 INTER-LIGAND FREE ENERGY PREDICTED BY IDOCK:   -5.31 KCAL/MOL
REMARK 924 INTRA-LIGAND FREE ENERGY PREDICTED BY IDOCK:   -1.10 KCAL/MOL
REMARK 927      BINDING AFFINITY PREDICTED BY RF-SCORE:    0.00 PKD
ROOT
HETATM    1  C   UNL     1      -5.394  12.084  69.443  1.00  0.00    -0.062 C  
HETATM    2  C   UNL     1      -6.846  12.204  69.029  1.00  0.00    -0.098 C  
ENDROOT
BRANCH   2   3
HETATM    3  O   UNL     1      -7.048  11.546  67.776  1.00  0.00    -0.072 OA 
BRANCH   3   4
HETATM    4  C   UNL     1      -8.314  11.920  67.225  1.00  0.00    -0.169 C  
BRANCH   4   5
HETATM    5  C   UNL     1      -9.190  12.580  68.286  1.00  0.00    -0.186 C  
BRANCH   5   6
HETATM    6  P   UNL     1     -10.731  11.606  68.626  1.00  0.00    -0.219 P  
BRANCH   6   7
HETATM    7  C   UNL     1     -11.368  11.294  66.907  1.00  0.00    -0.155 C  
BRANCH   7   8
HETATM    8  C   UNL     1     -11.902  12.581  66.279  1.00  0.00    -0.390 C  
BRANCH   8   9
HETATM    9  O   UNL     1     -11.628  12.594  64.875  1.00  0.00    -0.310 OA 
BRANCH   9  10
HETATM   10  C   UNL     1     -10.998  11.373  64.483  1.00  0.00    -0.277 C  
HETATM   11  C   UNL     1      -9.945  11.662  63.433  1.00  0.00    -0.447 C  
ENDBRANCH   9  10
ENDBRANCH   8   9
ENDBRANCH   7   8
ENDBRANCH   6   7
BRANCH   6  12
HETATM   12  C   UNL     1     -10.016   9.924  68.955  1.00  0.00    -0.187 C  
BRANCH  12  13
HETATM   13  C   UNL     1     -10.337   8.918  67.860  1.00  0.00    -0.230 C  
BRANCH  13  14
HETATM   14  P   UNL     1     -10.640   7.210  68.510  1.00  0.00    -0.117 P  
BRANCH  14  15
HETATM   15  C   UNL     1      -8.915   6.541  68.664  1.00  0.00    -0.126 C  
BRANCH  15  16
HETATM   16  C   UNL     1      -8.586   6.201  70.120  1.00  0.00    -0.133 C  
BRANCH  16  17
HETATM   17  O   UNL     1      -8.362   4.795  70.264  1.00  0.00    -0.078 OA 
BRANCH  17  18
HETATM   18  C   UNL     1      -9.594   4.082  70.135  1.00  0.00    -0.200 C  
HETATM   19  C   UNL     1      -9.408   2.651  70.596  1.00  0.00    -0.215 C  
ENDBRANCH  17  18
ENDBRANCH  16  17
ENDBRANCH  15  16
ENDBRANCH  14  15
BRANCH  14  20
HETATM   20  C   UNL     1     -10.977   7.619  70.291  1.00  0.00    -0.252 C  
BRANCH  20  21
HETATM   21  C   UNL     1     -12.053   6.720  70.896  1.00  0.00    -0.367 C  
BRANCH  21  22
HETATM   22  O   UNL     1     -12.020   6.825  72.319  1.00  0.00    -0.275 OA 
BRANCH  22  23
HETATM   23  C   UNL     1     -10.834   7.499  72.749  1.00  0.00    -0.346 C  
HETATM   24  C   UNL     1     -10.252   6.766  73.942  1.00  0.00    -0.396 C  
ENDBRANCH  22  23
ENDBRANCH  21  22
ENDBRANCH  20  21
ENDBRANCH  14  20
ENDBRANCH  13  14
ENDBRANCH  12  13
ENDBRANCH   6  12
ENDBRANCH   5   6
ENDBRANCH   4   5
ENDBRANCH   3   4
ENDBRANCH   2   3
TORSDOF 19
ENDMDL
MODEL      327
REMARK 921   NORMALIZED FREE ENERGY PREDICTED BY IDOCK:   -2.44 KCAL/MOL
REMARK 922        TOTAL FREE ENERGY PREDICTED BY IDOCK:   -6.40 KCAL/MOL
REMARK 923 INTER-LIGAND FREE ENERGY PREDICTED BY IDOCK:   -5.40 KCAL/MOL
REMARK 924 INTRA-LIGAND FREE ENERGY PREDICTED BY IDOCK:   -1.00 KCAL/MOL
REMARK 927      BINDING AFFINITY PREDICTED BY RF-SCORE:    0.00 PKD
ROOT
HETATM    1  C   UNL     1     -13.559   9.540  71.868  1.00  0.00    -0.468 C  
HETATM    2  C   UNL     1     -12.634   8.340  71.859  1.00  0.00    -0.344 C  
ENDROOT
BRANCH   2   3
HETATM    3  O   UNL     1     -11.323   8.738  72.269  1.00  0.00    -0.355 OA 
BRANCH   3   4
HETATM    4  C   UNL     1     -10.345   8.178  71.389  1.00  0.00    -0.208 C  
BRANCH   4   5
HETATM    5  C   UNL     1      -9.438   9.269  70.825  1.00  0.00    -0.271 C  
BRANCH   5   6
HETATM    6  P   UNL     1      -9.749   9.576  69.023  1.00  0.00    -0.187 P  
BRANCH   6   7
HETATM    7  C   UNL     1     -10.743   8.078  68.550  1.00  0.00    -0.018 C  
BRANCH   7   8
HETATM    8  C   UNL     1     -10.328   7.556  67.175  1.00  0.00    -0.313 C  
BRANCH   8   9
HETATM    9  O   UNL     1      -9.624   6.319  67.309  1.00  0.00    -0.119 OA 
BRANCH   9  10
HETATM   10  C   UNL     1     -10.504   5.220  67.067  1.00  0.00    -0.229 C  
HETATM   11  C   UNL     1     -10.362   4.765  65.629  1.00  0.00    -0.219 C  
ENDBRANCH   9  10
ENDBRANCH   8   9
ENDBRANCH   7   8
ENDBRANCH   6   7
BRANCH   6  12
HETATM   12  C   UNL     1     -11.141  10.803  69.112  1.00  0.00    -0.249 C  
BRANCH  12  13
HETATM   13  C   UNL     1     -11.631  11.245  67.741  1.00  0.00    -0.230 C  
BRANCH  13  14
HETATM   14  P   UNL     1     -10.297  12.012  66.708  1.00  0.00    -0.216 P  
BRANCH  14  15
HETATM   15  C   UNL     1     -11.191  12.367  65.120  1.00  0.00    -0.315 C  
BRANCH  15  16
HETATM   16  C   UNL     1     -11.004  11.226  64.118  1.00  0.00    -0.305 C  
BRANCH  16  17
HETATM   17  O   UNL     1      -9.730  11.333  63.475  1.00  0.00    -0.271 OA 
BRANCH  17  18
HETATM   18  C   UNL     1      -9.120  10.044  63.371  1.00  0.00    -0.273 C  
HETATM   19  C   UNL     1      -7.670  10.197  62.960  1.00  0.00    -0.149 C  
ENDBRANCH  17  18
ENDBRANCH  16  17
ENDBRANCH  15  16
ENDBRANCH  14  15
BRANCH  14  20
HETATM   20  C   UNL     1     -10.284  13.717  67.449  1.00  0.00    -0.252 C  
BRANCH  20  21
HETATM   21  C   UNL     1      -9.277  13.842  68.591  1.00  0.00    -0.069 C  
BRANCH  21  22
HETATM   22  O   UNL     1      -7.977  14.091  68.057  1.00  0.00    -0.127 OA 
BRANCH  22  23
HETATM   23  C   UNL     1      -7.141  14.717  69.034  1.00  0.00    -0.127 C  
HETATM   24  C   UNL     1      -5.775  14.062  69.011  1.00  0.00    -0.088 C  
ENDBRANCH  22  23
ENDBRANCH  21  22
ENDBRANCH  20  21
ENDBRANCH  14  20
ENDBRANCH  13  14
ENDBRANCH  12  13
ENDBRANCH   6  12
ENDBRANCH   5   6
ENDBRANCH   4   5
ENDBRANCH   3   4
ENDBRANCH   2   3
TORSDOF 19
ENDMDL
MODEL      328
REMARK 921   NORMALIZED FREE ENERGY PREDICTED BY IDOCK:   -2.44 KCAL/MOL
REMARK 922        TOTAL FREE ENERGY PREDICTED BY IDOCK:   -6.40 KCAL/MOL
REMARK 923 INTER-LIGAND FREE ENERGY PREDICTED BY IDOCK:   -5.49 KCAL/MOL
REMARK 924 INTRA-LIGAND FREE ENERGY PREDICTED BY IDOCK:   -0.91 KCAL/MOL
REMARK 927      BINDING AFFINITY PREDICTED BY RF-SCORE:    0.00 PKD
ROOT
HETATM    1  C   UNL     1      -7.292   1.799  66.870  1.00  0.00    -0.055 C  
HETATM    2  C   UNL     1      -6.279   2.883  66.566  1.00  0.00    -0.025 C  
ENDROOT
BRANCH   2   3
HETATM    3  O   UNL     1      -6.315   3.879  67.591  1.00  0.00    -0.035 OA 
BRANCH   3   4
HETATM    4  C   UNL     1      -6.342   5.183  67.005  1.00  0.00    -0.040 C  
BRANCH   4   5
HETATM    5  C   UNL     1      -7.493   6.008  67.576  1.00  0.00    -0.082 C  
BRANCH   5   6
HETATM    6  P   UNL     1      -8.868   6.229  66.352  1.00  0.00    -0.147 P  
BRANCH   6   7
HETATM    7  C   UNL     1     -10.106   4.974  66.944  1.00  0.00    -0.228 C  
BRANCH   7   8
HETATM    8  C   UNL     1      -9.610   4.267  68.204  1.00  0.00    -0.137 C  
BRANCH   8   9
HETATM    9  O   UNL     1     -10.298   4.769  69.353  1.00  0.00    -0.177 OA 
BRANCH   9  10
HETATM   10  C   UNL     1      -9.736   4.218  70.546  1.00  0.00    -0.212 C  
HETATM   11  C   UNL     1     -10.317   4.925  71.753  1.00  0.00    -0.249 C  
ENDBRANCH   9  10
ENDBRANCH   8   9
ENDBRANCH   7   8
ENDBRANCH   6   7
BRANCH   6  12
HETATM   12  C   UNL     1      -9.692   7.753  67.021  1.00  0.00    -0.197 C  
BRANCH  12  13
HETATM   13  C   UNL     1      -8.710   8.728  67.655  1.00  0.00    -0.135 C  
BRANCH  13  14
HETATM   14  P   UNL     1      -9.531   9.963  68.766  1.00  0.00    -0.172 P  
BRANCH  14  15
HETATM   15  C   UNL     1     -11.157  10.233  67.913  1.00  0.00    -0.276 C  
BRANCH  15  16
HETATM   16  C   UNL     1     -10.986  11.116  66.674  1.00  0.00    -0.228 C  
BRANCH  16  17
HETATM   17  O   UNL     1     -11.949  12.173  66.679  1.00  0.00    -0.616 OA 
BRANCH  17  18
HETATM   18  C   UNL     1     -11.309  13.423  66.947  1.00  0.00    -0.323 C  
HETATM   19  C   UNL     1     -11.913  14.051  68.187  1.00  0.00    -0.382 C  
ENDBRANCH  17  18
ENDBRANCH  16  17
ENDBRANCH  15  16
ENDBRANCH  14  15
BRANCH  14  20
HETATM   20  C   UNL     1     -10.079   8.825  70.131  1.00  0.00    -0.187 C  
BRANCH  20  21
HETATM   21  C   UNL     1     -10.686   9.586  71.307  1.00  0.00    -0.316 C  
BRANCH  21  22
HETATM   22  O   UNL     1     -11.213   8.658  72.256  1.00  0.00    -0.353 OA 
BRANCH  22  23
HETATM   23  C   UNL     1     -12.631   8.538  72.112  1.00  0.00    -0.377 C  
HETATM   24  C   UNL     1     -13.207   9.886  71.726  1.00  0.00    -0.535 C  
ENDBRANCH  22  23
ENDBRANCH  21  22
ENDBRANCH  20  21
ENDBRANCH  14  20
ENDBRANCH  13  14
ENDBRANCH  12  13
ENDBRANCH   6  12
ENDBRANCH   5   6
ENDBRANCH   4   5
ENDBRANCH   3   4
ENDBRANCH   2   3
TORSDOF 19
ENDMDL
MODEL      329
REMARK 921   NORMALIZED FREE ENERGY PREDICTED BY IDOCK:   -2.41 KCAL/MOL
REMARK 922        TOTAL FREE ENERGY PREDICTED BY IDOCK:   -6.34 KCAL/MOL
REMARK 923 INTER-LIGAND FREE ENERGY PREDICTED BY IDOCK:   -6.03 KCAL/MOL
REMARK 924 INTRA-LIGAND FREE ENERGY PREDICTED BY IDOCK:   -0.32 KCAL/MOL
REMARK 927      BINDING AFFINITY PREDICTED BY RF-SCORE:    0.00 PKD
ROOT
HETATM    1  C   UNL     1      -7.557   7.306  71.026  1.00  0.00    -0.084 C  
HETATM    2  C   UNL     1      -7.954   8.102  69.800  1.00  0.00    -0.111 C  
ENDROOT
BRANCH   2   3
HETATM    3  O   UNL     1      -8.041   9.490  70.132  1.00  0.00    -0.138 OA 
BRANCH   3   4
HETATM    4  C   UNL     1      -9.213  10.061  69.544  1.00  0.00    -0.221 C  
BRANCH   4   5
HETATM    5  C   UNL     1     -10.389  10.001  70.515  1.00  0.00    -0.147 C  
BRANCH   5   6
HETATM    6  P   UNL     1     -11.927  10.749  69.799  1.00  0.00    -0.286 P  
BRANCH   6   7
HETATM    7  C   UNL     1     -12.872  11.211  71.332  1.00  0.00    -0.439 C  
BRANCH   7   8
HETATM    8  C   UNL     1     -12.904  12.727  71.520  1.00  0.00    -0.270 C  
BRANCH   8   9
HETATM    9  O   UNL     1     -13.964  13.091  72.408  1.00  0.00    -0.552 OA 
BRANCH   9  10
HETATM   10  C   UNL     1     -14.360  14.445  72.178  1.00  0.00    -0.519 C  
HETATM   11  C   UNL     1     -13.200  15.218  71.585  1.00  0.00    -0.532 C  
ENDBRANCH   9  10
ENDBRANCH   8   9
ENDBRANCH   7   8
ENDBRANCH   6   7
BRANCH   6  12
HETATM   12  C   UNL     1     -11.313  12.442  69.343  1.00  0.00    -0.220 C  
BRANCH  12  13
HETATM   13  C   UNL     1     -10.409  12.436  68.120  1.00  0.00    -0.226 C  
BRANCH  13  14
HETATM   14  P   UNL     1     -10.098  14.132  67.440  1.00  0.00    -0.243 P  
BRANCH  14  15
HETATM   15  C   UNL     1      -9.711  15.101  68.975  1.00  0.00    -0.234 C  
BRANCH  15  16
HETATM   16  C   UNL     1      -9.704  16.605  68.687  1.00  0.00    -0.248 C  
BRANCH  16  17
HETATM   17  O   UNL     1     -10.865  16.972  67.936  1.00  0.00    -0.357 OA 
BRANCH  17  18
HETATM   18  C   UNL     1     -10.503  17.840  66.859  1.00  0.00    -0.307 C  
HETATM   19  C   UNL     1     -10.574  19.281  67.318  1.00  0.00    -0.590 C  
ENDBRANCH  17  18
ENDBRANCH  16  17
ENDBRANCH  15  16
ENDBRANCH  14  15
BRANCH  14  20
HETATM   20  C   UNL     1      -8.377  13.883  66.783  1.00  0.00     0.109 C  
BRANCH  20  21
HETATM   21  C   UNL     1      -7.312  14.116  67.853  1.00  0.00    -0.157 C  
BRANCH  21  22
HETATM   22  O   UNL     1      -6.314  13.100  67.764  1.00  0.00    -0.126 OA 
BRANCH  22  23
HETATM   23  C   UNL     1      -6.855  11.908  67.188  1.00  0.00    -0.144 C  
HETATM   24  C   UNL     1      -5.877  11.361  66.168  1.00  0.00     0.012 C  
ENDBRANCH  22  23
ENDBRANCH  21  22
ENDBRANCH  20  21
ENDBRANCH  14  20
ENDBRANCH  13  14
ENDBRANCH  12  13
ENDBRANCH   6  12
ENDBRANCH   5   6
ENDBRANCH   4   5
ENDBRANCH   3   4
ENDBRANCH   2   3
TORSDOF 19
ENDMDL
MODEL      330
REMARK 921   NORMALIZED FREE ENERGY PREDICTED BY IDOCK:   -2.40 KCAL/MOL
REMARK 922        TOTAL FREE ENERGY PREDICTED BY IDOCK:   -6.31 KCAL/MOL
REMARK 923 INTER-LIGAND FREE ENERGY PREDICTED BY IDOCK:   -5.24 KCAL/MOL
REMARK 924 INTRA-LIGAND FREE ENERGY PREDICTED BY IDOCK:   -1.07 KCAL/MOL
REMARK 927      BINDING AFFINITY PREDICTED BY RF-SCORE:    0.00 PKD
ROOT
HETATM    1  C   UNL     1     -10.520   4.848  66.053  1.00  0.00    -0.327 C  
HETATM    2  C   UNL     1      -9.048   4.494  66.032  1.00  0.00    -0.130 C  
ENDROOT
BRANCH   2   3
HETATM    3  O   UNL     1      -8.368   5.191  67.079  1.00  0.00    -0.108 OA 
BRANCH   3   4
HETATM    4  C   UNL     1      -7.957   6.481  66.622  1.00  0.00    -0.109 C  
BRANCH   4   5
HETATM    5  C   UNL     1      -8.317   7.557  67.643  1.00  0.00    -0.118 C  
BRANCH   5   6
HETATM    6  P   UNL     1      -7.378   9.131  67.363  1.00  0.00    -0.084 P  
BRANCH   6   7
HETATM    7  C   UNL     1      -6.441   8.740  65.805  1.00  0.00    -0.057 C  
BRANCH   7   8
HETATM    8  C   UNL     1      -6.804   9.717  64.688  1.00  0.00    -0.123 C  
BRANCH   8   9
HETATM    9  O   UNL     1      -6.367   9.206  63.426  1.00  0.00    -0.089 OA 
BRANCH   9  10
HETATM   10  C   UNL     1      -6.743   7.834  63.291  1.00  0.00    -0.070 C  
HETATM   11  C   UNL     1      -8.016   7.735  62.477  1.00  0.00    -0.136 C  
ENDBRANCH   9  10
ENDBRANCH   8   9
ENDBRANCH   7   8
ENDBRANCH   6   7
BRANCH   6  12
HETATM   12  C   UNL     1      -8.700  10.201  66.618  1.00  0.00    -0.126 C  
BRANCH  12  13
HETATM   13  C   UNL     1     -10.101   9.647  66.831  1.00  0.00    -0.227 C  
BRANCH  13  14
HETATM   14  P   UNL     1     -11.131  10.697  67.959  1.00  0.00    -0.277 P  
BRANCH  14  15
HETATM   15  C   UNL     1     -10.191  10.589  69.556  1.00  0.00    -0.200 C  
BRANCH  15  16
HETATM   16  C   UNL     1     -10.912   9.683  70.557  1.00  0.00    -0.313 C  
BRANCH  16  17
HETATM   17  O   UNL     1     -10.898   8.327  70.102  1.00  0.00    -0.240 OA 
BRANCH  17  18
HETATM   18  C   UNL     1     -11.550   7.480  71.051  1.00  0.00    -0.283 C  
HETATM   19  C   UNL     1     -12.278   8.326  72.075  1.00  0.00    -0.398 C  
ENDBRANCH  17  18
ENDBRANCH  16  17
ENDBRANCH  15  16
ENDBRANCH  14  15
BRANCH  14  20
HETATM   20  C   UNL     1     -10.587  12.380  67.387  1.00  0.00    -0.216 C  
BRANCH  20  21
HETATM   21  C   UNL     1     -11.760  13.232  66.908  1.00  0.00    -0.388 C  
BRANCH  21  22
HETATM   22  O   UNL     1     -11.617  13.501  65.513  1.00  0.00    -0.310 OA 
BRANCH  22  23
HETATM   23  C   UNL     1     -11.727  12.295  64.752  1.00  0.00    -0.358 C  
HETATM   24  C   UNL     1     -12.304  12.620  63.388  1.00  0.00    -0.553 C  
ENDBRANCH  22  23
ENDBRANCH  21  22
ENDBRANCH  20  21
ENDBRANCH  14  20
ENDBRANCH  13  14
ENDBRANCH  12  13
ENDBRANCH   6  12
ENDBRANCH   5   6
ENDBRANCH   4   5
ENDBRANCH   3   4
ENDBRANCH   2   3
TORSDOF 19
ENDMDL
MODEL      331
REMARK 921   NORMALIZED FREE ENERGY PREDICTED BY IDOCK:   -2.39 KCAL/MOL
REMARK 922        TOTAL FREE ENERGY PREDICTED BY IDOCK:   -6.30 KCAL/MOL
REMARK 923 INTER-LIGAND FREE ENERGY PREDICTED BY IDOCK:   -4.93 KCAL/MOL
REMARK 924 INTRA-LIGAND FREE ENERGY PREDICTED BY IDOCK:   -1.37 KCAL/MOL
REMARK 927      BINDING AFFINITY PREDICTED BY RF-SCORE:    0.00 PKD
ROOT
HETATM    1  C   UNL     1      -9.994  14.165  66.931  1.00  0.00    -0.261 C  
HETATM    2  C   UNL     1     -10.526  12.942  67.649  1.00  0.00    -0.224 C  
ENDROOT
BRANCH   2   3
HETATM    3  O   UNL     1      -9.917  11.764  67.114  1.00  0.00    -0.200 OA 
BRANCH   3   4
HETATM    4  C   UNL     1     -10.271  10.627  67.905  1.00  0.00    -0.177 C  
BRANCH   4   5
HETATM    5  C   UNL     1      -9.022   9.939  68.451  1.00  0.00    -0.120 C  
BRANCH   5   6
HETATM    6  P   UNL     1      -8.998   8.125  68.069  1.00  0.00    -0.132 P  
BRANCH   6   7
HETATM    7  C   UNL     1     -10.488   7.951  66.970  1.00  0.00    -0.349 C  
BRANCH   7   8
HETATM    8  C   UNL     1     -11.028   6.522  67.002  1.00  0.00    -0.396 C  
BRANCH   8   9
HETATM    9  O   UNL     1     -10.133   5.673  67.726  1.00  0.00    -0.146 OA 
BRANCH   9  10
HETATM   10  C   UNL     1      -9.817   4.514  66.953  1.00  0.00    -0.213 C  
HETATM   11  C   UNL     1     -10.564   4.563  65.636  1.00  0.00    -0.231 C  
ENDBRANCH   9  10
ENDBRANCH   8   9
ENDBRANCH   7   8
ENDBRANCH   6   7
BRANCH   6  12
HETATM   12  C   UNL     1      -7.688   8.061  66.755  1.00  0.00    -0.098 C  
BRANCH  12  13
HETATM   13  C   UNL     1      -7.667   9.303  65.876  1.00  0.00    -0.098 C  
BRANCH  13  14
HETATM   14  P   UNL     1      -6.391   9.221  64.535  1.00  0.00    -0.083 P  
BRANCH  14  15
HETATM   15  C   UNL     1      -7.270  10.026  63.112  1.00  0.00    -0.132 C  
BRANCH  15  16
HETATM   16  C   UNL     1      -8.748   9.631  63.087  1.00  0.00    -0.230 C  
BRANCH  16  17
HETATM   17  O   UNL     1      -9.558  10.757  62.733  1.00  0.00    -0.301 OA 
BRANCH  17  18
HETATM   18  C   UNL     1     -10.460  11.070  63.797  1.00  0.00    -0.341 C  
HETATM   19  C   UNL     1     -11.057  12.444  63.573  1.00  0.00    -0.521 C  
ENDBRANCH  17  18
ENDBRANCH  16  17
ENDBRANCH  15  16
ENDBRANCH  14  15
BRANCH  14  20
HETATM   20  C   UNL     1      -5.301  10.630  65.068  1.00  0.00    -0.148 C  
BRANCH  20  21
HETATM   21  C   UNL     1      -5.503  10.990  66.539  1.00  0.00    -0.107 C  
BRANCH  21  22
HETATM   22  O   UNL     1      -5.962  12.338  66.642  1.00  0.00    -0.207 OA 
BRANCH  22  23
HETATM   23  C   UNL     1      -6.449  12.608  67.959  1.00  0.00    -0.093 C  
HETATM   24  C   UNL     1      -6.345  14.095  68.232  1.00  0.00    -0.118 C  
ENDBRANCH  22  23
ENDBRANCH  21  22
ENDBRANCH  20  21
ENDBRANCH  14  20
ENDBRANCH  13  14
ENDBRANCH  12  13
ENDBRANCH   6  12
ENDBRANCH   5   6
ENDBRANCH   4   5
ENDBRANCH   3   4
ENDBRANCH   2   3
TORSDOF 19
ENDMDL
MODEL      332
REMARK 921   NORMALIZED FREE ENERGY PREDICTED BY IDOCK:   -2.37 KCAL/MOL
REMARK 922        TOTAL FREE ENERGY PREDICTED BY IDOCK:   -6.26 KCAL/MOL
REMARK 923 INTER-LIGAND FREE ENERGY PREDICTED BY IDOCK:   -5.28 KCAL/MOL
REMARK 924 INTRA-LIGAND FREE ENERGY PREDICTED BY IDOCK:   -0.97 KCAL/MOL
REMARK 927      BINDING AFFINITY PREDICTED BY RF-SCORE:    0.00 PKD
ROOT
HETATM    1  C   UNL     1     -13.771   9.583  72.017  1.00  0.00    -0.435 C  
HETATM    2  C   UNL     1     -12.487   8.790  72.136  1.00  0.00    -0.393 C  
ENDROOT
BRANCH   2   3
HETATM    3  O   UNL     1     -11.941   8.556  70.835  1.00  0.00    -0.271 OA 
BRANCH   3   4
HETATM    4  C   UNL     1     -11.158   7.359  70.841  1.00  0.00    -0.263 C  
BRANCH   4   5
HETATM    5  C   UNL     1      -9.797   7.601  70.192  1.00  0.00    -0.184 C  
BRANCH   5   6
HETATM    6  P   UNL     1      -9.313   9.390  70.229  1.00  0.00    -0.252 P  
BRANCH   6   7
HETATM    7  C   UNL     1      -7.472   9.288  69.989  1.00  0.00    -0.094 C  
BRANCH   7   8
HETATM    8  C   UNL     1      -6.804   8.573  71.163  1.00  0.00    -0.064 C  
BRANCH   8   9
HETATM    9  O   UNL     1      -6.188   7.363  70.715  1.00  0.00    -0.035 OA 
BRANCH   9  10
HETATM   10  C   UNL     1      -6.120   7.340  69.288  1.00  0.00    -0.030 C  
HETATM   11  C   UNL     1      -5.679   5.967  68.825  1.00  0.00    -0.012 C  
ENDBRANCH   9  10
ENDBRANCH   8   9
ENDBRANCH   7   8
ENDBRANCH   6   7
BRANCH   6  12
HETATM   12  C   UNL     1      -9.778   9.915  68.510  1.00  0.00    -0.154 C  
BRANCH  12  13
HETATM   13  C   UNL     1      -9.456  11.375  68.227  1.00  0.00    -0.187 C  
BRANCH  13  14
HETATM   14  P   UNL     1      -9.626  11.821  66.437  1.00  0.00    -0.226 P  
BRANCH  14  15
HETATM   15  C   UNL     1      -9.672  10.154  65.623  1.00  0.00    -0.259 C  
BRANCH  15  16
HETATM   16  C   UNL     1      -9.471  10.276  64.111  1.00  0.00    -0.301 C  
BRANCH  16  17
HETATM   17  O   UNL     1      -8.797   9.120  63.603  1.00  0.00    -0.178 OA 
BRANCH  17  18
HETATM   18  C   UNL     1      -8.176   8.402  64.672  1.00  0.00    -0.154 C  
HETATM   19  C   UNL     1      -7.328   7.280  64.109  1.00  0.00    -0.091 C  
ENDBRANCH  17  18
ENDBRANCH  16  17
ENDBRANCH  15  16
ENDBRANCH  14  15
BRANCH  14  20
HETATM   20  C   UNL     1     -11.437  12.239  66.400  1.00  0.00    -0.378 C  
BRANCH  20  21
HETATM   21  C   UNL     1     -11.680  13.740  66.263  1.00  0.00    -0.376 C  
BRANCH  21  22
HETATM   22  O   UNL     1     -12.246  14.245  67.473  1.00  0.00    -0.354 OA 
BRANCH  22  23
HETATM   23  C   UNL     1     -11.455  15.318  67.992  1.00  0.00    -0.341 C  
HETATM   24  C   UNL     1     -10.515  14.774  69.049  1.00  0.00    -0.249 C  
ENDBRANCH  22  23
ENDBRANCH  21  22
ENDBRANCH  20  21
ENDBRANCH  14  20
ENDBRANCH  13  14
ENDBRANCH  12  13
ENDBRANCH   6  12
ENDBRANCH   5   6
ENDBRANCH   4   5
ENDBRANCH   3   4
ENDBRANCH   2   3
TORSDOF 19
ENDMDL
MODEL      333
REMARK 921   NORMALIZED FREE ENERGY PREDICTED BY IDOCK:   -2.36 KCAL/MOL
REMARK 922        TOTAL FREE ENERGY PREDICTED BY IDOCK:   -6.23 KCAL/MOL
REMARK 923 INTER-LIGAND FREE ENERGY PREDICTED BY IDOCK:   -5.17 KCAL/MOL
REMARK 924 INTRA-LIGAND FREE ENERGY PREDICTED BY IDOCK:   -1.07 KCAL/MOL
REMARK 927      BINDING AFFINITY PREDICTED BY RF-SCORE:    0.00 PKD
ROOT
HETATM    1  C   UNL     1     -12.574  12.082  63.393  1.00  0.00    -0.592 C  
HETATM    2  C   UNL     1     -11.152  11.884  63.877  1.00  0.00    -0.412 C  
ENDROOT
BRANCH   2   3
HETATM    3  O   UNL     1     -11.153  11.615  65.282  1.00  0.00    -0.292 OA 
BRANCH   3   4
HETATM    4  C   UNL     1     -10.169  10.624  65.591  1.00  0.00    -0.253 C  
BRANCH   4   5
HETATM    5  C   UNL     1      -9.019  11.235  66.386  1.00  0.00    -0.188 C  
BRANCH   5   6
HETATM    6  P   UNL     1      -9.324  11.176  68.214  1.00  0.00    -0.185 P  
BRANCH   6   7
HETATM    7  C   UNL     1      -7.592  11.086  68.885  1.00  0.00    -0.134 C  
BRANCH   7   8
HETATM    8  C   UNL     1      -6.680  10.299  67.943  1.00  0.00    -0.066 C  
BRANCH   8   9
HETATM    9  O   UNL     1      -6.450   8.987  68.464  1.00  0.00    -0.053 OA 
BRANCH   9  10
HETATM   10  C   UNL     1      -6.518   9.002  69.891  1.00  0.00    -0.038 C  
HETATM   11  C   UNL     1      -6.363   7.591  70.420  1.00  0.00    -0.038 C  
ENDBRANCH   9  10
ENDBRANCH   8   9
ENDBRANCH   7   8
ENDBRANCH   6   7
BRANCH   6  12
HETATM   12  C   UNL     1      -9.656  12.968  68.572  1.00  0.00    -0.111 C  
BRANCH  12  13
HETATM   13  C   UNL     1      -8.713  13.905  67.832  1.00  0.00    -0.184 C  
BRANCH  13  14
HETATM   14  P   UNL     1      -8.427  15.502  68.728  1.00  0.00    -0.225 P  
BRANCH  14  15
HETATM   15  C   UNL     1      -6.879  16.129  67.919  1.00  0.00    -0.137 C  
BRANCH  15  16
HETATM   16  C   UNL     1      -6.661  17.613  68.228  1.00  0.00    -0.200 C  
BRANCH  16  17
HETATM   17  O   UNL     1      -5.995  18.256  67.137  1.00  0.00    -0.149 OA 
BRANCH  17  18
HETATM   18  C   UNL     1      -6.810  18.208  65.964  1.00  0.00    -0.282 C  
HETATM   19  C   UNL     1      -7.614  19.486  65.848  1.00  0.00    -0.306 C  
ENDBRANCH  17  18
ENDBRANCH  16  17
ENDBRANCH  15  16
ENDBRANCH  14  15
BRANCH  14  20
HETATM   20  C   UNL     1      -9.685  16.563  67.864  1.00  0.00    -0.236 C  
BRANCH  20  21
HETATM   21  C   UNL     1     -10.777  17.051  68.813  1.00  0.00    -0.313 C  
BRANCH  21  22
HETATM   22  O   UNL     1     -11.893  16.163  68.755  1.00  0.00    -0.339 OA 
BRANCH  22  23
HETATM   23  C   UNL     1     -12.114  15.545  70.026  1.00  0.00    -0.368 C  
HETATM   24  C   UNL     1     -11.649  16.483  71.122  1.00  0.00    -0.067 C  
ENDBRANCH  22  23
ENDBRANCH  21  22
ENDBRANCH  20  21
ENDBRANCH  14  20
ENDBRANCH  13  14
ENDBRANCH  12  13
ENDBRANCH   6  12
ENDBRANCH   5   6
ENDBRANCH   4   5
ENDBRANCH   3   4
ENDBRANCH   2   3
TORSDOF 19
ENDMDL
MODEL      334
REMARK 921   NORMALIZED FREE ENERGY PREDICTED BY IDOCK:   -2.36 KCAL/MOL
REMARK 922        TOTAL FREE ENERGY PREDICTED BY IDOCK:   -6.22 KCAL/MOL
REMARK 923 INTER-LIGAND FREE ENERGY PREDICTED BY IDOCK:   -4.78 KCAL/MOL
REMARK 924 INTRA-LIGAND FREE ENERGY PREDICTED BY IDOCK:   -1.44 KCAL/MOL
REMARK 927      BINDING AFFINITY PREDICTED BY RF-SCORE:    0.00 PKD
ROOT
HETATM    1  C   UNL     1     -13.359   9.768  71.863  1.00  0.00    -0.530 C  
HETATM    2  C   UNL     1     -14.308   8.589  71.911  1.00  0.00    -0.448 C  
ENDROOT
BRANCH   2   3
HETATM    3  O   UNL     1     -13.635   7.408  71.466  1.00  0.00    -0.380 OA 
BRANCH   3   4
HETATM    4  C   UNL     1     -12.223   7.633  71.434  1.00  0.00    -0.326 C  
BRANCH   4   5
HETATM    5  C   UNL     1     -11.552   6.711  70.420  1.00  0.00    -0.398 C  
BRANCH   5   6
HETATM    6  P   UNL     1     -10.007   7.455  69.712  1.00  0.00    -0.195 P  
BRANCH   6   7
HETATM    7  C   UNL     1      -9.984   9.125  70.528  1.00  0.00    -0.235 C  
BRANCH   7   8
HETATM    8  C   UNL     1      -9.946  10.243  69.487  1.00  0.00    -0.228 C  
BRANCH   8   9
HETATM    9  O   UNL     1      -9.130   9.856  68.378  1.00  0.00    -0.122 OA 
BRANCH   9  10
HETATM   10  C   UNL     1      -9.608  10.464  67.176  1.00  0.00    -0.164 C  
HETATM   11  C   UNL     1     -10.079   9.390  66.217  1.00  0.00    -0.328 C  
ENDBRANCH   9  10
ENDBRANCH   8   9
ENDBRANCH   7   8
ENDBRANCH   6   7
BRANCH   6  12
HETATM   12  C   UNL     1      -8.711   6.629  70.755  1.00  0.00    -0.143 C  
BRANCH  12  13
HETATM   13  C   UNL     1      -8.123   5.389  70.099  1.00  0.00    -0.089 C  
BRANCH  13  14
HETATM   14  P   UNL     1      -8.393   5.340  68.267  1.00  0.00    -0.095 P  
BRANCH  14  15
HETATM   15  C   UNL     1      -6.762   5.942  67.617  1.00  0.00    -0.058 C  
BRANCH  15  16
HETATM   16  C   UNL     1      -6.924   7.272  66.876  1.00  0.00    -0.077 C  
BRANCH  16  17
HETATM   17  O   UNL     1      -5.753   8.078  67.038  1.00  0.00    -0.035 OA 
BRANCH  17  18
HETATM   18  C   UNL     1      -6.017   9.421  66.625  1.00  0.00    -0.060 C  
HETATM   19  C   UNL     1      -6.528   9.426  65.199  1.00  0.00    -0.075 C  
ENDBRANCH  17  18
ENDBRANCH  16  17
ENDBRANCH  15  16
ENDBRANCH  14  15
BRANCH  14  20
HETATM   20  C   UNL     1      -8.191   3.515  67.979  1.00  0.00    -0.083 C  
BRANCH  20  21
HETATM   21  C   UNL     1      -9.062   3.012  66.831  1.00  0.00    -0.167 C  
BRANCH  21  22
HETATM   22  O   UNL     1      -9.792   4.103  66.270  1.00  0.00    -0.203 OA 
BRANCH  22  23
HETATM   23  C   UNL     1      -9.859   3.989  64.847  1.00  0.00    -0.200 C  
HETATM   24  C   UNL     1      -8.633   4.639  64.238  1.00  0.00    -0.139 C  
ENDBRANCH  22  23
ENDBRANCH  21  22
ENDBRANCH  20  21
ENDBRANCH  14  20
ENDBRANCH  13  14
ENDBRANCH  12  13
ENDBRANCH   6  12
ENDBRANCH   5   6
ENDBRANCH   4   5
ENDBRANCH   3   4
ENDBRANCH   2   3
TORSDOF 19
ENDMDL
MODEL      335
REMARK 921   NORMALIZED FREE ENERGY PREDICTED BY IDOCK:   -2.36 KCAL/MOL
REMARK 922        TOTAL FREE ENERGY PREDICTED BY IDOCK:   -6.22 KCAL/MOL
REMARK 923 INTER-LIGAND FREE ENERGY PREDICTED BY IDOCK:   -5.63 KCAL/MOL
REMARK 924 INTRA-LIGAND FREE ENERGY PREDICTED BY IDOCK:   -0.59 KCAL/MOL
REMARK 927      BINDING AFFINITY PREDICTED BY RF-SCORE:    0.00 PKD
ROOT
HETATM    1  C   UNL     1      -9.915   4.078  65.305  1.00  0.00    -0.193 C  
HETATM    2  C   UNL     1     -10.588   4.990  66.310  1.00  0.00    -0.276 C  
ENDROOT
BRANCH   2   3
HETATM    3  O   UNL     1      -9.804   6.172  66.491  1.00  0.00    -0.162 OA 
BRANCH   3   4
HETATM    4  C   UNL     1     -10.652   7.276  66.817  1.00  0.00    -0.217 C  
BRANCH   4   5
HETATM    5  C   UNL     1      -9.921   8.600  66.605  1.00  0.00    -0.287 C  
BRANCH   5   6
HETATM    6  P   UNL     1      -9.985   9.683  68.108  1.00  0.00    -0.176 P  
BRANCH   6   7
HETATM    7  C   UNL     1      -8.278   9.458  68.810  1.00  0.00    -0.108 C  
BRANCH   7   8
HETATM    8  C   UNL     1      -7.891   7.980  68.847  1.00  0.00    -0.113 C  
BRANCH   8   9
HETATM    9  O   UNL     1      -8.274   7.401  70.097  1.00  0.00    -0.128 OA 
BRANCH   9  10
HETATM   10  C   UNL     1      -8.651   6.035  69.915  1.00  0.00    -0.131 C  
HETATM   11  C   UNL     1      -7.769   5.148  70.769  1.00  0.00    -0.080 C  
ENDBRANCH   9  10
ENDBRANCH   8   9
ENDBRANCH   7   8
ENDBRANCH   6   7
BRANCH   6  12
HETATM   12  C   UNL     1      -9.741  11.358  67.344  1.00  0.00    -0.181 C  
BRANCH  12  13
HETATM   13  C   UNL     1      -9.650  12.473  68.375  1.00  0.00    -0.176 C  
BRANCH  13  14
HETATM   14  P   UNL     1     -10.260  14.102  67.736  1.00  0.00    -0.249 P  
BRANCH  14  15
HETATM   15  C   UNL     1     -12.030  14.101  68.294  1.00  0.00    -0.332 C  
BRANCH  15  16
HETATM   16  C   UNL     1     -12.124  14.143  69.822  1.00  0.00    -0.354 C  
BRANCH  16  17
HETATM   17  O   UNL     1     -12.523  15.445  70.260  1.00  0.00    -0.376 OA 
BRANCH  17  18
HETATM   18  C   UNL     1     -13.431  15.339  71.360  1.00  0.00    -0.505 C  
HETATM   19  C   UNL     1     -13.093  14.114  72.185  1.00  0.00    -0.489 C  
ENDBRANCH  17  18
ENDBRANCH  16  17
ENDBRANCH  15  16
ENDBRANCH  14  15
BRANCH  14  20
HETATM   20  C   UNL     1      -9.526  15.226  69.022  1.00  0.00    -0.232 C  
BRANCH  20  21
HETATM   21  C   UNL     1      -8.551  16.235  68.419  1.00  0.00    -0.200 C  
BRANCH  21  22
HETATM   22  O   UNL     1      -7.541  15.544  67.685  1.00  0.00    -0.133 OA 
BRANCH  22  23
HETATM   23  C   UNL     1      -6.656  16.469  67.047  1.00  0.00    -0.199 C  
HETATM   24  C   UNL     1      -7.454  17.351  66.108  1.00  0.00    -0.331 C  
ENDBRANCH  22  23
ENDBRANCH  21  22
ENDBRANCH  20  21
ENDBRANCH  14  20
ENDBRANCH  13  14
ENDBRANCH  12  13
ENDBRANCH   6  12
ENDBRANCH   5   6
ENDBRANCH   4   5
ENDBRANCH   3   4
ENDBRANCH   2   3
TORSDOF 19
ENDMDL
MODEL      336
REMARK 921   NORMALIZED FREE ENERGY PREDICTED BY IDOCK:   -2.35 KCAL/MOL
REMARK 922        TOTAL FREE ENERGY PREDICTED BY IDOCK:   -6.22 KCAL/MOL
REMARK 923 INTER-LIGAND FREE ENERGY PREDICTED BY IDOCK:   -5.22 KCAL/MOL
REMARK 924 INTRA-LIGAND FREE ENERGY PREDICTED BY IDOCK:   -0.99 KCAL/MOL
REMARK 927      BINDING AFFINITY PREDICTED BY RF-SCORE:    0.00 PKD
ROOT
HETATM    1  C   UNL     1      -5.786  12.729  70.044  1.00  0.00    -0.149 C  
HETATM    2  C   UNL     1      -5.901  14.236  70.131  1.00  0.00    -0.140 C  
ENDROOT
BRANCH   2   3
HETATM    3  O   UNL     1      -6.926  14.695  69.245  1.00  0.00    -0.128 OA 
BRANCH   3   4
HETATM    4  C   UNL     1      -6.988  13.852  68.092  1.00  0.00    -0.120 C  
BRANCH   4   5
HETATM    5  C   UNL     1      -8.388  13.873  67.483  1.00  0.00    -0.196 C  
BRANCH   5   6
HETATM    6  P   UNL     1      -9.604  14.771  68.556  1.00  0.00    -0.223 P  
BRANCH   6   7
HETATM    7  C   UNL     1     -10.534  15.786  67.306  1.00  0.00    -0.308 C  
BRANCH   7   8
HETATM    8  C   UNL     1      -9.574  16.569  66.412  1.00  0.00    -0.285 C  
BRANCH   8   9
HETATM    9  O   UNL     1     -10.010  17.926  66.291  1.00  0.00    -0.334 OA 
BRANCH   9  10
HETATM   10  C   UNL     1      -8.970  18.818  66.697  1.00  0.00    -0.315 C  
HETATM   11  C   UNL     1      -9.393  19.548  67.956  1.00  0.00    -0.411 C  
ENDBRANCH   9  10
ENDBRANCH   8   9
ENDBRANCH   7   8
ENDBRANCH   6   7
BRANCH   6  12
HETATM   12  C   UNL     1     -10.878  13.447  68.827  1.00  0.00    -0.246 C  
BRANCH  12  13
HETATM   13  C   UNL     1     -10.947  12.447  67.682  1.00  0.00    -0.236 C  
BRANCH  13  14
HETATM   14  P   UNL     1     -11.529  10.771  68.218  1.00  0.00    -0.118 P  
BRANCH  14  15
HETATM   15  C   UNL     1     -10.399   9.645  67.268  1.00  0.00    -0.249 C  
BRANCH  15  16
HETATM   16  C   UNL     1      -9.044  10.313  67.016  1.00  0.00    -0.139 C  
BRANCH  16  17
HETATM   17  O   UNL     1      -8.053   9.328  66.709  1.00  0.00    -0.110 OA 
BRANCH  17  18
HETATM   18  C   UNL     1      -7.742   9.359  65.313  1.00  0.00    -0.108 C  
HETATM   19  C   UNL     1      -6.239   9.324  65.124  1.00  0.00    -0.068 C  
ENDBRANCH  17  18
ENDBRANCH  16  17
ENDBRANCH  15  16
ENDBRANCH  14  15
BRANCH  14  20
HETATM   20  C   UNL     1     -10.720  10.690  69.889  1.00  0.00    -0.204 C  
BRANCH  20  21
HETATM   21  C   UNL     1     -11.381   9.659  70.801  1.00  0.00    -0.340 C  
BRANCH  21  22
HETATM   22  O   UNL     1     -10.395   9.062  71.643  1.00  0.00    -0.311 OA 
BRANCH  22  23
HETATM   23  C   UNL     1      -9.892   7.858  71.059  1.00  0.00    -0.170 C  
HETATM   24  C   UNL     1     -11.046   7.073  70.469  1.00  0.00    -0.316 C  
ENDBRANCH  22  23
ENDBRANCH  21  22
ENDBRANCH  20  21
ENDBRANCH  14  20
ENDBRANCH  13  14
ENDBRANCH  12  13
ENDBRANCH   6  12
ENDBRANCH   5   6
ENDBRANCH   4   5
ENDBRANCH   3   4
ENDBRANCH   2   3
TORSDOF 19
ENDMDL
MODEL      337
REMARK 921   NORMALIZED FREE ENERGY PREDICTED BY IDOCK:   -2.34 KCAL/MOL
REMARK 922        TOTAL FREE ENERGY PREDICTED BY IDOCK:   -6.19 KCAL/MOL
REMARK 923 INTER-LIGAND FREE ENERGY PREDICTED BY IDOCK:   -5.52 KCAL/MOL
REMARK 924 INTRA-LIGAND FREE ENERGY PREDICTED BY IDOCK:   -0.68 KCAL/MOL
REMARK 927      BINDING AFFINITY PREDICTED BY RF-SCORE:    0.00 PKD
ROOT
HETATM    1  C   UNL     1      -9.154  15.639  66.716  1.00  0.00    -0.281 C  
HETATM    2  C   UNL     1      -9.124  14.158  66.402  1.00  0.00    -0.114 C  
ENDROOT
BRANCH   2   3
HETATM    3  O   UNL     1      -8.315  13.476  67.364  1.00  0.00    -0.176 OA 
BRANCH   3   4
HETATM    4  C   UNL     1      -9.119  12.572  68.126  1.00  0.00    -0.204 C  
BRANCH   4   5
HETATM    5  C   UNL     1      -8.309  11.344  68.537  1.00  0.00    -0.153 C  
BRANCH   5   6
HETATM    6  P   UNL     1      -8.924   9.796  67.722  1.00  0.00    -0.127 P  
BRANCH   6   7
HETATM    7  C   UNL     1     -10.765   9.977  67.906  1.00  0.00    -0.272 C  
BRANCH   7   8
HETATM    8  C   UNL     1     -11.145  10.263  69.359  1.00  0.00    -0.252 C  
BRANCH   8   9
HETATM    9  O   UNL     1     -12.282  11.129  69.409  1.00  0.00    -0.333 OA 
BRANCH   9  10
HETATM   10  C   UNL     1     -12.532  11.541  70.754  1.00  0.00    -0.349 C  
HETATM   11  C   UNL     1     -12.887  10.333  71.596  1.00  0.00    -0.568 C  
ENDBRANCH   9  10
ENDBRANCH   8   9
ENDBRANCH   7   8
ENDBRANCH   6   7
BRANCH   6  12
HETATM   12  C   UNL     1      -8.788  10.266  65.930  1.00  0.00    -0.159 C  
BRANCH  12  13
HETATM   13  C   UNL     1     -10.127  10.632  65.309  1.00  0.00    -0.297 C  
BRANCH  13  14
HETATM   14  P   UNL     1      -9.963  11.384  63.623  1.00  0.00    -0.430 P  
BRANCH  14  15
HETATM   15  C   UNL     1      -9.583   9.901  62.572  1.00  0.00     0.019 C  
BRANCH  15  16
HETATM   16  C   UNL     1      -8.072   9.697  62.438  1.00  0.00    -0.128 C  
BRANCH  16  17
HETATM   17  O   UNL     1      -7.391  10.952  62.526  1.00  0.00    -0.086 OA 
BRANCH  17  18
HETATM   18  C   UNL     1      -5.976  10.746  62.559  1.00  0.00    -0.113 C  
HETATM   19  C   UNL     1      -5.545  10.389  63.967  1.00  0.00    -0.143 C  
ENDBRANCH  17  18
ENDBRANCH  16  17
ENDBRANCH  15  16
ENDBRANCH  14  15
BRANCH  14  20
HETATM   20  C   UNL     1     -11.763  11.605  63.214  1.00  0.00    -0.129 C  
BRANCH  20  21
HETATM   21  C   UNL     1     -12.588  12.004  64.437  1.00  0.00    -0.193 C  
BRANCH  21  22
HETATM   22  O   UNL     1     -11.877  12.984  65.193  1.00  0.00    -0.331 OA 
BRANCH  22  23
HETATM   23  C   UNL     1     -12.631  14.196  65.285  1.00  0.00    -0.442 C  
HETATM   24  C   UNL     1     -12.167  15.153  64.206  1.00  0.00    -0.257 C  
ENDBRANCH  22  23
ENDBRANCH  21  22
ENDBRANCH  20  21
ENDBRANCH  14  20
ENDBRANCH  13  14
ENDBRANCH  12  13
ENDBRANCH   6  12
ENDBRANCH   5   6
ENDBRANCH   4   5
ENDBRANCH   3   4
ENDBRANCH   2   3
TORSDOF 19
ENDMDL
MODEL      338
REMARK 921   NORMALIZED FREE ENERGY PREDICTED BY IDOCK:   -2.32 KCAL/MOL
REMARK 922        TOTAL FREE ENERGY PREDICTED BY IDOCK:   -6.15 KCAL/MOL
REMARK 923 INTER-LIGAND FREE ENERGY PREDICTED BY IDOCK:   -4.94 KCAL/MOL
REMARK 924 INTRA-LIGAND FREE ENERGY PREDICTED BY IDOCK:   -1.21 KCAL/MOL
REMARK 927      BINDING AFFINITY PREDICTED BY RF-SCORE:    0.00 PKD
ROOT
HETATM    1  C   UNL     1      -6.522   7.821  64.406  1.00  0.00    -0.052 C  
HETATM    2  C   UNL     1      -7.631   8.269  65.335  1.00  0.00    -0.096 C  
ENDROOT
BRANCH   2   3
HETATM    3  O   UNL     1      -7.095   9.122  66.350  1.00  0.00    -0.082 OA 
BRANCH   3   4
HETATM    4  C   UNL     1      -7.169  10.488  65.931  1.00  0.00    -0.135 C  
BRANCH   4   5
HETATM    5  C   UNL     1      -8.612  10.880  65.621  1.00  0.00    -0.160 C  
BRANCH   5   6
HETATM    6  P   UNL     1      -9.332  11.981  66.928  1.00  0.00    -0.209 P  
BRANCH   6   7
HETATM    7  C   UNL     1     -10.091  13.336  65.905  1.00  0.00    -0.291 C  
BRANCH   7   8
HETATM    8  C   UNL     1     -10.555  14.494  66.788  1.00  0.00    -0.276 C  
BRANCH   8   9
HETATM    9  O   UNL     1      -9.467  15.387  67.040  1.00  0.00    -0.210 OA 
BRANCH   9  10
HETATM   10  C   UNL     1      -9.537  15.887  68.377  1.00  0.00    -0.208 C  
HETATM   11  C   UNL     1     -10.481  17.071  68.426  1.00  0.00    -0.370 C  
ENDBRANCH   9  10
ENDBRANCH   8   9
ENDBRANCH   7   8
ENDBRANCH   6   7
BRANCH   6  12
HETATM   12  C   UNL     1     -10.888  11.058  67.345  1.00  0.00    -0.274 C  
BRANCH  12  13
HETATM   13  C   UNL     1     -10.703   9.548  67.340  1.00  0.00    -0.227 C  
BRANCH  13  14
HETATM   14  P   UNL     1     -10.522   8.833  69.040  1.00  0.00    -0.124 P  
BRANCH  14  15
HETATM   15  C   UNL     1      -8.688   8.933  69.310  1.00  0.00    -0.138 C  
BRANCH  15  16
HETATM   16  C   UNL     1      -8.066   7.536  69.371  1.00  0.00    -0.128 C  
BRANCH  16  17
HETATM   17  O   UNL     1      -7.121   7.458  70.442  1.00  0.00    -0.061 OA 
BRANCH  17  18
HETATM   18  C   UNL     1      -6.761   6.095  70.686  1.00  0.00    -0.053 C  
HETATM   19  C   UNL     1      -8.012   5.264  70.881  1.00  0.00    -0.099 C  
ENDBRANCH  17  18
ENDBRANCH  16  17
ENDBRANCH  15  16
ENDBRANCH  14  15
BRANCH  14  20
HETATM   20  C   UNL     1     -11.067  10.299  70.044  1.00  0.00    -0.311 C  
BRANCH  20  21
HETATM   21  C   UNL     1     -11.818   9.885  71.308  1.00  0.00    -0.395 C  
BRANCH  21  22
HETATM   22  O   UNL     1     -12.069   8.480  71.277  1.00  0.00    -0.290 OA 
BRANCH  22  23
HETATM   23  C   UNL     1     -11.776   7.886  72.544  1.00  0.00    -0.367 C  
HETATM   24  C   UNL     1     -10.280   7.937  72.782  1.00  0.00    -0.380 C  
ENDBRANCH  22  23
ENDBRANCH  21  22
ENDBRANCH  20  21
ENDBRANCH  14  20
ENDBRANCH  13  14
ENDBRANCH  12  13
ENDBRANCH   6  12
ENDBRANCH   5   6
ENDBRANCH   4   5
ENDBRANCH   3   4
ENDBRANCH   2   3
TORSDOF 19
ENDMDL
MODEL      339
REMARK 921   NORMALIZED FREE ENERGY PREDICTED BY IDOCK:   -2.30 KCAL/MOL
REMARK 922        TOTAL FREE ENERGY PREDICTED BY IDOCK:   -6.11 KCAL/MOL
REMARK 923 INTER-LIGAND FREE ENERGY PREDICTED BY IDOCK:   -5.10 KCAL/MOL
REMARK 924 INTRA-LIGAND FREE ENERGY PREDICTED BY IDOCK:   -1.00 KCAL/MOL
REMARK 927      BINDING AFFINITY PREDICTED BY RF-SCORE:    0.00 PKD
ROOT
HETATM    1  C   UNL     1     -10.741   4.949  66.107  1.00  0.00    -0.243 C  
HETATM    2  C   UNL     1      -9.495   4.244  66.601  1.00  0.00    -0.187 C  
ENDROOT
BRANCH   2   3
HETATM    3  O   UNL     1      -8.786   5.093  67.507  1.00  0.00    -0.105 OA 
BRANCH   3   4
HETATM    4  C   UNL     1      -7.910   5.960  66.780  1.00  0.00    -0.101 C  
BRANCH   4   5
HETATM    5  C   UNL     1      -7.832   7.331  67.447  1.00  0.00    -0.112 C  
BRANCH   5   6
HETATM    6  P   UNL     1      -7.456   8.680  66.232  1.00  0.00    -0.091 P  
BRANCH   6   7
HETATM    7  C   UNL     1      -7.137   7.710  64.678  1.00  0.00    -0.065 C  
BRANCH   7   8
HETATM    8  C   UNL     1      -8.030   8.195  63.536  1.00  0.00    -0.145 C  
BRANCH   8   9
HETATM    9  O   UNL     1      -8.114   7.196  62.517  1.00  0.00    -0.130 OA 
BRANCH   9  10
HETATM   10  C   UNL     1      -7.982   5.893  63.090  1.00  0.00    -0.108 C  
HETATM   11  C   UNL     1      -8.860   4.917  62.335  1.00  0.00    -0.120 C  
ENDBRANCH   9  10
ENDBRANCH   8   9
ENDBRANCH   7   8
ENDBRANCH   6   7
BRANCH   6  12
HETATM   12  C   UNL     1      -9.168   9.276  65.829  1.00  0.00    -0.224 C  
BRANCH  12  13
HETATM   13  C   UNL     1     -10.197   8.880  66.878  1.00  0.00    -0.276 C  
BRANCH  13  14
HETATM   14  P   UNL     1     -10.108   9.921  68.408  1.00  0.00    -0.185 P  
BRANCH  14  15
HETATM   15  C   UNL     1     -11.714  10.849  68.342  1.00  0.00    -0.218 C  
BRANCH  15  16
HETATM   16  C   UNL     1     -11.490  12.303  67.919  1.00  0.00    -0.330 C  
BRANCH  16  17
HETATM   17  O   UNL     1     -11.583  12.428  66.496  1.00  0.00    -0.355 OA 
BRANCH  17  18
HETATM   18  C   UNL     1     -11.611  13.807  66.122  1.00  0.00    -0.352 C  
HETATM   19  C   UNL     1     -11.780  14.668  67.357  1.00  0.00    -0.413 C  
ENDBRANCH  17  18
ENDBRANCH  16  17
ENDBRANCH  15  16
ENDBRANCH  14  15
BRANCH  14  20
HETATM   20  C   UNL     1     -10.542   8.632  69.676  1.00  0.00    -0.218 C  
BRANCH  20  21
HETATM   21  C   UNL     1     -10.255   9.104  71.100  1.00  0.00    -0.314 C  
BRANCH  21  22
HETATM   22  O   UNL     1     -11.449   9.028  71.879  1.00  0.00    -0.348 OA 
BRANCH  22  23
HETATM   23  C   UNL     1     -12.510   8.441  71.122  1.00  0.00    -0.173 C  
HETATM   24  C   UNL     1     -13.067   7.256  71.885  1.00  0.00    -0.290 C  
ENDBRANCH  22  23
ENDBRANCH  21  22
ENDBRANCH  20  21
ENDBRANCH  14  20
ENDBRANCH  13  14
ENDBRANCH  12  13
ENDBRANCH   6  12
ENDBRANCH   5   6
ENDBRANCH   4   5
ENDBRANCH   3   4
ENDBRANCH   2   3
TORSDOF 19
ENDMDL
MODEL      340
REMARK 921   NORMALIZED FREE ENERGY PREDICTED BY IDOCK:   -2.30 KCAL/MOL
REMARK 922        TOTAL FREE ENERGY PREDICTED BY IDOCK:   -6.11 KCAL/MOL
REMARK 923 INTER-LIGAND FREE ENERGY PREDICTED BY IDOCK:   -5.17 KCAL/MOL
REMARK 924 INTRA-LIGAND FREE ENERGY PREDICTED BY IDOCK:   -0.94 KCAL/MOL
REMARK 927      BINDING AFFINITY PREDICTED BY RF-SCORE:    0.00 PKD
ROOT
HETATM    1  C   UNL     1      -7.803  14.697  68.423  1.00  0.00    -0.131 C  
HETATM    2  C   UNL     1      -7.089  13.673  67.566  1.00  0.00    -0.152 C  
ENDROOT
BRANCH   2   3
HETATM    3  O   UNL     1      -7.952  12.558  67.327  1.00  0.00    -0.171 OA 
BRANCH   3   4
HETATM    4  C   UNL     1      -7.400  11.377  67.916  1.00  0.00    -0.093 C  
BRANCH   4   5
HETATM    5  C   UNL     1      -8.369  10.776  68.931  1.00  0.00    -0.147 C  
BRANCH   5   6
HETATM    6  P   UNL     1      -9.465   9.487  68.172  1.00  0.00    -0.134 P  
BRANCH   6   7
HETATM    7  C   UNL     1      -8.334   8.723  66.909  1.00  0.00    -0.108 C  
BRANCH   7   8
HETATM    8  C   UNL     1      -8.985   7.505  66.256  1.00  0.00    -0.167 C  
BRANCH   8   9
HETATM    9  O   UNL     1      -8.314   6.310  66.662  1.00  0.00    -0.109 OA 
BRANCH   9  10
HETATM   10  C   UNL     1      -9.055   5.160  66.250  1.00  0.00    -0.136 C  
HETATM   11  C   UNL     1     -10.499   5.306  66.684  1.00  0.00    -0.345 C  
ENDBRANCH   9  10
ENDBRANCH   8   9
ENDBRANCH   7   8
ENDBRANCH   6   7
BRANCH   6  12
HETATM   12  C   UNL     1      -9.374   8.149  69.456  1.00  0.00    -0.155 C  
BRANCH  12  13
HETATM   13  C   UNL     1     -10.727   7.519  69.754  1.00  0.00    -0.242 C  
BRANCH  13  14
HETATM   14  P   UNL     1     -11.083   7.392  71.568  1.00  0.00    -0.250 P  
BRANCH  14  15
HETATM   15  C   UNL     1     -12.934   7.536  71.611  1.00  0.00    -0.358 C  
BRANCH  15  16
HETATM   16  C   UNL     1     -13.365   8.910  72.131  1.00  0.00    -0.440 C  
BRANCH  16  17
HETATM   17  O   UNL     1     -13.588   9.807  71.039  1.00  0.00    -0.320 OA 
BRANCH  17  18
HETATM   18  C   UNL     1     -12.524  10.758  70.956  1.00  0.00    -0.420 C  
HETATM   19  C   UNL     1     -12.938  12.048  71.633  1.00  0.00    -0.439 C  
ENDBRANCH  17  18
ENDBRANCH  16  17
ENDBRANCH  15  16
ENDBRANCH  14  15
BRANCH  14  20
HETATM   20  C   UNL     1     -10.907   5.554  71.783  1.00  0.00    -0.211 C  
BRANCH  20  21
HETATM   21  C   UNL     1     -10.238   4.894  70.579  1.00  0.00    -0.218 C  
BRANCH  21  22
HETATM   22  O   UNL     1      -9.722   3.618  70.958  1.00  0.00    -0.178 OA 
BRANCH  22  23
HETATM   23  C   UNL     1     -10.229   3.227  72.236  1.00  0.00    -0.102 C  
HETATM   24  C   UNL     1      -9.548   1.944  72.669  1.00  0.00    -0.141 C  
ENDBRANCH  22  23
ENDBRANCH  21  22
ENDBRANCH  20  21
ENDBRANCH  14  20
ENDBRANCH  13  14
ENDBRANCH  12  13
ENDBRANCH   6  12
ENDBRANCH   5   6
ENDBRANCH   4   5
ENDBRANCH   3   4
ENDBRANCH   2   3
TORSDOF 19
ENDMDL
MODEL      341
REMARK 921   NORMALIZED FREE ENERGY PREDICTED BY IDOCK:   -2.29 KCAL/MOL
REMARK 922        TOTAL FREE ENERGY PREDICTED BY IDOCK:   -6.09 KCAL/MOL
REMARK 923 INTER-LIGAND FREE ENERGY PREDICTED BY IDOCK:   -5.15 KCAL/MOL
REMARK 924 INTRA-LIGAND FREE ENERGY PREDICTED BY IDOCK:   -0.94 KCAL/MOL
REMARK 927      BINDING AFFINITY PREDICTED BY RF-SCORE:    0.00 PKD
ROOT
HETATM    1  C   UNL     1     -13.706   9.712  72.092  1.00  0.00    -0.399 C  
HETATM    2  C   UNL     1     -13.024   8.362  72.164  1.00  0.00    -0.337 C  
ENDROOT
BRANCH   2   3
HETATM    3  O   UNL     1     -11.802   8.476  72.898  1.00  0.00    -0.238 OA 
BRANCH   3   4
HETATM    4  C   UNL     1     -10.749   7.805  72.202  1.00  0.00    -0.248 C  
BRANCH   4   5
HETATM    5  C   UNL     1      -9.606   8.770  71.892  1.00  0.00    -0.302 C  
BRANCH   5   6
HETATM    6  P   UNL     1      -9.319   8.952  70.070  1.00  0.00    -0.199 P  
BRANCH   6   7
HETATM    7  C   UNL     1     -10.165   7.438  69.400  1.00  0.00    -0.201 C  
BRANCH   7   8
HETATM    8  C   UNL     1      -9.338   6.795  68.287  1.00  0.00    -0.124 C  
BRANCH   8   9
HETATM    9  O   UNL     1      -8.792   5.552  68.735  1.00  0.00    -0.107 OA 
BRANCH   9  10
HETATM   10  C   UNL     1      -9.554   4.460  68.215  1.00  0.00    -0.138 C  
HETATM   11  C   UNL     1      -8.887   3.928  66.963  1.00  0.00    -0.135 C  
ENDBRANCH   9  10
ENDBRANCH   8   9
ENDBRANCH   7   8
ENDBRANCH   6   7
BRANCH   6  12
HETATM   12  C   UNL     1     -10.621  10.202  69.633  1.00  0.00    -0.257 C  
BRANCH  12  13
HETATM   13  C   UNL     1     -10.656  10.528  68.147  1.00  0.00    -0.204 C  
BRANCH  13  14
HETATM   14  P   UNL     1      -8.987  10.943  67.457  1.00  0.00    -0.137 P  
BRANCH  14  15
HETATM   15  C   UNL     1      -9.362  11.189  65.656  1.00  0.00    -0.219 C  
BRANCH  15  16
HETATM   16  C   UNL     1      -9.428   9.848  64.921  1.00  0.00    -0.291 C  
BRANCH  16  17
HETATM   17  O   UNL     1      -8.132   9.242  64.875  1.00  0.00    -0.117 OA 
BRANCH  17  18
HETATM   18  C   UNL     1      -8.254   7.817  64.862  1.00  0.00    -0.107 C  
HETATM   19  C   UNL     1      -6.911   7.187  65.169  1.00  0.00    -0.051 C  
ENDBRANCH  17  18
ENDBRANCH  16  17
ENDBRANCH  15  16
ENDBRANCH  14  15
BRANCH  14  20
HETATM   20  C   UNL     1      -8.869  12.717  67.998  1.00  0.00    -0.195 C  
BRANCH  20  21
HETATM   21  C   UNL     1      -8.866  13.682  66.815  1.00  0.00    -0.133 C  
BRANCH  21  22
HETATM   22  O   UNL     1     -10.187  14.177  66.597  1.00  0.00    -0.261 OA 
BRANCH  22  23
HETATM   23  C   UNL     1     -10.150  15.509  66.079  1.00  0.00    -0.332 C  
HETATM   24  C   UNL     1     -11.048  15.593  64.861  1.00  0.00    -0.414 C  
ENDBRANCH  22  23
ENDBRANCH  21  22
ENDBRANCH  20  21
ENDBRANCH  14  20
ENDBRANCH  13  14
ENDBRANCH  12  13
ENDBRANCH   6  12
ENDBRANCH   5   6
ENDBRANCH   4   5
ENDBRANCH   3   4
ENDBRANCH   2   3
TORSDOF 19
ENDMDL
MODEL      342
REMARK 921   NORMALIZED FREE ENERGY PREDICTED BY IDOCK:   -2.27 KCAL/MOL
REMARK 922        TOTAL FREE ENERGY PREDICTED BY IDOCK:   -6.03 KCAL/MOL
REMARK 923 INTER-LIGAND FREE ENERGY PREDICTED BY IDOCK:   -4.72 KCAL/MOL
REMARK 924 INTRA-LIGAND FREE ENERGY PREDICTED BY IDOCK:   -1.32 KCAL/MOL
REMARK 927      BINDING AFFINITY PREDICTED BY RF-SCORE:    0.00 PKD
ROOT
HETATM    1  C   UNL     1     -10.123   9.122  68.814  1.00  0.00    -0.212 C  
HETATM    2  C   UNL     1     -10.233   9.487  67.348  1.00  0.00    -0.227 C  
ENDROOT
BRANCH   2   3
HETATM    3  O   UNL     1      -9.614  10.755  67.119  1.00  0.00    -0.159 OA 
BRANCH   3   4
HETATM    4  C   UNL     1      -9.218  11.339  68.363  1.00  0.00    -0.178 C  
BRANCH   4   5
HETATM    5  C   UNL     1      -8.716  12.765  68.155  1.00  0.00    -0.193 C  
BRANCH   5   6
HETATM    6  P   UNL     1      -9.723  14.005  69.097  1.00  0.00     0.410 P  
BRANCH   6   7
HETATM    7  C   UNL     1      -8.476  15.349  69.405  1.00  0.00    -0.253 C  
BRANCH   7   8
HETATM    8  C   UNL     1      -7.234  15.155  68.535  1.00  0.00    -0.118 C  
BRANCH   8   9
HETATM    9  O   UNL     1      -6.553  16.401  68.364  1.00  0.00    -0.130 OA 
BRANCH   9  10
HETATM   10  C   UNL     1      -7.216  17.432  69.099  1.00  0.00    -0.175 C  
HETATM   11  C   UNL     1      -6.218  18.510  69.471  1.00  0.00    -0.269 C  
ENDBRANCH   9  10
ENDBRANCH   8   9
ENDBRANCH   7   8
ENDBRANCH   6   7
BRANCH   6  12
HETATM   12  C   UNL     1     -10.657  14.821  67.714  1.00  0.00    -0.257 C  
BRANCH  12  13
HETATM   13  C   UNL     1      -9.846  14.929  66.432  1.00  0.00    -0.274 C  
BRANCH  13  14
HETATM   14  P   UNL     1     -10.017  16.577  65.603  1.00  0.00     0.005 P  
BRANCH  14  15
HETATM   15  C   UNL     1     -11.657  16.414  64.748  1.00  0.00     0.089 C  
BRANCH  15  16
HETATM   16  C   UNL     1     -11.694  15.160  63.869  1.00  0.00     0.291 C  
BRANCH  16  17
HETATM   17  O   UNL     1     -12.780  14.313  64.257  1.00  0.00    -0.660 OA 
BRANCH  17  18
HETATM   18  C   UNL     1     -12.438  12.942  64.043  1.00  0.00    -0.326 C  
HETATM   19  C   UNL     1     -12.003  12.314  65.352  1.00  0.00    -0.395 C  
ENDBRANCH  17  18
ENDBRANCH  16  17
ENDBRANCH  15  16
ENDBRANCH  14  15
BRANCH  14  20
HETATM   20  C   UNL     1     -10.528  17.601  67.068  1.00  0.00    -0.305 C  
BRANCH  20  21
HETATM   21  C   UNL     1      -9.958  19.017  67.009  1.00  0.00    -0.342 C  
BRANCH  21  22
HETATM   22  O   UNL     1      -9.058  19.125  65.906  1.00  0.00    -0.436 OA 
BRANCH  22  23
HETATM   23  C   UNL     1      -7.888  19.857  66.279  1.00  0.00    -0.321 C  
HETATM   24  C   UNL     1      -6.660  19.104  65.807  1.00  0.00    -0.280 C  
ENDBRANCH  22  23
ENDBRANCH  21  22
ENDBRANCH  20  21
ENDBRANCH  14  20
ENDBRANCH  13  14
ENDBRANCH  12  13
ENDBRANCH   6  12
ENDBRANCH   5   6
ENDBRANCH   4   5
ENDBRANCH   3   4
ENDBRANCH   2   3
TORSDOF 19
ENDMDL
MODEL      343
REMARK 921   NORMALIZED FREE ENERGY PREDICTED BY IDOCK:   -2.26 KCAL/MOL
REMARK 922        TOTAL FREE ENERGY PREDICTED BY IDOCK:   -6.03 KCAL/MOL
REMARK 923 INTER-LIGAND FREE ENERGY PREDICTED BY IDOCK:   -5.06 KCAL/MOL
REMARK 924 INTRA-LIGAND FREE ENERGY PREDICTED BY IDOCK:   -0.97 KCAL/MOL
REMARK 927      BINDING AFFINITY PREDICTED BY RF-SCORE:    0.00 PKD
ROOT
HETATM    1  C   UNL     1     -10.288   4.976  66.332  1.00  0.00    -0.335 C  
HETATM    2  C   UNL     1      -9.675   4.713  67.691  1.00  0.00    -0.161 C  
ENDROOT
BRANCH   2   3
HETATM    3  O   UNL     1      -9.333   5.953  68.316  1.00  0.00    -0.116 OA 
BRANCH   3   4
HETATM    4  C   UNL     1      -8.087   6.431  67.804  1.00  0.00    -0.115 C  
BRANCH   4   5
HETATM    5  C   UNL     1      -7.907   7.914  68.120  1.00  0.00    -0.127 C  
BRANCH   5   6
HETATM    6  P   UNL     1      -7.340   8.880  66.642  1.00  0.00    -0.086 P  
BRANCH   6   7
HETATM    7  C   UNL     1      -6.631   7.541  65.564  1.00  0.00    -0.045 C  
BRANCH   7   8
HETATM    8  C   UNL     1      -7.422   7.410  64.262  1.00  0.00    -0.098 C  
BRANCH   8   9
HETATM    9  O   UNL     1      -6.734   6.546  63.354  1.00  0.00    -0.042 OA 
BRANCH   9  10
HETATM   10  C   UNL     1      -6.733   5.206  63.849  1.00  0.00    -0.045 C  
HETATM   11  C   UNL     1      -7.466   4.306  62.876  1.00  0.00    -0.049 C  
ENDBRANCH   9  10
ENDBRANCH   8   9
ENDBRANCH   7   8
ENDBRANCH   6   7
BRANCH   6  12
HETATM   12  C   UNL     1      -8.947   9.124  65.744  1.00  0.00    -0.193 C  
BRANCH  12  13
HETATM   13  C   UNL     1      -9.971   9.898  66.560  1.00  0.00    -0.228 C  
BRANCH  13  14
HETATM   14  P   UNL     1      -9.463  11.649  66.888  1.00  0.00    -0.194 P  
BRANCH  14  15
HETATM   15  C   UNL     1     -10.609  12.600  65.780  1.00  0.00    -0.272 C  
BRANCH  15  16
HETATM   16  C   UNL     1     -10.088  14.019  65.540  1.00  0.00    -0.320 C  
BRANCH  16  17
HETATM   17  O   UNL     1     -10.962  14.979  66.142  1.00  0.00    -0.327 OA 
BRANCH  17  18
HETATM   18  C   UNL     1     -10.508  16.305  65.862  1.00  0.00    -0.345 C  
HETATM   19  C   UNL     1      -9.012  16.391  66.087  1.00  0.00    -0.367 C  
ENDBRANCH  17  18
ENDBRANCH  16  17
ENDBRANCH  15  16
ENDBRANCH  14  15
BRANCH  14  20
HETATM   20  C   UNL     1     -10.316  11.911  68.519  1.00  0.00    -0.218 C  
BRANCH  20  21
HETATM   21  C   UNL     1     -11.814  12.156  68.354  1.00  0.00    -0.303 C  
BRANCH  21  22
HETATM   22  O   UNL     1     -12.541  11.247  69.181  1.00  0.00    -0.320 OA 
BRANCH  22  23
HETATM   23  C   UNL     1     -11.856  11.028  70.417  1.00  0.00    -0.367 C  
HETATM   24  C   UNL     1     -12.148   9.623  70.904  1.00  0.00    -0.383 C  
ENDBRANCH  22  23
ENDBRANCH  21  22
ENDBRANCH  20  21
ENDBRANCH  14  20
ENDBRANCH  13  14
ENDBRANCH  12  13
ENDBRANCH   6  12
ENDBRANCH   5   6
ENDBRANCH   4   5
ENDBRANCH   3   4
ENDBRANCH   2   3
TORSDOF 19
ENDMDL
MODEL      344
REMARK 921   NORMALIZED FREE ENERGY PREDICTED BY IDOCK:   -2.24 KCAL/MOL
REMARK 922        TOTAL FREE ENERGY PREDICTED BY IDOCK:   -5.99 KCAL/MOL
REMARK 923 INTER-LIGAND FREE ENERGY PREDICTED BY IDOCK:   -4.90 KCAL/MOL
REMARK 924 INTRA-LIGAND FREE ENERGY PREDICTED BY IDOCK:   -1.08 KCAL/MOL
REMARK 927      BINDING AFFINITY PREDICTED BY RF-SCORE:    0.00 PKD
ROOT
HETATM    1  C   UNL     1      -5.241  11.600  69.887  1.00  0.00    -0.073 C  
HETATM    2  C   UNL     1      -6.633  11.004  69.891  1.00  0.00    -0.142 C  
ENDROOT
BRANCH   2   3
HETATM    3  O   UNL     1      -6.752  10.047  68.835  1.00  0.00    -0.052 OA 
BRANCH   3   4
HETATM    4  C   UNL     1      -7.651  10.530  67.834  1.00  0.00    -0.092 C  
BRANCH   4   5
HETATM    5  C   UNL     1      -8.569  11.607  68.408  1.00  0.00    -0.156 C  
BRANCH   5   6
HETATM    6  P   UNL     1     -10.350  11.090  68.391  1.00  0.00    -0.205 P  
BRANCH   6   7
HETATM    7  C   UNL     1     -10.772  11.248  66.587  1.00  0.00    -0.272 C  
BRANCH   7   8
HETATM    8  C   UNL     1     -10.422  12.640  66.062  1.00  0.00    -0.268 C  
BRANCH   8   9
HETATM    9  O   UNL     1     -10.197  12.592  64.650  1.00  0.00    -0.313 OA 
BRANCH   9  10
HETATM   10  C   UNL     1     -10.574  11.315  64.133  1.00  0.00    -0.373 C  
HETATM   11  C   UNL     1      -9.606  10.906  63.041  1.00  0.00    -0.382 C  
ENDBRANCH   9  10
ENDBRANCH   8   9
ENDBRANCH   7   8
ENDBRANCH   6   7
BRANCH   6  12
HETATM   12  C   UNL     1     -10.179   9.243  68.464  1.00  0.00    -0.201 C  
BRANCH  12  13
HETATM   13  C   UNL     1     -10.660   8.551  67.197  1.00  0.00    -0.243 C  
BRANCH  13  14
HETATM   14  P   UNL     1     -10.319   6.730  67.191  1.00  0.00    -0.320 P  
BRANCH  14  15
HETATM   15  C   UNL     1      -8.595   6.654  67.876  1.00  0.00    -0.118 C  
BRANCH  15  16
HETATM   16  C   UNL     1      -7.600   6.195  66.807  1.00  0.00    -0.099 C  
BRANCH  16  17
HETATM   17  O   UNL     1      -6.587   5.372  67.391  1.00  0.00    -0.050 OA 
BRANCH  17  18
HETATM   18  C   UNL     1      -6.109   4.422  66.435  1.00  0.00    -0.031 C  
HETATM   19  C   UNL     1      -5.686   3.152  67.143  1.00  0.00    -0.022 C  
ENDBRANCH  17  18
ENDBRANCH  16  17
ENDBRANCH  15  16
ENDBRANCH  14  15
BRANCH  14  20
HETATM   20  C   UNL     1     -11.280   6.238  68.705  1.00  0.00    -0.273 C  
BRANCH  20  21
HETATM   21  C   UNL     1     -10.374   5.712  69.817  1.00  0.00    -0.282 C  
BRANCH  21  22
HETATM   22  O   UNL     1     -11.004   5.912  71.082  1.00  0.00    -0.270 OA 
BRANCH  22  23
HETATM   23  C   UNL     1     -11.312   7.295  71.280  1.00  0.00    -0.264 C  
HETATM   24  C   UNL     1     -10.924   7.693  72.690  1.00  0.00    -0.405 C  
ENDBRANCH  22  23
ENDBRANCH  21  22
ENDBRANCH  20  21
ENDBRANCH  14  20
ENDBRANCH  13  14
ENDBRANCH  12  13
ENDBRANCH   6  12
ENDBRANCH   5   6
ENDBRANCH   4   5
ENDBRANCH   3   4
ENDBRANCH   2   3
TORSDOF 19
ENDMDL
MODEL      345
REMARK 921   NORMALIZED FREE ENERGY PREDICTED BY IDOCK:   -2.24 KCAL/MOL
REMARK 922        TOTAL FREE ENERGY PREDICTED BY IDOCK:   -5.98 KCAL/MOL
REMARK 923 INTER-LIGAND FREE ENERGY PREDICTED BY IDOCK:   -4.55 KCAL/MOL
REMARK 924 INTRA-LIGAND FREE ENERGY PREDICTED BY IDOCK:   -1.43 KCAL/MOL
REMARK 927      BINDING AFFINITY PREDICTED BY RF-SCORE:    0.00 PKD
ROOT
HETATM    1  C   UNL     1      -8.899   9.334  69.154  1.00  0.00    -0.141 C  
HETATM    2  C   UNL     1      -9.836   9.233  67.969  1.00  0.00    -0.163 C  
ENDROOT
BRANCH   2   3
HETATM    3  O   UNL     1     -10.686   8.094  68.121  1.00  0.00    -0.147 OA 
BRANCH   3   4
HETATM    4  C   UNL     1     -10.103   7.168  69.042  1.00  0.00    -0.183 C  
BRANCH   4   5
HETATM    5  C   UNL     1     -11.185   6.457  69.851  1.00  0.00    -0.420 C  
BRANCH   5   6
HETATM    6  P   UNL     1     -11.479   7.270  71.492  1.00  0.00    -0.291 P  
BRANCH   6   7
HETATM    7  C   UNL     1     -13.336   7.322  71.561  1.00  0.00    -0.369 C  
BRANCH   7   8
HETATM    8  C   UNL     1     -13.830   8.700  72.000  1.00  0.00    -0.440 C  
BRANCH   8   9
HETATM    9  O   UNL     1     -12.723   9.593  72.155  1.00  0.00    -0.378 OA 
BRANCH   9  10
HETATM   10  C   UNL     1     -13.035  10.869  71.593  1.00  0.00    -0.464 C  
HETATM   11  C   UNL     1     -12.149  11.123  70.390  1.00  0.00    -0.475 C  
ENDBRANCH   9  10
ENDBRANCH   8   9
ENDBRANCH   7   8
ENDBRANCH   6   7
BRANCH   6  12
HETATM   12  C   UNL     1     -11.209   5.839  72.645  1.00  0.00    -0.301 C  
BRANCH  12  13
HETATM   13  C   UNL     1     -10.597   4.629  71.956  1.00  0.00    -0.069 C  
BRANCH  13  14
HETATM   14  P   UNL     1      -8.788   4.434  72.307  1.00  0.00    -0.114 P  
BRANCH  14  15
HETATM   15  C   UNL     1      -8.643   5.148  74.014  1.00  0.00    -0.108 C  
BRANCH  15  16
HETATM   16  C   UNL     1      -7.822   6.440  74.001  1.00  0.00    -0.097 C  
BRANCH  16  17
HETATM   17  O   UNL     1      -7.603   6.876  72.656  1.00  0.00    -0.089 OA 
BRANCH  17  18
HETATM   18  C   UNL     1      -7.614   8.305  72.593  1.00  0.00    -0.114 C  
HETATM   19  C   UNL     1      -6.302   8.801  72.021  1.00  0.00    -0.069 C  
ENDBRANCH  17  18
ENDBRANCH  16  17
ENDBRANCH  15  16
ENDBRANCH  14  15
BRANCH  14  20
HETATM   20  C   UNL     1      -8.753   2.622  72.720  1.00  0.00    -0.071 C  
BRANCH  20  21
HETATM   21  C   UNL     1      -7.367   2.012  72.521  1.00  0.00    -0.035 C  
BRANCH  21  22
HETATM   22  O   UNL     1      -6.446   3.032  72.133  1.00  0.00    -0.014 OA 
BRANCH  22  23
HETATM   23  C   UNL     1      -5.249   2.956  72.912  1.00  0.00     0.000 C  
HETATM   24  C   UNL     1      -5.340   1.767  73.848  1.00  0.00     0.000 C  
ENDBRANCH  22  23
ENDBRANCH  21  22
ENDBRANCH  20  21
ENDBRANCH  14  20
ENDBRANCH  13  14
ENDBRANCH  12  13
ENDBRANCH   6  12
ENDBRANCH   5   6
ENDBRANCH   4   5
ENDBRANCH   3   4
ENDBRANCH   2   3
TORSDOF 19
ENDMDL
MODEL      346
REMARK 921   NORMALIZED FREE ENERGY PREDICTED BY IDOCK:   -2.23 KCAL/MOL
REMARK 922        TOTAL FREE ENERGY PREDICTED BY IDOCK:   -5.96 KCAL/MOL
REMARK 923 INTER-LIGAND FREE ENERGY PREDICTED BY IDOCK:   -4.60 KCAL/MOL
REMARK 924 INTRA-LIGAND FREE ENERGY PREDICTED BY IDOCK:   -1.36 KCAL/MOL
REMARK 927      BINDING AFFINITY PREDICTED BY RF-SCORE:    0.00 PKD
ROOT
HETATM    1  C   UNL     1      -9.453   4.072  63.770  1.00  0.00    -0.155 C  
HETATM    2  C   UNL     1      -8.241   4.792  64.323  1.00  0.00    -0.117 C  
ENDROOT
BRANCH   2   3
HETATM    3  O   UNL     1      -8.254   6.157  63.899  1.00  0.00    -0.099 OA 
BRANCH   3   4
HETATM    4  C   UNL     1      -7.106   6.839  64.410  1.00  0.00    -0.061 C  
BRANCH   4   5
HETATM    5  C   UNL     1      -7.520   7.945  65.377  1.00  0.00    -0.080 C  
BRANCH   5   6
HETATM    6  P   UNL     1      -7.552   9.611  64.563  1.00  0.00    -0.140 P  
BRANCH   6   7
HETATM    7  C   UNL     1      -9.372   9.853  64.269  1.00  0.00    -0.253 C  
BRANCH   7   8
HETATM    8  C   UNL     1      -9.616  10.834  63.123  1.00  0.00    -0.355 C  
BRANCH   8   9
HETATM    9  O   UNL     1     -10.170  12.053  63.627  1.00  0.00    -0.381 OA 
BRANCH   9  10
HETATM   10  C   UNL     1     -11.564  11.889  63.895  1.00  0.00    -0.425 C  
HETATM   11  C   UNL     1     -11.876  12.404  65.285  1.00  0.00    -0.451 C  
ENDBRANCH   9  10
ENDBRANCH   8   9
ENDBRANCH   7   8
ENDBRANCH   6   7
BRANCH   6  12
HETATM   12  C   UNL     1      -7.369  10.725  66.037  1.00  0.00    -0.114 C  
BRANCH  12  13
HETATM   13  C   UNL     1      -7.497   9.985  67.360  1.00  0.00    -0.091 C  
BRANCH  13  14
HETATM   14  P   UNL     1      -7.985  11.090  68.765  1.00  0.00    -0.115 P  
BRANCH  14  15
HETATM   15  C   UNL     1      -9.679  10.457  69.186  1.00  0.00    -0.220 C  
BRANCH  15  16
HETATM   16  C   UNL     1     -10.302   9.723  67.996  1.00  0.00    -0.207 C  
BRANCH  16  17
HETATM   17  O   UNL     1     -10.558   8.356  68.333  1.00  0.00    -0.190 OA 
BRANCH  17  18
HETATM   18  C   UNL     1     -10.679   7.569  67.146  1.00  0.00    -0.309 C  
HETATM   19  C   UNL     1     -10.920   6.120  67.517  1.00  0.00    -0.404 C  
ENDBRANCH  17  18
ENDBRANCH  16  17
ENDBRANCH  15  16
ENDBRANCH  14  15
BRANCH  14  20
HETATM   20  C   UNL     1      -7.006  10.296  70.130  1.00  0.00    -0.155 C  
BRANCH  20  21
HETATM   21  C   UNL     1      -6.090   9.187  69.613  1.00  0.00    -0.039 C  
BRANCH  21  22
HETATM   22  O   UNL     1      -6.287   8.004  70.387  1.00  0.00    -0.036 OA 
BRANCH  22  23
HETATM   23  C   UNL     1      -7.637   7.544  70.273  1.00  0.00    -0.090 C  
HETATM   24  C   UNL     1      -7.751   6.635  69.066  1.00  0.00    -0.109 C  
ENDBRANCH  22  23
ENDBRANCH  21  22
ENDBRANCH  20  21
ENDBRANCH  14  20
ENDBRANCH  13  14
ENDBRANCH  12  13
ENDBRANCH   6  12
ENDBRANCH   5   6
ENDBRANCH   4   5
ENDBRANCH   3   4
ENDBRANCH   2   3
TORSDOF 19
ENDMDL
MODEL      347
REMARK 921   NORMALIZED FREE ENERGY PREDICTED BY IDOCK:   -2.22 KCAL/MOL
REMARK 922        TOTAL FREE ENERGY PREDICTED BY IDOCK:   -5.93 KCAL/MOL
REMARK 923 INTER-LIGAND FREE ENERGY PREDICTED BY IDOCK:   -4.89 KCAL/MOL
REMARK 924 INTRA-LIGAND FREE ENERGY PREDICTED BY IDOCK:   -1.04 KCAL/MOL
REMARK 927      BINDING AFFINITY PREDICTED BY RF-SCORE:    0.00 PKD
ROOT
HETATM    1  C   UNL     1      -6.292   7.657  64.204  1.00  0.00    -0.049 C  
HETATM    2  C   UNL     1      -7.163   8.520  65.094  1.00  0.00    -0.080 C  
ENDROOT
BRANCH   2   3
HETATM    3  O   UNL     1      -7.204   7.966  66.412  1.00  0.00    -0.078 OA 
BRANCH   3   4
HETATM    4  C   UNL     1      -6.712   8.919  67.358  1.00  0.00    -0.066 C  
BRANCH   4   5
HETATM    5  C   UNL     1      -6.574  10.297  66.715  1.00  0.00    -0.075 C  
BRANCH   5   6
HETATM    6  P   UNL     1      -6.890  11.667  67.924  1.00  0.00    -0.090 P  
BRANCH   6   7
HETATM    7  C   UNL     1      -5.653  12.944  67.380  1.00  0.00    -0.023 C  
BRANCH   7   8
HETATM    8  C   UNL     1      -5.916  14.287  68.061  1.00  0.00    -0.145 C  
BRANCH   8   9
HETATM    9  O   UNL     1      -6.317  15.260  67.093  1.00  0.00    -0.297 OA 
BRANCH   9  10
HETATM   10  C   UNL     1      -5.617  16.487  67.306  1.00  0.00    -0.139 C  
HETATM   11  C   UNL     1      -6.259  17.245  68.450  1.00  0.00    -0.153 C  
ENDBRANCH   9  10
ENDBRANCH   8   9
ENDBRANCH   7   8
ENDBRANCH   6   7
BRANCH   6  12
HETATM   12  C   UNL     1      -8.411  12.439  67.189  1.00  0.00    -0.181 C  
BRANCH  12  13
HETATM   13  C   UNL     1      -9.212  11.471  66.331  1.00  0.00    -0.208 C  
BRANCH  13  14
HETATM   14  P   UNL     1     -11.021  11.473  66.732  1.00  0.00    -0.269 P  
BRANCH  14  15
HETATM   15  C   UNL     1     -11.015  11.839  68.552  1.00  0.00    -0.227 C  
BRANCH  15  16
HETATM   16  C   UNL     1     -10.619  10.601  69.360  1.00  0.00    -0.239 C  
BRANCH  16  17
HETATM   17  O   UNL     1     -11.777   9.821  69.675  1.00  0.00    -0.067 OA 
BRANCH  17  18
HETATM   18  C   UNL     1     -11.720   9.377  71.033  1.00  0.00    -0.323 C  
HETATM   19  C   UNL     1     -13.105   9.421  71.644  1.00  0.00    -0.471 C  
ENDBRANCH  17  18
ENDBRANCH  16  17
ENDBRANCH  15  16
ENDBRANCH  14  15
BRANCH  14  20
HETATM   20  C   UNL     1     -11.475  13.151  66.076  1.00  0.00    -0.335 C  
BRANCH  20  21
HETATM   21  C   UNL     1     -12.005  14.075  67.171  1.00  0.00    -0.430 C  
BRANCH  21  22
HETATM   22  O   UNL     1     -11.345  15.339  67.091  1.00  0.00    -0.323 OA 
BRANCH  22  23
HETATM   23  C   UNL     1     -10.656  15.628  68.310  1.00  0.00    -0.262 C  
HETATM   24  C   UNL     1     -10.608  17.129  68.509  1.00  0.00    -0.361 C  
ENDBRANCH  22  23
ENDBRANCH  21  22
ENDBRANCH  20  21
ENDBRANCH  14  20
ENDBRANCH  13  14
ENDBRANCH  12  13
ENDBRANCH   6  12
ENDBRANCH   5   6
ENDBRANCH   4   5
ENDBRANCH   3   4
ENDBRANCH   2   3
TORSDOF 19
ENDMDL
MODEL      348
REMARK 921   NORMALIZED FREE ENERGY PREDICTED BY IDOCK:   -2.20 KCAL/MOL
REMARK 922        TOTAL FREE ENERGY PREDICTED BY IDOCK:   -5.89 KCAL/MOL
REMARK 923 INTER-LIGAND FREE ENERGY PREDICTED BY IDOCK:   -5.11 KCAL/MOL
REMARK 924 INTRA-LIGAND FREE ENERGY PREDICTED BY IDOCK:   -0.78 KCAL/MOL
REMARK 927      BINDING AFFINITY PREDICTED BY RF-SCORE:    0.00 PKD
ROOT
HETATM    1  C   UNL     1     -10.179  16.606  66.002  1.00  0.00    -0.366 C  
HETATM    2  C   UNL     1      -9.023  15.718  66.412  1.00  0.00    -0.331 C  
ENDROOT
BRANCH   2   3
HETATM    3  O   UNL     1      -9.450  14.807  67.428  1.00  0.00    -0.201 OA 
BRANCH   3   4
HETATM    4  C   UNL     1      -9.690  13.517  66.860  1.00  0.00    -0.261 C  
BRANCH   4   5
HETATM    5  C   UNL     1      -9.295  12.414  67.839  1.00  0.00    -0.195 C  
BRANCH   5   6
HETATM    6  P   UNL     1      -9.730  10.727  67.204  1.00  0.00    -0.177 P  
BRANCH   6   7
HETATM    7  C   UNL     1      -8.327  10.391  66.031  1.00  0.00    -0.149 C  
BRANCH   7   8
HETATM    8  C   UNL     1      -8.317   8.926  65.594  1.00  0.00    -0.139 C  
BRANCH   8   9
HETATM    9  O   UNL     1      -8.357   8.838  64.167  1.00  0.00    -0.170 OA 
BRANCH   9  10
HETATM   10  C   UNL     1      -8.573  10.130  63.597  1.00  0.00    -0.197 C  
HETATM   11  C   UNL     1      -9.440  10.000  62.362  1.00  0.00    -0.224 C  
ENDBRANCH   9  10
ENDBRANCH   8   9
ENDBRANCH   7   8
ENDBRANCH   6   7
BRANCH   6  12
HETATM   12  C   UNL     1      -9.160   9.663  68.615  1.00  0.00    -0.132 C  
BRANCH  12  13
HETATM   13  C   UNL     1     -10.154   9.621  69.766  1.00  0.00    -0.233 C  
BRANCH  13  14
HETATM   14  P   UNL     1     -10.651   7.898  70.232  1.00  0.00    -0.234 P  
BRANCH  14  15
HETATM   15  C   UNL     1      -9.045   6.978  70.091  1.00  0.00    -0.149 C  
BRANCH  15  16
HETATM   16  C   UNL     1      -8.392   6.800  71.464  1.00  0.00    -0.115 C  
BRANCH  16  17
HETATM   17  O   UNL     1      -8.377   5.417  71.831  1.00  0.00    -0.119 OA 
BRANCH  17  18
HETATM   18  C   UNL     1      -8.280   4.597  70.664  1.00  0.00    -0.083 C  
HETATM   19  C   UNL     1      -6.956   3.861  70.665  1.00  0.00    -0.033 C  
ENDBRANCH  17  18
ENDBRANCH  16  17
ENDBRANCH  15  16
ENDBRANCH  14  15
BRANCH  14  20
HETATM   20  C   UNL     1     -10.737   8.097  72.079  1.00  0.00    -0.278 C  
BRANCH  20  21
HETATM   21  C   UNL     1     -12.144   8.452  72.556  1.00  0.00    -0.337 C  
BRANCH  21  22
HETATM   22  O   UNL     1     -13.058   8.351  71.464  1.00  0.00    -0.326 OA 
BRANCH  22  23
HETATM   23  C   UNL     1     -13.882   9.517  71.385  1.00  0.00    -0.160 C  
HETATM   24  C   UNL     1     -13.135  10.694  71.982  1.00  0.00    -0.501 C  
ENDBRANCH  22  23
ENDBRANCH  21  22
ENDBRANCH  20  21
ENDBRANCH  14  20
ENDBRANCH  13  14
ENDBRANCH  12  13
ENDBRANCH   6  12
ENDBRANCH   5   6
ENDBRANCH   4   5
ENDBRANCH   3   4
ENDBRANCH   2   3
TORSDOF 19
ENDMDL
MODEL      349
REMARK 921   NORMALIZED FREE ENERGY PREDICTED BY IDOCK:   -2.18 KCAL/MOL
REMARK 922        TOTAL FREE ENERGY PREDICTED BY IDOCK:   -5.85 KCAL/MOL
REMARK 923 INTER-LIGAND FREE ENERGY PREDICTED BY IDOCK:   -5.30 KCAL/MOL
REMARK 924 INTRA-LIGAND FREE ENERGY PREDICTED BY IDOCK:   -0.55 KCAL/MOL
REMARK 927      BINDING AFFINITY PREDICTED BY RF-SCORE:    0.00 PKD
ROOT
HETATM    1  C   UNL     1      -9.608  16.460  67.068  1.00  0.00    -0.244 C  
HETATM    2  C   UNL     1      -8.320  15.715  66.784  1.00  0.00    -0.278 C  
ENDROOT
BRANCH   2   3
HETATM    3  O   UNL     1      -8.162  14.648  67.722  1.00  0.00    -0.141 OA 
BRANCH   3   4
HETATM    4  C   UNL     1      -8.787  13.462  67.224  1.00  0.00    -0.220 C  
BRANCH   4   5
HETATM    5  C   UNL     1      -8.400  12.252  68.070  1.00  0.00    -0.165 C  
BRANCH   5   6
HETATM    6  P   UNL     1      -9.786  11.029  68.217  1.00  0.00    -0.190 P  
BRANCH   6   7
HETATM    7  C   UNL     1      -9.831  10.300  66.507  1.00  0.00    -0.212 C  
BRANCH   7   8
HETATM    8  C   UNL     1     -10.710  11.137  65.578  1.00  0.00    -0.185 C  
BRANCH   8   9
HETATM    9  O   UNL     1     -10.414  10.830  64.212  1.00  0.00    -0.367 OA 
BRANCH   9  10
HETATM   10  C   UNL     1     -10.809  11.911  63.366  1.00  0.00    -0.399 C  
HETATM   11  C   UNL     1     -12.304  12.125  63.480  1.00  0.00    -0.682 C  
ENDBRANCH   9  10
ENDBRANCH   8   9
ENDBRANCH   7   8
ENDBRANCH   6   7
BRANCH   6  12
HETATM   12  C   UNL     1      -8.928   9.628  69.082  1.00  0.00    -0.154 C  
BRANCH  12  13
HETATM   13  C   UNL     1      -9.672   8.307  68.955  1.00  0.00    -0.164 C  
BRANCH  13  14
HETATM   14  P   UNL     1      -8.553   6.878  68.582  1.00  0.00    -0.121 P  
BRANCH  14  15
HETATM   15  C   UNL     1      -9.305   5.520  69.601  1.00  0.00    -0.134 C  
BRANCH  15  16
HETATM   16  C   UNL     1     -10.625   5.972  70.229  1.00  0.00    -0.273 C  
BRANCH  16  17
HETATM   17  O   UNL     1     -10.577   5.823  71.651  1.00  0.00    -0.229 OA 
BRANCH  17  18
HETATM   18  C   UNL     1     -11.796   6.286  72.239  1.00  0.00    -0.278 C  
HETATM   19  C   UNL     1     -12.615   7.025  71.200  1.00  0.00    -0.387 C  
ENDBRANCH  17  18
ENDBRANCH  16  17
ENDBRANCH  15  16
ENDBRANCH  14  15
BRANCH  14  20
HETATM   20  C   UNL     1      -9.207   6.411  66.906  1.00  0.00    -0.135 C  
BRANCH  20  21
HETATM   21  C   UNL     1      -8.598   7.260  65.792  1.00  0.00    -0.131 C  
BRANCH  21  22
HETATM   22  O   UNL     1      -7.453   6.597  65.257  1.00  0.00    -0.073 OA 
BRANCH  22  23
HETATM   23  C   UNL     1      -6.751   7.452  64.350  1.00  0.00    -0.047 C  
HETATM   24  C   UNL     1      -7.405   7.371  62.985  1.00  0.00    -0.089 C  
ENDBRANCH  22  23
ENDBRANCH  21  22
ENDBRANCH  20  21
ENDBRANCH  14  20
ENDBRANCH  13  14
ENDBRANCH  12  13
ENDBRANCH   6  12
ENDBRANCH   5   6
ENDBRANCH   4   5
ENDBRANCH   3   4
ENDBRANCH   2   3
TORSDOF 19
ENDMDL
MODEL      350
REMARK 921   NORMALIZED FREE ENERGY PREDICTED BY IDOCK:   -2.17 KCAL/MOL
REMARK 922        TOTAL FREE ENERGY PREDICTED BY IDOCK:   -5.83 KCAL/MOL
REMARK 923 INTER-LIGAND FREE ENERGY PREDICTED BY IDOCK:   -5.61 KCAL/MOL
REMARK 924 INTRA-LIGAND FREE ENERGY PREDICTED BY IDOCK:   -0.22 KCAL/MOL
REMARK 927      BINDING AFFINITY PREDICTED BY RF-SCORE:    0.00 PKD
ROOT
HETATM    1  C   UNL     1     -12.511  12.568  63.340  1.00  0.00    -0.514 C  
HETATM    2  C   UNL     1     -11.354  11.612  63.549  1.00  0.00    -0.354 C  
ENDROOT
BRANCH   2   3
HETATM    3  O   UNL     1     -11.010  11.566  64.936  1.00  0.00    -0.298 OA 
BRANCH   3   4
HETATM    4  C   UNL     1      -9.952  12.488  65.208  1.00  0.00    -0.207 C  
BRANCH   4   5
HETATM    5  C   UNL     1     -10.323  13.410  66.367  1.00  0.00    -0.288 C  
BRANCH   5   6
HETATM    6  P   UNL     1      -9.635  12.815  67.982  1.00  0.00    -0.216 P  
BRANCH   6   7
HETATM    7  C   UNL     1     -10.603  11.251  68.254  1.00  0.00    -0.197 C  
BRANCH   7   8
HETATM    8  C   UNL     1     -11.716  11.467  69.279  1.00  0.00    -0.330 C  
BRANCH   8   9
HETATM    9  O   UNL     1     -11.324  10.943  70.550  1.00  0.00    -0.290 OA 
BRANCH   9  10
HETATM   10  C   UNL     1     -12.339  10.078  71.063  1.00  0.00    -0.360 C  
HETATM   11  C   UNL     1     -13.193  10.834  72.060  1.00  0.00    -0.466 C  
ENDBRANCH   9  10
ENDBRANCH   8   9
ENDBRANCH   7   8
ENDBRANCH   6   7
BRANCH   6  12
HETATM   12  C   UNL     1      -8.039  12.048  67.422  1.00  0.00    -0.168 C  
BRANCH  12  13
HETATM   13  C   UNL     1      -8.136  10.540  67.246  1.00  0.00    -0.115 C  
BRANCH  13  14
HETATM   14  P   UNL     1      -6.873   9.612  68.235  1.00  0.00    -0.069 P  
BRANCH  14  15
HETATM   15  C   UNL     1      -7.611   9.647  69.939  1.00  0.00    -0.138 C  
BRANCH  15  16
HETATM   16  C   UNL     1      -6.653   9.035  70.964  1.00  0.00    -0.080 C  
BRANCH  16  17
HETATM   17  O   UNL     1      -7.293   8.925  72.239  1.00  0.00    -0.328 OA 
BRANCH  17  18
HETATM   18  C   UNL     1      -6.847   7.747  72.915  1.00  0.00    -0.076 C  
HETATM   19  C   UNL     1      -6.692   6.615  71.921  1.00  0.00    -0.059 C  
ENDBRANCH  17  18
ENDBRANCH  16  17
ENDBRANCH  15  16
ENDBRANCH  14  15
BRANCH  14  20
HETATM   20  C   UNL     1      -7.315   7.876  67.738  1.00  0.00    -0.096 C  
BRANCH  20  21
HETATM   21  C   UNL     1      -8.237   7.203  68.752  1.00  0.00    -0.122 C  
BRANCH  21  22
HETATM   22  O   UNL     1      -9.509   7.849  68.744  1.00  0.00    -0.147 OA 
BRANCH  22  23
HETATM   23  C   UNL     1     -10.517   6.977  68.224  1.00  0.00    -0.202 C  
HETATM   24  C   UNL     1     -11.227   6.296  69.377  1.00  0.00    -0.489 C  
ENDBRANCH  22  23
ENDBRANCH  21  22
ENDBRANCH  20  21
ENDBRANCH  14  20
ENDBRANCH  13  14
ENDBRANCH  12  13
ENDBRANCH   6  12
ENDBRANCH   5   6
ENDBRANCH   4   5
ENDBRANCH   3   4
ENDBRANCH   2   3
TORSDOF 19
ENDMDL
MODEL      351
REMARK 921   NORMALIZED FREE ENERGY PREDICTED BY IDOCK:   -2.16 KCAL/MOL
REMARK 922        TOTAL FREE ENERGY PREDICTED BY IDOCK:   -5.82 KCAL/MOL
REMARK 923 INTER-LIGAND FREE ENERGY PREDICTED BY IDOCK:   -4.94 KCAL/MOL
REMARK 924 INTRA-LIGAND FREE ENERGY PREDICTED BY IDOCK:   -0.88 KCAL/MOL
REMARK 927      BINDING AFFINITY PREDICTED BY RF-SCORE:    0.00 PKD
ROOT
HETATM    1  C   UNL     1     -12.252  12.766  64.819  1.00  0.00    -0.517 C  
HETATM    2  C   UNL     1     -12.965  13.920  65.492  1.00  0.00    -0.332 C  
ENDROOT
BRANCH   2   3
HETATM    3  O   UNL     1     -12.080  14.563  66.414  1.00  0.00    -0.385 OA 
BRANCH   3   4
HETATM    4  C   UNL     1     -10.722  14.294  66.057  1.00  0.00    -0.304 C  
BRANCH   4   5
HETATM    5  C   UNL     1      -9.929  13.819  67.271  1.00  0.00    -0.239 C  
BRANCH   5   6
HETATM    6  P   UNL     1      -9.048  12.219  66.949  1.00  0.00    -0.205 P  
BRANCH   6   7
HETATM    7  C   UNL     1      -7.648  12.305  68.169  1.00  0.00    -0.127 C  
BRANCH   7   8
HETATM    8  C   UNL     1      -6.911  13.640  68.064  1.00  0.00    -0.135 C  
BRANCH   8   9
HETATM    9  O   UNL     1      -7.082  14.394  69.267  1.00  0.00    -0.127 OA 
BRANCH   9  10
HETATM   10  C   UNL     1      -6.296  15.586  69.221  1.00  0.00    -0.132 C  
HETATM   11  C   UNL     1      -6.737  16.438  68.049  1.00  0.00    -0.145 C  
ENDBRANCH   9  10
ENDBRANCH   8   9
ENDBRANCH   7   8
ENDBRANCH   6   7
BRANCH   6  12
HETATM   12  C   UNL     1     -10.134  11.029  67.874  1.00  0.00    -0.178 C  
BRANCH  12  13
HETATM   13  C   UNL     1     -10.239   9.671  67.195  1.00  0.00    -0.243 C  
BRANCH  13  14
HETATM   14  P   UNL     1      -9.189   8.375  68.001  1.00  0.00    -0.136 P  
BRANCH  14  15
HETATM   15  C   UNL     1     -10.436   7.435  69.006  1.00  0.00    -0.210 C  
BRANCH  15  16
HETATM   16  C   UNL     1     -10.479   7.948  70.447  1.00  0.00    -0.218 C  
BRANCH  16  17
HETATM   17  O   UNL     1      -9.805   7.037  71.320  1.00  0.00    -0.176 OA 
BRANCH  17  18
HETATM   18  C   UNL     1     -10.566   6.843  72.515  1.00  0.00    -0.222 C  
HETATM   19  C   UNL     1     -11.748   5.939  72.225  1.00  0.00    -0.309 C  
ENDBRANCH  17  18
ENDBRANCH  16  17
ENDBRANCH  15  16
ENDBRANCH  14  15
BRANCH  14  20
HETATM   20  C   UNL     1      -8.997   7.207  66.568  1.00  0.00    -0.151 C  
BRANCH  20  21
HETATM   21  C   UNL     1      -7.860   7.622  65.635  1.00  0.00    -0.109 C  
BRANCH  21  22
HETATM   22  O   UNL     1      -8.367   7.799  64.313  1.00  0.00    -0.071 OA 
BRANCH  22  23
HETATM   23  C   UNL     1      -7.546   8.706  63.573  1.00  0.00    -0.124 C  
HETATM   24  C   UNL     1      -7.429  10.008  64.340  1.00  0.00    -0.141 C  
ENDBRANCH  22  23
ENDBRANCH  21  22
ENDBRANCH  20  21
ENDBRANCH  14  20
ENDBRANCH  13  14
ENDBRANCH  12  13
ENDBRANCH   6  12
ENDBRANCH   5   6
ENDBRANCH   4   5
ENDBRANCH   3   4
ENDBRANCH   2   3
TORSDOF 19
ENDMDL
MODEL      352
REMARK 921   NORMALIZED FREE ENERGY PREDICTED BY IDOCK:   -2.13 KCAL/MOL
REMARK 922        TOTAL FREE ENERGY PREDICTED BY IDOCK:   -5.76 KCAL/MOL
REMARK 923 INTER-LIGAND FREE ENERGY PREDICTED BY IDOCK:   -5.14 KCAL/MOL
REMARK 924 INTRA-LIGAND FREE ENERGY PREDICTED BY IDOCK:   -0.61 KCAL/MOL
REMARK 927      BINDING AFFINITY PREDICTED BY RF-SCORE:    0.00 PKD
ROOT
HETATM    1  C   UNL     1      -6.450   4.351  66.784  1.00  0.00    -0.041 C  
HETATM    2  C   UNL     1      -7.327   4.219  68.012  1.00  0.00    -0.064 C  
ENDROOT
BRANCH   2   3
HETATM    3  O   UNL     1      -7.396   5.473  68.694  1.00  0.00    -0.072 OA 
BRANCH   3   4
HETATM    4  C   UNL     1      -8.579   5.531  69.495  1.00  0.00    -0.105 C  
BRANCH   4   5
HETATM    5  C   UNL     1      -9.808   5.785  68.625  1.00  0.00    -0.138 C  
BRANCH   5   6
HETATM    6  P   UNL     1     -11.011   6.941  69.435  1.00  0.00    -0.180 P  
BRANCH   6   7
HETATM    7  C   UNL     1     -10.758   6.550  71.235  1.00  0.00    -0.237 C  
BRANCH   7   8
HETATM    8  C   UNL     1     -10.418   7.811  72.027  1.00  0.00    -0.224 C  
BRANCH   8   9
HETATM    9  O   UNL     1      -9.000   7.940  72.164  1.00  0.00    -0.125 OA 
BRANCH   9  10
HETATM   10  C   UNL     1      -8.487   6.899  72.996  1.00  0.00    -0.114 C  
HETATM   11  C   UNL     1      -8.930   7.129  74.427  1.00  0.00    -0.230 C  
ENDBRANCH   9  10
ENDBRANCH   8   9
ENDBRANCH   7   8
ENDBRANCH   6   7
BRANCH   6  12
HETATM   12  C   UNL     1     -10.062   8.536  69.372  1.00  0.00    -0.205 C  
BRANCH  12  13
HETATM   13  C   UNL     1     -10.960   9.763  69.408  1.00  0.00    -0.212 C  
BRANCH  13  14
HETATM   14  P   UNL     1     -10.950  10.716  67.819  1.00  0.00    -0.304 P  
BRANCH  14  15
HETATM   15  C   UNL     1     -11.671  12.346  68.339  1.00  0.00    -0.336 C  
BRANCH  15  16
HETATM   16  C   UNL     1     -12.187  13.128  67.129  1.00  0.00    -0.191 C  
BRANCH  16  17
HETATM   17  O   UNL     1     -12.161  12.307  65.958  1.00  0.00    -0.646 OA 
BRANCH  17  18
HETATM   18  C   UNL     1     -12.684  13.026  64.838  1.00  0.00    -0.390 C  
HETATM   19  C   UNL     1     -11.664  13.042  63.719  1.00  0.00    -0.547 C  
ENDBRANCH  17  18
ENDBRANCH  16  17
ENDBRANCH  15  16
ENDBRANCH  14  15
BRANCH  14  20
HETATM   20  C   UNL     1      -9.150  11.175  67.754  1.00  0.00    -0.149 C  
BRANCH  20  21
HETATM   21  C   UNL     1      -8.479  10.697  66.468  1.00  0.00    -0.144 C  
BRANCH  21  22
HETATM   22  O   UNL     1      -9.213   9.600  65.925  1.00  0.00    -0.166 OA 
BRANCH  22  23
HETATM   23  C   UNL     1      -8.606   9.132  64.718  1.00  0.00    -0.184 C  
HETATM   24  C   UNL     1      -7.283   9.845  64.519  1.00  0.00    -0.137 C  
ENDBRANCH  22  23
ENDBRANCH  21  22
ENDBRANCH  20  21
ENDBRANCH  14  20
ENDBRANCH  13  14
ENDBRANCH  12  13
ENDBRANCH   6  12
ENDBRANCH   5   6
ENDBRANCH   4   5
ENDBRANCH   3   4
ENDBRANCH   2   3
TORSDOF 19
ENDMDL
MODEL      353
REMARK 921   NORMALIZED FREE ENERGY PREDICTED BY IDOCK:   -2.13 KCAL/MOL
REMARK 922        TOTAL FREE ENERGY PREDICTED BY IDOCK:   -5.75 KCAL/MOL
REMARK 923 INTER-LIGAND FREE ENERGY PREDICTED BY IDOCK:   -4.83 KCAL/MOL
REMARK 924 INTRA-LIGAND FREE ENERGY PREDICTED BY IDOCK:   -0.92 KCAL/MOL
REMARK 927      BINDING AFFINITY PREDICTED BY RF-SCORE:    0.00 PKD
ROOT
HETATM    1  C   UNL     1     -12.440  12.474  64.729  1.00  0.00    -0.532 C  
HETATM    2  C   UNL     1     -12.867  13.842  65.221  1.00  0.00    -0.384 C  
ENDROOT
BRANCH   2   3
HETATM    3  O   UNL     1     -11.741  14.533  65.766  1.00  0.00    -0.358 OA 
BRANCH   3   4
HETATM    4  C   UNL     1     -10.528  13.923  65.317  1.00  0.00    -0.371 C  
BRANCH   4   5
HETATM    5  C   UNL     1      -9.463  13.970  66.410  1.00  0.00    -0.259 C  
BRANCH   5   6
HETATM    6  P   UNL     1      -8.961  12.275  66.970  1.00  0.00    -0.207 P  
BRANCH   6   7
HETATM    7  C   UNL     1      -7.353  12.624  67.836  1.00  0.00    -0.116 C  
BRANCH   7   8
HETATM    8  C   UNL     1      -7.190  14.119  68.108  1.00  0.00    -0.128 C  
BRANCH   8   9
HETATM    9  O   UNL     1      -7.964  14.499  69.249  1.00  0.00    -0.099 OA 
BRANCH   9  10
HETATM   10  C   UNL     1      -7.195  15.342  70.109  1.00  0.00     0.120 C  
HETATM   11  C   UNL     1      -5.887  14.658  70.452  1.00  0.00    -0.156 C  
ENDBRANCH   9  10
ENDBRANCH   8   9
ENDBRANCH   7   8
ENDBRANCH   6   7
BRANCH   6  12
HETATM   12  C   UNL     1     -10.034  12.069  68.472  1.00  0.00    -0.184 C  
BRANCH  12  13
HETATM   13  C   UNL     1     -10.454  10.626  68.707  1.00  0.00    -0.194 C  
BRANCH  13  14
HETATM   14  P   UNL     1      -9.363   9.741  69.915  1.00  0.00    -0.174 P  
BRANCH  14  15
HETATM   15  C   UNL     1     -10.580   9.177  71.198  1.00  0.00    -0.309 C  
BRANCH  15  16
HETATM   16  C   UNL     1     -11.996   9.645  70.854  1.00  0.00    -0.309 C  
BRANCH  16  17
HETATM   17  O   UNL     1     -12.590  10.302  71.978  1.00  0.00    -0.371 OA 
BRANCH  17  18
HETATM   18  C   UNL     1     -14.007  10.109  71.971  1.00  0.00     0.154 C  
HETATM   19  C   UNL     1     -14.326   8.653  72.243  1.00  0.00    -0.486 C  
ENDBRANCH  17  18
ENDBRANCH  16  17
ENDBRANCH  15  16
ENDBRANCH  14  15
BRANCH  14  20
HETATM   20  C   UNL     1      -9.120   8.146  68.990  1.00  0.00    -0.148 C  
BRANCH  20  21
HETATM   21  C   UNL     1      -8.163   8.304  67.810  1.00  0.00    -0.127 C  
BRANCH  21  22
HETATM   22  O   UNL     1      -6.986   8.989  68.237  1.00  0.00    -0.074 OA 
BRANCH  22  23
HETATM   23  C   UNL     1      -6.195   9.384  67.113  1.00  0.00    -0.065 C  
HETATM   24  C   UNL     1      -6.207   8.272  66.083  1.00  0.00    -0.049 C  
ENDBRANCH  22  23
ENDBRANCH  21  22
ENDBRANCH  20  21
ENDBRANCH  14  20
ENDBRANCH  13  14
ENDBRANCH  12  13
ENDBRANCH   6  12
ENDBRANCH   5   6
ENDBRANCH   4   5
ENDBRANCH   3   4
ENDBRANCH   2   3
TORSDOF 19
ENDMDL
MODEL      354
REMARK 921   NORMALIZED FREE ENERGY PREDICTED BY IDOCK:   -2.12 KCAL/MOL
REMARK 922        TOTAL FREE ENERGY PREDICTED BY IDOCK:   -5.72 KCAL/MOL
REMARK 923 INTER-LIGAND FREE ENERGY PREDICTED BY IDOCK:   -4.66 KCAL/MOL
REMARK 924 INTRA-LIGAND FREE ENERGY PREDICTED BY IDOCK:   -1.06 KCAL/MOL
REMARK 927      BINDING AFFINITY PREDICTED BY RF-SCORE:    0.00 PKD
ROOT
HETATM    1  C   UNL     1     -13.498   9.441  72.203  1.00  0.00    -0.543 C  
HETATM    2  C   UNL     1     -14.400   8.309  71.755  1.00  0.00    -0.483 C  
ENDROOT
BRANCH   2   3
HETATM    3  O   UNL     1     -13.607   7.203  71.317  1.00  0.00    -0.353 OA 
BRANCH   3   4
HETATM    4  C   UNL     1     -12.218   7.529  71.413  1.00  0.00    -0.335 C  
BRANCH   4   5
HETATM    5  C   UNL     1     -11.365   6.470  70.719  1.00  0.00    -0.342 C  
BRANCH   5   6
HETATM    6  P   UNL     1     -10.113   7.219  69.575  1.00  0.00    -0.190 P  
BRANCH   6   7
HETATM    7  C   UNL     1     -10.367   9.037  69.875  1.00  0.00    -0.207 C  
BRANCH   7   8
HETATM    8  C   UNL     1     -10.183   9.836  68.586  1.00  0.00    -0.190 C  
BRANCH   8   9
HETATM    9  O   UNL     1     -10.115  11.234  68.878  1.00  0.00    -0.204 OA 
BRANCH   9  10
HETATM   10  C   UNL     1     -11.388  11.709  69.321  1.00  0.00    -0.290 C  
HETATM   11  C   UNL     1     -11.478  13.204  69.091  1.00  0.00    -0.358 C  
ENDBRANCH   9  10
ENDBRANCH   8   9
ENDBRANCH   7   8
ENDBRANCH   6   7
BRANCH   6  12
HETATM   12  C   UNL     1      -8.558   6.999  70.565  1.00  0.00    -0.141 C  
BRANCH  12  13
HETATM   13  C   UNL     1      -7.407   6.435  69.744  1.00  0.00    -0.080 C  
BRANCH  13  14
HETATM   14  P   UNL     1      -7.406   7.033  67.990  1.00  0.00    -0.101 P  
BRANCH  14  15
HETATM   15  C   UNL     1      -6.653   8.722  68.156  1.00  0.00    -0.061 C  
BRANCH  15  16
HETATM   16  C   UNL     1      -6.525   9.401  66.790  1.00  0.00    -0.067 C  
BRANCH  16  17
HETATM   17  O   UNL     1      -7.723   9.217  66.029  1.00  0.00    -0.094 OA 
BRANCH  17  18
HETATM   18  C   UNL     1      -7.416   8.647  64.754  1.00  0.00    -0.097 C  
HETATM   19  C   UNL     1      -8.373   9.184  63.710  1.00  0.00    -0.183 C  
ENDBRANCH  17  18
ENDBRANCH  16  17
ENDBRANCH  15  16
ENDBRANCH  14  15
BRANCH  14  20
HETATM   20  C   UNL     1      -5.934   6.094  67.352  1.00  0.00    -0.017 C  
BRANCH  20  21
HETATM   21  C   UNL     1      -6.201   5.462  65.988  1.00  0.00    -0.034 C  
BRANCH  21  22
HETATM   22  O   UNL     1      -6.987   4.282  66.152  1.00  0.00    -0.063 OA 
BRANCH  22  23
HETATM   23  C   UNL     1      -7.600   3.906  64.916  1.00  0.00    -0.077 C  
HETATM   24  C   UNL     1      -8.704   4.892  64.590  1.00  0.00    -0.152 C  
ENDBRANCH  22  23
ENDBRANCH  21  22
ENDBRANCH  20  21
ENDBRANCH  14  20
ENDBRANCH  13  14
ENDBRANCH  12  13
ENDBRANCH   6  12
ENDBRANCH   5   6
ENDBRANCH   4   5
ENDBRANCH   3   4
ENDBRANCH   2   3
TORSDOF 19
ENDMDL
MODEL      355
REMARK 921   NORMALIZED FREE ENERGY PREDICTED BY IDOCK:   -2.11 KCAL/MOL
REMARK 922        TOTAL FREE ENERGY PREDICTED BY IDOCK:   -5.71 KCAL/MOL
REMARK 923 INTER-LIGAND FREE ENERGY PREDICTED BY IDOCK:   -5.26 KCAL/MOL
REMARK 924 INTRA-LIGAND FREE ENERGY PREDICTED BY IDOCK:   -0.45 KCAL/MOL
REMARK 927      BINDING AFFINITY PREDICTED BY RF-SCORE:    0.00 PKD
ROOT
HETATM    1  C   UNL     1     -11.216  13.455  68.747  1.00  0.00    -0.315 C  
HETATM    2  C   UNL     1     -11.895  13.167  67.425  1.00  0.00    -0.361 C  
ENDROOT
BRANCH   2   3
HETATM    3  O   UNL     1     -11.892  11.758  67.177  1.00  0.00    -0.599 OA 
BRANCH   3   4
HETATM    4  C   UNL     1     -10.562  11.244  67.294  1.00  0.00    -0.233 C  
BRANCH   4   5
HETATM    5  C   UNL     1     -10.584   9.731  67.491  1.00  0.00    -0.275 C  
BRANCH   5   6
HETATM    6  P   UNL     1     -10.030   9.239  69.191  1.00  0.00    -0.195 P  
BRANCH   6   7
HETATM    7  C   UNL     1     -11.336  10.023  70.257  1.00  0.00    -0.308 C  
BRANCH   7   8
HETATM    8  C   UNL     1     -12.264   8.966  70.853  1.00  0.00    -0.137 C  
BRANCH   8   9
HETATM    9  O   UNL     1     -12.599   9.308  72.200  1.00  0.00    -0.374 OA 
BRANCH   9  10
HETATM   10  C   UNL     1     -13.980   9.038  72.451  1.00  0.00    -0.448 C  
HETATM   11  C   UNL     1     -14.390   7.777  71.718  1.00  0.00    -0.594 C  
ENDBRANCH   9  10
ENDBRANCH   8   9
ENDBRANCH   7   8
ENDBRANCH   6   7
BRANCH   6  12
HETATM   12  C   UNL     1     -10.641   7.487  69.266  1.00  0.00    -0.210 C  
BRANCH  12  13
HETATM   13  C   UNL     1      -9.606   6.477  68.793  1.00  0.00    -0.126 C  
BRANCH  13  14
HETATM   14  P   UNL     1      -9.892   4.775  69.467  1.00  0.00    -0.186 P  
BRANCH  14  15
HETATM   15  C   UNL     1      -9.414   3.701  68.030  1.00  0.00    -0.161 C  
BRANCH  15  16
HETATM   16  C   UNL     1      -9.736   4.389  66.701  1.00  0.00    -0.215 C  
BRANCH  16  17
HETATM   17  O   UNL     1      -8.682   4.169  65.759  1.00  0.00    -0.116 OA 
BRANCH  17  18
HETATM   18  C   UNL     1      -8.094   5.414  65.376  1.00  0.00    -0.120 C  
HETATM   19  C   UNL     1      -7.413   6.047  66.572  1.00  0.00    -0.090 C  
ENDBRANCH  17  18
ENDBRANCH  16  17
ENDBRANCH  15  16
ENDBRANCH  14  15
BRANCH  14  20
HETATM   20  C   UNL     1      -8.364   4.602  70.511  1.00  0.00    -0.090 C  
BRANCH  20  21
HETATM   21  C   UNL     1      -7.794   3.186  70.468  1.00  0.00    -0.043 C  
BRANCH  21  22
HETATM   22  O   UNL     1      -7.716   2.661  71.793  1.00  0.00    -0.046 OA 
BRANCH  22  23
HETATM   23  C   UNL     1      -6.590   1.790  71.928  1.00  0.00    -0.018 C  
HETATM   24  C   UNL     1      -5.329   2.622  72.046  1.00  0.00    -0.004 C  
ENDBRANCH  22  23
ENDBRANCH  21  22
ENDBRANCH  20  21
ENDBRANCH  14  20
ENDBRANCH  13  14
ENDBRANCH  12  13
ENDBRANCH   6  12
ENDBRANCH   5   6
ENDBRANCH   4   5
ENDBRANCH   3   4
ENDBRANCH   2   3
TORSDOF 19
ENDMDL
MODEL      356
REMARK 921   NORMALIZED FREE ENERGY PREDICTED BY IDOCK:   -2.11 KCAL/MOL
REMARK 922        TOTAL FREE ENERGY PREDICTED BY IDOCK:   -5.70 KCAL/MOL
REMARK 923 INTER-LIGAND FREE ENERGY PREDICTED BY IDOCK:   -4.86 KCAL/MOL
REMARK 924 INTRA-LIGAND FREE ENERGY PREDICTED BY IDOCK:   -0.83 KCAL/MOL
REMARK 927      BINDING AFFINITY PREDICTED BY RF-SCORE:    0.00 PKD
ROOT
HETATM    1  C   UNL     1      -6.476   4.623  66.851  1.00  0.00    -0.041 C  
HETATM    2  C   UNL     1      -6.781   5.087  68.261  1.00  0.00    -0.054 C  
ENDROOT
BRANCH   2   3
HETATM    3  O   UNL     1      -6.600   6.502  68.354  1.00  0.00    -0.053 OA 
BRANCH   3   4
HETATM    4  C   UNL     1      -7.794   7.117  68.845  1.00  0.00    -0.115 C  
BRANCH   4   5
HETATM    5  C   UNL     1      -8.931   6.971  67.837  1.00  0.00    -0.122 C  
BRANCH   5   6
HETATM    6  P   UNL     1     -10.519   7.693  68.464  1.00  0.00    -0.082 P  
BRANCH   6   7
HETATM    7  C   UNL     1     -10.629   6.948  70.163  1.00  0.00    -0.220 C  
BRANCH   7   8
HETATM    8  C   UNL     1     -10.732   8.034  71.233  1.00  0.00    -0.229 C  
BRANCH   8   9
HETATM    9  O   UNL     1     -11.855   7.784  72.082  1.00  0.00    -0.296 OA 
BRANCH   9  10
HETATM   10  C   UNL     1     -13.069   7.856  71.332  1.00  0.00    -0.254 C  
HETATM   11  C   UNL     1     -14.197   8.308  72.237  1.00  0.00    -0.393 C  
ENDBRANCH   9  10
ENDBRANCH   8   9
ENDBRANCH   7   8
ENDBRANCH   6   7
BRANCH   6  12
HETATM   12  C   UNL     1      -9.961   9.395  68.954  1.00  0.00    -0.179 C  
BRANCH  12  13
HETATM   13  C   UNL     1     -11.030  10.456  68.738  1.00  0.00    -0.245 C  
BRANCH  13  14
HETATM   14  P   UNL     1     -10.796  11.411  67.167  1.00  0.00    -0.293 P  
BRANCH  14  15
HETATM   15  C   UNL     1     -11.529  13.060  67.602  1.00  0.00    -0.324 C  
BRANCH  15  16
HETATM   16  C   UNL     1     -10.711  14.201  66.993  1.00  0.00    -0.285 C  
BRANCH  16  17
HETATM   17  O   UNL     1     -11.349  15.458  67.240  1.00  0.00    -0.309 OA 
BRANCH  17  18
HETATM   18  C   UNL     1     -11.599  15.618  68.639  1.00  0.00    -0.382 C  
HETATM   19  C   UNL     1     -10.722  16.722  69.192  1.00  0.00    -0.329 C  
ENDBRANCH  17  18
ENDBRANCH  16  17
ENDBRANCH  15  16
ENDBRANCH  14  15
BRANCH  14  20
HETATM   20  C   UNL     1      -8.989  11.818  67.327  1.00  0.00    -0.172 C  
BRANCH  20  21
HETATM   21  C   UNL     1      -8.165  11.244  66.176  1.00  0.00    -0.088 C  
BRANCH  21  22
HETATM   22  O   UNL     1      -8.982  10.380  65.387  1.00  0.00    -0.166 OA 
BRANCH  22  23
HETATM   23  C   UNL     1      -8.231   9.820  64.307  1.00  0.00    -0.160 C  
HETATM   24  C   UNL     1      -8.378   8.312  64.328  1.00  0.00    -0.068 C  
ENDBRANCH  22  23
ENDBRANCH  21  22
ENDBRANCH  20  21
ENDBRANCH  14  20
ENDBRANCH  13  14
ENDBRANCH  12  13
ENDBRANCH   6  12
ENDBRANCH   5   6
ENDBRANCH   4   5
ENDBRANCH   3   4
ENDBRANCH   2   3
TORSDOF 19
ENDMDL
MODEL      357
REMARK 921   NORMALIZED FREE ENERGY PREDICTED BY IDOCK:   -2.08 KCAL/MOL
REMARK 922        TOTAL FREE ENERGY PREDICTED BY IDOCK:   -5.65 KCAL/MOL
REMARK 923 INTER-LIGAND FREE ENERGY PREDICTED BY IDOCK:   -4.68 KCAL/MOL
REMARK 924 INTRA-LIGAND FREE ENERGY PREDICTED BY IDOCK:   -0.97 KCAL/MOL
REMARK 927      BINDING AFFINITY PREDICTED BY RF-SCORE:    0.00 PKD
ROOT
HETATM    1  C   UNL     1     -10.619  16.882  66.112  1.00  0.00    -0.195 C  
HETATM    2  C   UNL     1      -9.370  16.058  66.347  1.00  0.00    -0.298 C  
ENDROOT
BRANCH   2   3
HETATM    3  O   UNL     1      -9.533  15.256  67.519  1.00  0.00    -0.200 OA 
BRANCH   3   4
HETATM    4  C   UNL     1      -9.748  13.891  67.152  1.00  0.00    -0.244 C  
BRANCH   4   5
HETATM    5  C   UNL     1      -9.220  12.951  68.233  1.00  0.00    -0.187 C  
BRANCH   5   6
HETATM    6  P   UNL     1      -9.515  11.169  67.817  1.00  0.00    -0.176 P  
BRANCH   6   7
HETATM    7  C   UNL     1      -8.212  10.860  66.527  1.00  0.00    -0.157 C  
BRANCH   7   8
HETATM    8  C   UNL     1      -7.880   9.372  66.429  1.00  0.00    -0.100 C  
BRANCH   8   9
HETATM    9  O   UNL     1      -8.766   8.729  65.509  1.00  0.00    -0.166 OA 
BRANCH   9  10
HETATM   10  C   UNL     1      -8.042   7.827  64.671  1.00  0.00    -0.123 C  
HETATM   11  C   UNL     1      -7.967   8.391  63.266  1.00  0.00    -0.161 C  
ENDBRANCH   9  10
ENDBRANCH   8   9
ENDBRANCH   7   8
ENDBRANCH   6   7
BRANCH   6  12
HETATM   12  C   UNL     1      -8.679  10.331  69.247  1.00  0.00    -0.174 C  
BRANCH  12  13
HETATM   13  C   UNL     1      -9.663   9.731  70.241  1.00  0.00    -0.223 C  
BRANCH  13  14
HETATM   14  P   UNL     1      -9.596   7.881  70.301  1.00  0.00    -0.170 P  
BRANCH  14  15
HETATM   15  C   UNL     1     -10.175   7.526  72.029  1.00  0.00    -0.196 C  
BRANCH  15  16
HETATM   16  C   UNL     1     -11.677   7.231  72.055  1.00  0.00    -0.292 C  
BRANCH  16  17
HETATM   17  O   UNL     1     -11.911   5.877  72.452  1.00  0.00    -0.298 OA 
BRANCH  17  18
HETATM   18  C   UNL     1     -10.844   5.414  73.283  1.00  0.00    -0.298 C  
HETATM   19  C   UNL     1     -10.514   3.976  72.938  1.00  0.00    -0.247 C  
ENDBRANCH  17  18
ENDBRANCH  16  17
ENDBRANCH  15  16
ENDBRANCH  14  15
BRANCH  14  20
HETATM   20  C   UNL     1     -11.154   7.492  69.363  1.00  0.00     0.004 C  
BRANCH  20  21
HETATM   21  C   UNL     1     -11.062   6.160  68.620  1.00  0.00    -0.294 C  
BRANCH  21  22
HETATM   22  O   UNL     1     -10.246   5.254  69.362  1.00  0.00    -0.223 OA 
BRANCH  22  23
HETATM   23  C   UNL     1      -9.468   4.438  68.482  1.00  0.00    -0.156 C  
HETATM   24  C   UNL     1      -8.796   5.321  67.450  1.00  0.00    -0.105 C  
ENDBRANCH  22  23
ENDBRANCH  21  22
ENDBRANCH  20  21
ENDBRANCH  14  20
ENDBRANCH  13  14
ENDBRANCH  12  13
ENDBRANCH   6  12
ENDBRANCH   5   6
ENDBRANCH   4   5
ENDBRANCH   3   4
ENDBRANCH   2   3
TORSDOF 19
ENDMDL
MODEL      358
REMARK 921   NORMALIZED FREE ENERGY PREDICTED BY IDOCK:   -2.05 KCAL/MOL
REMARK 922        TOTAL FREE ENERGY PREDICTED BY IDOCK:   -5.58 KCAL/MOL
REMARK 923 INTER-LIGAND FREE ENERGY PREDICTED BY IDOCK:   -4.84 KCAL/MOL
REMARK 924 INTRA-LIGAND FREE ENERGY PREDICTED BY IDOCK:   -0.74 KCAL/MOL
REMARK 927      BINDING AFFINITY PREDICTED BY RF-SCORE:    0.00 PKD
ROOT
HETATM    1  C   UNL     1      -5.340  12.716  68.555  1.00  0.00    -0.058 C  
HETATM    2  C   UNL     1      -6.194  11.949  69.542  1.00  0.00    -0.117 C  
ENDROOT
BRANCH   2   3
HETATM    3  O   UNL     1      -7.353  11.434  68.881  1.00  0.00    -0.104 OA 
BRANCH   3   4
HETATM    4  C   UNL     1      -7.246  11.646  67.471  1.00  0.00    -0.119 C  
BRANCH   4   5
HETATM    5  C   UNL     1      -8.502  12.324  66.930  1.00  0.00    -0.159 C  
BRANCH   5   6
HETATM    6  P   UNL     1      -9.773  12.598  68.252  1.00  0.00    -0.150 P  
BRANCH   6   7
HETATM    7  C   UNL     1     -11.180  13.328  67.279  1.00  0.00    -0.292 C  
BRANCH   7   8
HETATM    8  C   UNL     1     -11.067  14.851  67.212  1.00  0.00    -0.336 C  
BRANCH   8   9
HETATM    9  O   UNL     1     -12.085  15.456  68.014  1.00  0.00    -0.112 OA 
BRANCH   9  10
HETATM   10  C   UNL     1     -11.535  15.907  69.253  1.00  0.00    -0.374 C  
HETATM   11  C   UNL     1     -12.343  15.340  70.403  1.00  0.00    -0.422 C  
ENDBRANCH   9  10
ENDBRANCH   8   9
ENDBRANCH   7   8
ENDBRANCH   6   7
BRANCH   6  12
HETATM   12  C   UNL     1     -10.449  10.880  68.451  1.00  0.00    -0.183 C  
BRANCH  12  13
HETATM   13  C   UNL     1     -11.187  10.681  69.767  1.00  0.00    -0.297 C  
BRANCH  13  14
HETATM   14  P   UNL     1     -11.451   8.896  70.187  1.00  0.00     0.165 P  
BRANCH  14  15
HETATM   15  C   UNL     1      -9.959   8.093  69.428  1.00  0.00    -0.188 C  
BRANCH  15  16
HETATM   16  C   UNL     1     -10.364   7.127  68.313  1.00  0.00    -0.195 C  
BRANCH  16  17
HETATM   17  O   UNL     1     -10.663   5.837  68.856  1.00  0.00    -0.262 OA 
BRANCH  17  18
HETATM   18  C   UNL     1      -9.458   5.097  69.063  1.00  0.00    -0.133 C  
HETATM   19  C   UNL     1      -9.418   3.912  68.119  1.00  0.00    -0.219 C  
ENDBRANCH  17  18
ENDBRANCH  16  17
ENDBRANCH  15  16
ENDBRANCH  14  15
BRANCH  14  20
HETATM   20  C   UNL     1     -10.921   8.923  71.968  1.00  0.00    -0.342 C  
BRANCH  20  21
HETATM   21  C   UNL     1      -9.700   8.041  72.220  1.00  0.00    -0.229 C  
BRANCH  21  22
HETATM   22  O   UNL     1      -8.758   8.747  73.027  1.00  0.00    -0.368 OA 
BRANCH  22  23
HETATM   23  C   UNL     1      -7.579   7.964  73.230  1.00  0.00    -0.131 C  
HETATM   24  C   UNL     1      -6.936   8.366  74.543  1.00  0.00    -0.218 C  
ENDBRANCH  22  23
ENDBRANCH  21  22
ENDBRANCH  20  21
ENDBRANCH  14  20
ENDBRANCH  13  14
ENDBRANCH  12  13
ENDBRANCH   6  12
ENDBRANCH   5   6
ENDBRANCH   4   5
ENDBRANCH   3   4
ENDBRANCH   2   3
TORSDOF 19
ENDMDL
MODEL      359
REMARK 921   NORMALIZED FREE ENERGY PREDICTED BY IDOCK:   -2.04 KCAL/MOL
REMARK 922        TOTAL FREE ENERGY PREDICTED BY IDOCK:   -5.55 KCAL/MOL
REMARK 923 INTER-LIGAND FREE ENERGY PREDICTED BY IDOCK:   -4.81 KCAL/MOL
REMARK 924 INTRA-LIGAND FREE ENERGY PREDICTED BY IDOCK:   -0.74 KCAL/MOL
REMARK 927      BINDING AFFINITY PREDICTED BY RF-SCORE:    0.00 PKD
ROOT
HETATM    1  C   UNL     1      -8.703   9.817  68.731  1.00  0.00    -0.128 C  
HETATM    2  C   UNL     1     -10.042  10.122  68.090  1.00  0.00    -0.152 C  
ENDROOT
BRANCH   2   3
HETATM    3  O   UNL     1     -10.871   8.958  68.126  1.00  0.00    -0.136 OA 
BRANCH   3   4
HETATM    4  C   UNL     1     -10.166   7.873  68.734  1.00  0.00    -0.205 C  
BRANCH   4   5
HETATM    5  C   UNL     1     -11.133   6.934  69.450  1.00  0.00    -0.206 C  
BRANCH   5   6
HETATM    6  P   UNL     1     -11.481   7.479  71.187  1.00  0.00    -0.285 P  
BRANCH   6   7
HETATM    7  C   UNL     1     -13.337   7.377  71.252  1.00  0.00    -0.271 C  
BRANCH   7   8
HETATM    8  C   UNL     1     -13.941   8.690  71.748  1.00  0.00    -0.434 C  
BRANCH   8   9
HETATM    9  O   UNL     1     -12.950   9.461  72.432  1.00  0.00    -0.395 OA 
BRANCH   9  10
HETATM   10  C   UNL     1     -13.048  10.837  72.059  1.00  0.00    -0.371 C  
HETATM   11  C   UNL     1     -12.060  11.133  70.950  1.00  0.00    -0.427 C  
ENDBRANCH   9  10
ENDBRANCH   8   9
ENDBRANCH   7   8
ENDBRANCH   6   7
BRANCH   6  12
HETATM   12  C   UNL     1     -11.095   5.925  72.127  1.00  0.00    -0.281 C  
BRANCH  12  13
HETATM   13  C   UNL     1      -9.878   5.190  71.585  1.00  0.00    -0.173 C  
BRANCH  13  14
HETATM   14  P   UNL     1      -8.289   6.091  71.896  1.00  0.00    -0.114 P  
BRANCH  14  15
HETATM   15  C   UNL     1      -8.425   6.506  73.700  1.00  0.00    -0.122 C  
BRANCH  15  16
HETATM   16  C   UNL     1      -8.840   7.966  73.897  1.00  0.00    -0.254 C  
BRANCH  16  17
HETATM   17  O   UNL     1      -7.736   8.738  74.379  1.00  0.00    -0.411 OA 
BRANCH  17  18
HETATM   18  C   UNL     1      -6.511   8.243  73.830  1.00  0.00    -0.121 C  
HETATM   19  C   UNL     1      -5.365   9.142  74.246  1.00  0.00    -0.120 C  
ENDBRANCH  17  18
ENDBRANCH  16  17
ENDBRANCH  15  16
ENDBRANCH  14  15
BRANCH  14  20
HETATM   20  C   UNL     1      -7.133   4.639  71.994  1.00  0.00    -0.061 C  
BRANCH  20  21
HETATM   21  C   UNL     1      -6.092   4.654  70.876  1.00  0.00    -0.018 C  
BRANCH  21  22
HETATM   22  O   UNL     1      -6.751   4.690  69.610  1.00  0.00    -0.041 OA 
BRANCH  22  23
HETATM   23  C   UNL     1      -6.414   3.538  68.831  1.00  0.00    -0.030 C  
HETATM   24  C   UNL     1      -7.688   2.839  68.402  1.00  0.00    -0.055 C  
ENDBRANCH  22  23
ENDBRANCH  21  22
ENDBRANCH  20  21
ENDBRANCH  14  20
ENDBRANCH  13  14
ENDBRANCH  12  13
ENDBRANCH   6  12
ENDBRANCH   5   6
ENDBRANCH   4   5
ENDBRANCH   3   4
ENDBRANCH   2   3
TORSDOF 19
ENDMDL
MODEL      360
REMARK 921   NORMALIZED FREE ENERGY PREDICTED BY IDOCK:   -2.01 KCAL/MOL
REMARK 922        TOTAL FREE ENERGY PREDICTED BY IDOCK:   -5.50 KCAL/MOL
REMARK 923 INTER-LIGAND FREE ENERGY PREDICTED BY IDOCK:   -4.35 KCAL/MOL
REMARK 924 INTRA-LIGAND FREE ENERGY PREDICTED BY IDOCK:   -1.14 KCAL/MOL
REMARK 927      BINDING AFFINITY PREDICTED BY RF-SCORE:    0.00 PKD
ROOT
HETATM    1  C   UNL     1      -7.626   9.764  70.288  1.00  0.00    -0.184 C  
HETATM    2  C   UNL     1      -7.656  11.004  69.418  1.00  0.00    -0.054 C  
ENDROOT
BRANCH   2   3
HETATM    3  O   UNL     1      -9.002  11.465  69.280  1.00  0.00     0.112 OA 
BRANCH   3   4
HETATM    4  C   UNL     1      -9.441  11.299  67.929  1.00  0.00    -0.178 C  
BRANCH   4   5
HETATM    5  C   UNL     1     -10.424  10.136  67.820  1.00  0.00    -0.232 C  
BRANCH   5   6
HETATM    6  P   UNL     1     -10.141   9.122  66.294  1.00  0.00    -0.046 P  
BRANCH   6   7
HETATM    7  C   UNL     1      -9.038  10.239  65.297  1.00  0.00    -0.191 C  
BRANCH   7   8
HETATM    8  C   UNL     1      -9.590  10.435  63.885  1.00  0.00    -0.312 C  
BRANCH   8   9
HETATM    9  O   UNL     1     -10.108  11.760  63.738  1.00  0.00    -0.325 OA 
BRANCH   9  10
HETATM   10  C   UNL     1     -11.535  11.730  63.687  1.00  0.00    -0.431 C  
HETATM   11  C   UNL     1     -12.059  13.111  63.350  1.00  0.00    -0.558 C  
ENDBRANCH   9  10
ENDBRANCH   8   9
ENDBRANCH   7   8
ENDBRANCH   6   7
BRANCH   6  12
HETATM   12  C   UNL     1      -8.845   7.936  66.896  1.00  0.00    -0.133 C  
BRANCH  12  13
HETATM   13  C   UNL     1      -8.996   6.542  66.305  1.00  0.00    -0.156 C  
BRANCH  13  14
HETATM   14  P   UNL     1      -9.651   5.306  67.521  1.00  0.00    -0.152 P  
BRANCH  14  15
HETATM   15  C   UNL     1      -8.497   3.872  67.277  1.00  0.00    -0.100 C  
BRANCH  15  16
HETATM   16  C   UNL     1      -7.563   4.115  66.089  1.00  0.00    -0.089 C  
BRANCH  16  17
HETATM   17  O   UNL     1      -7.876   3.219  65.018  1.00  0.00    -0.080 OA 
BRANCH  17  18
HETATM   18  C   UNL     1      -6.750   3.077  64.148  1.00  0.00    -0.036 C  
HETATM   19  C   UNL     1      -5.683   4.083  64.526  1.00  0.00    -0.014 C  
ENDBRANCH  17  18
ENDBRANCH  16  17
ENDBRANCH  15  16
ENDBRANCH  14  15
BRANCH  14  20
HETATM   20  C   UNL     1      -8.941   6.016  69.086  1.00  0.00    -0.124 C  
BRANCH  20  21
HETATM   21  C   UNL     1     -10.009   6.239  70.154  1.00  0.00    -0.172 C  
BRANCH  21  22
HETATM   22  O   UNL     1     -10.369   7.620  70.190  1.00  0.00    -0.208 OA 
BRANCH  22  23
HETATM   23  C   UNL     1     -11.587   7.807  70.915  1.00  0.00    -0.274 C  
HETATM   24  C   UNL     1     -11.751   9.278  71.240  1.00  0.00    -0.416 C  
ENDBRANCH  22  23
ENDBRANCH  21  22
ENDBRANCH  20  21
ENDBRANCH  14  20
ENDBRANCH  13  14
ENDBRANCH  12  13
ENDBRANCH   6  12
ENDBRANCH   5   6
ENDBRANCH   4   5
ENDBRANCH   3   4
ENDBRANCH   2   3
TORSDOF 19
ENDMDL
MODEL      361
REMARK 921   NORMALIZED FREE ENERGY PREDICTED BY IDOCK:   -2.00 KCAL/MOL
REMARK 922        TOTAL FREE ENERGY PREDICTED BY IDOCK:   -5.47 KCAL/MOL
REMARK 923 INTER-LIGAND FREE ENERGY PREDICTED BY IDOCK:   -4.56 KCAL/MOL
REMARK 924 INTRA-LIGAND FREE ENERGY PREDICTED BY IDOCK:   -0.92 KCAL/MOL
REMARK 927      BINDING AFFINITY PREDICTED BY RF-SCORE:    0.00 PKD
ROOT
HETATM    1  C   UNL     1      -8.343  12.711  68.221  1.00  0.00    -0.165 C  
HETATM    2  C   UNL     1      -9.574  13.592  68.256  1.00  0.00    -0.215 C  
ENDROOT
BRANCH   2   3
HETATM    3  O   UNL     1     -10.739  12.786  68.450  1.00  0.00    -0.235 OA 
BRANCH   3   4
HETATM    4  C   UNL     1     -10.787  11.750  67.466  1.00  0.00    -0.239 C  
BRANCH   4   5
HETATM    5  C   UNL     1     -10.991  10.388  68.125  1.00  0.00    -0.281 C  
BRANCH   5   6
HETATM    6  P   UNL     1     -10.282   9.008  67.110  1.00  0.00    -0.269 P  
BRANCH   6   7
HETATM    7  C   UNL     1      -9.057   9.912  66.044  1.00  0.00    -0.158 C  
BRANCH   7   8
HETATM    8  C   UNL     1      -9.409   9.770  64.563  1.00  0.00    -0.235 C  
BRANCH   8   9
HETATM    9  O   UNL     1      -8.625   8.732  63.968  1.00  0.00    -0.156 OA 
BRANCH   9  10
HETATM   10  C   UNL     1      -7.273   9.165  63.806  1.00  0.00    -0.096 C  
HETATM   11  C   UNL     1      -7.217  10.277  62.779  1.00  0.00    -0.143 C  
ENDBRANCH   9  10
ENDBRANCH   8   9
ENDBRANCH   7   8
ENDBRANCH   6   7
BRANCH   6  12
HETATM   12  C   UNL     1      -9.085   8.263  68.319  1.00  0.00    -0.135 C  
BRANCH  12  13
HETATM   13  C   UNL     1      -9.103   8.953  69.675  1.00  0.00    -0.151 C  
BRANCH  13  14
HETATM   14  P   UNL     1      -8.899   7.776  71.091  1.00  0.00    -0.142 P  
BRANCH  14  15
HETATM   15  C   UNL     1     -10.344   6.634  70.858  1.00  0.00    -0.208 C  
BRANCH  15  16
HETATM   16  C   UNL     1     -11.367   6.808  71.984  1.00  0.00    -0.272 C  
BRANCH  16  17
HETATM   17  O   UNL     1     -11.507   8.192  72.320  1.00  0.00    -0.318 OA 
BRANCH  17  18
HETATM   18  C   UNL     1     -12.535   8.792  71.528  1.00  0.00    -0.326 C  
HETATM   19  C   UNL     1     -13.577   9.417  72.432  1.00  0.00    -0.498 C  
ENDBRANCH  17  18
ENDBRANCH  16  17
ENDBRANCH  15  16
ENDBRANCH  14  15
BRANCH  14  20
HETATM   20  C   UNL     1      -7.542   6.709  70.403  1.00  0.00    -0.096 C  
BRANCH  20  21
HETATM   21  C   UNL     1      -7.750   5.231  70.727  1.00  0.00    -0.088 C  
BRANCH  21  22
HETATM   22  O   UNL     1      -7.226   4.947  72.024  1.00  0.00    -0.070 OA 
BRANCH  22  23
HETATM   23  C   UNL     1      -7.328   3.550  72.316  1.00  0.00    -0.052 C  
HETATM   24  C   UNL     1      -6.080   3.104  73.051  1.00  0.00    -0.009 C  
ENDBRANCH  22  23
ENDBRANCH  21  22
ENDBRANCH  20  21
ENDBRANCH  14  20
ENDBRANCH  13  14
ENDBRANCH  12  13
ENDBRANCH   6  12
ENDBRANCH   5   6
ENDBRANCH   4   5
ENDBRANCH   3   4
ENDBRANCH   2   3
TORSDOF 19
ENDMDL
MODEL      362
REMARK 921   NORMALIZED FREE ENERGY PREDICTED BY IDOCK:   -1.96 KCAL/MOL
REMARK 922        TOTAL FREE ENERGY PREDICTED BY IDOCK:   -5.38 KCAL/MOL
REMARK 923 INTER-LIGAND FREE ENERGY PREDICTED BY IDOCK:   -4.51 KCAL/MOL
REMARK 924 INTRA-LIGAND FREE ENERGY PREDICTED BY IDOCK:   -0.87 KCAL/MOL
REMARK 927      BINDING AFFINITY PREDICTED BY RF-SCORE:    0.00 PKD
ROOT
HETATM    1  C   UNL     1      -5.451  12.980  68.528  1.00  0.00    -0.066 C  
HETATM    2  C   UNL     1      -6.323  12.367  69.605  1.00  0.00    -0.107 C  
ENDROOT
BRANCH   2   3
HETATM    3  O   UNL     1      -7.304  11.516  69.006  1.00  0.00    -0.115 OA 
BRANCH   3   4
HETATM    4  C   UNL     1      -7.198  11.575  67.581  1.00  0.00    -0.103 C  
BRANCH   4   5
HETATM    5  C   UNL     1      -8.558  11.864  66.950  1.00  0.00    -0.185 C  
BRANCH   5   6
HETATM    6  P   UNL     1      -9.959  11.492  68.107  1.00  0.00    -0.202 P  
BRANCH   6   7
HETATM    7  C   UNL     1     -11.436  11.757  67.010  1.00  0.00    -0.298 C  
BRANCH   7   8
HETATM    8  C   UNL     1     -11.818  13.236  66.953  1.00  0.00    -0.392 C  
BRANCH   8   9
HETATM    9  O   UNL     1     -11.364  13.814  65.726  1.00  0.00    -0.300 OA 
BRANCH   9  10
HETATM   10  C   UNL     1     -12.382  13.722  64.728  1.00  0.00    -0.386 C  
HETATM   11  C   UNL     1     -11.843  12.980  63.522  1.00  0.00    -0.582 C  
ENDBRANCH   9  10
ENDBRANCH   8   9
ENDBRANCH   7   8
ENDBRANCH   6   7
BRANCH   6  12
HETATM   12  C   UNL     1      -9.944   9.635  68.091  1.00  0.00    -0.159 C  
BRANCH  12  13
HETATM   13  C   UNL     1     -10.647   9.025  69.295  1.00  0.00    -0.213 C  
BRANCH  13  14
HETATM   14  P   UNL     1     -10.878   7.193  69.147  1.00  0.00    -0.059 P  
BRANCH  14  15
HETATM   15  C   UNL     1      -9.557   6.731  67.927  1.00  0.00    -0.120 C  
BRANCH  15  16
HETATM   16  C   UNL     1     -10.155   6.000  66.722  1.00  0.00    -0.187 C  
BRANCH  16  17
HETATM   17  O   UNL     1     -10.372   4.621  67.035  1.00  0.00    -0.173 OA 
BRANCH  17  18
HETATM   18  C   UNL     1      -9.125   3.926  67.098  1.00  0.00    -0.156 C  
HETATM   19  C   UNL     1      -8.912   3.140  65.820  1.00  0.00    -0.143 C  
ENDBRANCH  17  18
ENDBRANCH  16  17
ENDBRANCH  15  16
ENDBRANCH  14  15
BRANCH  14  20
HETATM   20  C   UNL     1     -10.052   6.656  70.723  1.00  0.00    -0.184 C  
BRANCH  20  21
HETATM   21  C   UNL     1      -8.784   5.844  70.462  1.00  0.00    -0.140 C  
BRANCH  21  22
HETATM   22  O   UNL     1      -8.935   4.534  71.008  1.00  0.00    -0.114 OA 
BRANCH  22  23
HETATM   23  C   UNL     1      -7.800   3.722  70.694  1.00  0.00    -0.054 C  
HETATM   24  C   UNL     1      -8.190   2.261  70.805  1.00  0.00    -0.068 C  
ENDBRANCH  22  23
ENDBRANCH  21  22
ENDBRANCH  20  21
ENDBRANCH  14  20
ENDBRANCH  13  14
ENDBRANCH  12  13
ENDBRANCH   6  12
ENDBRANCH   5   6
ENDBRANCH   4   5
ENDBRANCH   3   4
ENDBRANCH   2   3
TORSDOF 19
ENDMDL
MODEL      363
REMARK 921   NORMALIZED FREE ENERGY PREDICTED BY IDOCK:   -1.93 KCAL/MOL
REMARK 922        TOTAL FREE ENERGY PREDICTED BY IDOCK:   -5.32 KCAL/MOL
REMARK 923 INTER-LIGAND FREE ENERGY PREDICTED BY IDOCK:   -5.36 KCAL/MOL
REMARK 924 INTRA-LIGAND FREE ENERGY PREDICTED BY IDOCK:    0.04 KCAL/MOL
REMARK 927      BINDING AFFINITY PREDICTED BY RF-SCORE:    0.00 PKD
ROOT
HETATM    1  C   UNL     1      -7.834  14.666  68.432  1.00  0.00    -0.131 C  
HETATM    2  C   UNL     1      -7.259  13.603  67.519  1.00  0.00    -0.156 C  
ENDROOT
BRANCH   2   3
HETATM    3  O   UNL     1      -8.220  12.563  67.323  1.00  0.00    -0.171 OA 
BRANCH   3   4
HETATM    4  C   UNL     1      -7.695  11.317  67.790  1.00  0.00    -0.113 C  
BRANCH   4   5
HETATM    5  C   UNL     1      -8.559  10.754  68.915  1.00  0.00    -0.153 C  
BRANCH   5   6
HETATM    6  P   UNL     1      -9.788   9.511  68.298  1.00  0.00    -0.167 P  
BRANCH   6   7
HETATM    7  C   UNL     1      -8.872   8.750  66.871  1.00  0.00    -0.127 C  
BRANCH   7   8
HETATM    8  C   UNL     1      -8.788   9.720  65.693  1.00  0.00    -0.154 C  
BRANCH   8   9
HETATM    9  O   UNL     1      -8.689   8.997  64.464  1.00  0.00    -0.177 OA 
BRANCH   9  10
HETATM   10  C   UNL     1      -8.847   9.882  63.354  1.00  0.00    -0.238 C  
HETATM   11  C   UNL     1     -10.078  10.741  63.562  1.00  0.00    -0.364 C  
ENDBRANCH   9  10
ENDBRANCH   8   9
ENDBRANCH   7   8
ENDBRANCH   6   7
BRANCH   6  12
HETATM   12  C   UNL     1      -9.550   8.141  69.530  1.00  0.00    -0.168 C  
BRANCH  12  13
HETATM   13  C   UNL     1     -10.859   7.500  69.965  1.00  0.00    -0.249 C  
BRANCH  13  14
HETATM   14  P   UNL     1     -11.173   7.658  71.784  1.00  0.00    -0.270 P  
BRANCH  14  15
HETATM   15  C   UNL     1     -13.017   7.863  71.844  1.00  0.00    -0.298 C  
BRANCH  15  16
HETATM   16  C   UNL     1     -13.398   9.319  72.121  1.00  0.00    -0.468 C  
BRANCH  16  17
HETATM   17  O   UNL     1     -13.585  10.028  70.892  1.00  0.00    -0.297 OA 
BRANCH  17  18
HETATM   18  C   UNL     1     -12.564  11.016  70.731  1.00  0.00    -0.369 C  
HETATM   19  C   UNL     1     -12.940  12.268  71.496  1.00  0.00    -0.390 C  
ENDBRANCH  17  18
ENDBRANCH  16  17
ENDBRANCH  15  16
ENDBRANCH  14  15
BRANCH  14  20
HETATM   20  C   UNL     1     -11.041   5.868  72.270  1.00  0.00    -0.280 C  
BRANCH  20  21
HETATM   21  C   UNL     1     -10.475   5.005  71.145  1.00  0.00    -0.135 C  
BRANCH  21  22
HETATM   22  O   UNL     1     -10.014   3.764  71.679  1.00  0.00    -0.182 OA 
BRANCH  22  23
HETATM   23  C   UNL     1      -8.884   3.286  70.945  1.00  0.00    -0.085 C  
HETATM   24  C   UNL     1      -9.304   3.003  69.516  1.00  0.00    -0.213 C  
ENDBRANCH  22  23
ENDBRANCH  21  22
ENDBRANCH  20  21
ENDBRANCH  14  20
ENDBRANCH  13  14
ENDBRANCH  12  13
ENDBRANCH   6  12
ENDBRANCH   5   6
ENDBRANCH   4   5
ENDBRANCH   3   4
ENDBRANCH   2   3
TORSDOF 19
ENDMDL
MODEL      364
REMARK 921   NORMALIZED FREE ENERGY PREDICTED BY IDOCK:   -1.90 KCAL/MOL
REMARK 922        TOTAL FREE ENERGY PREDICTED BY IDOCK:   -5.26 KCAL/MOL
REMARK 923 INTER-LIGAND FREE ENERGY PREDICTED BY IDOCK:   -4.41 KCAL/MOL
REMARK 924 INTRA-LIGAND FREE ENERGY PREDICTED BY IDOCK:   -0.86 KCAL/MOL
REMARK 927      BINDING AFFINITY PREDICTED BY RF-SCORE:    0.00 PKD
ROOT
HETATM    1  C   UNL     1      -7.504   3.762  66.860  1.00  0.00    -0.079 C  
HETATM    2  C   UNL     1      -8.458   3.686  68.034  1.00  0.00    -0.093 C  
ENDROOT
BRANCH   2   3
HETATM    3  O   UNL     1      -8.070   4.631  69.034  1.00  0.00    -0.077 OA 
BRANCH   3   4
HETATM    4  C   UNL     1      -9.230   5.201  69.644  1.00  0.00    -0.119 C  
BRANCH   4   5
HETATM    5  C   UNL     1     -10.097   5.905  68.604  1.00  0.00    -0.168 C  
BRANCH   5   6
HETATM    6  P   UNL     1     -10.449   7.667  69.062  1.00  0.00    -0.133 P  
BRANCH   6   7
HETATM    7  C   UNL     1     -10.606   7.553  70.911  1.00  0.00    -0.220 C  
BRANCH   7   8
HETATM    8  C   UNL     1     -11.684   8.503  71.429  1.00  0.00    -0.294 C  
BRANCH   8   9
HETATM    9  O   UNL     1     -12.130   8.085  72.722  1.00  0.00    -0.297 OA 
BRANCH   9  10
HETATM   10  C   UNL     1     -13.491   8.470  72.925  1.00  0.00     0.117 C  
HETATM   11  C   UNL     1     -14.129   8.798  71.591  1.00  0.00    -0.437 C  
ENDBRANCH   9  10
ENDBRANCH   8   9
ENDBRANCH   7   8
ENDBRANCH   6   7
BRANCH   6  12
HETATM   12  C   UNL     1      -8.743   8.397  68.983  1.00  0.00    -0.142 C  
BRANCH  12  13
HETATM   13  C   UNL     1      -8.671   9.802  69.561  1.00  0.00    -0.185 C  
BRANCH  13  14
HETATM   14  P   UNL     1      -9.131  11.115  68.336  1.00  0.00    -0.165 P  
BRANCH  14  15
HETATM   15  C   UNL     1      -7.701  12.291  68.473  1.00  0.00    -0.118 C  
BRANCH  15  16
HETATM   16  C   UNL     1      -8.167  13.741  68.318  1.00  0.00    -0.156 C  
BRANCH  16  17
HETATM   17  O   UNL     1      -9.469  13.785  67.726  1.00  0.00    -0.202 OA 
BRANCH  17  18
HETATM   18  C   UNL     1      -9.983  15.118  67.761  1.00  0.00    -0.225 C  
HETATM   19  C   UNL     1      -9.565  15.859  66.508  1.00  0.00    -0.291 C  
ENDBRANCH  17  18
ENDBRANCH  16  17
ENDBRANCH  15  16
ENDBRANCH  14  15
BRANCH  14  20
HETATM   20  C   UNL     1      -8.667  10.237  66.765  1.00  0.00    -0.126 C  
BRANCH  20  21
HETATM   21  C   UNL     1      -9.132  10.994  65.523  1.00  0.00    -0.207 C  
BRANCH  21  22
HETATM   22  O   UNL     1     -10.531  10.786  65.332  1.00  0.00    -0.260 OA 
BRANCH  22  23
HETATM   23  C   UNL     1     -10.876  10.898  63.949  1.00  0.00     0.018 C  
HETATM   24  C   UNL     1     -11.945  11.960  63.788  1.00  0.00    -0.547 C  
ENDBRANCH  22  23
ENDBRANCH  21  22
ENDBRANCH  20  21
ENDBRANCH  14  20
ENDBRANCH  13  14
ENDBRANCH  12  13
ENDBRANCH   6  12
ENDBRANCH   5   6
ENDBRANCH   4   5
ENDBRANCH   3   4
ENDBRANCH   2   3
TORSDOF 19
ENDMDL
MODEL      365
REMARK 921   NORMALIZED FREE ENERGY PREDICTED BY IDOCK:   -1.88 KCAL/MOL
REMARK 922        TOTAL FREE ENERGY PREDICTED BY IDOCK:   -5.21 KCAL/MOL
REMARK 923 INTER-LIGAND FREE ENERGY PREDICTED BY IDOCK:   -4.02 KCAL/MOL
REMARK 924 INTRA-LIGAND FREE ENERGY PREDICTED BY IDOCK:   -1.19 KCAL/MOL
REMARK 927      BINDING AFFINITY PREDICTED BY RF-SCORE:    0.00 PKD
ROOT
HETATM    1  C   UNL     1      -7.462   9.002  70.845  1.00  0.00    -0.128 C  
HETATM    2  C   UNL     1      -7.291  10.189  69.920  1.00  0.00    -0.165 C  
ENDROOT
BRANCH   2   3
HETATM    3  O   UNL     1      -8.573  10.720  69.573  1.00  0.00    -0.045 OA 
BRANCH   3   4
HETATM    4  C   UNL     1      -8.838  10.493  68.187  1.00  0.00    -0.134 C  
BRANCH   4   5
HETATM    5  C   UNL     1     -10.050   9.581  68.012  1.00  0.00    -0.188 C  
BRANCH   5   6
HETATM    6  P   UNL     1      -9.906   8.507  66.507  1.00  0.00    -0.221 P  
BRANCH   6   7
HETATM    7  C   UNL     1      -8.645   9.432  65.501  1.00  0.00    -0.151 C  
BRANCH   7   8
HETATM    8  C   UNL     1      -9.123   9.620  64.062  1.00  0.00    -0.200 C  
BRANCH   8   9
HETATM    9  O   UNL     1      -9.095  11.006  63.710  1.00  0.00    -0.190 OA 
BRANCH   9  10
HETATM   10  C   UNL     1     -10.337  11.392  63.118  1.00  0.00    -0.303 C  
HETATM   11  C   UNL     1     -11.366  11.623  64.206  1.00  0.00    -0.361 C  
ENDBRANCH   9  10
ENDBRANCH   8   9
ENDBRANCH   7   8
ENDBRANCH   6   7
BRANCH   6  12
HETATM   12  C   UNL     1      -8.801   7.158  67.145  1.00  0.00    -0.121 C  
BRANCH  12  13
HETATM   13  C   UNL     1      -9.246   5.770  66.707  1.00  0.00    -0.131 C  
BRANCH  13  14
HETATM   14  P   UNL     1      -9.617   4.645  68.131  1.00  0.00    -0.111 P  
BRANCH  14  15
HETATM   15  C   UNL     1      -8.074   3.619  68.229  1.00  0.00    -0.074 C  
BRANCH  15  16
HETATM   16  C   UNL     1      -6.945   4.390  68.918  1.00  0.00    -0.051 C  
BRANCH  16  17
HETATM   17  O   UNL     1      -6.546   3.722  70.119  1.00  0.00    -0.031 OA 
BRANCH  17  18
HETATM   18  C   UNL     1      -5.859   4.629  70.984  1.00  0.00    -0.017 C  
HETATM   19  C   UNL     1      -5.579   5.924  70.249  1.00  0.00    -0.013 C  
ENDBRANCH  17  18
ENDBRANCH  16  17
ENDBRANCH  15  16
ENDBRANCH  14  15
BRANCH  14  20
HETATM   20  C   UNL     1      -9.302   5.821  69.536  1.00  0.00    -0.130 C  
BRANCH  20  21
HETATM   21  C   UNL     1     -10.401   5.761  70.595  1.00  0.00    -0.245 C  
BRANCH  21  22
HETATM   22  O   UNL     1     -10.831   7.085  70.913  1.00  0.00    -0.232 OA 
BRANCH  22  23
HETATM   23  C   UNL     1     -12.022   7.054  71.703  1.00  0.00    -0.329 C  
HETATM   24  C   UNL     1     -12.262   8.428  72.295  1.00  0.00    -0.449 C  
ENDBRANCH  22  23
ENDBRANCH  21  22
ENDBRANCH  20  21
ENDBRANCH  14  20
ENDBRANCH  13  14
ENDBRANCH  12  13
ENDBRANCH   6  12
ENDBRANCH   5   6
ENDBRANCH   4   5
ENDBRANCH   3   4
ENDBRANCH   2   3
TORSDOF 19
ENDMDL
MODEL      366
REMARK 921   NORMALIZED FREE ENERGY PREDICTED BY IDOCK:   -1.86 KCAL/MOL
REMARK 922        TOTAL FREE ENERGY PREDICTED BY IDOCK:   -5.18 KCAL/MOL
REMARK 923 INTER-LIGAND FREE ENERGY PREDICTED BY IDOCK:   -4.30 KCAL/MOL
REMARK 924 INTRA-LIGAND FREE ENERGY PREDICTED BY IDOCK:   -0.88 KCAL/MOL
REMARK 927      BINDING AFFINITY PREDICTED BY RF-SCORE:    0.00 PKD
ROOT
HETATM    1  C   UNL     1      -5.583  13.872  71.976  1.00  0.00    -0.179 C  
HETATM    2  C   UNL     1      -5.170  13.102  70.739  1.00  0.00    -0.144 C  
ENDROOT
BRANCH   2   3
HETATM    3  O   UNL     1      -6.104  12.048  70.493  1.00  0.00    -0.243 OA 
BRANCH   3   4
HETATM    4  C   UNL     1      -5.426  10.789  70.468  1.00  0.00    -0.092 C  
BRANCH   4   5
HETATM    5  C   UNL     1      -6.067   9.811  71.449  1.00  0.00     0.044 C  
BRANCH   5   6
HETATM    6  P   UNL     1      -6.959   8.435  70.583  1.00  0.00    -0.048 P  
BRANCH   6   7
HETATM    7  C   UNL     1      -8.724   9.015  70.671  1.00  0.00    -0.213 C  
BRANCH   7   8
HETATM    8  C   UNL     1      -9.547   8.127  71.604  1.00  0.00    -0.180 C  
BRANCH   8   9
HETATM    9  O   UNL     1     -10.577   8.894  72.232  1.00  0.00    -0.320 OA 
BRANCH   9  10
HETATM   10  C   UNL     1     -11.749   8.096  72.412  1.00  0.00    -0.399 C  
HETATM   11  C   UNL     1     -11.828   7.058  71.311  1.00  0.00    -0.371 C  
ENDBRANCH   9  10
ENDBRANCH   8   9
ENDBRANCH   7   8
ENDBRANCH   6   7
BRANCH   6  12
HETATM   12  C   UNL     1      -6.626   8.864  68.807  1.00  0.00    -0.054 C  
BRANCH  12  13
HETATM   13  C   UNL     1      -7.640   8.258  67.849  1.00  0.00    -0.102 C  
BRANCH  13  14
HETATM   14  P   UNL     1      -7.021   8.158  66.106  1.00  0.00    -0.058 P  
BRANCH  14  15
HETATM   15  C   UNL     1      -8.355   7.169  65.276  1.00  0.00    -0.096 C  
BRANCH  15  16
HETATM   16  C   UNL     1      -7.998   5.681  65.247  1.00  0.00    -0.114 C  
BRANCH  16  17
HETATM   17  O   UNL     1      -8.332   5.064  66.494  1.00  0.00    -0.108 OA 
BRANCH  17  18
HETATM   18  C   UNL     1      -9.473   4.218  66.337  1.00  0.00    -0.183 C  
HETATM   19  C   UNL     1      -9.215   3.213  65.233  1.00  0.00    -0.150 C  
ENDBRANCH  17  18
ENDBRANCH  16  17
ENDBRANCH  15  16
ENDBRANCH  14  15
BRANCH  14  20
HETATM   20  C   UNL     1      -7.484   9.861  65.522  1.00  0.00    -0.126 C  
BRANCH  20  21
HETATM   21  C   UNL     1      -8.959   9.958  65.139  1.00  0.00    -0.198 C  
BRANCH  21  22
HETATM   22  O   UNL     1      -9.508  11.171  65.654  1.00  0.00    -0.208 OA 
BRANCH  22  23
HETATM   23  C   UNL     1     -10.552  11.655  64.804  1.00  0.00    -0.304 C  
HETATM   24  C   UNL     1     -10.243  11.270  63.371  1.00  0.00    -0.454 C  
ENDBRANCH  22  23
ENDBRANCH  21  22
ENDBRANCH  20  21
ENDBRANCH  14  20
ENDBRANCH  13  14
ENDBRANCH  12  13
ENDBRANCH   6  12
ENDBRANCH   5   6
ENDBRANCH   4   5
ENDBRANCH   3   4
ENDBRANCH   2   3
TORSDOF 19
ENDMDL
MODEL      367
REMARK 921   NORMALIZED FREE ENERGY PREDICTED BY IDOCK:   -1.82 KCAL/MOL
REMARK 922        TOTAL FREE ENERGY PREDICTED BY IDOCK:   -5.10 KCAL/MOL
REMARK 923 INTER-LIGAND FREE ENERGY PREDICTED BY IDOCK:   -4.26 KCAL/MOL
REMARK 924 INTRA-LIGAND FREE ENERGY PREDICTED BY IDOCK:   -0.84 KCAL/MOL
REMARK 927      BINDING AFFINITY PREDICTED BY RF-SCORE:    0.00 PKD
ROOT
HETATM    1  C   UNL     1      -6.580   4.192  67.315  1.00  0.00    -0.046 C  
HETATM    2  C   UNL     1      -7.442   4.026  68.549  1.00  0.00    -0.059 C  
ENDROOT
BRANCH   2   3
HETATM    3  O   UNL     1      -7.133   5.052  69.496  1.00  0.00    -0.053 OA 
BRANCH   3   4
HETATM    4  C   UNL     1      -8.338   5.616  70.018  1.00  0.00    -0.121 C  
BRANCH   4   5
HETATM    5  C   UNL     1      -9.165   6.251  68.902  1.00  0.00    -0.123 C  
BRANCH   5   6
HETATM    6  P   UNL     1      -9.490   8.050  69.210  1.00  0.00    -0.156 P  
BRANCH   6   7
HETATM    7  C   UNL     1      -9.777   8.074  71.047  1.00  0.00    -0.160 C  
BRANCH   7   8
HETATM    8  C   UNL     1     -10.917   9.025  71.411  1.00  0.00    -0.324 C  
BRANCH   8   9
HETATM    9  O   UNL     1     -11.768   8.421  72.389  1.00  0.00    -0.370 OA 
BRANCH   9  10
HETATM   10  C   UNL     1     -13.057   9.038  72.370  1.00  0.00    -0.423 C  
HETATM   11  C   UNL     1     -13.107  10.075  71.267  1.00  0.00    -0.493 C  
ENDBRANCH   9  10
ENDBRANCH   8   9
ENDBRANCH   7   8
ENDBRANCH   6   7
BRANCH   6  12
HETATM   12  C   UNL     1      -7.761   8.726  69.201  1.00  0.00    -0.093 C  
BRANCH  12  13
HETATM   13  C   UNL     1      -7.711  10.232  69.407  1.00  0.00    -0.146 C  
BRANCH  13  14
HETATM   14  P   UNL     1      -7.684  11.181  67.815  1.00  0.00    -0.122 P  
BRANCH  14  15
HETATM   15  C   UNL     1      -7.299  12.902  68.396  1.00  0.00    -0.119 C  
BRANCH  15  16
HETATM   16  C   UNL     1      -8.302  13.909  67.827  1.00  0.00    -0.174 C  
BRANCH  16  17
HETATM   17  O   UNL     1      -9.003  13.341  66.717  1.00  0.00    -0.228 OA 
BRANCH  17  18
HETATM   18  C   UNL     1     -10.254  14.007  66.529  1.00  0.00    -0.279 C  
HETATM   19  C   UNL     1     -10.058  15.224  65.648  1.00  0.00    -0.401 C  
ENDBRANCH  17  18
ENDBRANCH  16  17
ENDBRANCH  15  16
ENDBRANCH  14  15
BRANCH  14  20
HETATM   20  C   UNL     1      -6.006  10.678  67.193  1.00  0.00    -0.056 C  
BRANCH  20  21
HETATM   21  C   UNL     1      -6.030  10.299  65.713  1.00  0.00    -0.105 C  
BRANCH  21  22
HETATM   22  O   UNL     1      -6.625   9.011  65.559  1.00  0.00    -0.067 OA 
BRANCH  22  23
HETATM   23  C   UNL     1      -5.936   8.252  64.562  1.00  0.00    -0.060 C  
HETATM   24  C   UNL     1      -6.815   8.133  63.333  1.00  0.00    -0.084 C  
ENDBRANCH  22  23
ENDBRANCH  21  22
ENDBRANCH  20  21
ENDBRANCH  14  20
ENDBRANCH  13  14
ENDBRANCH  12  13
ENDBRANCH   6  12
ENDBRANCH   5   6
ENDBRANCH   4   5
ENDBRANCH   3   4
ENDBRANCH   2   3
TORSDOF 19
ENDMDL
MODEL      368
REMARK 921   NORMALIZED FREE ENERGY PREDICTED BY IDOCK:   -1.81 KCAL/MOL
REMARK 922        TOTAL FREE ENERGY PREDICTED BY IDOCK:   -5.07 KCAL/MOL
REMARK 923 INTER-LIGAND FREE ENERGY PREDICTED BY IDOCK:   -3.91 KCAL/MOL
REMARK 924 INTRA-LIGAND FREE ENERGY PREDICTED BY IDOCK:   -1.15 KCAL/MOL
REMARK 927      BINDING AFFINITY PREDICTED BY RF-SCORE:    0.00 PKD
ROOT
HETATM    1  C   UNL     1     -10.178   3.358  64.482  1.00  0.00    -0.090 C  
HETATM    2  C   UNL     1      -8.919   4.016  65.006  1.00  0.00    -0.133 C  
ENDROOT
BRANCH   2   3
HETATM    3  O   UNL     1      -8.922   5.405  64.667  1.00  0.00    -0.068 OA 
BRANCH   3   4
HETATM    4  C   UNL     1      -7.755   6.040  65.195  1.00  0.00    -0.095 C  
BRANCH   4   5
HETATM    5  C   UNL     1      -8.114   6.932  66.381  1.00  0.00    -0.113 C  
BRANCH   5   6
HETATM    6  P   UNL     1      -7.945   8.734  65.977  1.00  0.00    -0.113 P  
BRANCH   6   7
HETATM    7  C   UNL     1      -9.723   9.257  65.829  1.00  0.00    -0.269 C  
BRANCH   7   8
HETATM    8  C   UNL     1      -9.852  10.531  64.995  1.00  0.00    -0.306 C  
BRANCH   8   9
HETATM    9  O   UNL     1      -9.996  11.667  65.851  1.00  0.00    -0.216 OA 
BRANCH   9  10
HETATM   10  C   UNL     1     -10.707  11.306  67.037  1.00  0.00    -0.260 C  
HETATM   11  C   UNL     1     -10.181  12.113  68.208  1.00  0.00    -0.209 C  
ENDBRANCH   9  10
ENDBRANCH   8   9
ENDBRANCH   7   8
ENDBRANCH   6   7
BRANCH   6  12
HETATM   12  C   UNL     1      -7.599   9.439  67.660  1.00  0.00    -0.088 C  
BRANCH  12  13
HETATM   13  C   UNL     1      -7.983   8.495  68.790  1.00  0.00    -0.119 C  
BRANCH  13  14
HETATM   14  P   UNL     1      -7.794   9.257  70.468  1.00  0.00    -0.143 P  
BRANCH  14  15
HETATM   15  C   UNL     1      -9.547   9.295  71.077  1.00  0.00    -0.259 C  
BRANCH  15  16
HETATM   16  C   UNL     1     -10.107   7.878  71.226  1.00  0.00    -0.180 C  
BRANCH  16  17
HETATM   17  O   UNL     1     -11.034   7.822  72.315  1.00  0.00    -0.249 OA 
BRANCH  17  18
HETATM   18  C   UNL     1     -12.277   7.268  71.876  1.00  0.00    -0.313 C  
HETATM   19  C   UNL     1     -12.129   6.731  70.468  1.00  0.00    -0.332 C  
ENDBRANCH  17  18
ENDBRANCH  16  17
ENDBRANCH  15  16
ENDBRANCH  14  15
BRANCH  14  20
HETATM   20  C   UNL     1      -7.169   7.778  71.404  1.00  0.00    -0.063 C  
BRANCH  20  21
HETATM   21  C   UNL     1      -6.641   6.688  70.474  1.00  0.00    -0.052 C  
BRANCH  21  22
HETATM   22  O   UNL     1      -7.077   5.410  70.937  1.00  0.00    -0.060 OA 
BRANCH  22  23
HETATM   23  C   UNL     1      -8.267   5.004  70.256  1.00  0.00    -0.088 C  
HETATM   24  C   UNL     1      -8.513   3.532  70.520  1.00  0.00    -0.096 C  
ENDBRANCH  22  23
ENDBRANCH  21  22
ENDBRANCH  20  21
ENDBRANCH  14  20
ENDBRANCH  13  14
ENDBRANCH  12  13
ENDBRANCH   6  12
ENDBRANCH   5   6
ENDBRANCH   4   5
ENDBRANCH   3   4
ENDBRANCH   2   3
TORSDOF 19
ENDMDL
MODEL      369
REMARK 921   NORMALIZED FREE ENERGY PREDICTED BY IDOCK:   -1.78 KCAL/MOL
REMARK 922        TOTAL FREE ENERGY PREDICTED BY IDOCK:   -5.00 KCAL/MOL
REMARK 923 INTER-LIGAND FREE ENERGY PREDICTED BY IDOCK:   -4.03 KCAL/MOL
REMARK 924 INTRA-LIGAND FREE ENERGY PREDICTED BY IDOCK:   -0.97 KCAL/MOL
REMARK 927      BINDING AFFINITY PREDICTED BY RF-SCORE:    0.00 PKD
ROOT
HETATM    1  C   UNL     1      -8.009  14.678  68.322  1.00  0.00    -0.133 C  
HETATM    2  C   UNL     1      -6.814  13.984  67.702  1.00  0.00    -0.179 C  
ENDROOT
BRANCH   2   3
HETATM    3  O   UNL     1      -7.201  12.697  67.216  1.00  0.00    -0.151 OA 
BRANCH   3   4
HETATM    4  C   UNL     1      -6.486  11.674  67.915  1.00  0.00    -0.061 C  
BRANCH   4   5
HETATM    5  C   UNL     1      -7.299  11.159  69.099  1.00  0.00    -0.115 C  
BRANCH   5   6
HETATM    6  P   UNL     1      -8.490   9.827  68.603  1.00  0.00    -0.124 P  
BRANCH   6   7
HETATM    7  C   UNL     1      -7.735   9.216  67.017  1.00  0.00    -0.098 C  
BRANCH   7   8
HETATM    8  C   UNL     1      -8.657   8.217  66.320  1.00  0.00    -0.144 C  
BRANCH   8   9
HETATM    9  O   UNL     1      -7.986   6.967  66.144  1.00  0.00    -0.101 OA 
BRANCH   9  10
HETATM   10  C   UNL     1      -8.933   5.898  66.097  1.00  0.00    -0.151 C  
HETATM   11  C   UNL     1     -10.220   6.333  66.769  1.00  0.00    -0.262 C  
ENDBRANCH   9  10
ENDBRANCH   8   9
ENDBRANCH   7   8
ENDBRANCH   6   7
BRANCH   6  12
HETATM   12  C   UNL     1      -7.945   8.439  69.710  1.00  0.00    -0.104 C  
BRANCH  12  13
HETATM   13  C   UNL     1      -9.073   7.479  70.057  1.00  0.00    -0.148 C  
BRANCH  13  14
HETATM   14  P   UNL     1      -8.926   6.776  71.765  1.00  0.00    -0.137 P  
BRANCH  14  15
HETATM   15  C   UNL     1     -10.705   6.535  72.240  1.00  0.00    -0.223 C  
BRANCH  15  16
HETATM   16  C   UNL     1     -11.277   7.801  72.882  1.00  0.00    -0.376 C  
BRANCH  16  17
HETATM   17  O   UNL     1     -12.269   8.385  72.032  1.00  0.00    -0.319 OA 
BRANCH  17  18
HETATM   18  C   UNL     1     -11.804   9.633  71.514  1.00  0.00    -0.407 C  
HETATM   19  C   UNL     1     -12.938  10.637  71.503  1.00  0.00    -0.566 C  
ENDBRANCH  17  18
ENDBRANCH  16  17
ENDBRANCH  15  16
ENDBRANCH  14  15
BRANCH  14  20
HETATM   20  C   UNL     1      -8.476   5.025  71.335  1.00  0.00    -0.119 C  
BRANCH  20  21
HETATM   21  C   UNL     1      -7.446   4.954  70.209  1.00  0.00    -0.058 C  
BRANCH  21  22
HETATM   22  O   UNL     1      -6.255   4.330  70.690  1.00  0.00    -0.017 OA 
BRANCH  22  23
HETATM   23  C   UNL     1      -5.759   3.387  69.736  1.00  0.00    -0.018 C  
HETATM   24  C   UNL     1      -5.796   1.999  70.344  1.00  0.00    -0.018 C  
ENDBRANCH  22  23
ENDBRANCH  21  22
ENDBRANCH  20  21
ENDBRANCH  14  20
ENDBRANCH  13  14
ENDBRANCH  12  13
ENDBRANCH   6  12
ENDBRANCH   5   6
ENDBRANCH   4   5
ENDBRANCH   3   4
ENDBRANCH   2   3
TORSDOF 19
ENDMDL
MODEL      370
REMARK 921   NORMALIZED FREE ENERGY PREDICTED BY IDOCK:   -1.77 KCAL/MOL
REMARK 922        TOTAL FREE ENERGY PREDICTED BY IDOCK:   -4.99 KCAL/MOL
REMARK 923 INTER-LIGAND FREE ENERGY PREDICTED BY IDOCK:   -4.19 KCAL/MOL
REMARK 924 INTRA-LIGAND FREE ENERGY PREDICTED BY IDOCK:   -0.80 KCAL/MOL
REMARK 927      BINDING AFFINITY PREDICTED BY RF-SCORE:    0.00 PKD
ROOT
HETATM    1  C   UNL     1     -12.749   8.269  72.444  1.00  0.00    -0.287 C  
HETATM    2  C   UNL     1     -11.938   7.079  71.974  1.00  0.00    -0.298 C  
ENDROOT
BRANCH   2   3
HETATM    3  O   UNL     1     -11.338   7.372  70.709  1.00  0.00    -0.269 OA 
BRANCH   3   4
HETATM    4  C   UNL     1     -11.657   6.345  69.767  1.00  0.00    -0.327 C  
BRANCH   4   5
HETATM    5  C   UNL     1     -10.425   5.956  68.955  1.00  0.00    -0.259 C  
BRANCH   5   6
HETATM    6  P   UNL     1      -8.971   7.046  69.323  1.00  0.00    -0.136 P  
BRANCH   6   7
HETATM    7  C   UNL     1      -7.602   6.171  68.419  1.00  0.00    -0.092 C  
BRANCH   7   8
HETATM    8  C   UNL     1      -8.164   5.224  67.359  1.00  0.00    -0.103 C  
BRANCH   8   9
HETATM    9  O   UNL     1      -8.190   5.872  66.084  1.00  0.00    -0.109 OA 
BRANCH   9  10
HETATM   10  C   UNL     1      -7.579   5.041  65.094  1.00  0.00    -0.081 C  
HETATM   11  C   UNL     1      -6.856   3.895  65.771  1.00  0.00    -0.054 C  
ENDBRANCH   9  10
ENDBRANCH   8   9
ENDBRANCH   7   8
ENDBRANCH   6   7
BRANCH   6  12
HETATM   12  C   UNL     1      -9.251   8.426  68.112  1.00  0.00    -0.137 C  
BRANCH  12  13
HETATM   13  C   UNL     1      -8.401   9.653  68.404  1.00  0.00    -0.117 C  
BRANCH  13  14
HETATM   14  P   UNL     1      -7.470  10.259  66.921  1.00  0.00    -0.107 P  
BRANCH  14  15
HETATM   15  C   UNL     1      -6.208   8.918  66.680  1.00  0.00    -0.061 C  
BRANCH  15  16
HETATM   16  C   UNL     1      -5.184   9.314  65.613  1.00  0.00    -0.039 C  
BRANCH  16  17
HETATM   17  O   UNL     1      -5.774  10.210  64.666  1.00  0.00    -0.096 OA 
BRANCH  17  18
HETATM   18  C   UNL     1      -5.612   9.702  63.339  1.00  0.00    -0.084 C  
HETATM   19  C   UNL     1      -6.315  10.614  62.354  1.00  0.00    -0.147 C  
ENDBRANCH  17  18
ENDBRANCH  16  17
ENDBRANCH  15  16
ENDBRANCH  14  15
BRANCH  14  20
HETATM   20  C   UNL     1      -8.682   9.791  65.591  1.00  0.00    -0.148 C  
BRANCH  20  21
HETATM   21  C   UNL     1      -9.241  11.013  64.865  1.00  0.00    -0.188 C  
BRANCH  21  22
HETATM   22  O   UNL     1     -10.517  10.697  64.308  1.00  0.00    -0.349 OA 
BRANCH  22  23
HETATM   23  C   UNL     1     -11.410  11.806  64.429  1.00  0.00    -0.301 C  
HETATM   24  C   UNL     1     -10.608  13.063  64.702  1.00  0.00    -0.397 C  
ENDBRANCH  22  23
ENDBRANCH  21  22
ENDBRANCH  20  21
ENDBRANCH  14  20
ENDBRANCH  13  14
ENDBRANCH  12  13
ENDBRANCH   6  12
ENDBRANCH   5   6
ENDBRANCH   4   5
ENDBRANCH   3   4
ENDBRANCH   2   3
TORSDOF 19
ENDMDL
MODEL      371
REMARK 921   NORMALIZED FREE ENERGY PREDICTED BY IDOCK:   -1.74 KCAL/MOL
REMARK 922        TOTAL FREE ENERGY PREDICTED BY IDOCK:   -4.92 KCAL/MOL
REMARK 923 INTER-LIGAND FREE ENERGY PREDICTED BY IDOCK:   -4.18 KCAL/MOL
REMARK 924 INTRA-LIGAND FREE ENERGY PREDICTED BY IDOCK:   -0.74 KCAL/MOL
REMARK 927      BINDING AFFINITY PREDICTED BY RF-SCORE:    0.00 PKD
ROOT
HETATM    1  C   UNL     1      -7.949  16.136  67.893  1.00  0.00    -0.150 C  
HETATM    2  C   UNL     1      -6.794  15.308  67.369  1.00  0.00    -0.154 C  
ENDROOT
BRANCH   2   3
HETATM    3  O   UNL     1      -7.222  13.960  67.161  1.00  0.00    -0.052 OA 
BRANCH   3   4
HETATM    4  C   UNL     1      -6.609  13.098  68.124  1.00  0.00    -0.107 C  
BRANCH   4   5
HETATM    5  C   UNL     1      -7.659  12.245  68.832  1.00  0.00     0.021 C  
BRANCH   5   6
HETATM    6  P   UNL     1      -8.219  10.818  67.789  1.00  0.00    -0.115 P  
BRANCH   6   7
HETATM    7  C   UNL     1      -6.835  10.685  66.554  1.00  0.00    -0.124 C  
BRANCH   7   8
HETATM    8  C   UNL     1      -7.293   9.949  65.295  1.00  0.00    -0.131 C  
BRANCH   8   9
HETATM    9  O   UNL     1      -7.997  10.844  64.430  1.00  0.00     0.114 OA 
BRANCH   9  10
HETATM   10  C   UNL     1      -9.139  10.195  63.870  1.00  0.00    -0.260 C  
HETATM   11  C   UNL     1     -10.293  11.174  63.795  1.00  0.00    -0.447 C  
ENDBRANCH   9  10
ENDBRANCH   8   9
ENDBRANCH   7   8
ENDBRANCH   6   7
BRANCH   6  12
HETATM   12  C   UNL     1      -7.749   9.385  68.873  1.00  0.00    -0.076 C  
BRANCH  12  13
HETATM   13  C   UNL     1      -8.951   8.591  69.361  1.00  0.00    -0.149 C  
BRANCH  13  14
HETATM   14  P   UNL     1      -8.684   7.820  71.024  1.00  0.00    -0.141 P  
BRANCH  14  15
HETATM   15  C   UNL     1     -10.423   7.477  71.578  1.00  0.00    -0.204 C  
BRANCH  15  16
HETATM   16  C   UNL     1     -11.093   8.750  72.100  1.00  0.00    -0.336 C  
BRANCH  16  17
HETATM   17  O   UNL     1     -12.514   8.584  72.137  1.00  0.00    -0.336 OA 
BRANCH  17  18
HETATM   18  C   UNL     1     -13.163   9.787  71.716  1.00  0.00    -0.436 C  
HETATM   19  C   UNL     1     -12.260  10.549  70.768  1.00  0.00    -0.468 C  
ENDBRANCH  17  18
ENDBRANCH  16  17
ENDBRANCH  15  16
ENDBRANCH  14  15
BRANCH  14  20
HETATM   20  C   UNL     1      -8.182   6.112  70.489  1.00  0.00    -0.114 C  
BRANCH  20  21
HETATM   21  C   UNL     1      -8.412   5.074  71.585  1.00  0.00    -0.124 C  
BRANCH  21  22
HETATM   22  O   UNL     1      -9.025   3.913  71.024  1.00  0.00    -0.090 OA 
BRANCH  22  23
HETATM   23  C   UNL     1      -9.258   4.092  69.624  1.00  0.00    -0.147 C  
HETATM   24  C   UNL     1      -9.455   2.735  68.976  1.00  0.00    -0.160 C  
ENDBRANCH  22  23
ENDBRANCH  21  22
ENDBRANCH  20  21
ENDBRANCH  14  20
ENDBRANCH  13  14
ENDBRANCH  12  13
ENDBRANCH   6  12
ENDBRANCH   5   6
ENDBRANCH   4   5
ENDBRANCH   3   4
ENDBRANCH   2   3
TORSDOF 19
ENDMDL
MODEL      372
REMARK 921   NORMALIZED FREE ENERGY PREDICTED BY IDOCK:   -1.74 KCAL/MOL
REMARK 922        TOTAL FREE ENERGY PREDICTED BY IDOCK:   -4.92 KCAL/MOL
REMARK 923 INTER-LIGAND FREE ENERGY PREDICTED BY IDOCK:   -4.04 KCAL/MOL
REMARK 924 INTRA-LIGAND FREE ENERGY PREDICTED BY IDOCK:   -0.88 KCAL/MOL
REMARK 927      BINDING AFFINITY PREDICTED BY RF-SCORE:    0.00 PKD
ROOT
HETATM    1  C   UNL     1     -10.923  11.993  66.668  1.00  0.00    -0.330 C  
HETATM    2  C   UNL     1     -11.706  11.538  67.882  1.00  0.00    -0.247 C  
ENDROOT
BRANCH   2   3
HETATM    3  O   UNL     1     -11.280  10.229  68.269  1.00  0.00    -0.276 OA 
BRANCH   3   4
HETATM    4  C   UNL     1     -10.829  10.242  69.626  1.00  0.00    -0.271 C  
BRANCH   4   5
HETATM    5  C   UNL     1      -9.392   9.737  69.723  1.00  0.00    -0.226 C  
BRANCH   5   6
HETATM    6  P   UNL     1      -9.288   8.078  70.544  1.00  0.00    -0.155 P  
BRANCH   6   7
HETATM    7  C   UNL     1     -10.945   7.965  71.381  1.00  0.00    -0.232 C  
BRANCH   7   8
HETATM    8  C   UNL     1     -10.993   6.780  72.344  1.00  0.00    -0.246 C  
BRANCH   8   9
HETATM    9  O   UNL     1     -10.077   6.985  73.423  1.00  0.00    -0.220 OA 
BRANCH   9  10
HETATM   10  C   UNL     1     -10.224   5.952  74.400  1.00  0.00    -0.291 C  
HETATM   11  C   UNL     1     -10.469   4.628  73.704  1.00  0.00    -0.281 C  
ENDBRANCH   9  10
ENDBRANCH   8   9
ENDBRANCH   7   8
ENDBRANCH   6   7
BRANCH   6  12
HETATM   12  C   UNL     1      -9.637   6.953  69.108  1.00  0.00    -0.144 C  
BRANCH  12  13
HETATM   13  C   UNL     1      -8.632   5.817  68.987  1.00  0.00    -0.106 C  
BRANCH  13  14
HETATM   14  P   UNL     1      -9.302   4.352  68.071  1.00  0.00    -0.151 P  
BRANCH  14  15
HETATM   15  C   UNL     1      -7.897   3.930  66.933  1.00  0.00    -0.088 C  
BRANCH  15  16
HETATM   16  C   UNL     1      -8.058   2.517  66.365  1.00  0.00    -0.084 C  
BRANCH  16  17
HETATM   17  O   UNL     1      -9.255   2.427  65.586  1.00  0.00    -0.123 OA 
BRANCH  17  18
HETATM   18  C   UNL     1      -9.048   3.004  64.294  1.00  0.00    -0.114 C  
HETATM   19  C   UNL     1     -10.246   2.721  63.411  1.00  0.00    -0.166 C  
ENDBRANCH  17  18
ENDBRANCH  16  17
ENDBRANCH  15  16
ENDBRANCH  14  15
BRANCH  14  20
HETATM   20  C   UNL     1      -9.056   3.045  69.371  1.00  0.00    -0.132 C  
BRANCH  20  21
HETATM   21  C   UNL     1      -7.687   3.149  70.041  1.00  0.00    -0.043 C  
BRANCH  21  22
HETATM   22  O   UNL     1      -7.813   2.856  71.432  1.00  0.00    -0.050 OA 
BRANCH  22  23
HETATM   23  C   UNL     1      -6.805   3.535  72.186  1.00  0.00    -0.023 C  
HETATM   24  C   UNL     1      -6.969   3.196  73.654  1.00  0.00    -0.037 C  
ENDBRANCH  22  23
ENDBRANCH  21  22
ENDBRANCH  20  21
ENDBRANCH  14  20
ENDBRANCH  13  14
ENDBRANCH  12  13
ENDBRANCH   6  12
ENDBRANCH   5   6
ENDBRANCH   4   5
ENDBRANCH   3   4
ENDBRANCH   2   3
TORSDOF 19
ENDMDL
MODEL      373
REMARK 921   NORMALIZED FREE ENERGY PREDICTED BY IDOCK:   -1.73 KCAL/MOL
REMARK 922        TOTAL FREE ENERGY PREDICTED BY IDOCK:   -4.91 KCAL/MOL
REMARK 923 INTER-LIGAND FREE ENERGY PREDICTED BY IDOCK:   -4.26 KCAL/MOL
REMARK 924 INTRA-LIGAND FREE ENERGY PREDICTED BY IDOCK:   -0.65 KCAL/MOL
REMARK 927      BINDING AFFINITY PREDICTED BY RF-SCORE:    0.00 PKD
ROOT
HETATM    1  C   UNL     1      -7.472  10.345  63.652  1.00  0.00    -0.024 C  
HETATM    2  C   UNL     1      -7.526   9.310  64.757  1.00  0.00    -0.104 C  
ENDROOT
BRANCH   2   3
HETATM    3  O   UNL     1      -7.280   9.936  66.018  1.00  0.00    -0.097 OA 
BRANCH   3   4
HETATM    4  C   UNL     1      -5.946  10.450  66.057  1.00  0.00    -0.096 C  
BRANCH   4   5
HETATM    5  C   UNL     1      -5.885  11.735  66.879  1.00  0.00    -0.143 C  
BRANCH   5   6
HETATM    6  P   UNL     1      -7.262  11.838  68.117  1.00  0.00    -0.104 P  
BRANCH   6   7
HETATM    7  C   UNL     1      -6.942  13.493  68.902  1.00  0.00    -0.108 C  
BRANCH   7   8
HETATM    8  C   UNL     1      -6.726  13.353  70.408  1.00  0.00     0.586 C  
BRANCH   8   9
HETATM    9  O   UNL     1      -5.349  13.569  70.730  1.00  0.00    -0.116 OA 
BRANCH   9  10
HETATM   10  C   UNL     1      -5.156  13.506  72.144  1.00  0.00    -0.156 C  
HETATM   11  C   UNL     1      -5.345  14.884  72.743  1.00  0.00     0.024 C  
ENDBRANCH   9  10
ENDBRANCH   8   9
ENDBRANCH   7   8
ENDBRANCH   6   7
BRANCH   6  12
HETATM   12  C   UNL     1      -8.680  12.330  67.024  1.00  0.00    -0.199 C  
BRANCH  12  13
HETATM   13  C   UNL     1      -9.941  12.669  67.805  1.00  0.00    -0.218 C  
BRANCH  13  14
HETATM   14  P   UNL     1     -11.267  13.420  66.750  1.00  0.00    -0.333 P  
BRANCH  14  15
HETATM   15  C   UNL     1     -12.113  14.563  67.944  1.00  0.00    -0.226 C  
BRANCH  15  16
HETATM   16  C   UNL     1     -11.684  14.267  69.383  1.00  0.00    -0.316 C  
BRANCH  16  17
HETATM   17  O   UNL     1     -12.797  14.404  70.272  1.00  0.00    -0.327 OA 
BRANCH  17  18
HETATM   18  C   UNL     1     -12.340  14.668  71.600  1.00  0.00    -0.351 C  
HETATM   19  C   UNL     1     -12.136  16.158  71.784  1.00  0.00    -0.517 C  
ENDBRANCH  17  18
ENDBRANCH  16  17
ENDBRANCH  15  16
ENDBRANCH  14  15
BRANCH  14  20
HETATM   20  C   UNL     1     -10.243  14.652  65.808  1.00  0.00    -0.340 C  
BRANCH  20  21
HETATM   21  C   UNL     1     -10.610  16.093  66.155  1.00  0.00    -0.283 C  
BRANCH  21  22
HETATM   22  O   UNL     1      -9.549  16.691  66.901  1.00  0.00    -0.235 OA 
BRANCH  22  23
HETATM   23  C   UNL     1      -8.329  16.662  66.156  1.00  0.00    -0.270 C  
HETATM   24  C   UNL     1      -7.630  17.999  66.297  1.00  0.00    -0.306 C  
ENDBRANCH  22  23
ENDBRANCH  21  22
ENDBRANCH  20  21
ENDBRANCH  14  20
ENDBRANCH  13  14
ENDBRANCH  12  13
ENDBRANCH   6  12
ENDBRANCH   5   6
ENDBRANCH   4   5
ENDBRANCH   3   4
ENDBRANCH   2   3
TORSDOF 19
ENDMDL
MODEL      374
REMARK 921   NORMALIZED FREE ENERGY PREDICTED BY IDOCK:   -1.73 KCAL/MOL
REMARK 922        TOTAL FREE ENERGY PREDICTED BY IDOCK:   -4.91 KCAL/MOL
REMARK 923 INTER-LIGAND FREE ENERGY PREDICTED BY IDOCK:   -4.15 KCAL/MOL
REMARK 924 INTRA-LIGAND FREE ENERGY PREDICTED BY IDOCK:   -0.76 KCAL/MOL
REMARK 927      BINDING AFFINITY PREDICTED BY RF-SCORE:    0.00 PKD
ROOT
HETATM    1  C   UNL     1      -8.964   9.093  70.655  1.00  0.00    -0.292 C  
HETATM    2  C   UNL     1      -7.531   9.481  70.355  1.00  0.00    -0.151 C  
ENDROOT
BRANCH   2   3
HETATM    3  O   UNL     1      -6.728   8.305  70.225  1.00  0.00    -0.036 OA 
BRANCH   3   4
HETATM    4  C   UNL     1      -7.038   7.635  69.000  1.00  0.00    -0.078 C  
BRANCH   4   5
HETATM    5  C   UNL     1      -6.085   8.070  67.890  1.00  0.00    -0.047 C  
BRANCH   5   6
HETATM    6  P   UNL     1      -6.971   8.923  66.502  1.00  0.00    -0.081 P  
BRANCH   6   7
HETATM    7  C   UNL     1      -6.897   7.638  65.160  1.00  0.00    -0.047 C  
BRANCH   7   8
HETATM    8  C   UNL     1      -7.110   8.269  63.784  1.00  0.00    -0.081 C  
BRANCH   8   9
HETATM    9  O   UNL     1      -8.505   8.313  63.474  1.00  0.00    -0.081 OA 
BRANCH   9  10
HETATM   10  C   UNL     1      -8.830   9.549  62.834  1.00  0.00    -0.232 C  
HETATM   11  C   UNL     1      -7.591  10.416  62.749  1.00  0.00    -0.137 C  
ENDBRANCH   9  10
ENDBRANCH   8   9
ENDBRANCH   7   8
ENDBRANCH   6   7
BRANCH   6  12
HETATM   12  C   UNL     1      -8.740   8.675  67.010  1.00  0.00    -0.127 C  
BRANCH  12  13
HETATM   13  C   UNL     1      -9.409   9.960  67.477  1.00  0.00    -0.140 C  
BRANCH  13  14
HETATM   14  P   UNL     1      -9.823  11.108  66.083  1.00  0.00    -0.247 P  
BRANCH  14  15
HETATM   15  C   UNL     1     -11.609  11.493  66.414  1.00  0.00     0.051 C  
BRANCH  15  16
HETATM   16  C   UNL     1     -11.781  12.943  66.875  1.00  0.00    -0.382 C  
BRANCH  16  17
HETATM   17  O   UNL     1     -12.227  13.760  65.789  1.00  0.00    -0.403 OA 
BRANCH  17  18
HETATM   18  C   UNL     1     -12.756  12.944  64.741  1.00  0.00    -0.370 C  
HETATM   19  C   UNL     1     -11.915  13.107  63.492  1.00  0.00    -0.580 C  
ENDBRANCH  17  18
ENDBRANCH  16  17
ENDBRANCH  15  16
ENDBRANCH  14  15
BRANCH  14  20
HETATM   20  C   UNL     1      -9.041  12.665  66.731  1.00  0.00    -0.214 C  
BRANCH  20  21
HETATM   21  C   UNL     1      -7.782  12.381  67.547  1.00  0.00    -0.161 C  
BRANCH  21  22
HETATM   22  O   UNL     1      -7.680  13.324  68.614  1.00  0.00    -0.129 OA 
BRANCH  22  23
HETATM   23  C   UNL     1      -6.328  13.759  68.778  1.00  0.00    -0.092 C  
HETATM   24  C   UNL     1      -5.409  12.821  68.020  1.00  0.00    -0.091 C  
ENDBRANCH  22  23
ENDBRANCH  21  22
ENDBRANCH  20  21
ENDBRANCH  14  20
ENDBRANCH  13  14
ENDBRANCH  12  13
ENDBRANCH   6  12
ENDBRANCH   5   6
ENDBRANCH   4   5
ENDBRANCH   3   4
ENDBRANCH   2   3
TORSDOF 19
ENDMDL
MODEL      375
REMARK 921   NORMALIZED FREE ENERGY PREDICTED BY IDOCK:   -1.72 KCAL/MOL
REMARK 922        TOTAL FREE ENERGY PREDICTED BY IDOCK:   -4.87 KCAL/MOL
REMARK 923 INTER-LIGAND FREE ENERGY PREDICTED BY IDOCK:   -4.24 KCAL/MOL
REMARK 924 INTRA-LIGAND FREE ENERGY PREDICTED BY IDOCK:   -0.64 KCAL/MOL
REMARK 927      BINDING AFFINITY PREDICTED BY RF-SCORE:    0.00 PKD
ROOT
HETATM    1  C   UNL     1      -8.898   9.074  70.739  1.00  0.00    -0.281 C  
HETATM    2  C   UNL     1      -7.448   9.428  70.482  1.00  0.00    -0.145 C  
ENDROOT
BRANCH   2   3
HETATM    3  O   UNL     1      -6.666   8.234  70.397  1.00  0.00    -0.036 OA 
BRANCH   3   4
HETATM    4  C   UNL     1      -6.953   7.548  69.175  1.00  0.00    -0.072 C  
BRANCH   4   5
HETATM    5  C   UNL     1      -5.868   7.820  68.136  1.00  0.00    -0.040 C  
BRANCH   5   6
HETATM    6  P   UNL     1      -6.538   8.679  66.635  1.00  0.00    -0.061 P  
BRANCH   6   7
HETATM    7  C   UNL     1      -6.506   7.314  65.373  1.00  0.00    -0.044 C  
BRANCH   7   8
HETATM    8  C   UNL     1      -7.848   6.585  65.319  1.00  0.00    -0.109 C  
BRANCH   8   9
HETATM    9  O   UNL     1      -7.708   5.256  65.827  1.00  0.00    -0.088 OA 
BRANCH   9  10
HETATM   10  C   UNL     1      -8.963   4.575  65.785  1.00  0.00    -0.131 C  
HETATM   11  C   UNL     1      -9.757   4.900  67.034  1.00  0.00    -0.193 C  
ENDBRANCH   9  10
ENDBRANCH   8   9
ENDBRANCH   7   8
ENDBRANCH   6   7
BRANCH   6  12
HETATM   12  C   UNL     1      -8.358   8.660  67.003  1.00  0.00    -0.106 C  
BRANCH  12  13
HETATM   13  C   UNL     1      -8.876  10.000  67.502  1.00  0.00    -0.128 C  
BRANCH  13  14
HETATM   14  P   UNL     1      -9.388  11.136  66.130  1.00  0.00    -0.219 P  
BRANCH  14  15
HETATM   15  C   UNL     1     -11.217  11.284  66.410  1.00  0.00    -0.121 C  
BRANCH  15  16
HETATM   16  C   UNL     1     -11.595  12.708  66.825  1.00  0.00    -0.374 C  
BRANCH  16  17
HETATM   17  O   UNL     1     -12.164  13.414  65.718  1.00  0.00    -0.411 OA 
BRANCH  17  18
HETATM   18  C   UNL     1     -12.566  12.495  64.699  1.00  0.00    -0.426 C  
HETATM   19  C   UNL     1     -11.794  12.772  63.426  1.00  0.00    -0.591 C  
ENDBRANCH  17  18
ENDBRANCH  16  17
ENDBRANCH  15  16
ENDBRANCH  14  15
BRANCH  14  20
HETATM   20  C   UNL     1      -8.828  12.754  66.853  1.00  0.00    -0.194 C  
BRANCH  20  21
HETATM   21  C   UNL     1      -7.555  12.606  67.684  1.00  0.00    -0.152 C  
BRANCH  21  22
HETATM   22  O   UNL     1      -7.558  13.567  68.739  1.00  0.00    -0.122 OA 
BRANCH  22  23
HETATM   23  C   UNL     1      -6.248  14.107  68.934  1.00  0.00    -0.087 C  
HETATM   24  C   UNL     1      -6.200  15.511  68.363  1.00  0.00    -0.104 C  
ENDBRANCH  22  23
ENDBRANCH  21  22
ENDBRANCH  20  21
ENDBRANCH  14  20
ENDBRANCH  13  14
ENDBRANCH  12  13
ENDBRANCH   6  12
ENDBRANCH   5   6
ENDBRANCH   4   5
ENDBRANCH   3   4
ENDBRANCH   2   3
TORSDOF 19
ENDMDL
MODEL      376
REMARK 921   NORMALIZED FREE ENERGY PREDICTED BY IDOCK:   -1.71 KCAL/MOL
REMARK 922        TOTAL FREE ENERGY PREDICTED BY IDOCK:   -4.87 KCAL/MOL
REMARK 923 INTER-LIGAND FREE ENERGY PREDICTED BY IDOCK:   -3.73 KCAL/MOL
REMARK 924 INTRA-LIGAND FREE ENERGY PREDICTED BY IDOCK:   -1.14 KCAL/MOL
REMARK 927      BINDING AFFINITY PREDICTED BY RF-SCORE:    0.00 PKD
ROOT
HETATM    1  C   UNL     1      -7.366   9.002  70.909  1.00  0.00    -0.119 C  
HETATM    2  C   UNL     1      -7.045  10.173  70.003  1.00  0.00    -0.154 C  
ENDROOT
BRANCH   2   3
HETATM    3  O   UNL     1      -8.257  10.807  69.586  1.00  0.00    -0.040 OA 
BRANCH   3   4
HETATM    4  C   UNL     1      -8.537  10.479  68.222  1.00  0.00    -0.127 C  
BRANCH   4   5
HETATM    5  C   UNL     1      -9.964   9.957  68.073  1.00  0.00    -0.152 C  
BRANCH   5   6
HETATM    6  P   UNL     1     -10.114   8.710  66.709  1.00  0.00    -0.263 P  
BRANCH   6   7
HETATM    7  C   UNL     1      -8.382   8.679  66.033  1.00  0.00    -0.131 C  
BRANCH   7   8
HETATM    8  C   UNL     1      -8.391   8.612  64.506  1.00  0.00    -0.147 C  
BRANCH   8   9
HETATM    9  O   UNL     1      -7.777   9.782  63.959  1.00  0.00    -0.122 OA 
BRANCH   9  10
HETATM   10  C   UNL     1      -8.493  10.222  62.803  1.00  0.00    -0.180 C  
HETATM   11  C   UNL     1      -9.831  10.795  63.224  1.00  0.00    -0.394 C  
ENDBRANCH   9  10
ENDBRANCH   8   9
ENDBRANCH   7   8
ENDBRANCH   6   7
BRANCH   6  12
HETATM   12  C   UNL     1     -10.053   7.125  67.675  1.00  0.00    -0.180 C  
BRANCH  12  13
HETATM   13  C   UNL     1      -8.657   6.791  68.179  1.00  0.00    -0.120 C  
BRANCH  13  14
HETATM   14  P   UNL     1      -8.165   5.037  67.841  1.00  0.00    -0.096 P  
BRANCH  14  15
HETATM   15  C   UNL     1      -8.352   4.251  69.512  1.00  0.00    -0.062 C  
BRANCH  15  16
HETATM   16  C   UNL     1      -8.868   5.263  70.539  1.00  0.00    -0.132 C  
BRANCH  16  17
HETATM   17  O   UNL     1      -8.060   5.229  71.720  1.00  0.00    -0.112 OA 
BRANCH  17  18
HETATM   18  C   UNL     1      -8.836   5.608  72.860  1.00  0.00    -0.124 C  
HETATM   19  C   UNL     1      -9.918   6.582  72.440  1.00  0.00    -0.183 C  
ENDBRANCH  17  18
ENDBRANCH  16  17
ENDBRANCH  15  16
ENDBRANCH  14  15
BRANCH  14  20
HETATM   20  C   UNL     1      -9.727   4.435  67.034  1.00  0.00    -0.205 C  
BRANCH  20  21
HETATM   21  C   UNL     1      -9.446   3.547  65.823  1.00  0.00    -0.138 C  
BRANCH  21  22
HETATM   22  O   UNL     1     -10.173   4.033  64.695  1.00  0.00    -0.215 OA 
BRANCH  22  23
HETATM   23  C   UNL     1      -9.695   3.433  63.488  1.00  0.00    -0.133 C  
HETATM   24  C   UNL     1     -10.648   3.765  62.357  1.00  0.00    -0.198 C  
ENDBRANCH  22  23
ENDBRANCH  21  22
ENDBRANCH  20  21
ENDBRANCH  14  20
ENDBRANCH  13  14
ENDBRANCH  12  13
ENDBRANCH   6  12
ENDBRANCH   5   6
ENDBRANCH   4   5
ENDBRANCH   3   4
ENDBRANCH   2   3
TORSDOF 19
ENDMDL
MODEL      377
REMARK 921   NORMALIZED FREE ENERGY PREDICTED BY IDOCK:   -1.69 KCAL/MOL
REMARK 922        TOTAL FREE ENERGY PREDICTED BY IDOCK:   -4.82 KCAL/MOL
REMARK 923 INTER-LIGAND FREE ENERGY PREDICTED BY IDOCK:   -4.11 KCAL/MOL
REMARK 924 INTRA-LIGAND FREE ENERGY PREDICTED BY IDOCK:   -0.72 KCAL/MOL
REMARK 927      BINDING AFFINITY PREDICTED BY RF-SCORE:    0.00 PKD
ROOT
HETATM    1  C   UNL     1     -13.509   9.254  72.409  1.00  0.00    -0.526 C  
HETATM    2  C   UNL     1     -13.070   8.024  71.642  1.00  0.00    -0.329 C  
ENDROOT
BRANCH   2   3
HETATM    3  O   UNL     1     -11.692   7.754  71.911  1.00  0.00    -0.270 OA 
BRANCH   3   4
HETATM    4  C   UNL     1     -11.048   7.272  70.728  1.00  0.00    -0.266 C  
BRANCH   4   5
HETATM    5  C   UNL     1      -9.639   7.848  70.607  1.00  0.00    -0.166 C  
BRANCH   5   6
HETATM    6  P   UNL     1      -9.452   8.933  69.115  1.00  0.00    -0.161 P  
BRANCH   6   7
HETATM    7  C   UNL     1     -10.955   8.472  68.122  1.00  0.00     0.190 C  
BRANCH   7   8
HETATM    8  C   UNL     1     -10.574   7.606  66.922  1.00  0.00    -0.289 C  
BRANCH   8   9
HETATM    9  O   UNL     1     -11.013   6.260  67.126  1.00  0.00    -0.347 OA 
BRANCH   9  10
HETATM   10  C   UNL     1     -10.156   5.350  66.435  1.00  0.00    -0.204 C  
HETATM   11  C   UNL     1      -9.302   4.598  67.435  1.00  0.00    -0.162 C  
ENDBRANCH   9  10
ENDBRANCH   8   9
ENDBRANCH   7   8
ENDBRANCH   6   7
BRANCH   6  12
HETATM   12  C   UNL     1     -10.060  10.556  69.782  1.00  0.00    -0.081 C  
BRANCH  12  13
HETATM   13  C   UNL     1     -10.578  11.487  68.697  1.00  0.00    -0.208 C  
BRANCH  13  14
HETATM   14  P   UNL     1      -9.232  12.451  67.865  1.00  0.00    -0.201 P  
BRANCH  14  15
HETATM   15  C   UNL     1      -9.895  14.184  67.935  1.00  0.00    -0.224 C  
BRANCH  15  16
HETATM   16  C   UNL     1     -11.061  14.365  66.961  1.00  0.00    -0.313 C  
BRANCH  16  17
HETATM   17  O   UNL     1     -10.767  13.736  65.710  1.00  0.00    -0.273 OA 
BRANCH  17  18
HETATM   18  C   UNL     1     -11.941  13.114  65.181  1.00  0.00    -0.394 C  
HETATM   19  C   UNL     1     -11.606  11.718  64.699  1.00  0.00    -0.270 C  
ENDBRANCH  17  18
ENDBRANCH  16  17
ENDBRANCH  15  16
ENDBRANCH  14  15
BRANCH  14  20
HETATM   20  C   UNL     1      -8.007  12.526  69.261  1.00  0.00     0.607 C  
BRANCH  20  21
HETATM   21  C   UNL     1      -6.577  12.271  68.788  1.00  0.00    -0.084 C  
BRANCH  21  22
HETATM   22  O   UNL     1      -6.035  11.151  69.487  1.00  0.00    -0.056 OA 
BRANCH  22  23
HETATM   23  C   UNL     1      -5.895  10.028  68.612  1.00  0.00    -0.041 C  
HETATM   24  C   UNL     1      -6.212   8.759  69.378  1.00  0.00    -0.041 C  
ENDBRANCH  22  23
ENDBRANCH  21  22
ENDBRANCH  20  21
ENDBRANCH  14  20
ENDBRANCH  13  14
ENDBRANCH  12  13
ENDBRANCH   6  12
ENDBRANCH   5   6
ENDBRANCH   4   5
ENDBRANCH   3   4
ENDBRANCH   2   3
TORSDOF 19
ENDMDL
MODEL      378
REMARK 921   NORMALIZED FREE ENERGY PREDICTED BY IDOCK:   -1.61 KCAL/MOL
REMARK 922        TOTAL FREE ENERGY PREDICTED BY IDOCK:   -4.64 KCAL/MOL
REMARK 923 INTER-LIGAND FREE ENERGY PREDICTED BY IDOCK:   -3.91 KCAL/MOL
REMARK 924 INTRA-LIGAND FREE ENERGY PREDICTED BY IDOCK:   -0.73 KCAL/MOL
REMARK 927      BINDING AFFINITY PREDICTED BY RF-SCORE:    0.00 PKD
ROOT
HETATM    1  C   UNL     1     -13.580   8.650  72.159  1.00  0.00    -0.447 C  
HETATM    2  C   UNL     1     -12.441   7.654  72.108  1.00  0.00    -0.217 C  
ENDROOT
BRANCH   2   3
HETATM    3  O   UNL     1     -11.696   7.832  70.901  1.00  0.00    -0.289 OA 
BRANCH   3   4
HETATM    4  C   UNL     1     -11.378   6.560  70.330  1.00  0.00    -0.383 C  
BRANCH   4   5
HETATM    5  C   UNL     1      -9.933   6.535  69.838  1.00  0.00    -0.167 C  
BRANCH   5   6
HETATM    6  P   UNL     1      -8.952   7.974  70.476  1.00  0.00    -0.156 P  
BRANCH   6   7
HETATM    7  C   UNL     1      -7.207   7.382  70.228  1.00  0.00    -0.066 C  
BRANCH   7   8
HETATM    8  C   UNL     1      -7.183   5.925  69.766  1.00  0.00    -0.070 C  
BRANCH   8   9
HETATM    9  O   UNL     1      -6.651   5.838  68.441  1.00  0.00    -0.048 OA 
BRANCH   9  10
HETATM   10  C   UNL     1      -5.900   4.632  68.289  1.00  0.00    -0.025 C  
HETATM   11  C   UNL     1      -5.797   3.927  69.625  1.00  0.00    -0.018 C  
ENDBRANCH   9  10
ENDBRANCH   8   9
ENDBRANCH   7   8
ENDBRANCH   6   7
BRANCH   6  12
HETATM   12  C   UNL     1      -9.049   9.134  69.029  1.00  0.00    -0.143 C  
BRANCH  12  13
HETATM   13  C   UNL     1      -8.438  10.497  69.319  1.00  0.00    -0.129 C  
BRANCH  13  14
HETATM   14  P   UNL     1      -7.540  11.213  67.865  1.00  0.00    -0.109 P  
BRANCH  14  15
HETATM   15  C   UNL     1      -7.587   9.811  66.650  1.00  0.00    -0.098 C  
BRANCH  15  16
HETATM   16  C   UNL     1      -7.731  10.331  65.217  1.00  0.00    -0.144 C  
BRANCH  16  17
HETATM   17  O   UNL     1      -7.067   9.455  64.301  1.00  0.00    -0.096 OA 
BRANCH  17  18
HETATM   18  C   UNL     1      -6.170  10.197  63.471  1.00  0.00    -0.138 C  
HETATM   19  C   UNL     1      -5.578   9.285  62.416  1.00  0.00    -0.086 C  
ENDBRANCH  17  18
ENDBRANCH  16  17
ENDBRANCH  15  16
ENDBRANCH  14  15
BRANCH  14  20
HETATM   20  C   UNL     1      -8.895  12.278  67.168  1.00  0.00    -0.194 C  
BRANCH  20  21
HETATM   21  C   UNL     1      -8.426  13.707  66.900  1.00  0.00    -0.054 C  
BRANCH  21  22
HETATM   22  O   UNL     1      -9.551  14.530  66.593  1.00  0.00    -0.252 OA 
BRANCH  22  23
HETATM   23  C   UNL     1      -9.340  15.867  67.053  1.00  0.00    -0.215 C  
HETATM   24  C   UNL     1     -10.076  16.828  66.141  1.00  0.00    -0.360 C  
ENDBRANCH  22  23
ENDBRANCH  21  22
ENDBRANCH  20  21
ENDBRANCH  14  20
ENDBRANCH  13  14
ENDBRANCH  12  13
ENDBRANCH   6  12
ENDBRANCH   5   6
ENDBRANCH   4   5
ENDBRANCH   3   4
ENDBRANCH   2   3
TORSDOF 19
ENDMDL
MODEL      379
REMARK 921   NORMALIZED FREE ENERGY PREDICTED BY IDOCK:   -1.51 KCAL/MOL
REMARK 922        TOTAL FREE ENERGY PREDICTED BY IDOCK:   -4.44 KCAL/MOL
REMARK 923 INTER-LIGAND FREE ENERGY PREDICTED BY IDOCK:   -4.26 KCAL/MOL
REMARK 924 INTRA-LIGAND FREE ENERGY PREDICTED BY IDOCK:   -0.18 KCAL/MOL
REMARK 927      BINDING AFFINITY PREDICTED BY RF-SCORE:    0.00 PKD
ROOT
HETATM    1  C   UNL     1     -10.427   9.605  69.078  1.00  0.00    -0.229 C  
HETATM    2  C   UNL     1     -10.707   9.301  67.621  1.00  0.00    -0.209 C  
ENDROOT
BRANCH   2   3
HETATM    3  O   UNL     1      -9.963  10.195  66.789  1.00  0.00    -0.193 OA 
BRANCH   3   4
HETATM    4  C   UNL     1      -8.568   9.889  66.867  1.00  0.00    -0.128 C  
BRANCH   4   5
HETATM    5  C   UNL     1      -7.731  11.165  66.811  1.00  0.00    -0.153 C  
BRANCH   5   6
HETATM    6  P   UNL     1      -7.692  12.047  68.441  1.00  0.00    -0.122 P  
BRANCH   6   7
HETATM    7  C   UNL     1      -6.050  12.916  68.363  1.00  0.00    -0.074 C  
BRANCH   7   8
HETATM    8  C   UNL     1      -6.218  14.366  67.911  1.00  0.00    -0.156 C  
BRANCH   8   9
HETATM    9  O   UNL     1      -5.348  15.219  68.660  1.00  0.00    -0.086 OA 
BRANCH   9  10
HETATM   10  C   UNL     1      -6.023  15.722  69.815  1.00  0.00    -0.159 C  
HETATM   11  C   UNL     1      -5.199  15.426  71.051  1.00  0.00    -0.128 C  
ENDBRANCH   9  10
ENDBRANCH   8   9
ENDBRANCH   7   8
ENDBRANCH   6   7
BRANCH   6  12
HETATM   12  C   UNL     1      -8.783  13.505  68.076  1.00  0.00    -0.181 C  
BRANCH  12  13
HETATM   13  C   UNL     1      -9.334  13.494  66.658  1.00  0.00    -0.245 C  
BRANCH  13  14
HETATM   14  P   UNL     1     -10.343  14.997  66.261  1.00  0.00    -0.330 P  
BRANCH  14  15
HETATM   15  C   UNL     1     -12.071  14.318  66.266  1.00  0.00    -0.413 C  
BRANCH  15  16
HETATM   16  C   UNL     1     -12.233  13.241  67.342  1.00  0.00    -0.186 C  
BRANCH  16  17
HETATM   17  O   UNL     1     -12.870  13.787  68.501  1.00  0.00     0.659 OA 
BRANCH  17  18
HETATM   18  C   UNL     1     -12.278  13.253  69.687  1.00  0.00    -0.199 C  
HETATM   19  C   UNL     1     -11.139  14.145  70.137  1.00  0.00     0.044 C  
ENDBRANCH  17  18
ENDBRANCH  16  17
ENDBRANCH  15  16
ENDBRANCH  14  15
BRANCH  14  20
HETATM   20  C   UNL     1     -10.325  15.823  67.926  1.00  0.00    -0.261 C  
BRANCH  20  21
HETATM   21  C   UNL     1     -10.622  17.318  67.831  1.00  0.00    -0.384 C  
BRANCH  21  22
HETATM   22  O   UNL     1     -10.371  17.772  66.502  1.00  0.00    -0.347 OA 
BRANCH  22  23
HETATM   23  C   UNL     1      -9.992  19.151  66.501  1.00  0.00    -0.383 C  
HETATM   24  C   UNL     1     -10.703  19.862  67.635  1.00  0.00    -0.399 C  
ENDBRANCH  22  23
ENDBRANCH  21  22
ENDBRANCH  20  21
ENDBRANCH  14  20
ENDBRANCH  13  14
ENDBRANCH  12  13
ENDBRANCH   6  12
ENDBRANCH   5   6
ENDBRANCH   4   5
ENDBRANCH   3   4
ENDBRANCH   2   3
TORSDOF 19
ENDMDL
MODEL      380
REMARK 921   NORMALIZED FREE ENERGY PREDICTED BY IDOCK:   -1.45 KCAL/MOL
REMARK 922        TOTAL FREE ENERGY PREDICTED BY IDOCK:   -4.32 KCAL/MOL
REMARK 923 INTER-LIGAND FREE ENERGY PREDICTED BY IDOCK:   -3.71 KCAL/MOL
REMARK 924 INTRA-LIGAND FREE ENERGY PREDICTED BY IDOCK:   -0.61 KCAL/MOL
REMARK 927      BINDING AFFINITY PREDICTED BY RF-SCORE:    0.00 PKD
ROOT
HETATM    1  C   UNL     1      -5.195  13.250  72.808  1.00  0.00     0.057 C  
HETATM    2  C   UNL     1      -5.144  12.674  71.408  1.00  0.00    -0.146 C  
ENDROOT
BRANCH   2   3
HETATM    3  O   UNL     1      -6.072  11.591  71.297  1.00  0.00    -0.201 OA 
BRANCH   3   4
HETATM    4  C   UNL     1      -5.392  10.406  70.874  1.00  0.00    -0.082 C  
BRANCH   4   5
HETATM    5  C   UNL     1      -5.615   9.271  71.870  1.00  0.00    -0.072 C  
BRANCH   5   6
HETATM    6  P   UNL     1      -6.490   7.829  71.103  1.00  0.00    -0.038 P  
BRANCH   6   7
HETATM    7  C   UNL     1      -8.045   7.744  72.120  1.00  0.00    -0.112 C  
BRANCH   7   8
HETATM    8  C   UNL     1      -8.012   6.549  73.072  1.00  0.00    -0.104 C  
BRANCH   8   9
HETATM    9  O   UNL     1      -8.595   6.905  74.329  1.00  0.00    -0.142 OA 
BRANCH   9  10
HETATM   10  C   UNL     1      -9.888   6.311  74.460  1.00  0.00    -0.323 C  
HETATM   11  C   UNL     1      -9.949   5.043  73.633  1.00  0.00    -0.185 C  
ENDBRANCH   9  10
ENDBRANCH   8   9
ENDBRANCH   7   8
ENDBRANCH   6   7
BRANCH   6  12
HETATM   12  C   UNL     1      -7.208   8.621  69.584  1.00  0.00    -0.052 C  
BRANCH  12  13
HETATM   13  C   UNL     1      -8.567   8.053  69.204  1.00  0.00    -0.137 C  
BRANCH  13  14
HETATM   14  P   UNL     1      -8.960   8.255  67.404  1.00  0.00    -0.136 P  
BRANCH  14  15
HETATM   15  C   UNL     1     -10.725   7.686  67.325  1.00  0.00    -0.274 C  
BRANCH  15  16
HETATM   16  C   UNL     1     -10.822   6.280  66.728  1.00  0.00    -0.296 C  
BRANCH  16  17
HETATM   17  O   UNL     1      -9.527   5.674  66.670  1.00  0.00    -0.137 OA 
BRANCH  17  18
HETATM   18  C   UNL     1      -9.372   4.735  67.738  1.00  0.00    -0.136 C  
HETATM   19  C   UNL     1      -7.939   4.248  67.786  1.00  0.00    -0.087 C  
ENDBRANCH  17  18
ENDBRANCH  16  17
ENDBRANCH  15  16
ENDBRANCH  14  15
BRANCH  14  20
HETATM   20  C   UNL     1      -9.221  10.095  67.356  1.00  0.00    -0.141 C  
BRANCH  20  21
HETATM   21  C   UNL     1     -10.387  10.489  66.452  1.00  0.00    -0.221 C  
BRANCH  21  22
HETATM   22  O   UNL     1     -11.023  11.656  66.973  1.00  0.00    -0.257 OA 
BRANCH  22  23
HETATM   23  C   UNL     1     -11.115  12.672  65.971  1.00  0.00    -0.287 C  
HETATM   24  C   UNL     1      -9.963  12.515  64.998  1.00  0.00    -0.198 C  
ENDBRANCH  22  23
ENDBRANCH  21  22
ENDBRANCH  20  21
ENDBRANCH  14  20
ENDBRANCH  13  14
ENDBRANCH  12  13
ENDBRANCH   6  12
ENDBRANCH   5   6
ENDBRANCH   4   5
ENDBRANCH   3   4
ENDBRANCH   2   3
TORSDOF 19
ENDMDL
MODEL      381
REMARK 921   NORMALIZED FREE ENERGY PREDICTED BY IDOCK:   -1.42 KCAL/MOL
REMARK 922        TOTAL FREE ENERGY PREDICTED BY IDOCK:   -4.26 KCAL/MOL
REMARK 923 INTER-LIGAND FREE ENERGY PREDICTED BY IDOCK:   -3.32 KCAL/MOL
REMARK 924 INTRA-LIGAND FREE ENERGY PREDICTED BY IDOCK:   -0.94 KCAL/MOL
REMARK 927      BINDING AFFINITY PREDICTED BY RF-SCORE:    0.00 PKD
ROOT
HETATM    1  C   UNL     1      -7.047   8.674  72.103  1.00  0.00    -0.063 C  
HETATM    2  C   UNL     1      -5.953   9.681  71.811  1.00  0.00     0.090 C  
ENDROOT
BRANCH   2   3
HETATM    3  O   UNL     1      -6.361  10.541  70.744  1.00  0.00    -0.298 OA 
BRANCH   3   4
HETATM    4  C   UNL     1      -6.873   9.764  69.658  1.00  0.00    -0.072 C  
BRANCH   4   5
HETATM    5  C   UNL     1      -7.815  10.599  68.794  1.00  0.00    -0.125 C  
BRANCH   5   6
HETATM    6  P   UNL     1      -8.725   9.566  67.552  1.00  0.00    -0.124 P  
BRANCH   6   7
HETATM    7  C   UNL     1      -7.364   8.487  66.887  1.00  0.00    -0.083 C  
BRANCH   7   8
HETATM    8  C   UNL     1      -6.773   9.078  65.608  1.00  0.00    -0.072 C  
BRANCH   8   9
HETATM    9  O   UNL     1      -7.724   9.940  64.978  1.00  0.00    -0.121 OA 
BRANCH   9  10
HETATM   10  C   UNL     1      -8.179   9.363  63.752  1.00  0.00    -0.165 C  
HETATM   11  C   UNL     1      -7.017   9.242  62.788  1.00  0.00    -0.091 C  
ENDBRANCH   9  10
ENDBRANCH   8   9
ENDBRANCH   7   8
ENDBRANCH   6   7
BRANCH   6  12
HETATM   12  C   UNL     1      -9.537   8.317  68.662  1.00  0.00    -0.149 C  
BRANCH  12  13
HETATM   13  C   UNL     1      -8.632   7.141  68.994  1.00  0.00    -0.129 C  
BRANCH  13  14
HETATM   14  P   UNL     1      -9.511   5.511  68.935  1.00  0.00    -0.145 P  
BRANCH  14  15
HETATM   15  C   UNL     1     -10.661   5.637  70.387  1.00  0.00    -0.294 C  
BRANCH  15  16
HETATM   16  C   UNL     1      -9.994   6.373  71.552  1.00  0.00    -0.180 C  
BRANCH  16  17
HETATM   17  O   UNL     1      -9.016   5.535  72.176  1.00  0.00    -0.136 OA 
BRANCH  17  18
HETATM   18  C   UNL     1      -9.040   5.718  73.594  1.00  0.00    -0.127 C  
HETATM   19  C   UNL     1      -9.476   4.433  74.268  1.00  0.00    -0.126 C  
ENDBRANCH  17  18
ENDBRANCH  16  17
ENDBRANCH  15  16
ENDBRANCH  14  15
BRANCH  14  20
HETATM   20  C   UNL     1     -10.707   5.861  67.556  1.00  0.00    -0.276 C  
BRANCH  20  21
HETATM   21  C   UNL     1     -10.325   5.143  66.264  1.00  0.00    -0.268 C  
BRANCH  21  22
HETATM   22  O   UNL     1      -9.043   5.595  65.827  1.00  0.00    -0.159 OA 
BRANCH  22  23
HETATM   23  C   UNL     1      -8.627   4.884  64.658  1.00  0.00    -0.149 C  
HETATM   24  C   UNL     1      -7.213   5.296  64.303  1.00  0.00    -0.054 C  
ENDBRANCH  22  23
ENDBRANCH  21  22
ENDBRANCH  20  21
ENDBRANCH  14  20
ENDBRANCH  13  14
ENDBRANCH  12  13
ENDBRANCH   6  12
ENDBRANCH   5   6
ENDBRANCH   4   5
ENDBRANCH   3   4
ENDBRANCH   2   3
TORSDOF 19
ENDMDL
MODEL      382
REMARK 921   NORMALIZED FREE ENERGY PREDICTED BY IDOCK:   -1.38 KCAL/MOL
REMARK 922        TOTAL FREE ENERGY PREDICTED BY IDOCK:   -4.17 KCAL/MOL
REMARK 923 INTER-LIGAND FREE ENERGY PREDICTED BY IDOCK:   -2.94 KCAL/MOL
REMARK 924 INTRA-LIGAND FREE ENERGY PREDICTED BY IDOCK:   -1.23 KCAL/MOL
REMARK 927      BINDING AFFINITY PREDICTED BY RF-SCORE:    0.00 PKD
ROOT
HETATM    1  C   UNL     1      -9.099   9.488  70.468  1.00  0.00    -0.276 C  
HETATM    2  C   UNL     1     -10.590   9.466  70.203  1.00  0.00    -0.240 C  
ENDROOT
BRANCH   2   3
HETATM    3  O   UNL     1     -10.863  10.060  68.931  1.00  0.00    -0.213 OA 
BRANCH   3   4
HETATM    4  C   UNL     1      -9.721   9.939  68.079  1.00  0.00    -0.140 C  
BRANCH   4   5
HETATM    5  C   UNL     1     -10.098   9.262  66.764  1.00  0.00    -0.261 C  
BRANCH   5   6
HETATM    6  P   UNL     1      -9.300   7.598  66.580  1.00  0.00    -0.150 P  
BRANCH   6   7
HETATM    7  C   UNL     1      -7.700   7.842  67.494  1.00  0.00    -0.117 C  
BRANCH   7   8
HETATM    8  C   UNL     1      -6.547   8.096  66.523  1.00  0.00    -0.055 C  
BRANCH   8   9
HETATM    9  O   UNL     1      -7.047   8.630  65.294  1.00  0.00    -0.080 OA 
BRANCH   9  10
HETATM   10  C   UNL     1      -6.279   9.768  64.900  1.00  0.00    -0.096 C  
HETATM   11  C   UNL     1      -6.166  10.731  66.065  1.00  0.00    -0.134 C  
ENDBRANCH   9  10
ENDBRANCH   8   9
ENDBRANCH   7   8
ENDBRANCH   6   7
BRANCH   6  12
HETATM   12  C   UNL     1     -10.206   6.630  67.880  1.00  0.00    -0.171 C  
BRANCH  12  13
HETATM   13  C   UNL     1     -10.497   5.197  67.459  1.00  0.00    -0.080 C  
BRANCH  13  14
HETATM   14  P   UNL     1      -8.962   4.192  67.198  1.00  0.00    -0.151 P  
BRANCH  14  15
HETATM   15  C   UNL     1      -9.212   2.786  68.384  1.00  0.00    -0.191 C  
BRANCH  15  16
HETATM   16  C   UNL     1      -8.402   3.000  69.666  1.00  0.00    -0.055 C  
BRANCH  16  17
HETATM   17  O   UNL     1      -8.581   4.334  70.150  1.00  0.00    -0.068 OA 
BRANCH  17  18
HETATM   18  C   UNL     1      -7.351   4.836  70.679  1.00  0.00    -0.056 C  
HETATM   19  C   UNL     1      -6.352   3.705  70.812  1.00  0.00    -0.019 C  
ENDBRANCH  17  18
ENDBRANCH  16  17
ENDBRANCH  15  16
ENDBRANCH  14  15
BRANCH  14  20
HETATM   20  C   UNL     1      -9.421   3.346  65.608  1.00  0.00    -0.119 C  
BRANCH  20  21
HETATM   21  C   UNL     1      -8.546   2.126  65.330  1.00  0.00    -0.109 C  
BRANCH  21  22
HETATM   22  O   UNL     1      -7.318   2.545  64.734  1.00  0.00    -0.059 OA 
BRANCH  22  23
HETATM   23  C   UNL     1      -7.556   3.179  63.475  1.00  0.00    -0.063 C  
HETATM   24  C   UNL     1      -7.306   2.182  62.361  1.00  0.00    -0.036 C  
ENDBRANCH  22  23
ENDBRANCH  21  22
ENDBRANCH  20  21
ENDBRANCH  14  20
ENDBRANCH  13  14
ENDBRANCH  12  13
ENDBRANCH   6  12
ENDBRANCH   5   6
ENDBRANCH   4   5
ENDBRANCH   3   4
ENDBRANCH   2   3
TORSDOF 19
ENDMDL
MODEL      383
REMARK 921   NORMALIZED FREE ENERGY PREDICTED BY IDOCK:   -1.19 KCAL/MOL
REMARK 922        TOTAL FREE ENERGY PREDICTED BY IDOCK:   -3.77 KCAL/MOL
REMARK 923 INTER-LIGAND FREE ENERGY PREDICTED BY IDOCK:   -3.23 KCAL/MOL
REMARK 924 INTRA-LIGAND FREE ENERGY PREDICTED BY IDOCK:   -0.54 KCAL/MOL
REMARK 927      BINDING AFFINITY PREDICTED BY RF-SCORE:    0.00 PKD
ROOT
HETATM    1  C   UNL     1      -8.161   9.001  70.291  1.00  0.00    -0.150 C  
HETATM    2  C   UNL     1      -9.676   9.005  70.292  1.00  0.00    -0.196 C  
ENDROOT
BRANCH   2   3
HETATM    3  O   UNL     1     -10.157   9.882  69.270  1.00  0.00    -0.180 OA 
BRANCH   3   4
HETATM    4  C   UNL     1      -9.151  10.066  68.270  1.00  0.00    -0.122 C  
BRANCH   4   5
HETATM    5  C   UNL     1      -9.724   9.819  66.877  1.00  0.00    -0.192 C  
BRANCH   5   6
HETATM    6  P   UNL     1      -9.355   8.110  66.262  1.00  0.00    -0.130 P  
BRANCH   6   7
HETATM    7  C   UNL     1      -7.782   7.712  67.171  1.00  0.00    -0.112 C  
BRANCH   7   8
HETATM    8  C   UNL     1      -6.572   8.325  66.467  1.00  0.00    -0.056 C  
BRANCH   8   9
HETATM    9  O   UNL     1      -6.881   8.587  65.095  1.00  0.00    -0.066 OA 
BRANCH   9  10
HETATM   10  C   UNL     1      -6.493   9.917  64.746  1.00  0.00    -0.120 C  
HETATM   11  C   UNL     1      -6.292  10.734  66.006  1.00  0.00    -0.126 C  
ENDBRANCH   9  10
ENDBRANCH   8   9
ENDBRANCH   7   8
ENDBRANCH   6   7
BRANCH   6  12
HETATM   12  C   UNL     1     -10.523   7.104  67.297  1.00  0.00    -0.301 C  
BRANCH  12  13
HETATM   13  C   UNL     1     -10.898   5.778  66.652  1.00  0.00    -0.214 C  
BRANCH  13  14
HETATM   14  P   UNL     1      -9.423   4.784  66.131  1.00  0.00    -0.197 P  
BRANCH  14  15
HETATM   15  C   UNL     1      -9.349   3.479  67.448  1.00  0.00    -0.206 C  
BRANCH  15  16
HETATM   16  C   UNL     1      -7.940   2.890  67.559  1.00  0.00    -0.075 C  
BRANCH  16  17
HETATM   17  O   UNL     1      -6.957   3.914  67.373  1.00  0.00    -0.053 OA 
BRANCH  17  18
HETATM   18  C   UNL     1      -6.001   3.507  66.391  1.00  0.00    -0.024 C  
HETATM   19  C   UNL     1      -5.830   4.604  65.360  1.00  0.00    -0.022 C  
ENDBRANCH  17  18
ENDBRANCH  16  17
ENDBRANCH  15  16
ENDBRANCH  14  15
BRANCH  14  20
HETATM   20  C   UNL     1     -10.194   3.799  64.756  1.00  0.00    -0.150 C  
BRANCH  20  21
HETATM   21  C   UNL     1      -9.388   2.545  64.423  1.00  0.00    -0.135 C  
BRANCH  21  22
HETATM   22  O   UNL     1      -9.440   2.301  63.018  1.00  0.00    -0.091 OA 
BRANCH  22  23
HETATM   23  C   UNL     1     -10.661   2.798  62.463  1.00  0.00    -0.146 C  
HETATM   24  C   UNL     1     -11.683   1.680  62.431  1.00  0.00    -0.160 C  
ENDBRANCH  22  23
ENDBRANCH  21  22
ENDBRANCH  20  21
ENDBRANCH  14  20
ENDBRANCH  13  14
ENDBRANCH  12  13
ENDBRANCH   6  12
ENDBRANCH   5   6
ENDBRANCH   4   5
ENDBRANCH   3   4
ENDBRANCH   2   3
TORSDOF 19
ENDMDL
MODEL      384
REMARK 921   NORMALIZED FREE ENERGY PREDICTED BY IDOCK:   -1.15 KCAL/MOL
REMARK 922        TOTAL FREE ENERGY PREDICTED BY IDOCK:   -3.69 KCAL/MOL
REMARK 923 INTER-LIGAND FREE ENERGY PREDICTED BY IDOCK:   -3.15 KCAL/MOL
REMARK 924 INTRA-LIGAND FREE ENERGY PREDICTED BY IDOCK:   -0.54 KCAL/MOL
REMARK 927      BINDING AFFINITY PREDICTED BY RF-SCORE:    0.00 PKD
ROOT
HETATM    1  C   UNL     1      -6.540  11.217  69.235  1.00  0.00    -0.096 C  
HETATM    2  C   UNL     1      -7.902  10.555  69.251  1.00  0.00    -0.144 C  
ENDROOT
BRANCH   2   3
HETATM    3  O   UNL     1      -7.910   9.443  68.352  1.00  0.00    -0.089 OA 
BRANCH   3   4
HETATM    4  C   UNL     1      -7.384   9.837  67.081  1.00  0.00    -0.087 C  
BRANCH   4   5
HETATM    5  C   UNL     1      -8.402  10.676  66.313  1.00  0.00    -0.155 C  
BRANCH   5   6
HETATM    6  P   UNL     1      -9.652   9.626  65.434  1.00  0.00    -0.194 P  
BRANCH   6   7
HETATM    7  C   UNL     1      -8.645   8.927  64.036  1.00  0.00    -0.100 C  
BRANCH   7   8
HETATM    8  C   UNL     1      -7.663   9.966  63.496  1.00  0.00    -0.143 C  
BRANCH   8   9
HETATM    9  O   UNL     1      -6.370   9.380  63.326  1.00  0.00    -0.090 OA 
BRANCH   9  10
HETATM   10  C   UNL     1      -6.476   7.956  63.264  1.00  0.00    -0.068 C  
HETATM   11  C   UNL     1      -5.281   7.329  63.953  1.00  0.00    -0.029 C  
ENDBRANCH   9  10
ENDBRANCH   8   9
ENDBRANCH   7   8
ENDBRANCH   6   7
BRANCH   6  12
HETATM   12  C   UNL     1      -9.677   8.123  66.524  1.00  0.00    -0.239 C  
BRANCH  12  13
HETATM   13  C   UNL     1      -9.051   6.902  65.865  1.00  0.00    -0.009 C  
BRANCH  13  14
HETATM   14  P   UNL     1      -9.050   5.408  66.961  1.00  0.00    -0.117 P  
BRANCH  14  15
HETATM   15  C   UNL     1      -7.607   5.747  68.079  1.00  0.00    -0.085 C  
BRANCH  15  16
HETATM   16  C   UNL     1      -6.532   4.668  67.929  1.00  0.00    -0.041 C  
BRANCH  16  17
HETATM   17  O   UNL     1      -6.063   4.250  69.215  1.00  0.00    -0.025 OA 
BRANCH  17  18
HETATM   18  C   UNL     1      -5.558   2.914  69.146  1.00  0.00    -0.018 C  
HETATM   19  C   UNL     1      -5.629   2.270  70.515  1.00  0.00    -0.016 C  
ENDBRANCH  17  18
ENDBRANCH  16  17
ENDBRANCH  15  16
ENDBRANCH  14  15
BRANCH  14  20
HETATM   20  C   UNL     1     -10.444   5.868  68.101  1.00  0.00    -0.233 C  
BRANCH  20  21
HETATM   21  C   UNL     1      -9.968   6.091  69.535  1.00  0.00    -0.178 C  
BRANCH  21  22
HETATM   22  O   UNL     1     -11.004   5.725  70.446  1.00  0.00    -0.298 OA 
BRANCH  22  23
HETATM   23  C   UNL     1     -11.927   6.802  70.622  1.00  0.00    -0.362 C  
HETATM   24  C   UNL     1     -11.933   7.219  72.079  1.00  0.00    -0.333 C  
ENDBRANCH  22  23
ENDBRANCH  21  22
ENDBRANCH  20  21
ENDBRANCH  14  20
ENDBRANCH  13  14
ENDBRANCH  12  13
ENDBRANCH   6  12
ENDBRANCH   5   6
ENDBRANCH   4   5
ENDBRANCH   3   4
ENDBRANCH   2   3
TORSDOF 19
ENDMDL
MODEL      385
REMARK 921   NORMALIZED FREE ENERGY PREDICTED BY IDOCK:   -1.12 KCAL/MOL
REMARK 922        TOTAL FREE ENERGY PREDICTED BY IDOCK:   -3.62 KCAL/MOL
REMARK 923 INTER-LIGAND FREE ENERGY PREDICTED BY IDOCK:   -3.79 KCAL/MOL
REMARK 924 INTRA-LIGAND FREE ENERGY PREDICTED BY IDOCK:    0.17 KCAL/MOL
REMARK 927      BINDING AFFINITY PREDICTED BY RF-SCORE:    0.00 PKD
ROOT
HETATM    1  C   UNL     1     -12.285  10.149  71.714  1.00  0.00    -0.338 C  
HETATM    2  C   UNL     1     -13.010   8.891  72.145  1.00  0.00    -0.416 C  
ENDROOT
BRANCH   2   3
HETATM    3  O   UNL     1     -12.415   7.752  71.518  1.00  0.00    -0.307 OA 
BRANCH   3   4
HETATM    4  C   UNL     1     -11.194   8.129  70.876  1.00  0.00    -0.266 C  
BRANCH   4   5
HETATM    5  C   UNL     1     -11.263   7.850  69.377  1.00  0.00     0.198 C  
BRANCH   5   6
HETATM    6  P   UNL     1     -10.063   8.887  68.417  1.00  0.00    -0.198 P  
BRANCH   6   7
HETATM    7  C   UNL     1     -10.841  10.572  68.532  1.00  0.00    -0.234 C  
BRANCH   7   8
HETATM    8  C   UNL     1     -11.124  11.141  67.142  1.00  0.00    -0.287 C  
BRANCH   8   9
HETATM    9  O   UNL     1     -11.739  12.427  67.253  1.00  0.00    -0.356 OA 
BRANCH   9  10
HETATM   10  C   UNL     1     -10.781  13.457  67.002  1.00  0.00    -0.268 C  
HETATM   11  C   UNL     1     -11.475  14.804  66.995  1.00  0.00    -0.362 C  
ENDBRANCH   9  10
ENDBRANCH   8   9
ENDBRANCH   7   8
ENDBRANCH   6   7
BRANCH   6  12
HETATM   12  C   UNL     1      -8.720   9.127  69.677  1.00  0.00    -0.145 C  
BRANCH  12  13
HETATM   13  C   UNL     1      -7.918   7.860  69.938  1.00  0.00    -0.109 C  
BRANCH  13  14
HETATM   14  P   UNL     1      -8.069   6.613  68.576  1.00  0.00    -0.120 P  
BRANCH  14  15
HETATM   15  C   UNL     1      -7.333   7.521  67.134  1.00  0.00    -0.094 C  
BRANCH  15  16
HETATM   16  C   UNL     1      -7.669   6.821  65.816  1.00  0.00    -0.096 C  
BRANCH  16  17
HETATM   17  O   UNL     1      -7.406   7.690  64.710  1.00  0.00    -0.067 OA 
BRANCH  17  18
HETATM   18  C   UNL     1      -7.131   6.924  63.534  1.00  0.00    -0.061 C  
HETATM   19  C   UNL     1      -5.871   6.109  63.739  1.00  0.00    -0.022 C  
ENDBRANCH  17  18
ENDBRANCH  16  17
ENDBRANCH  15  16
ENDBRANCH  14  15
BRANCH  14  20
HETATM   20  C   UNL     1      -6.639   5.510  69.016  1.00  0.00    -0.051 C  
BRANCH  20  21
HETATM   21  C   UNL     1      -6.816   4.093  68.476  1.00  0.00    -0.047 C  
BRANCH  21  22
HETATM   22  O   UNL     1      -7.539   4.136  67.246  1.00  0.00    -0.075 OA 
BRANCH  22  23
HETATM   23  C   UNL     1      -6.998   3.202  66.308  1.00  0.00    -0.054 C  
HETATM   24  C   UNL     1      -5.487   3.197  66.427  1.00  0.00    -0.017 C  
ENDBRANCH  22  23
ENDBRANCH  21  22
ENDBRANCH  20  21
ENDBRANCH  14  20
ENDBRANCH  13  14
ENDBRANCH  12  13
ENDBRANCH   6  12
ENDBRANCH   5   6
ENDBRANCH   4   5
ENDBRANCH   3   4
ENDBRANCH   2   3
TORSDOF 19
ENDMDL
MODEL      386
REMARK 921   NORMALIZED FREE ENERGY PREDICTED BY IDOCK:   -1.10 KCAL/MOL
REMARK 922        TOTAL FREE ENERGY PREDICTED BY IDOCK:   -3.56 KCAL/MOL
REMARK 923 INTER-LIGAND FREE ENERGY PREDICTED BY IDOCK:   -4.31 KCAL/MOL
REMARK 924 INTRA-LIGAND FREE ENERGY PREDICTED BY IDOCK:    0.75 KCAL/MOL
REMARK 927      BINDING AFFINITY PREDICTED BY RF-SCORE:    0.00 PKD
ROOT
HETATM    1  C   UNL     1      -8.280  20.481  66.613  1.00  0.00    -0.163 C  
HETATM    2  C   UNL     1      -7.025  20.957  67.315  1.00  0.00    -0.376 C  
ENDROOT
BRANCH   2   3
HETATM    3  O   UNL     1      -5.981  19.996  67.143  1.00  0.00    -0.178 OA 
BRANCH   3   4
HETATM    4  C   UNL     1      -6.160  19.294  65.909  1.00  0.00    -0.188 C  
BRANCH   4   5
HETATM    5  C   UNL     1      -5.310  18.026  65.881  1.00  0.00    -0.196 C  
BRANCH   5   6
HETATM    6  P   UNL     1      -6.001  16.697  66.973  1.00  0.00    -0.033 P  
BRANCH   6   7
HETATM    7  C   UNL     1      -6.583  17.677  68.441  1.00  0.00    -0.196 C  
BRANCH   7   8
HETATM    8  C   UNL     1      -7.232  16.768  69.485  1.00  0.00     0.017 C  
BRANCH   8   9
HETATM    9  O   UNL     1      -6.659  15.460  69.423  1.00  0.00    -0.133 OA 
BRANCH   9  10
HETATM   10  C   UNL     1      -5.616  15.331  70.391  1.00  0.00    -0.138 C  
HETATM   11  C   UNL     1      -5.532  13.891  70.856  1.00  0.00    -0.170 C  
ENDBRANCH   9  10
ENDBRANCH   8   9
ENDBRANCH   7   8
ENDBRANCH   6   7
BRANCH   6  12
HETATM   12  C   UNL     1      -7.651  16.408  66.172  1.00  0.00     0.148 C  
BRANCH  12  13
HETATM   13  C   UNL     1      -8.737  17.334  66.700  1.00  0.00    -0.257 C  
BRANCH  13  14
HETATM   14  P   UNL     1     -10.427  16.576  66.643  1.00  0.00    -0.171 P  
BRANCH  14  15
HETATM   15  C   UNL     1     -10.039  14.760  66.636  1.00  0.00    -0.264 C  
BRANCH  15  16
HETATM   16  C   UNL     1      -9.771  14.262  65.214  1.00  0.00    -0.033 C  
BRANCH  16  17
HETATM   17  O   UNL     1      -9.972  12.848  65.136  1.00  0.00    -0.247 OA 
BRANCH  17  18
HETATM   18  C   UNL     1     -11.357  12.535  65.304  1.00  0.00    -0.324 C  
HETATM   19  C   UNL     1     -11.775  11.502  64.278  1.00  0.00    -0.164 C  
ENDBRANCH  17  18
ENDBRANCH  16  17
ENDBRANCH  15  16
ENDBRANCH  14  15
BRANCH  14  20
HETATM   20  C   UNL     1     -10.913  16.786  68.425  1.00  0.00    -0.325 C  
BRANCH  20  21
HETATM   21  C   UNL     1     -10.581  15.553  69.263  1.00  0.00    -0.236 C  
BRANCH  21  22
HETATM   22  O   UNL     1     -11.392  15.540  70.437  1.00  0.00    -0.281 OA 
BRANCH  22  23
HETATM   23  C   UNL     1     -12.723  15.119  70.128  1.00  0.00    -0.235 C  
HETATM   24  C   UNL     1     -12.874  13.652  70.478  1.00  0.00    -0.167 C  
ENDBRANCH  22  23
ENDBRANCH  21  22
ENDBRANCH  20  21
ENDBRANCH  14  20
ENDBRANCH  13  14
ENDBRANCH  12  13
ENDBRANCH   6  12
ENDBRANCH   5   6
ENDBRANCH   4   5
ENDBRANCH   3   4
ENDBRANCH   2   3
TORSDOF 19
ENDMDL
MODEL      387
REMARK 921   NORMALIZED FREE ENERGY PREDICTED BY IDOCK:   -0.90 KCAL/MOL
REMARK 922        TOTAL FREE ENERGY PREDICTED BY IDOCK:   -3.14 KCAL/MOL
REMARK 923 INTER-LIGAND FREE ENERGY PREDICTED BY IDOCK:   -2.90 KCAL/MOL
REMARK 924 INTRA-LIGAND FREE ENERGY PREDICTED BY IDOCK:   -0.24 KCAL/MOL
REMARK 927      BINDING AFFINITY PREDICTED BY RF-SCORE:    0.00 PKD
ROOT
HETATM    1  C   UNL     1     -10.451   3.495  65.300  1.00  0.00     0.404 C  
HETATM    2  C   UNL     1      -9.547   4.668  64.979  1.00  0.00    -0.102 C  
ENDROOT
BRANCH   2   3
HETATM    3  O   UNL     1      -9.608   5.628  66.037  1.00  0.00    -0.150 OA 
BRANCH   3   4
HETATM    4  C   UNL     1      -8.709   6.708  65.770  1.00  0.00    -0.116 C  
BRANCH   4   5
HETATM    5  C   UNL     1      -7.767   6.930  66.950  1.00  0.00    -0.099 C  
BRANCH   5   6
HETATM    6  P   UNL     1      -7.151   8.677  67.034  1.00  0.00    -0.075 P  
BRANCH   6   7
HETATM    7  C   UNL     1      -8.532   9.606  66.205  1.00  0.00    -0.120 C  
BRANCH   7   8
HETATM    8  C   UNL     1      -9.463  10.241  67.238  1.00  0.00    -0.150 C  
BRANCH   8   9
HETATM    9  O   UNL     1     -10.725  10.549  66.640  1.00  0.00    -0.224 OA 
BRANCH   9  10
HETATM   10  C   UNL     1     -11.073  11.911  66.895  1.00  0.00    -0.305 C  
HETATM   11  C   UNL     1      -9.917  12.811  66.510  1.00  0.00    -0.256 C  
ENDBRANCH   9  10
ENDBRANCH   8   9
ENDBRANCH   7   8
ENDBRANCH   6   7
BRANCH   6  12
HETATM   12  C   UNL     1      -7.557   9.109  68.794  1.00  0.00    -0.083 C  
BRANCH  12  13
HETATM   13  C   UNL     1      -7.555   7.900  69.717  1.00  0.00    -0.090 C  
BRANCH  13  14
HETATM   14  P   UNL     1      -9.200   7.050  69.802  1.00  0.00    -0.144 P  
BRANCH  14  15
HETATM   15  C   UNL     1      -8.708   5.266  69.947  1.00  0.00    -0.105 C  
BRANCH  15  16
HETATM   16  C   UNL     1      -9.893   4.406  70.395  1.00  0.00    -0.216 C  
BRANCH  16  17
HETATM   17  O   UNL     1      -9.767   4.070  71.781  1.00  0.00    -0.152 OA 
BRANCH  17  18
HETATM   18  C   UNL     1      -8.788   3.043  71.953  1.00  0.00    -0.082 C  
HETATM   19  C   UNL     1      -8.970   1.979  70.890  1.00  0.00    -0.139 C  
ENDBRANCH  17  18
ENDBRANCH  16  17
ENDBRANCH  15  16
ENDBRANCH  14  15
BRANCH  14  20
HETATM   20  C   UNL     1      -9.631   7.402  71.575  1.00  0.00    -0.151 C  
BRANCH  20  21
HETATM   21  C   UNL     1      -8.727   8.470  72.187  1.00  0.00    -0.197 C  
BRANCH  21  22
HETATM   22  O   UNL     1      -8.227   8.011  73.443  1.00  0.00    -0.165 OA 
BRANCH  22  23
HETATM   23  C   UNL     1      -6.839   8.327  73.581  1.00  0.00    -0.124 C  
HETATM   24  C   UNL     1      -6.021   7.068  73.379  1.00  0.00    -0.057 C  
ENDBRANCH  22  23
ENDBRANCH  21  22
ENDBRANCH  20  21
ENDBRANCH  14  20
ENDBRANCH  13  14
ENDBRANCH  12  13
ENDBRANCH   6  12
ENDBRANCH   5   6
ENDBRANCH   4   5
ENDBRANCH   3   4
ENDBRANCH   2   3
TORSDOF 19
ENDMDL
MODEL      388
REMARK 921   NORMALIZED FREE ENERGY PREDICTED BY IDOCK:    0.06 KCAL/MOL
REMARK 922        TOTAL FREE ENERGY PREDICTED BY IDOCK:   -1.13 KCAL/MOL
REMARK 923 INTER-LIGAND FREE ENERGY PREDICTED BY IDOCK:   -3.63 KCAL/MOL
REMARK 924 INTRA-LIGAND FREE ENERGY PREDICTED BY IDOCK:    2.49 KCAL/MOL
REMARK 927      BINDING AFFINITY PREDICTED BY RF-SCORE:    0.00 PKD
ROOT
HETATM    1  C   UNL     1     -12.485  12.645  69.284  1.00  0.00     0.294 C  
HETATM    2  C   UNL     1     -12.655  14.116  68.965  1.00  0.00     0.321 C  
ENDROOT
BRANCH   2   3
HETATM    3  O   UNL     1     -11.900  14.447  67.796  1.00  0.00    -0.362 OA 
BRANCH   3   4
HETATM    4  C   UNL     1     -10.521  14.615  68.135  1.00  0.00    -0.237 C  
BRANCH   4   5
HETATM    5  C   UNL     1      -9.990  13.383  68.864  1.00  0.00     0.046 C  
BRANCH   5   6
HETATM    6  P   UNL     1      -8.193  13.085  68.517  1.00  0.00     0.069 P  
BRANCH   6   7
HETATM    7  C   UNL     1      -8.189  12.908  66.666  1.00  0.00     0.217 C  
BRANCH   7   8
HETATM    8  C   UNL     1      -8.191  11.436  66.256  1.00  0.00    -0.088 C  
BRANCH   8   9
HETATM    9  O   UNL     1      -8.346  10.604  67.409  1.00  0.00    -0.118 OA 
BRANCH   9  10
HETATM   10  C   UNL     1      -8.690   9.274  67.017  1.00  0.00    -0.124 C  
HETATM   11  C   UNL     1      -7.680   8.766  66.009  1.00  0.00    -0.097 C  
ENDBRANCH   9  10
ENDBRANCH   8   9
ENDBRANCH   7   8
ENDBRANCH   6   7
BRANCH   6  12
HETATM   12  C   UNL     1      -7.525  14.815  68.622  1.00  0.00    -0.126 C  
BRANCH  12  13
HETATM   13  C   UNL     1      -8.492  15.858  68.083  1.00  0.00    -0.167 C  
BRANCH  13  14
HETATM   14  P   UNL     1      -8.117  16.364  66.341  1.00  0.00    -0.176 P  
BRANCH  14  15
HETATM   15  C   UNL     1      -9.797  16.828  65.701  1.00  0.00    -0.079 C  
BRANCH  15  16
HETATM   16  C   UNL     1     -10.403  17.967  66.525  1.00  0.00    -0.362 C  
BRANCH  16  17
HETATM   17  O   UNL     1     -10.336  19.197  65.798  1.00  0.00    -0.498 OA 
BRANCH  17  18
HETATM   18  C   UNL     1     -10.328  20.305  66.702  1.00  0.00    -0.288 C  
HETATM   19  C   UNL     1     -10.315  19.800  68.130  1.00  0.00    -0.561 C  
ENDBRANCH  17  18
ENDBRANCH  16  17
ENDBRANCH  15  16
ENDBRANCH  14  15
BRANCH  14  20
HETATM   20  C   UNL     1      -7.424  18.059  66.660  1.00  0.00    -0.224 C  
BRANCH  20  21
HETATM   21  C   UNL     1      -7.048  18.261  68.126  1.00  0.00    -0.236 C  
BRANCH  21  22
HETATM   22  O   UNL     1      -5.727  18.795  68.212  1.00  0.00    -0.187 OA 
BRANCH  22  23
HETATM   23  C   UNL     1      -5.748  20.108  68.779  1.00  0.00    -0.259 C  
HETATM   24  C   UNL     1      -6.203  20.018  70.222  1.00  0.00    -0.386 C  
ENDBRANCH  22  23
ENDBRANCH  21  22
ENDBRANCH  20  21
ENDBRANCH  14  20
ENDBRANCH  13  14
ENDBRANCH  12  13
ENDBRANCH   6  12
ENDBRANCH   5   6
ENDBRANCH   4   5
ENDBRANCH   3   4
ENDBRANCH   2   3
TORSDOF 19
ENDMDL
MODEL      389
REMARK 921   NORMALIZED FREE ENERGY PREDICTED BY IDOCK:    0.28 KCAL/MOL
REMARK 922        TOTAL FREE ENERGY PREDICTED BY IDOCK:   -0.65 KCAL/MOL
REMARK 923 INTER-LIGAND FREE ENERGY PREDICTED BY IDOCK:   -2.30 KCAL/MOL
REMARK 924 INTRA-LIGAND FREE ENERGY PREDICTED BY IDOCK:    1.64 KCAL/MOL
REMARK 927      BINDING AFFINITY PREDICTED BY RF-SCORE:    0.00 PKD
ROOT
HETATM    1  C   UNL     1      -7.396   3.659  66.904  1.00  0.00    -0.068 C  
HETATM    2  C   UNL     1      -8.513   3.939  67.887  1.00  0.00    -0.094 C  
ENDROOT
BRANCH   2   3
HETATM    3  O   UNL     1      -8.145   5.027  68.740  1.00  0.00    -0.084 OA 
BRANCH   3   4
HETATM    4  C   UNL     1      -8.778   6.231  68.298  1.00  0.00    -0.115 C  
BRANCH   4   5
HETATM    5  C   UNL     1      -8.397   6.542  66.853  1.00  0.00    -0.113 C  
BRANCH   5   6
HETATM    6  P   UNL     1      -8.282   8.366  66.538  1.00  0.00    -0.111 P  
BRANCH   6   7
HETATM    7  C   UNL     1      -9.917   8.966  67.189  1.00  0.00    -0.226 C  
BRANCH   7   8
HETATM    8  C   UNL     1     -10.282   8.255  68.491  1.00  0.00    -0.208 C  
BRANCH   8   9
HETATM    9  O   UNL     1     -10.609   9.213  69.501  1.00  0.00    -0.218 OA 
BRANCH   9  10
HETATM   10  C   UNL     1     -10.386   8.660  70.800  1.00  0.00    -0.204 C  
HETATM   11  C   UNL     1      -9.035   7.974  70.833  1.00  0.00    -0.150 C  
ENDBRANCH   9  10
ENDBRANCH   8   9
ENDBRANCH   7   8
ENDBRANCH   6   7
BRANCH   6  12
HETATM   12  C   UNL     1      -7.215   8.901  67.960  1.00  0.00    -0.083 C  
BRANCH  12  13
HETATM   13  C   UNL     1      -7.558  10.293  68.469  1.00  0.00    -0.089 C  
BRANCH  13  14
HETATM   14  P   UNL     1      -7.322  11.612  67.189  1.00  0.00    -0.129 P  
BRANCH  14  15
HETATM   15  C   UNL     1      -6.831  13.073  68.223  1.00  0.00    -0.101 C  
BRANCH  15  16
HETATM   16  C   UNL     1      -7.405  14.370  67.647  1.00  0.00    -0.180 C  
BRANCH  16  17
HETATM   17  O   UNL     1      -8.792  14.490  67.977  1.00  0.00    -0.163 OA 
BRANCH  17  18
HETATM   18  C   UNL     1      -9.059  15.782  68.529  1.00  0.00    -0.194 C  
HETATM   19  C   UNL     1      -8.535  15.849  69.949  1.00  0.00     0.443 C  
ENDBRANCH  17  18
ENDBRANCH  16  17
ENDBRANCH  15  16
ENDBRANCH  14  15
BRANCH  14  20
HETATM   20  C   UNL     1      -5.654  11.110  66.542  1.00  0.00    -0.127 C  
BRANCH  20  21
HETATM   21  C   UNL     1      -5.620  11.053  65.016  1.00  0.00     0.182 C  
BRANCH  21  22
HETATM   22  O   UNL     1      -6.202   9.827  64.571  1.00  0.00    -0.091 OA 
BRANCH  22  23
HETATM   23  C   UNL     1      -5.609   9.404  63.340  1.00  0.00    -0.079 C  
HETATM   24  C   UNL     1      -6.706   9.094  62.342  1.00  0.00    -0.092 C  
ENDBRANCH  22  23
ENDBRANCH  21  22
ENDBRANCH  20  21
ENDBRANCH  14  20
ENDBRANCH  13  14
ENDBRANCH  12  13
ENDBRANCH   6  12
ENDBRANCH   5   6
ENDBRANCH   4   5
ENDBRANCH   3   4
ENDBRANCH   2   3
TORSDOF 19
ENDMDL
MODEL      390
REMARK 921   NORMALIZED FREE ENERGY PREDICTED BY IDOCK:    0.32 KCAL/MOL
REMARK 922        TOTAL FREE ENERGY PREDICTED BY IDOCK:   -0.57 KCAL/MOL
REMARK 923 INTER-LIGAND FREE ENERGY PREDICTED BY IDOCK:   -1.85 KCAL/MOL
REMARK 924 INTRA-LIGAND FREE ENERGY PREDICTED BY IDOCK:    1.28 KCAL/MOL
REMARK 927      BINDING AFFINITY PREDICTED BY RF-SCORE:    0.00 PKD
ROOT
HETATM    1  C   UNL     1      -8.292  20.455  66.598  1.00  0.00    -0.231 C  
HETATM    2  C   UNL     1      -7.049  20.982  67.285  1.00  0.00    -0.336 C  
ENDROOT
BRANCH   2   3
HETATM    3  O   UNL     1      -5.964  20.072  67.084  1.00  0.00    -0.178 OA 
BRANCH   3   4
HETATM    4  C   UNL     1      -6.129  19.379  65.844  1.00  0.00    -0.185 C  
BRANCH   4   5
HETATM    5  C   UNL     1      -5.171  18.194  65.756  1.00  0.00    -0.191 C  
BRANCH   5   6
HETATM    6  P   UNL     1      -5.668  16.808  66.882  1.00  0.00     0.013 P  
BRANCH   6   7
HETATM    7  C   UNL     1      -6.401  17.732  68.319  1.00  0.00    -0.188 C  
BRANCH   7   8
HETATM    8  C   UNL     1      -7.069  16.773  69.304  1.00  0.00    -0.198 C  
BRANCH   8   9
HETATM    9  O   UNL     1      -6.437  15.491  69.249  1.00  0.00    -0.124 OA 
BRANCH   9  10
HETATM   10  C   UNL     1      -5.555  15.326  70.361  1.00  0.00    -0.138 C  
HETATM   11  C   UNL     1      -5.488  13.861  70.740  1.00  0.00    -0.163 C  
ENDBRANCH   9  10
ENDBRANCH   8   9
ENDBRANCH   7   8
ENDBRANCH   6   7
BRANCH   6  12
HETATM   12  C   UNL     1      -7.252  16.257  66.083  1.00  0.00     0.676 C  
BRANCH  12  13
HETATM   13  C   UNL     1      -8.474  16.985  66.624  1.00  0.00    -0.248 C  
BRANCH  13  14
HETATM   14  P   UNL     1     -10.023  15.974  66.522  1.00  0.00    -0.318 P  
BRANCH  14  15
HETATM   15  C   UNL     1      -9.852  14.851  67.991  1.00  0.00    -0.216 C  
BRANCH  15  16
HETATM   16  C   UNL     1      -9.347  13.469  67.569  1.00  0.00    -0.220 C  
BRANCH  16  17
HETATM   17  O   UNL     1      -9.691  12.491  68.555  1.00  0.00    -0.204 OA 
BRANCH  17  18
HETATM   18  C   UNL     1      -9.378  11.179  68.080  1.00  0.00    -0.166 C  
HETATM   19  C   UNL     1     -10.658  10.405  67.839  1.00  0.00    -0.273 C  
ENDBRANCH  17  18
ENDBRANCH  16  17
ENDBRANCH  15  16
ENDBRANCH  14  15
BRANCH  14  20
HETATM   20  C   UNL     1     -11.234  17.206  67.208  1.00  0.00     0.282 C  
BRANCH  20  21
HETATM   21  C   UNL     1     -10.996  18.613  66.663  1.00  0.00     0.077 C  
BRANCH  21  22
HETATM   22  O   UNL     1     -11.650  19.567  67.500  1.00  0.00     0.259 OA 
BRANCH  22  23
HETATM   23  C   UNL     1     -10.696  20.428  68.127  1.00  0.00     0.207 C  
HETATM   24  C   UNL     1     -10.500  19.989  69.564  1.00  0.00     0.214 C  
ENDBRANCH  22  23
ENDBRANCH  21  22
ENDBRANCH  20  21
ENDBRANCH  14  20
ENDBRANCH  13  14
ENDBRANCH  12  13
ENDBRANCH   6  12
ENDBRANCH   5   6
ENDBRANCH   4   5
ENDBRANCH   3   4
ENDBRANCH   2   3
TORSDOF 19
ENDMDL
MODEL      391
REMARK 921   NORMALIZED FREE ENERGY PREDICTED BY IDOCK:    0.46 KCAL/MOL
REMARK 922        TOTAL FREE ENERGY PREDICTED BY IDOCK:   -0.29 KCAL/MOL
REMARK 923 INTER-LIGAND FREE ENERGY PREDICTED BY IDOCK:   -1.72 KCAL/MOL
REMARK 924 INTRA-LIGAND FREE ENERGY PREDICTED BY IDOCK:    1.44 KCAL/MOL
REMARK 927      BINDING AFFINITY PREDICTED BY RF-SCORE:    0.00 PKD
ROOT
HETATM    1  C   UNL     1     -13.123  12.524  69.177  1.00  0.00     2.180 C  
HETATM    2  C   UNL     1     -12.399  13.511  70.069  1.00  0.00    -0.249 C  
ENDROOT
BRANCH   2   3
HETATM    3  O   UNL     1     -12.467  14.819  69.496  1.00  0.00    -0.220 OA 
BRANCH   3   4
HETATM    4  C   UNL     1     -11.331  15.045  68.656  1.00  0.00    -0.296 C  
BRANCH   4   5
HETATM    5  C   UNL     1     -10.634  13.728  68.325  1.00  0.00    -0.255 C  
BRANCH   5   6
HETATM    6  P   UNL     1      -9.846  13.755  66.647  1.00  0.00    -0.297 P  
BRANCH   6   7
HETATM    7  C   UNL     1      -9.005  15.413  66.651  1.00  0.00    -0.286 C  
BRANCH   7   8
HETATM    8  C   UNL     1      -8.488  15.762  68.047  1.00  0.00    -0.161 C  
BRANCH   8   9
HETATM    9  O   UNL     1      -7.659  14.708  68.543  1.00  0.00    -0.107 OA 
BRANCH   9  10
HETATM   10  C   UNL     1      -6.599  15.244  69.336  1.00  0.00    -0.152 C  
HETATM   11  C   UNL     1      -5.462  14.244  69.405  1.00  0.00    -0.086 C  
ENDBRANCH   9  10
ENDBRANCH   8   9
ENDBRANCH   7   8
ENDBRANCH   6   7
BRANCH   6  12
HETATM   12  C   UNL     1      -8.350  12.696  66.944  1.00  0.00    -0.075 C  
BRANCH  12  13
HETATM   13  C   UNL     1      -8.438  11.340  66.260  1.00  0.00    -0.156 C  
BRANCH  13  14
HETATM   14  P   UNL     1     -10.176  10.846  65.849  1.00  0.00    -0.233 P  
BRANCH  14  15
HETATM   15  C   UNL     1     -10.096  10.637  64.006  1.00  0.00    -0.310 C  
BRANCH  15  16
HETATM   16  C   UNL     1      -8.932  11.435  63.414  1.00  0.00     0.030 C  
BRANCH  16  17
HETATM   17  O   UNL     1      -8.017  10.560  62.748  1.00  0.00    -0.153 OA 
BRANCH  17  18
HETATM   18  C   UNL     1      -7.008  10.114  63.657  1.00  0.00    -0.108 C  
HETATM   19  C   UNL     1      -5.825   9.572  62.882  1.00  0.00    -0.093 C  
ENDBRANCH  17  18
ENDBRANCH  16  17
ENDBRANCH  15  16
ENDBRANCH  14  15
BRANCH  14  20
HETATM   20  C   UNL     1     -10.116   9.063  66.371  1.00  0.00    -0.281 C  
BRANCH  20  21
HETATM   21  C   UNL     1      -8.683   8.554  66.520  1.00  0.00    -0.132 C  
BRANCH  21  22
HETATM   22  O   UNL     1      -8.326   7.787  65.371  1.00  0.00    -0.137 OA 
BRANCH  22  23
HETATM   23  C   UNL     1      -8.681   6.413  65.550  1.00  0.00    -0.066 C  
HETATM   24  C   UNL     1      -7.588   5.538  64.971  1.00  0.00    -0.081 C  
ENDBRANCH  22  23
ENDBRANCH  21  22
ENDBRANCH  20  21
ENDBRANCH  14  20
ENDBRANCH  13  14
ENDBRANCH  12  13
ENDBRANCH   6  12
ENDBRANCH   5   6
ENDBRANCH   4   5
ENDBRANCH   3   4
ENDBRANCH   2   3
TORSDOF 19
ENDMDL
MODEL      392
REMARK 921   NORMALIZED FREE ENERGY PREDICTED BY IDOCK:    0.94 KCAL/MOL
REMARK 922        TOTAL FREE ENERGY PREDICTED BY IDOCK:    0.74 KCAL/MOL
REMARK 923 INTER-LIGAND FREE ENERGY PREDICTED BY IDOCK:   -0.13 KCAL/MOL
REMARK 924 INTRA-LIGAND FREE ENERGY PREDICTED BY IDOCK:    0.87 KCAL/MOL
REMARK 927      BINDING AFFINITY PREDICTED BY RF-SCORE:    0.00 PKD
ROOT
HETATM    1  C   UNL     1      -5.383  13.073  72.877  1.00  0.00     0.335 C  
HETATM    2  C   UNL     1      -5.181  12.617  71.447  1.00  0.00    -0.123 C  
ENDROOT
BRANCH   2   3
HETATM    3  O   UNL     1      -5.979  11.458  71.192  1.00  0.00    -0.372 OA 
BRANCH   3   4
HETATM    4  C   UNL     1      -5.216  10.489  70.468  1.00  0.00    -0.062 C  
BRANCH   4   5
HETATM    5  C   UNL     1      -5.148   9.172  71.236  1.00  0.00    -0.033 C  
BRANCH   5   6
HETATM    6  P   UNL     1      -5.973   7.785  70.321  1.00  0.00    -0.029 P  
BRANCH   6   7
HETATM    7  C   UNL     1      -7.141   7.125  71.608  1.00  0.00    -0.069 C  
BRANCH   7   8
HETATM    8  C   UNL     1      -6.582   5.859  72.258  1.00  0.00    -0.059 C  
BRANCH   8   9
HETATM    9  O   UNL     1      -6.773   5.907  73.674  1.00  0.00    -0.077 OA 
BRANCH   9  10
HETATM   10  C   UNL     1      -7.820   5.015  74.063  1.00  0.00    -0.101 C  
HETATM   11  C   UNL     1      -7.583   3.655  73.440  1.00  0.00    -0.062 C  
ENDBRANCH   9  10
ENDBRANCH   8   9
ENDBRANCH   7   8
ENDBRANCH   6   7
BRANCH   6  12
HETATM   12  C   UNL     1      -7.206   8.724  69.298  1.00  0.00    -0.062 C  
BRANCH  12  13
HETATM   13  C   UNL     1      -8.267   7.828  68.677  1.00  0.00    -0.128 C  
BRANCH  13  14
HETATM   14  P   UNL     1      -9.752   8.765  68.087  1.00  0.00    -0.169 P  
BRANCH  14  15
HETATM   15  C   UNL     1     -11.034   7.427  67.968  1.00  0.00     0.032 C  
BRANCH  15  16
HETATM   16  C   UNL     1     -11.231   6.984  66.516  1.00  0.00     0.885 C  
BRANCH  16  17
HETATM   17  O   UNL     1     -10.400   7.755  65.644  1.00  0.00     1.194 OA 
BRANCH  17  18
HETATM   18  C   UNL     1      -9.038   7.336  65.761  1.00  0.00     0.050 C  
HETATM   19  C   UNL     1      -8.932   5.853  65.469  1.00  0.00    -0.062 C  
ENDBRANCH  17  18
ENDBRANCH  16  17
ENDBRANCH  15  16
ENDBRANCH  14  15
BRANCH  14  20
HETATM   20  C   UNL     1     -10.269   9.553  69.690  1.00  0.00    -0.218 C  
BRANCH  20  21
HETATM   21  C   UNL     1     -11.786   9.559  69.867  1.00  0.00     0.181 C  
BRANCH  21  22
HETATM   22  O   UNL     1     -12.106   9.497  71.257  1.00  0.00    -0.313 OA 
BRANCH  22  23
HETATM   23  C   UNL     1     -12.870  10.640  71.651  1.00  0.00    -0.465 C  
HETATM   24  C   UNL     1     -12.484  11.820  70.781  1.00  0.00    -0.405 C  
ENDBRANCH  22  23
ENDBRANCH  21  22
ENDBRANCH  20  21
ENDBRANCH  14  20
ENDBRANCH  13  14
ENDBRANCH  12  13
ENDBRANCH   6  12
ENDBRANCH   5   6
ENDBRANCH   4   5
ENDBRANCH   3   4
ENDBRANCH   2   3
TORSDOF 19
ENDMDL
