MODEL        1
REMARK 921   NORMALIZED FREE ENERGY PREDICTED BY IDOCK:   -3.25 KCAL/MOL
REMARK 922        TOTAL FREE ENERGY PREDICTED BY IDOCK:   -4.23 KCAL/MOL
REMARK 923 INTER-LIGAND FREE ENERGY PREDICTED BY IDOCK:   -4.01 KCAL/MOL
REMARK 924 INTRA-LIGAND FREE ENERGY PREDICTED BY IDOCK:   -0.22 KCAL/MOL
REMARK 927      BINDING AFFINITY PREDICTED BY RF-SCORE:    0.00 PKD
ROOT
HETATM    1  C   UNL     1     -12.530  12.031  63.354  1.00  0.00    -0.509 C  
HETATM    2  N   UNL     1     -11.325  11.846  64.164  1.00  0.00    -0.368 N  
HETATM    3  C   UNL     1     -10.181  11.240  63.486  1.00  0.00    -0.403 C  
ENDROOT
BRANCH   2   4
HETATM    4  C   UNL     1     -11.342  12.115  65.549  1.00  0.00    -0.344 C  
HETATM    5  S   UNL     1     -10.306  11.404  66.680  1.00  0.00    -0.242 S  
BRANCH   4   6
HETATM    6  S   UNL     1     -12.386  13.432  66.075  1.00  0.00    -0.380 SA 
BRANCH   6   7
HETATM    7  C   UNL     1     -11.277  14.703  66.631  1.00  0.00    -0.349 C  
HETATM    8  S   UNL     1     -10.153  15.450  65.617  1.00  0.00    -0.385 S  
BRANCH   7   9
HETATM    9  N   UNL     1     -11.401  15.014  68.010  1.00  0.00    -0.316 N  
HETATM   10  C   UNL     1     -11.811  14.070  69.059  1.00  0.00    -0.354 C  
HETATM   11  C   UNL     1     -11.122  16.350  68.551  1.00  0.00    -0.357 C  
ENDBRANCH   7   9
ENDBRANCH   6   7
ENDBRANCH   4   6
ENDBRANCH   2   4
TORSDOF 4
ENDMDL
MODEL        2
REMARK 921   NORMALIZED FREE ENERGY PREDICTED BY IDOCK:   -3.19 KCAL/MOL
REMARK 922        TOTAL FREE ENERGY PREDICTED BY IDOCK:   -4.16 KCAL/MOL
REMARK 923 INTER-LIGAND FREE ENERGY PREDICTED BY IDOCK:   -3.87 KCAL/MOL
REMARK 924 INTRA-LIGAND FREE ENERGY PREDICTED BY IDOCK:   -0.29 KCAL/MOL
REMARK 927      BINDING AFFINITY PREDICTED BY RF-SCORE:    0.00 PKD
ROOT
HETATM    1  C   UNL     1     -12.295  12.211  63.457  1.00  0.00    -0.574 C  
HETATM    2  N   UNL     1     -11.028  11.950  64.141  1.00  0.00    -0.340 N  
HETATM    3  C   UNL     1     -10.022  11.217  63.375  1.00  0.00    -0.395 C  
ENDROOT
BRANCH   2   4
HETATM    4  C   UNL     1     -10.868  12.274  65.505  1.00  0.00    -0.282 C  
HETATM    5  S   UNL     1      -9.491  11.925  66.421  1.00  0.00    -0.231 S  
BRANCH   4   6
HETATM    6  S   UNL     1     -12.120  13.286  66.218  1.00  0.00    -0.393 SA 
BRANCH   6   7
HETATM    7  C   UNL     1     -11.255  14.688  66.881  1.00  0.00    -0.343 C  
HETATM    8  S   UNL     1     -11.264  15.082  68.523  1.00  0.00    -0.303 S  
BRANCH   7   9
HETATM    9  N   UNL     1     -10.579  15.464  65.904  1.00  0.00    -0.322 N  
HETATM   10  C   UNL     1      -9.175  15.888  65.981  1.00  0.00    -0.337 C  
HETATM   11  C   UNL     1     -11.230  15.937  64.675  1.00  0.00    -0.351 C  
ENDBRANCH   7   9
ENDBRANCH   6   7
ENDBRANCH   4   6
ENDBRANCH   2   4
TORSDOF 4
ENDMDL
MODEL        3
REMARK 921   NORMALIZED FREE ENERGY PREDICTED BY IDOCK:   -3.15 KCAL/MOL
REMARK 922        TOTAL FREE ENERGY PREDICTED BY IDOCK:   -4.11 KCAL/MOL
REMARK 923 INTER-LIGAND FREE ENERGY PREDICTED BY IDOCK:   -3.94 KCAL/MOL
REMARK 924 INTRA-LIGAND FREE ENERGY PREDICTED BY IDOCK:   -0.17 KCAL/MOL
REMARK 927      BINDING AFFINITY PREDICTED BY RF-SCORE:    0.00 PKD
ROOT
HETATM    1  C   UNL     1     -12.112  12.980  63.517  1.00  0.00    -0.542 C  
HETATM    2  N   UNL     1     -11.265  13.180  64.694  1.00  0.00    -0.325 N  
HETATM    3  C   UNL     1     -10.283  12.131  64.965  1.00  0.00    -0.283 C  
ENDROOT
BRANCH   2   4
HETATM    4  C   UNL     1     -11.500  14.257  65.574  1.00  0.00    -0.329 C  
HETATM    5  S   UNL     1     -11.978  14.094  67.187  1.00  0.00    -0.395 S  
BRANCH   4   6
HETATM    6  S   UNL     1     -11.064  15.857  64.982  1.00  0.00    -0.298 SA 
BRANCH   6   7
HETATM    7  C   UNL     1      -9.922  16.495  66.182  1.00  0.00    -0.343 C  
HETATM    8  S   UNL     1      -8.514  15.681  66.635  1.00  0.00    -0.276 S  
BRANCH   7   9
HETATM    9  N   UNL     1     -10.313  17.737  66.748  1.00  0.00    -0.348 N  
HETATM   10  C   UNL     1     -10.505  18.987  66.000  1.00  0.00    -0.458 C  
HETATM   11  C   UNL     1     -10.576  17.908  68.182  1.00  0.00    -0.340 C  
ENDBRANCH   7   9
ENDBRANCH   6   7
ENDBRANCH   4   6
ENDBRANCH   2   4
TORSDOF 4
ENDMDL
MODEL        4
REMARK 921   NORMALIZED FREE ENERGY PREDICTED BY IDOCK:   -3.15 KCAL/MOL
REMARK 922        TOTAL FREE ENERGY PREDICTED BY IDOCK:   -4.11 KCAL/MOL
REMARK 923 INTER-LIGAND FREE ENERGY PREDICTED BY IDOCK:   -3.92 KCAL/MOL
REMARK 924 INTRA-LIGAND FREE ENERGY PREDICTED BY IDOCK:   -0.19 KCAL/MOL
REMARK 927      BINDING AFFINITY PREDICTED BY RF-SCORE:    0.00 PKD
ROOT
HETATM    1  C   UNL     1     -10.632  18.893  66.040  1.00  0.00    -0.403 C  
HETATM    2  N   UNL     1     -10.375  17.657  66.780  1.00  0.00    -0.339 N  
HETATM    3  C   UNL     1     -10.517  17.736  68.232  1.00  0.00    -0.364 C  
ENDROOT
BRANCH   2   4
HETATM    4  C   UNL     1      -9.886  16.511  66.118  1.00  0.00    -0.332 C  
HETATM    5  S   UNL     1      -8.417  15.753  66.467  1.00  0.00    -0.276 S  
BRANCH   4   6
HETATM    6  S   UNL     1     -10.995  15.725  64.997  1.00  0.00    -0.365 SA 
BRANCH   6   7
HETATM    7  C   UNL     1     -11.448  14.204  65.791  1.00  0.00    -0.327 C  
HETATM    8  S   UNL     1     -11.897  14.113  67.416  1.00  0.00    -0.408 S  
BRANCH   7   9
HETATM    9  N   UNL     1     -11.373  13.066  64.946  1.00  0.00    -0.295 N  
HETATM   10  C   UNL     1     -10.836  11.755  65.335  1.00  0.00    -0.295 C  
HETATM   11  C   UNL     1     -11.838  13.078  63.553  1.00  0.00    -0.516 C  
ENDBRANCH   7   9
ENDBRANCH   6   7
ENDBRANCH   4   6
ENDBRANCH   2   4
TORSDOF 4
ENDMDL
MODEL        5
REMARK 921   NORMALIZED FREE ENERGY PREDICTED BY IDOCK:   -3.14 KCAL/MOL
REMARK 922        TOTAL FREE ENERGY PREDICTED BY IDOCK:   -4.09 KCAL/MOL
REMARK 923 INTER-LIGAND FREE ENERGY PREDICTED BY IDOCK:   -3.99 KCAL/MOL
REMARK 924 INTRA-LIGAND FREE ENERGY PREDICTED BY IDOCK:   -0.10 KCAL/MOL
REMARK 927      BINDING AFFINITY PREDICTED BY RF-SCORE:    0.00 PKD
ROOT
HETATM    1  C   UNL     1     -10.614  19.324  66.003  1.00  0.00    -0.461 C  
HETATM    2  N   UNL     1     -10.051  18.614  67.153  1.00  0.00    -0.340 N  
HETATM    3  C   UNL     1     -10.048  19.343  68.420  1.00  0.00    -0.444 C  
ENDROOT
BRANCH   2   4
HETATM    4  C   UNL     1      -9.429  17.359  66.988  1.00  0.00    -0.266 C  
HETATM    5  S   UNL     1      -8.027  16.867  67.794  1.00  0.00    -0.183 S  
BRANCH   4   6
HETATM    6  S   UNL     1     -10.306  16.174  66.025  1.00  0.00    -0.366 SA 
BRANCH   6   7
HETATM    7  C   UNL     1     -11.282  15.263  67.194  1.00  0.00    -0.291 C  
HETATM    8  S   UNL     1     -11.478  15.745  68.801  1.00  0.00    -0.398 S  
BRANCH   7   9
HETATM    9  N   UNL     1     -11.861  14.080  66.667  1.00  0.00    -0.398 N  
HETATM   10  C   UNL     1     -12.509  13.965  65.353  1.00  0.00    -0.501 C  
HETATM   11  C   UNL     1     -11.871  12.806  67.398  1.00  0.00    -0.342 C  
ENDBRANCH   7   9
ENDBRANCH   6   7
ENDBRANCH   4   6
ENDBRANCH   2   4
TORSDOF 4
ENDMDL
MODEL        6
REMARK 921   NORMALIZED FREE ENERGY PREDICTED BY IDOCK:   -3.13 KCAL/MOL
REMARK 922        TOTAL FREE ENERGY PREDICTED BY IDOCK:   -4.08 KCAL/MOL
REMARK 923 INTER-LIGAND FREE ENERGY PREDICTED BY IDOCK:   -3.84 KCAL/MOL
REMARK 924 INTRA-LIGAND FREE ENERGY PREDICTED BY IDOCK:   -0.24 KCAL/MOL
REMARK 927      BINDING AFFINITY PREDICTED BY RF-SCORE:    0.00 PKD
ROOT
HETATM    1  C   UNL     1      -9.113  16.057  66.046  1.00  0.00    -0.326 C  
HETATM    2  N   UNL     1     -10.520  15.696  65.866  1.00  0.00    -0.325 N  
HETATM    3  C   UNL     1     -11.190  16.277  64.704  1.00  0.00    -0.254 C  
ENDROOT
BRANCH   2   4
HETATM    4  C   UNL     1     -11.200  14.944  66.848  1.00  0.00    -0.343 C  
HETATM    5  S   UNL     1     -11.424  15.435  68.450  1.00  0.00    -0.355 S  
BRANCH   4   6
HETATM    6  S   UNL     1     -12.032  13.498  66.286  1.00  0.00    -0.423 SA 
BRANCH   6   7
HETATM    7  C   UNL     1     -10.766  12.497  65.548  1.00  0.00    -0.271 C  
HETATM    8  S   UNL     1      -9.358  12.046  66.364  1.00  0.00    -0.220 S  
BRANCH   7   9
HETATM    9  N   UNL     1     -11.028  12.134  64.201  1.00  0.00    -0.330 N  
HETATM   10  C   UNL     1     -12.349  12.160  63.557  1.00  0.00    -0.574 C  
HETATM   11  C   UNL     1      -9.977  11.684  63.280  1.00  0.00    -0.419 C  
ENDBRANCH   7   9
ENDBRANCH   6   7
ENDBRANCH   4   6
ENDBRANCH   2   4
TORSDOF 4
ENDMDL
MODEL        7
REMARK 921   NORMALIZED FREE ENERGY PREDICTED BY IDOCK:   -3.13 KCAL/MOL
REMARK 922        TOTAL FREE ENERGY PREDICTED BY IDOCK:   -4.08 KCAL/MOL
REMARK 923 INTER-LIGAND FREE ENERGY PREDICTED BY IDOCK:   -3.91 KCAL/MOL
REMARK 924 INTRA-LIGAND FREE ENERGY PREDICTED BY IDOCK:   -0.17 KCAL/MOL
REMARK 927      BINDING AFFINITY PREDICTED BY RF-SCORE:    0.00 PKD
ROOT
HETATM    1  C   UNL     1     -11.902  13.071  67.954  1.00  0.00    -0.343 C  
HETATM    2  N   UNL     1     -11.849  14.040  66.858  1.00  0.00    -0.408 N  
HETATM    3  C   UNL     1     -12.608  13.694  65.657  1.00  0.00    -0.484 C  
ENDROOT
BRANCH   2   4
HETATM    4  C   UNL     1     -10.997  15.161  66.931  1.00  0.00    -0.323 C  
HETATM    5  S   UNL     1     -10.010  15.702  65.670  1.00  0.00    -0.341 S  
BRANCH   4   6
HETATM    6  S   UNL     1     -11.143  16.160  68.374  1.00  0.00    -0.355 SA 
BRANCH   6   7
HETATM    7  C   UNL     1      -9.573  16.973  68.532  1.00  0.00    -0.273 C  
HETATM    8  S   UNL     1      -8.171  16.175  69.030  1.00  0.00    -0.235 S  
BRANCH   7   9
HETATM    9  N   UNL     1      -9.608  18.359  68.229  1.00  0.00    -0.318 N  
HETATM   10  C   UNL     1     -10.661  19.032  67.456  1.00  0.00    -0.461 C  
HETATM   11  C   UNL     1      -8.567  19.295  68.671  1.00  0.00    -0.366 C  
ENDBRANCH   7   9
ENDBRANCH   6   7
ENDBRANCH   4   6
ENDBRANCH   2   4
TORSDOF 4
ENDMDL
MODEL        8
REMARK 921   NORMALIZED FREE ENERGY PREDICTED BY IDOCK:   -3.12 KCAL/MOL
REMARK 922        TOTAL FREE ENERGY PREDICTED BY IDOCK:   -4.07 KCAL/MOL
REMARK 923 INTER-LIGAND FREE ENERGY PREDICTED BY IDOCK:   -3.83 KCAL/MOL
REMARK 924 INTRA-LIGAND FREE ENERGY PREDICTED BY IDOCK:   -0.23 KCAL/MOL
REMARK 927      BINDING AFFINITY PREDICTED BY RF-SCORE:    0.00 PKD
ROOT
HETATM    1  C   UNL     1     -10.104  11.474  63.818  1.00  0.00    -0.366 C  
HETATM    2  N   UNL     1     -11.302  12.076  64.403  1.00  0.00    -0.336 N  
HETATM    3  C   UNL     1     -12.271  12.630  63.458  1.00  0.00    -0.547 C  
ENDROOT
BRANCH   2   4
HETATM    4  C   UNL     1     -11.422  12.226  65.801  1.00  0.00    -0.367 C  
HETATM    5  S   UNL     1     -10.609  11.281  66.942  1.00  0.00    -0.269 S  
BRANCH   4   6
HETATM    6  S   UNL     1     -12.329  13.628  66.360  1.00  0.00    -0.341 SA 
BRANCH   6   7
HETATM    7  C   UNL     1     -11.101  14.865  66.697  1.00  0.00    -0.329 C  
HETATM    8  S   UNL     1     -10.298  15.718  65.480  1.00  0.00    -0.402 S  
BRANCH   7   9
HETATM    9  N   UNL     1     -10.832  15.052  68.078  1.00  0.00    -0.262 N  
HETATM   10  C   UNL     1     -11.782  15.593  69.060  1.00  0.00    -0.395 C  
HETATM   11  C   UNL     1      -9.542  14.714  68.689  1.00  0.00    -0.219 C  
ENDBRANCH   7   9
ENDBRANCH   6   7
ENDBRANCH   4   6
ENDBRANCH   2   4
TORSDOF 4
ENDMDL
MODEL        9
REMARK 921   NORMALIZED FREE ENERGY PREDICTED BY IDOCK:   -3.09 KCAL/MOL
REMARK 922        TOTAL FREE ENERGY PREDICTED BY IDOCK:   -4.04 KCAL/MOL
REMARK 923 INTER-LIGAND FREE ENERGY PREDICTED BY IDOCK:   -3.83 KCAL/MOL
REMARK 924 INTRA-LIGAND FREE ENERGY PREDICTED BY IDOCK:   -0.20 KCAL/MOL
REMARK 927      BINDING AFFINITY PREDICTED BY RF-SCORE:    0.00 PKD
ROOT
HETATM    1  C   UNL     1     -10.109  15.416  69.342  1.00  0.00    -0.269 C  
HETATM    2  N   UNL     1     -11.063  14.690  68.502  1.00  0.00    -0.249 N  
HETATM    3  C   UNL     1     -12.002  13.816  69.203  1.00  0.00    -0.361 C  
ENDROOT
BRANCH   2   4
HETATM    4  C   UNL     1     -10.966  14.741  67.095  1.00  0.00    -0.320 C  
HETATM    5  S   UNL     1      -9.655  15.384  66.245  1.00  0.00    -0.338 S  
BRANCH   4   6
HETATM    6  S   UNL     1     -12.217  13.888  66.196  1.00  0.00    -0.460 SA 
BRANCH   6   7
HETATM    7  C   UNL     1     -11.450  12.379  65.661  1.00  0.00    -0.367 C  
HETATM    8  S   UNL     1     -10.819  11.238  66.734  1.00  0.00    -0.269 S  
BRANCH   7   9
HETATM    9  N   UNL     1     -11.389  12.230  64.251  1.00  0.00    -0.330 N  
HETATM   10  C   UNL     1     -10.509  11.298  63.534  1.00  0.00    -0.395 C  
HETATM   11  C   UNL     1     -12.225  13.014  63.332  1.00  0.00    -0.472 C  
ENDBRANCH   7   9
ENDBRANCH   6   7
ENDBRANCH   4   6
ENDBRANCH   2   4
TORSDOF 4
ENDMDL
MODEL       10
REMARK 921   NORMALIZED FREE ENERGY PREDICTED BY IDOCK:   -3.09 KCAL/MOL
REMARK 922        TOTAL FREE ENERGY PREDICTED BY IDOCK:   -4.03 KCAL/MOL
REMARK 923 INTER-LIGAND FREE ENERGY PREDICTED BY IDOCK:   -3.80 KCAL/MOL
REMARK 924 INTRA-LIGAND FREE ENERGY PREDICTED BY IDOCK:   -0.23 KCAL/MOL
REMARK 927      BINDING AFFINITY PREDICTED BY RF-SCORE:    0.00 PKD
ROOT
HETATM    1  C   UNL     1     -11.236  11.343  67.430  1.00  0.00    -0.305 C  
HETATM    2  N   UNL     1     -10.953  11.582  66.014  1.00  0.00    -0.284 N  
HETATM    3  C   UNL     1      -9.740  10.961  65.487  1.00  0.00    -0.233 C  
ENDROOT
BRANCH   2   4
HETATM    4  C   UNL     1     -11.745  12.477  65.265  1.00  0.00    -0.386 C  
HETATM    5  S   UNL     1     -12.146  12.272  63.635  1.00  0.00    -0.572 S  
BRANCH   4   6
HETATM    6  S   UNL     1     -12.519  13.777  66.166  1.00  0.00    -0.370 SA 
BRANCH   6   7
HETATM    7  C   UNL     1     -11.218  14.932  66.513  1.00  0.00    -0.335 C  
HETATM    8  S   UNL     1     -10.040  15.358  65.380  1.00  0.00    -0.335 S  
BRANCH   7   9
HETATM    9  N   UNL     1     -11.238  15.445  67.836  1.00  0.00    -0.324 N  
HETATM   10  C   UNL     1     -11.608  14.681  69.036  1.00  0.00    -0.298 C  
HETATM   11  C   UNL     1     -10.879  16.832  68.157  1.00  0.00    -0.353 C  
ENDBRANCH   7   9
ENDBRANCH   6   7
ENDBRANCH   4   6
ENDBRANCH   2   4
TORSDOF 4
ENDMDL
MODEL       11
REMARK 921   NORMALIZED FREE ENERGY PREDICTED BY IDOCK:   -3.08 KCAL/MOL
REMARK 922        TOTAL FREE ENERGY PREDICTED BY IDOCK:   -4.02 KCAL/MOL
REMARK 923 INTER-LIGAND FREE ENERGY PREDICTED BY IDOCK:   -3.96 KCAL/MOL
REMARK 924 INTRA-LIGAND FREE ENERGY PREDICTED BY IDOCK:   -0.06 KCAL/MOL
REMARK 927      BINDING AFFINITY PREDICTED BY RF-SCORE:    0.00 PKD
ROOT
HETATM    1  C   UNL     1     -13.528  13.090  72.098  1.00  0.00    -0.542 C  
HETATM    2  N   UNL     1     -12.905  14.014  71.150  1.00  0.00    -0.345 N  
HETATM    3  C   UNL     1     -13.271  15.423  71.289  1.00  0.00    -0.510 C  
ENDROOT
BRANCH   2   4
HETATM    4  C   UNL     1     -12.113  13.529  70.088  1.00  0.00    -0.354 C  
HETATM    5  S   UNL     1     -11.755  11.898  69.824  1.00  0.00    -0.310 S  
BRANCH   4   6
HETATM    6  S   UNL     1     -11.649  14.703  68.861  1.00  0.00    -0.327 SA 
BRANCH   6   7
HETATM    7  C   UNL     1     -10.616  13.804  67.732  1.00  0.00    -0.246 C  
HETATM    8  S   UNL     1      -8.949  13.639  67.943  1.00  0.00    -0.205 S  
BRANCH   7   9
HETATM    9  N   UNL     1     -11.311  13.260  66.621  1.00  0.00    -0.310 N  
HETATM   10  C   UNL     1     -11.137  11.899  66.095  1.00  0.00    -0.326 C  
HETATM   11  C   UNL     1     -12.309  14.020  65.858  1.00  0.00    -0.486 C  
ENDBRANCH   7   9
ENDBRANCH   6   7
ENDBRANCH   4   6
ENDBRANCH   2   4
TORSDOF 4
ENDMDL
MODEL       12
REMARK 921   NORMALIZED FREE ENERGY PREDICTED BY IDOCK:   -3.08 KCAL/MOL
REMARK 922        TOTAL FREE ENERGY PREDICTED BY IDOCK:   -4.02 KCAL/MOL
REMARK 923 INTER-LIGAND FREE ENERGY PREDICTED BY IDOCK:   -3.89 KCAL/MOL
REMARK 924 INTRA-LIGAND FREE ENERGY PREDICTED BY IDOCK:   -0.13 KCAL/MOL
REMARK 927      BINDING AFFINITY PREDICTED BY RF-SCORE:    0.00 PKD
ROOT
HETATM    1  C   UNL     1     -10.961  12.072  65.282  1.00  0.00    -0.308 C  
HETATM    2  N   UNL     1     -11.496  13.088  66.190  1.00  0.00    -0.324 N  
HETATM    3  C   UNL     1     -12.720  13.758  65.754  1.00  0.00    -0.446 C  
ENDROOT
BRANCH   2   4
HETATM    4  C   UNL     1     -10.777  13.474  67.340  1.00  0.00    -0.263 C  
HETATM    5  S   UNL     1      -9.125  13.204  67.577  1.00  0.00    -0.217 S  
BRANCH   4   6
HETATM    6  S   UNL     1     -11.640  14.481  68.498  1.00  0.00    -0.326 SA 
BRANCH   6   7
HETATM    7  C   UNL     1     -12.147  13.369  69.785  1.00  0.00    -0.310 C  
HETATM    8  S   UNL     1     -11.885  11.702  69.715  1.00  0.00    -0.359 S  
BRANCH   7   9
HETATM    9  N   UNL     1     -12.817  14.001  70.865  1.00  0.00    -0.332 N  
HETATM   10  C   UNL     1     -13.442  13.306  71.999  1.00  0.00    -0.507 C  
HETATM   11  C   UNL     1     -12.958  15.459  70.968  1.00  0.00    -0.492 C  
ENDBRANCH   7   9
ENDBRANCH   6   7
ENDBRANCH   4   6
ENDBRANCH   2   4
TORSDOF 4
ENDMDL
MODEL       13
REMARK 921   NORMALIZED FREE ENERGY PREDICTED BY IDOCK:   -3.08 KCAL/MOL
REMARK 922        TOTAL FREE ENERGY PREDICTED BY IDOCK:   -4.02 KCAL/MOL
REMARK 923 INTER-LIGAND FREE ENERGY PREDICTED BY IDOCK:   -3.76 KCAL/MOL
REMARK 924 INTRA-LIGAND FREE ENERGY PREDICTED BY IDOCK:   -0.25 KCAL/MOL
REMARK 927      BINDING AFFINITY PREDICTED BY RF-SCORE:    0.00 PKD
ROOT
HETATM    1  C   UNL     1     -10.381  10.842  63.876  1.00  0.00    -0.329 C  
HETATM    2  N   UNL     1     -11.376  11.727  64.483  1.00  0.00    -0.307 N  
HETATM    3  C   UNL     1     -12.473  12.152  63.616  1.00  0.00    -0.549 C  
ENDROOT
BRANCH   2   4
HETATM    4  C   UNL     1     -11.187  12.235  65.785  1.00  0.00    -0.337 C  
HETATM    5  S   UNL     1      -9.889  11.838  66.793  1.00  0.00    -0.202 S  
BRANCH   4   6
HETATM    6  S   UNL     1     -12.281  13.520  66.288  1.00  0.00    -0.392 SA 
BRANCH   6   7
HETATM    7  C   UNL     1     -11.226  14.805  66.909  1.00  0.00    -0.347 C  
HETATM    8  S   UNL     1     -11.110  15.187  68.550  1.00  0.00    -0.292 S  
BRANCH   7   9
HETATM    9  N   UNL     1     -10.510  15.502  65.901  1.00  0.00    -0.322 N  
HETATM   10  C   UNL     1      -9.130  15.990  66.025  1.00  0.00    -0.326 C  
HETATM   11  C   UNL     1     -11.089  15.817  64.589  1.00  0.00    -0.361 C  
ENDBRANCH   7   9
ENDBRANCH   6   7
ENDBRANCH   4   6
ENDBRANCH   2   4
TORSDOF 4
ENDMDL
MODEL       14
REMARK 921   NORMALIZED FREE ENERGY PREDICTED BY IDOCK:   -3.05 KCAL/MOL
REMARK 922        TOTAL FREE ENERGY PREDICTED BY IDOCK:   -3.99 KCAL/MOL
REMARK 923 INTER-LIGAND FREE ENERGY PREDICTED BY IDOCK:   -3.89 KCAL/MOL
REMARK 924 INTRA-LIGAND FREE ENERGY PREDICTED BY IDOCK:   -0.10 KCAL/MOL
REMARK 927      BINDING AFFINITY PREDICTED BY RF-SCORE:    0.00 PKD
ROOT
HETATM    1  C   UNL     1     -11.913  13.521  66.871  1.00  0.00    -0.399 C  
HETATM    2  N   UNL     1     -10.784  13.874  66.010  1.00  0.00    -0.284 N  
HETATM    3  C   UNL     1     -10.621  13.069  64.800  1.00  0.00    -0.362 C  
ENDROOT
BRANCH   2   4
HETATM    4  C   UNL     1      -9.844  14.843  66.418  1.00  0.00    -0.274 C  
HETATM    5  S   UNL     1      -8.345  14.494  67.117  1.00  0.00    -0.174 S  
BRANCH   4   6
HETATM    6  S   UNL     1     -10.199  16.510  65.973  1.00  0.00    -0.348 SA 
BRANCH   6   7
HETATM    7  C   UNL     1     -10.465  17.349  67.514  1.00  0.00    -0.354 C  
HETATM    8  S   UNL     1     -10.839  16.541  68.949  1.00  0.00    -0.328 S  
BRANCH   7   9
HETATM    9  N   UNL     1     -10.366  18.763  67.427  1.00  0.00    -0.394 N  
HETATM   10  C   UNL     1     -10.125  19.667  68.560  1.00  0.00    -0.453 C  
HETATM   11  C   UNL     1     -10.494  19.491  66.159  1.00  0.00    -0.518 C  
ENDBRANCH   7   9
ENDBRANCH   6   7
ENDBRANCH   4   6
ENDBRANCH   2   4
TORSDOF 4
ENDMDL
MODEL       15
REMARK 921   NORMALIZED FREE ENERGY PREDICTED BY IDOCK:   -3.05 KCAL/MOL
REMARK 922        TOTAL FREE ENERGY PREDICTED BY IDOCK:   -3.98 KCAL/MOL
REMARK 923 INTER-LIGAND FREE ENERGY PREDICTED BY IDOCK:   -3.85 KCAL/MOL
REMARK 924 INTRA-LIGAND FREE ENERGY PREDICTED BY IDOCK:   -0.14 KCAL/MOL
REMARK 927      BINDING AFFINITY PREDICTED BY RF-SCORE:    0.00 PKD
ROOT
HETATM    1  C   UNL     1     -10.788  15.360  65.138  1.00  0.00    -0.431 C  
HETATM    2  N   UNL     1     -11.384  14.204  65.810  1.00  0.00    -0.312 N  
HETATM    3  C   UNL     1     -12.771  13.902  65.460  1.00  0.00    -0.499 C  
ENDROOT
BRANCH   2   4
HETATM    4  C   UNL     1     -10.686  13.528  66.832  1.00  0.00    -0.274 C  
HETATM    5  S   UNL     1      -9.045  13.740  67.179  1.00  0.00    -0.247 S  
BRANCH   4   6
HETATM    6  S   UNL     1     -11.660  12.556  67.932  1.00  0.00    -0.359 SA 
BRANCH   6   7
HETATM    7  C   UNL     1     -11.952  13.604  69.334  1.00  0.00    -0.342 C  
HETATM    8  S   UNL     1     -11.755  15.280  69.287  1.00  0.00    -0.345 S  
BRANCH   7   9
HETATM    9  N   UNL     1     -12.338  12.904  70.507  1.00  0.00    -0.324 N  
HETATM   10  C   UNL     1     -12.231  11.452  70.702  1.00  0.00    -0.389 C  
HETATM   11  C   UNL     1     -12.900  13.577  71.685  1.00  0.00    -0.329 C  
ENDBRANCH   7   9
ENDBRANCH   6   7
ENDBRANCH   4   6
ENDBRANCH   2   4
TORSDOF 4
ENDMDL
MODEL       16
REMARK 921   NORMALIZED FREE ENERGY PREDICTED BY IDOCK:   -3.05 KCAL/MOL
REMARK 922        TOTAL FREE ENERGY PREDICTED BY IDOCK:   -3.98 KCAL/MOL
REMARK 923 INTER-LIGAND FREE ENERGY PREDICTED BY IDOCK:   -3.85 KCAL/MOL
REMARK 924 INTRA-LIGAND FREE ENERGY PREDICTED BY IDOCK:   -0.13 KCAL/MOL
REMARK 927      BINDING AFFINITY PREDICTED BY RF-SCORE:    0.00 PKD
ROOT
HETATM    1  C   UNL     1     -10.490  19.218  66.374  1.00  0.00    -0.474 C  
HETATM    2  N   UNL     1     -10.274  18.355  67.537  1.00  0.00    -0.355 N  
HETATM    3  C   UNL     1      -9.654  18.987  68.700  1.00  0.00    -0.403 C  
ENDROOT
BRANCH   2   4
HETATM    4  C   UNL     1     -10.530  16.970  67.461  1.00  0.00    -0.334 C  
HETATM    5  S   UNL     1     -11.365  16.081  68.631  1.00  0.00    -0.365 S  
BRANCH   4   6
HETATM    6  S   UNL     1     -10.115  16.183  65.941  1.00  0.00    -0.361 SA 
BRANCH   6   7
HETATM    7  C   UNL     1      -9.809  14.488  66.370  1.00  0.00    -0.290 C  
HETATM    8  S   UNL     1      -8.473  13.997  67.280  1.00  0.00    -0.191 S  
BRANCH   7   9
HETATM    9  N   UNL     1     -10.770  13.579  65.857  1.00  0.00    -0.274 N  
HETATM   10  C   UNL     1     -11.788  12.881  66.655  1.00  0.00    -0.395 C  
HETATM   11  C   UNL     1     -10.855  13.232  64.433  1.00  0.00    -0.403 C  
ENDBRANCH   7   9
ENDBRANCH   6   7
ENDBRANCH   4   6
ENDBRANCH   2   4
TORSDOF 4
ENDMDL
MODEL       17
REMARK 921   NORMALIZED FREE ENERGY PREDICTED BY IDOCK:   -3.04 KCAL/MOL
REMARK 922        TOTAL FREE ENERGY PREDICTED BY IDOCK:   -3.97 KCAL/MOL
REMARK 923 INTER-LIGAND FREE ENERGY PREDICTED BY IDOCK:   -3.92 KCAL/MOL
REMARK 924 INTRA-LIGAND FREE ENERGY PREDICTED BY IDOCK:   -0.05 KCAL/MOL
REMARK 927      BINDING AFFINITY PREDICTED BY RF-SCORE:    0.00 PKD
ROOT
HETATM    1  C   UNL     1      -9.986  16.180  65.832  1.00  0.00    -0.356 C  
HETATM    2  N   UNL     1     -10.668  16.101  67.125  1.00  0.00    -0.295 N  
HETATM    3  C   UNL     1     -10.453  17.224  68.035  1.00  0.00    -0.375 C  
ENDROOT
BRANCH   2   4
HETATM    4  C   UNL     1     -11.369  14.935  67.497  1.00  0.00    -0.342 C  
HETATM    5  S   UNL     1     -11.674  14.464  69.092  1.00  0.00    -0.335 S  
BRANCH   4   6
HETATM    6  S   UNL     1     -12.137  14.037  66.192  1.00  0.00    -0.457 SA 
BRANCH   6   7
HETATM    7  C   UNL     1     -10.897  12.901  65.623  1.00  0.00    -0.273 C  
HETATM    8  S   UNL     1      -9.601  12.399  66.583  1.00  0.00    -0.233 S  
BRANCH   7   9
HETATM    9  N   UNL     1     -11.076  12.474  64.282  1.00  0.00    -0.330 N  
HETATM   10  C   UNL     1     -10.300  11.417  63.618  1.00  0.00    -0.410 C  
HETATM   11  C   UNL     1     -12.086  13.057  63.390  1.00  0.00    -0.515 C  
ENDBRANCH   7   9
ENDBRANCH   6   7
ENDBRANCH   4   6
ENDBRANCH   2   4
TORSDOF 4
ENDMDL
MODEL       18
REMARK 921   NORMALIZED FREE ENERGY PREDICTED BY IDOCK:   -3.04 KCAL/MOL
REMARK 922        TOTAL FREE ENERGY PREDICTED BY IDOCK:   -3.97 KCAL/MOL
REMARK 923 INTER-LIGAND FREE ENERGY PREDICTED BY IDOCK:   -3.73 KCAL/MOL
REMARK 924 INTRA-LIGAND FREE ENERGY PREDICTED BY IDOCK:   -0.24 KCAL/MOL
REMARK 927      BINDING AFFINITY PREDICTED BY RF-SCORE:    0.00 PKD
ROOT
HETATM    1  C   UNL     1     -10.529  18.602  65.998  1.00  0.00    -0.414 C  
HETATM    2  N   UNL     1     -10.423  17.922  67.290  1.00  0.00    -0.373 N  
HETATM    3  C   UNL     1     -10.161  18.777  68.447  1.00  0.00    -0.361 C  
ENDROOT
BRANCH   2   4
HETATM    4  C   UNL     1     -10.435  16.513  67.364  1.00  0.00    -0.310 C  
HETATM    5  S   UNL     1     -11.410  15.614  68.413  1.00  0.00    -0.362 S  
BRANCH   4   6
HETATM    6  S   UNL     1      -9.512  15.659  66.132  1.00  0.00    -0.360 SA 
BRANCH   6   7
HETATM    7  C   UNL     1     -10.629  14.442  65.483  1.00  0.00    -0.347 C  
HETATM    8  S   UNL     1     -12.005  14.841  64.589  1.00  0.00    -0.395 S  
BRANCH   7   9
HETATM    9  N   UNL     1     -10.279  13.105  65.806  1.00  0.00    -0.286 N  
HETATM   10  C   UNL     1      -9.278  12.710  66.807  1.00  0.00    -0.225 C  
HETATM   11  C   UNL     1     -10.898  11.943  65.158  1.00  0.00    -0.300 C  
ENDBRANCH   7   9
ENDBRANCH   6   7
ENDBRANCH   4   6
ENDBRANCH   2   4
TORSDOF 4
ENDMDL
MODEL       19
REMARK 921   NORMALIZED FREE ENERGY PREDICTED BY IDOCK:   -3.03 KCAL/MOL
REMARK 922        TOTAL FREE ENERGY PREDICTED BY IDOCK:   -3.95 KCAL/MOL
REMARK 923 INTER-LIGAND FREE ENERGY PREDICTED BY IDOCK:   -3.78 KCAL/MOL
REMARK 924 INTRA-LIGAND FREE ENERGY PREDICTED BY IDOCK:   -0.17 KCAL/MOL
REMARK 927      BINDING AFFINITY PREDICTED BY RF-SCORE:    0.00 PKD
ROOT
HETATM    1  C   UNL     1     -10.381  18.914  66.235  1.00  0.00    -0.453 C  
HETATM    2  N   UNL     1     -10.088  18.529  67.616  1.00  0.00    -0.345 N  
HETATM    3  C   UNL     1     -10.016  19.619  68.586  1.00  0.00    -0.458 C  
ENDROOT
BRANCH   2   4
HETATM    4  C   UNL     1      -9.761  17.194  67.936  1.00  0.00    -0.270 C  
HETATM    5  S   UNL     1      -8.191  16.626  68.198  1.00  0.00    -0.198 S  
BRANCH   4   6
HETATM    6  S   UNL     1     -11.113  16.119  68.275  1.00  0.00    -0.331 SA 
BRANCH   6   7
HETATM    7  C   UNL     1     -11.070  14.905  66.980  1.00  0.00    -0.338 C  
HETATM    8  S   UNL     1     -10.715  15.286  65.374  1.00  0.00    -0.419 S  
BRANCH   7   9
HETATM    9  N   UNL     1     -11.388  13.590  67.410  1.00  0.00    -0.298 N  
HETATM   10  C   UNL     1     -11.828  13.224  68.764  1.00  0.00    -0.334 C  
HETATM   11  C   UNL     1     -11.313  12.423  66.522  1.00  0.00    -0.340 C  
ENDBRANCH   7   9
ENDBRANCH   6   7
ENDBRANCH   4   6
ENDBRANCH   2   4
TORSDOF 4
ENDMDL
MODEL       20
REMARK 921   NORMALIZED FREE ENERGY PREDICTED BY IDOCK:   -3.02 KCAL/MOL
REMARK 922        TOTAL FREE ENERGY PREDICTED BY IDOCK:   -3.94 KCAL/MOL
REMARK 923 INTER-LIGAND FREE ENERGY PREDICTED BY IDOCK:   -3.62 KCAL/MOL
REMARK 924 INTRA-LIGAND FREE ENERGY PREDICTED BY IDOCK:   -0.32 KCAL/MOL
REMARK 927      BINDING AFFINITY PREDICTED BY RF-SCORE:    0.00 PKD
ROOT
HETATM    1  C   UNL     1      -9.918  13.775  66.119  1.00  0.00    -0.308 C  
HETATM    2  N   UNL     1     -10.448  15.125  66.324  1.00  0.00    -0.296 N  
HETATM    3  C   UNL     1     -10.901  15.826  65.124  1.00  0.00    -0.428 C  
ENDROOT
BRANCH   2   4
HETATM    4  C   UNL     1     -10.382  15.738  67.593  1.00  0.00    -0.281 C  
HETATM    5  S   UNL     1     -11.640  15.750  68.721  1.00  0.00    -0.370 S  
BRANCH   4   6
HETATM    6  S   UNL     1      -8.804  16.347  68.083  1.00  0.00    -0.197 SA 
BRANCH   6   7
HETATM    7  C   UNL     1      -8.591  17.856  67.174  1.00  0.00    -0.235 C  
HETATM    8  S   UNL     1      -7.269  18.142  66.163  1.00  0.00    -0.277 S  
BRANCH   7   9
HETATM    9  N   UNL     1      -9.617  18.812  67.393  1.00  0.00    -0.302 N  
HETATM   10  C   UNL     1     -10.434  19.436  66.342  1.00  0.00    -0.488 C  
HETATM   11  C   UNL     1      -9.983  19.292  68.731  1.00  0.00    -0.440 C  
ENDBRANCH   7   9
ENDBRANCH   6   7
ENDBRANCH   4   6
ENDBRANCH   2   4
TORSDOF 4
ENDMDL
MODEL       21
REMARK 921   NORMALIZED FREE ENERGY PREDICTED BY IDOCK:   -3.01 KCAL/MOL
REMARK 922        TOTAL FREE ENERGY PREDICTED BY IDOCK:   -3.93 KCAL/MOL
REMARK 923 INTER-LIGAND FREE ENERGY PREDICTED BY IDOCK:   -3.74 KCAL/MOL
REMARK 924 INTRA-LIGAND FREE ENERGY PREDICTED BY IDOCK:   -0.19 KCAL/MOL
REMARK 927      BINDING AFFINITY PREDICTED BY RF-SCORE:    0.00 PKD
ROOT
HETATM    1  C   UNL     1     -12.487  12.154  63.490  1.00  0.00    -0.555 C  
HETATM    2  N   UNL     1     -11.138  12.603  63.836  1.00  0.00    -0.396 N  
HETATM    3  C   UNL     1     -10.040  11.754  63.378  1.00  0.00    -0.446 C  
ENDROOT
BRANCH   2   4
HETATM    4  C   UNL     1     -10.946  13.717  64.680  1.00  0.00    -0.396 C  
HETATM    5  S   UNL     1     -11.773  15.184  64.540  1.00  0.00    -0.246 S  
BRANCH   4   6
HETATM    6  S   UNL     1      -9.916  13.461  66.086  1.00  0.00    -0.286 SA 
BRANCH   6   7
HETATM    7  C   UNL     1     -11.039  13.264  67.447  1.00  0.00    -0.278 C  
HETATM    8  S   UNL     1     -11.749  14.570  68.250  1.00  0.00    -0.324 S  
BRANCH   7   9
HETATM    9  N   UNL     1     -11.264  11.913  67.820  1.00  0.00    -0.247 N  
HETATM   10  C   UNL     1     -10.970  10.743  66.981  1.00  0.00    -0.227 C  
HETATM   11  C   UNL     1     -11.828  11.531  69.120  1.00  0.00    -0.340 C  
ENDBRANCH   7   9
ENDBRANCH   6   7
ENDBRANCH   4   6
ENDBRANCH   2   4
TORSDOF 4
ENDMDL
MODEL       22
REMARK 921   NORMALIZED FREE ENERGY PREDICTED BY IDOCK:   -3.01 KCAL/MOL
REMARK 922        TOTAL FREE ENERGY PREDICTED BY IDOCK:   -3.93 KCAL/MOL
REMARK 923 INTER-LIGAND FREE ENERGY PREDICTED BY IDOCK:   -3.78 KCAL/MOL
REMARK 924 INTRA-LIGAND FREE ENERGY PREDICTED BY IDOCK:   -0.15 KCAL/MOL
REMARK 927      BINDING AFFINITY PREDICTED BY RF-SCORE:    0.00 PKD
ROOT
HETATM    1  C   UNL     1     -12.296  12.253  63.340  1.00  0.00    -0.517 C  
HETATM    2  N   UNL     1     -11.372  11.918  64.425  1.00  0.00    -0.332 N  
HETATM    3  C   UNL     1     -10.384  10.883  64.131  1.00  0.00    -0.364 C  
ENDROOT
BRANCH   2   4
HETATM    4  C   UNL     1     -11.541  12.476  65.710  1.00  0.00    -0.392 C  
HETATM    5  S   UNL     1     -12.403  13.892  66.037  1.00  0.00    -0.458 S  
BRANCH   4   6
HETATM    6  S   UNL     1     -10.976  11.501  67.063  1.00  0.00    -0.306 SA 
BRANCH   6   7
HETATM    7  C   UNL     1     -10.589  12.671  68.341  1.00  0.00    -0.243 C  
HETATM    8  S   UNL     1      -9.254  13.703  68.269  1.00  0.00    -0.179 S  
BRANCH   7   9
HETATM    9  N   UNL     1     -11.484  12.642  69.442  1.00  0.00    -0.279 N  
HETATM   10  C   UNL     1     -12.098  13.821  70.067  1.00  0.00    -0.349 C  
HETATM   11  C   UNL     1     -11.907  11.394  70.090  1.00  0.00    -0.355 C  
ENDBRANCH   7   9
ENDBRANCH   6   7
ENDBRANCH   4   6
ENDBRANCH   2   4
TORSDOF 4
ENDMDL
MODEL       23
REMARK 921   NORMALIZED FREE ENERGY PREDICTED BY IDOCK:   -3.00 KCAL/MOL
REMARK 922        TOTAL FREE ENERGY PREDICTED BY IDOCK:   -3.93 KCAL/MOL
REMARK 923 INTER-LIGAND FREE ENERGY PREDICTED BY IDOCK:   -3.84 KCAL/MOL
REMARK 924 INTRA-LIGAND FREE ENERGY PREDICTED BY IDOCK:   -0.09 KCAL/MOL
REMARK 927      BINDING AFFINITY PREDICTED BY RF-SCORE:    0.00 PKD
ROOT
HETATM    1  C   UNL     1     -12.236  14.812  64.362  1.00  0.00    -0.428 C  
HETATM    2  N   UNL     1     -11.662  13.475  64.517  1.00  0.00    -0.380 N  
HETATM    3  C   UNL     1     -12.120  12.465  63.565  1.00  0.00    -0.558 C  
ENDROOT
BRANCH   2   4
HETATM    4  C   UNL     1     -10.828  13.173  65.614  1.00  0.00    -0.278 C  
HETATM    5  S   UNL     1     -10.685  11.645  66.322  1.00  0.00    -0.280 S  
BRANCH   4   6
HETATM    6  S   UNL     1      -9.724  14.446  66.127  1.00  0.00    -0.294 SA 
BRANCH   6   7
HETATM    7  C   UNL     1     -10.604  15.335  67.387  1.00  0.00    -0.282 C  
HETATM    8  S   UNL     1     -11.612  14.580  68.512  1.00  0.00    -0.326 S  
BRANCH   7   9
HETATM    9  N   UNL     1     -10.407  16.740  67.347  1.00  0.00    -0.297 N  
HETATM   10  C   UNL     1     -10.230  17.537  66.125  1.00  0.00    -0.335 C  
HETATM   11  C   UNL     1     -10.360  17.571  68.556  1.00  0.00    -0.380 C  
ENDBRANCH   7   9
ENDBRANCH   6   7
ENDBRANCH   4   6
ENDBRANCH   2   4
TORSDOF 4
ENDMDL
MODEL       24
REMARK 921   NORMALIZED FREE ENERGY PREDICTED BY IDOCK:   -3.00 KCAL/MOL
REMARK 922        TOTAL FREE ENERGY PREDICTED BY IDOCK:   -3.92 KCAL/MOL
REMARK 923 INTER-LIGAND FREE ENERGY PREDICTED BY IDOCK:   -3.74 KCAL/MOL
REMARK 924 INTRA-LIGAND FREE ENERGY PREDICTED BY IDOCK:   -0.18 KCAL/MOL
REMARK 927      BINDING AFFINITY PREDICTED BY RF-SCORE:    0.00 PKD
ROOT
HETATM    1  C   UNL     1     -12.333  12.862  65.669  1.00  0.00    -0.423 C  
HETATM    2  N   UNL     1     -11.195  12.440  66.489  1.00  0.00    -0.301 N  
HETATM    3  C   UNL     1     -10.659  11.109  66.208  1.00  0.00    -0.253 C  
ENDROOT
BRANCH   2   4
HETATM    4  C   UNL     1     -10.755  13.233  67.570  1.00  0.00    -0.250 C  
HETATM    5  S   UNL     1      -9.144  13.654  67.860  1.00  0.00    -0.208 S  
BRANCH   4   6
HETATM    6  S   UNL     1     -12.012  13.984  68.548  1.00  0.00    -0.306 SA 
BRANCH   6   7
HETATM    7  C   UNL     1     -12.109  12.989  70.014  1.00  0.00    -0.297 C  
HETATM    8  S   UNL     1     -11.858  11.319  70.010  1.00  0.00    -0.391 S  
BRANCH   7   9
HETATM    9  N   UNL     1     -12.444  13.717  71.186  1.00  0.00    -0.366 N  
HETATM   10  C   UNL     1     -11.839  14.993  71.593  1.00  0.00    -0.378 C  
HETATM   11  C   UNL     1     -13.461  13.261  72.141  1.00  0.00    -0.562 C  
ENDBRANCH   7   9
ENDBRANCH   6   7
ENDBRANCH   4   6
ENDBRANCH   2   4
TORSDOF 4
ENDMDL
MODEL       25
REMARK 921   NORMALIZED FREE ENERGY PREDICTED BY IDOCK:   -2.98 KCAL/MOL
REMARK 922        TOTAL FREE ENERGY PREDICTED BY IDOCK:   -3.90 KCAL/MOL
REMARK 923 INTER-LIGAND FREE ENERGY PREDICTED BY IDOCK:   -3.62 KCAL/MOL
REMARK 924 INTRA-LIGAND FREE ENERGY PREDICTED BY IDOCK:   -0.28 KCAL/MOL
REMARK 927      BINDING AFFINITY PREDICTED BY RF-SCORE:    0.00 PKD
ROOT
HETATM    1  C   UNL     1     -10.017  18.784  68.633  1.00  0.00    -0.394 C  
HETATM    2  N   UNL     1      -9.558  18.593  67.256  1.00  0.00    -0.293 N  
HETATM    3  C   UNL     1     -10.224  19.404  66.238  1.00  0.00    -0.478 C  
ENDROOT
BRANCH   2   4
HETATM    4  C   UNL     1      -8.627  17.580  66.943  1.00  0.00    -0.247 C  
HETATM    5  S   UNL     1      -7.160  17.836  66.144  1.00  0.00    -0.306 S  
BRANCH   4   6
HETATM    6  S   UNL     1      -8.951  15.987  67.620  1.00  0.00    -0.191 SA 
BRANCH   6   7
HETATM    7  C   UNL     1     -10.428  15.434  66.805  1.00  0.00    -0.299 C  
HETATM    8  S   UNL     1     -10.719  15.683  65.161  1.00  0.00    -0.425 S  
BRANCH   7   9
HETATM    9  N   UNL     1     -11.355  14.790  67.665  1.00  0.00    -0.327 N  
HETATM   10  C   UNL     1     -12.099  13.564  67.344  1.00  0.00    -0.318 C  
HETATM   11  C   UNL     1     -11.677  15.292  69.007  1.00  0.00    -0.347 C  
ENDBRANCH   7   9
ENDBRANCH   6   7
ENDBRANCH   4   6
ENDBRANCH   2   4
TORSDOF 4
ENDMDL
MODEL       26
REMARK 921   NORMALIZED FREE ENERGY PREDICTED BY IDOCK:   -2.98 KCAL/MOL
REMARK 922        TOTAL FREE ENERGY PREDICTED BY IDOCK:   -3.89 KCAL/MOL
REMARK 923 INTER-LIGAND FREE ENERGY PREDICTED BY IDOCK:   -3.70 KCAL/MOL
REMARK 924 INTRA-LIGAND FREE ENERGY PREDICTED BY IDOCK:   -0.19 KCAL/MOL
REMARK 927      BINDING AFFINITY PREDICTED BY RF-SCORE:    0.00 PKD
ROOT
HETATM    1  C   UNL     1     -10.674  15.377  65.247  1.00  0.00    -0.421 C  
HETATM    2  N   UNL     1     -11.424  14.412  66.053  1.00  0.00    -0.343 N  
HETATM    3  C   UNL     1     -12.688  13.945  65.486  1.00  0.00    -0.499 C  
ENDROOT
BRANCH   2   4
HETATM    4  C   UNL     1     -10.998  14.079  67.356  1.00  0.00    -0.293 C  
HETATM    5  S   UNL     1     -11.625  12.808  68.277  1.00  0.00    -0.353 S  
BRANCH   4   6
HETATM    6  S   UNL     1      -9.580  14.934  67.955  1.00  0.00    -0.207 SA 
BRANCH   6   7
HETATM    7  C   UNL     1     -10.226  16.321  68.855  1.00  0.00    -0.256 C  
HETATM    8  S   UNL     1     -11.278  16.156  70.166  1.00  0.00    -0.335 S  
BRANCH   7   9
HETATM    9  N   UNL     1      -9.803  17.581  68.358  1.00  0.00    -0.307 N  
HETATM   10  C   UNL     1      -8.491  18.194  68.609  1.00  0.00    -0.270 C  
HETATM   11  C   UNL     1     -10.654  18.428  67.514  1.00  0.00    -0.416 C  
ENDBRANCH   7   9
ENDBRANCH   6   7
ENDBRANCH   4   6
ENDBRANCH   2   4
TORSDOF 4
ENDMDL
MODEL       27
REMARK 921   NORMALIZED FREE ENERGY PREDICTED BY IDOCK:   -2.97 KCAL/MOL
REMARK 922        TOTAL FREE ENERGY PREDICTED BY IDOCK:   -3.89 KCAL/MOL
REMARK 923 INTER-LIGAND FREE ENERGY PREDICTED BY IDOCK:   -3.82 KCAL/MOL
REMARK 924 INTRA-LIGAND FREE ENERGY PREDICTED BY IDOCK:   -0.07 KCAL/MOL
REMARK 927      BINDING AFFINITY PREDICTED BY RF-SCORE:    0.00 PKD
ROOT
HETATM    1  C   UNL     1     -12.409  13.214  65.682  1.00  0.00    -0.461 C  
HETATM    2  N   UNL     1     -11.686  13.721  66.850  1.00  0.00    -0.372 N  
HETATM    3  C   UNL     1     -11.685  12.859  68.030  1.00  0.00    -0.356 C  
ENDROOT
BRANCH   2   4
HETATM    4  C   UNL     1     -11.153  15.027  66.853  1.00  0.00    -0.331 C  
HETATM    5  S   UNL     1     -10.513  15.809  65.498  1.00  0.00    -0.418 S  
BRANCH   4   6
HETATM    6  S   UNL     1     -11.367  15.953  68.336  1.00  0.00    -0.339 SA 
BRANCH   6   7
HETATM    7  C   UNL     1     -10.125  17.219  68.270  1.00  0.00    -0.321 C  
HETATM    8  S   UNL     1     -10.418  18.762  67.648  1.00  0.00    -0.428 S  
BRANCH   7   9
HETATM    9  N   UNL     1      -8.857  16.812  68.759  1.00  0.00    -0.261 N  
HETATM   10  C   UNL     1      -8.578  15.534  69.430  1.00  0.00    -0.259 C  
HETATM   11  C   UNL     1      -7.654  17.645  68.642  1.00  0.00    -0.276 C  
ENDBRANCH   7   9
ENDBRANCH   6   7
ENDBRANCH   4   6
ENDBRANCH   2   4
TORSDOF 4
ENDMDL
MODEL       28
REMARK 921   NORMALIZED FREE ENERGY PREDICTED BY IDOCK:   -2.97 KCAL/MOL
REMARK 922        TOTAL FREE ENERGY PREDICTED BY IDOCK:   -3.88 KCAL/MOL
REMARK 923 INTER-LIGAND FREE ENERGY PREDICTED BY IDOCK:   -3.58 KCAL/MOL
REMARK 924 INTRA-LIGAND FREE ENERGY PREDICTED BY IDOCK:   -0.31 KCAL/MOL
REMARK 927      BINDING AFFINITY PREDICTED BY RF-SCORE:    0.00 PKD
ROOT
HETATM    1  C   UNL     1      -8.611  14.297  66.776  1.00  0.00    -0.084 C  
HETATM    2  N   UNL     1      -9.697  14.922  66.019  1.00  0.00    -0.312 N  
HETATM    3  C   UNL     1      -9.693  16.383  65.978  1.00  0.00    -0.326 C  
ENDROOT
BRANCH   2   4
HETATM    4  C   UNL     1     -10.747  14.141  65.492  1.00  0.00    -0.324 C  
HETATM    5  S   UNL     1     -10.586  13.057  64.206  1.00  0.00    -0.381 S  
BRANCH   4   6
HETATM    6  S   UNL     1     -12.265  14.172  66.384  1.00  0.00    -0.386 SA 
BRANCH   6   7
HETATM    7  C   UNL     1     -11.900  13.397  67.939  1.00  0.00    -0.357 C  
HETATM    8  S   UNL     1     -11.514  11.759  68.081  1.00  0.00    -0.328 S  
BRANCH   7   9
HETATM    9  N   UNL     1     -11.989  14.270  69.054  1.00  0.00    -0.331 N  
HETATM   10  C   UNL     1     -11.780  15.724  69.012  1.00  0.00    -0.396 C  
HETATM   11  C   UNL     1     -12.311  13.800  70.407  1.00  0.00    -0.353 C  
ENDBRANCH   7   9
ENDBRANCH   6   7
ENDBRANCH   4   6
ENDBRANCH   2   4
TORSDOF 4
ENDMDL
MODEL       29
REMARK 921   NORMALIZED FREE ENERGY PREDICTED BY IDOCK:   -2.97 KCAL/MOL
REMARK 922        TOTAL FREE ENERGY PREDICTED BY IDOCK:   -3.88 KCAL/MOL
REMARK 923 INTER-LIGAND FREE ENERGY PREDICTED BY IDOCK:   -3.73 KCAL/MOL
REMARK 924 INTRA-LIGAND FREE ENERGY PREDICTED BY IDOCK:   -0.16 KCAL/MOL
REMARK 927      BINDING AFFINITY PREDICTED BY RF-SCORE:    0.00 PKD
ROOT
HETATM    1  C   UNL     1     -12.010  11.096  69.675  1.00  0.00    -0.359 C  
HETATM    2  N   UNL     1     -12.526  10.916  71.033  1.00  0.00    -0.382 N  
HETATM    3  C   UNL     1     -13.042  12.117  71.688  1.00  0.00    -0.310 C  
ENDROOT
BRANCH   2   4
HETATM    4  C   UNL     1     -12.390   9.678  71.695  1.00  0.00    -0.404 C  
HETATM    5  S   UNL     1     -13.678   8.763  72.296  1.00  0.00    -0.428 S  
BRANCH   4   6
HETATM    6  S   UNL     1     -10.778   8.970  71.701  1.00  0.00    -0.372 SA 
BRANCH   6   7
HETATM    7  C   UNL     1     -11.043   7.224  71.524  1.00  0.00    -0.237 C  
HETATM    8  S   UNL     1     -11.528   6.510  70.072  1.00  0.00    -0.376 S  
BRANCH   7   9
HETATM    9  N   UNL     1     -10.840   6.484  72.718  1.00  0.00    -0.238 N  
HETATM   10  C   UNL     1     -11.241   5.086  72.928  1.00  0.00    -0.271 C  
HETATM   11  C   UNL     1     -10.185   7.052  73.903  1.00  0.00    -0.350 C  
ENDBRANCH   7   9
ENDBRANCH   6   7
ENDBRANCH   4   6
ENDBRANCH   2   4
TORSDOF 4
ENDMDL
MODEL       30
REMARK 921   NORMALIZED FREE ENERGY PREDICTED BY IDOCK:   -2.96 KCAL/MOL
REMARK 922        TOTAL FREE ENERGY PREDICTED BY IDOCK:   -3.88 KCAL/MOL
REMARK 923 INTER-LIGAND FREE ENERGY PREDICTED BY IDOCK:   -3.70 KCAL/MOL
REMARK 924 INTRA-LIGAND FREE ENERGY PREDICTED BY IDOCK:   -0.17 KCAL/MOL
REMARK 927      BINDING AFFINITY PREDICTED BY RF-SCORE:    0.00 PKD
ROOT
HETATM    1  C   UNL     1     -11.338  14.809  64.663  1.00  0.00    -0.366 C  
HETATM    2  N   UNL     1     -11.377  14.716  66.123  1.00  0.00    -0.349 N  
HETATM    3  C   UNL     1     -12.203  13.645  66.677  1.00  0.00    -0.389 C  
ENDROOT
BRANCH   2   4
HETATM    4  C   UNL     1     -10.760  15.701  66.923  1.00  0.00    -0.307 C  
HETATM    5  S   UNL     1     -11.190  16.051  68.520  1.00  0.00    -0.375 S  
BRANCH   4   6
HETATM    6  S   UNL     1      -9.318  16.458  66.253  1.00  0.00    -0.330 SA 
BRANCH   6   7
HETATM    7  C   UNL     1      -9.232  18.050  67.032  1.00  0.00    -0.265 C  
HETATM    8  S   UNL     1     -10.218  19.347  66.587  1.00  0.00    -0.477 S  
BRANCH   7   9
HETATM    9  N   UNL     1      -8.241  18.146  68.044  1.00  0.00    -0.253 N  
HETATM   10  C   UNL     1      -7.495  17.013  68.609  1.00  0.00    -0.229 C  
HETATM   11  C   UNL     1      -7.842  19.423  68.648  1.00  0.00    -0.364 C  
ENDBRANCH   7   9
ENDBRANCH   6   7
ENDBRANCH   4   6
ENDBRANCH   2   4
TORSDOF 4
ENDMDL
MODEL       31
REMARK 921   NORMALIZED FREE ENERGY PREDICTED BY IDOCK:   -2.96 KCAL/MOL
REMARK 922        TOTAL FREE ENERGY PREDICTED BY IDOCK:   -3.87 KCAL/MOL
REMARK 923 INTER-LIGAND FREE ENERGY PREDICTED BY IDOCK:   -3.54 KCAL/MOL
REMARK 924 INTRA-LIGAND FREE ENERGY PREDICTED BY IDOCK:   -0.33 KCAL/MOL
REMARK 927      BINDING AFFINITY PREDICTED BY RF-SCORE:    0.00 PKD
ROOT
HETATM    1  C   UNL     1     -12.891  14.005  65.280  1.00  0.00    -0.384 C  
HETATM    2  N   UNL     1     -11.441  14.169  65.167  1.00  0.00    -0.323 N  
HETATM    3  C   UNL     1     -10.965  15.530  64.925  1.00  0.00    -0.436 C  
ENDROOT
BRANCH   2   4
HETATM    4  C   UNL     1     -10.589  13.045  65.155  1.00  0.00    -0.312 C  
HETATM    5  S   UNL     1     -10.368  12.020  63.829  1.00  0.00    -0.460 S  
BRANCH   4   6
HETATM    6  S   UNL     1      -9.549  12.839  66.561  1.00  0.00    -0.252 SA 
BRANCH   6   7
HETATM    7  C   UNL     1     -10.565  13.274  67.950  1.00  0.00    -0.238 C  
HETATM    8  S   UNL     1     -11.613  12.183  68.700  1.00  0.00    -0.341 S  
BRANCH   7   9
HETATM    9  N   UNL     1     -10.439  14.628  68.357  1.00  0.00    -0.237 N  
HETATM   10  C   UNL     1      -9.183  15.391  68.384  1.00  0.00    -0.192 C  
HETATM   11  C   UNL     1     -11.582  15.433  68.804  1.00  0.00    -0.368 C  
ENDBRANCH   7   9
ENDBRANCH   6   7
ENDBRANCH   4   6
ENDBRANCH   2   4
TORSDOF 4
ENDMDL
MODEL       32
REMARK 921   NORMALIZED FREE ENERGY PREDICTED BY IDOCK:   -2.96 KCAL/MOL
REMARK 922        TOTAL FREE ENERGY PREDICTED BY IDOCK:   -3.87 KCAL/MOL
REMARK 923 INTER-LIGAND FREE ENERGY PREDICTED BY IDOCK:   -3.62 KCAL/MOL
REMARK 924 INTRA-LIGAND FREE ENERGY PREDICTED BY IDOCK:   -0.26 KCAL/MOL
REMARK 927      BINDING AFFINITY PREDICTED BY RF-SCORE:    0.00 PKD
ROOT
HETATM    1  C   UNL     1     -11.996  14.014  69.535  1.00  0.00    -0.339 C  
HETATM    2  N   UNL     1     -10.733  13.838  68.816  1.00  0.00    -0.251 N  
HETATM    3  C   UNL     1      -9.774  14.936  68.924  1.00  0.00    -0.223 C  
ENDROOT
BRANCH   2   4
HETATM    4  C   UNL     1     -10.539  12.730  67.965  1.00  0.00    -0.226 C  
HETATM    5  S   UNL     1     -11.398  11.278  68.065  1.00  0.00    -0.307 S  
BRANCH   4   6
HETATM    6  S   UNL     1      -9.466  12.981  66.591  1.00  0.00    -0.243 SA 
BRANCH   6   7
HETATM    7  C   UNL     1     -10.510  13.608  65.301  1.00  0.00    -0.351 C  
HETATM    8  S   UNL     1     -10.892  15.245  65.142  1.00  0.00    -0.445 S  
BRANCH   7   9
HETATM    9  N   UNL     1     -11.020  12.608  64.432  1.00  0.00    -0.328 N  
HETATM   10  C   UNL     1     -12.149  12.782  63.509  1.00  0.00    -0.559 C  
HETATM   11  C   UNL     1     -10.454  11.255  64.359  1.00  0.00    -0.345 C  
ENDBRANCH   7   9
ENDBRANCH   6   7
ENDBRANCH   4   6
ENDBRANCH   2   4
TORSDOF 4
ENDMDL
MODEL       33
REMARK 921   NORMALIZED FREE ENERGY PREDICTED BY IDOCK:   -2.96 KCAL/MOL
REMARK 922        TOTAL FREE ENERGY PREDICTED BY IDOCK:   -3.87 KCAL/MOL
REMARK 923 INTER-LIGAND FREE ENERGY PREDICTED BY IDOCK:   -3.72 KCAL/MOL
REMARK 924 INTRA-LIGAND FREE ENERGY PREDICTED BY IDOCK:   -0.15 KCAL/MOL
REMARK 927      BINDING AFFINITY PREDICTED BY RF-SCORE:    0.00 PKD
ROOT
HETATM    1  C   UNL     1     -12.199  11.654  70.337  1.00  0.00    -0.347 C  
HETATM    2  N   UNL     1     -12.255  13.117  70.336  1.00  0.00    -0.345 N  
HETATM    3  C   UNL     1     -12.742  13.742  71.565  1.00  0.00    -0.346 C  
ENDROOT
BRANCH   2   4
HETATM    4  C   UNL     1     -11.983  13.845  69.159  1.00  0.00    -0.363 C  
HETATM    5  S   UNL     1     -11.652  15.502  69.109  1.00  0.00    -0.380 S  
BRANCH   4   6
HETATM    6  S   UNL     1     -11.785  12.902  67.686  1.00  0.00    -0.359 SA 
BRANCH   6   7
HETATM    7  C   UNL     1     -10.408  13.644  66.847  1.00  0.00    -0.262 C  
HETATM    8  S   UNL     1      -8.824  13.559  67.426  1.00  0.00    -0.233 S  
BRANCH   7   9
HETATM    9  N   UNL     1     -10.761  14.340  65.662  1.00  0.00    -0.303 N  
HETATM   10  C   UNL     1     -11.550  13.783  64.554  1.00  0.00    -0.392 C  
HETATM   11  C   UNL     1     -10.366  15.732  65.410  1.00  0.00    -0.389 C  
ENDBRANCH   7   9
ENDBRANCH   6   7
ENDBRANCH   4   6
ENDBRANCH   2   4
TORSDOF 4
ENDMDL
MODEL       34
REMARK 921   NORMALIZED FREE ENERGY PREDICTED BY IDOCK:   -2.96 KCAL/MOL
REMARK 922        TOTAL FREE ENERGY PREDICTED BY IDOCK:   -3.87 KCAL/MOL
REMARK 923 INTER-LIGAND FREE ENERGY PREDICTED BY IDOCK:   -3.62 KCAL/MOL
REMARK 924 INTRA-LIGAND FREE ENERGY PREDICTED BY IDOCK:   -0.25 KCAL/MOL
REMARK 927      BINDING AFFINITY PREDICTED BY RF-SCORE:    0.00 PKD
ROOT
HETATM    1  C   UNL     1      -9.913  10.971  65.750  1.00  0.00    -0.244 C  
HETATM    2  N   UNL     1     -10.565  12.085  65.061  1.00  0.00    -0.278 N  
HETATM    3  C   UNL     1     -10.514  12.056  63.600  1.00  0.00    -0.454 C  
ENDROOT
BRANCH   2   4
HETATM    4  C   UNL     1     -11.078  13.179  65.789  1.00  0.00    -0.273 C  
HETATM    5  S   UNL     1     -12.576  13.908  65.501  1.00  0.00    -0.485 S  
BRANCH   4   6
HETATM    6  S   UNL     1     -10.165  13.665  67.214  1.00  0.00    -0.247 SA 
BRANCH   6   7
HETATM    7  C   UNL     1     -11.219  13.277  68.589  1.00  0.00    -0.274 C  
HETATM    8  S   UNL     1     -11.752  11.710  68.925  1.00  0.00    -0.346 S  
BRANCH   7   9
HETATM    9  N   UNL     1     -11.596  14.404  69.363  1.00  0.00    -0.286 N  
HETATM   10  C   UNL     1     -12.057  14.359  70.758  1.00  0.00    -0.338 C  
HETATM   11  C   UNL     1     -11.563  15.776  68.840  1.00  0.00    -0.394 C  
ENDBRANCH   7   9
ENDBRANCH   6   7
ENDBRANCH   4   6
ENDBRANCH   2   4
TORSDOF 4
ENDMDL
MODEL       35
REMARK 921   NORMALIZED FREE ENERGY PREDICTED BY IDOCK:   -2.95 KCAL/MOL
REMARK 922        TOTAL FREE ENERGY PREDICTED BY IDOCK:   -3.86 KCAL/MOL
REMARK 923 INTER-LIGAND FREE ENERGY PREDICTED BY IDOCK:   -3.64 KCAL/MOL
REMARK 924 INTRA-LIGAND FREE ENERGY PREDICTED BY IDOCK:   -0.22 KCAL/MOL
REMARK 927      BINDING AFFINITY PREDICTED BY RF-SCORE:    0.00 PKD
ROOT
HETATM    1  C   UNL     1     -11.911  15.261  69.312  1.00  0.00    -0.329 C  
HETATM    2  N   UNL     1     -10.752  15.416  68.431  1.00  0.00    -0.248 N  
HETATM    3  C   UNL     1      -9.551  15.981  69.042  1.00  0.00    -0.247 C  
ENDROOT
BRANCH   2   4
HETATM    4  C   UNL     1     -10.862  15.160  67.048  1.00  0.00    -0.314 C  
HETATM    5  S   UNL     1      -9.699  15.584  65.896  1.00  0.00    -0.359 S  
BRANCH   4   6
HETATM    6  S   UNL     1     -12.216  14.152  66.546  1.00  0.00    -0.356 SA 
BRANCH   6   7
HETATM    7  C   UNL     1     -11.585  12.493  66.566  1.00  0.00    -0.388 C  
HETATM    8  S   UNL     1     -11.340  11.619  67.991  1.00  0.00    -0.315 S  
BRANCH   7   9
HETATM    9  N   UNL     1     -11.279  11.976  65.280  1.00  0.00    -0.325 N  
HETATM   10  C   UNL     1     -12.020  12.274  64.047  1.00  0.00    -0.462 C  
HETATM   11  C   UNL     1     -10.154  11.063  65.039  1.00  0.00    -0.296 C  
ENDBRANCH   7   9
ENDBRANCH   6   7
ENDBRANCH   4   6
ENDBRANCH   2   4
TORSDOF 4
ENDMDL
MODEL       36
REMARK 921   NORMALIZED FREE ENERGY PREDICTED BY IDOCK:   -2.94 KCAL/MOL
REMARK 922        TOTAL FREE ENERGY PREDICTED BY IDOCK:   -3.85 KCAL/MOL
REMARK 923 INTER-LIGAND FREE ENERGY PREDICTED BY IDOCK:   -3.59 KCAL/MOL
REMARK 924 INTRA-LIGAND FREE ENERGY PREDICTED BY IDOCK:   -0.25 KCAL/MOL
REMARK 927      BINDING AFFINITY PREDICTED BY RF-SCORE:    0.00 PKD
ROOT
HETATM    1  C   UNL     1     -10.312  11.695  65.465  1.00  0.00    -0.264 C  
HETATM    2  N   UNL     1     -11.170  12.881  65.447  1.00  0.00    -0.279 N  
HETATM    3  C   UNL     1     -12.515  12.694  64.906  1.00  0.00    -0.494 C  
ENDROOT
BRANCH   2   4
HETATM    4  C   UNL     1     -10.656  14.145  65.805  1.00  0.00    -0.300 C  
HETATM    5  S   UNL     1     -10.991  15.586  64.988  1.00  0.00    -0.415 S  
BRANCH   4   6
HETATM    6  S   UNL     1      -9.773  14.226  67.327  1.00  0.00    -0.240 SA 
BRANCH   6   7
HETATM    7  C   UNL     1     -11.012  14.055  68.586  1.00  0.00    -0.263 C  
HETATM    8  S   UNL     1     -11.664  12.564  69.038  1.00  0.00    -0.312 S  
BRANCH   7   9
HETATM    9  N   UNL     1     -11.426  15.285  69.160  1.00  0.00    -0.295 N  
HETATM   10  C   UNL     1     -12.385  15.425  70.264  1.00  0.00    -0.388 C  
HETATM   11  C   UNL     1     -10.924  16.585  68.699  1.00  0.00    -0.344 C  
ENDBRANCH   7   9
ENDBRANCH   6   7
ENDBRANCH   4   6
ENDBRANCH   2   4
TORSDOF 4
ENDMDL
MODEL       37
REMARK 921   NORMALIZED FREE ENERGY PREDICTED BY IDOCK:   -2.94 KCAL/MOL
REMARK 922        TOTAL FREE ENERGY PREDICTED BY IDOCK:   -3.85 KCAL/MOL
REMARK 923 INTER-LIGAND FREE ENERGY PREDICTED BY IDOCK:   -3.61 KCAL/MOL
REMARK 924 INTRA-LIGAND FREE ENERGY PREDICTED BY IDOCK:   -0.24 KCAL/MOL
REMARK 927      BINDING AFFINITY PREDICTED BY RF-SCORE:    0.00 PKD
ROOT
HETATM    1  C   UNL     1     -12.535  12.693  64.862  1.00  0.00    -0.494 C  
HETATM    2  N   UNL     1     -11.129  13.002  64.597  1.00  0.00    -0.316 N  
HETATM    3  C   UNL     1     -10.473  12.190  63.574  1.00  0.00    -0.454 C  
ENDROOT
BRANCH   2   4
HETATM    4  C   UNL     1     -10.437  13.938  65.395  1.00  0.00    -0.345 C  
HETATM    5  S   UNL     1     -10.647  15.613  65.314  1.00  0.00    -0.421 S  
BRANCH   4   6
HETATM    6  S   UNL     1      -9.444  13.275  66.690  1.00  0.00    -0.243 SA 
BRANCH   6   7
HETATM    7  C   UNL     1      -9.779  14.303  68.097  1.00  0.00    -0.226 C  
HETATM    8  S   UNL     1      -8.679  15.438  68.690  1.00  0.00    -0.205 S  
BRANCH   7   9
HETATM    9  N   UNL     1     -11.043  14.065  68.698  1.00  0.00    -0.252 N  
HETATM   10  C   UNL     1     -11.876  15.084  69.353  1.00  0.00    -0.329 C  
HETATM   11  C   UNL     1     -11.673  12.739  68.727  1.00  0.00    -0.323 C  
ENDBRANCH   7   9
ENDBRANCH   6   7
ENDBRANCH   4   6
ENDBRANCH   2   4
TORSDOF 4
ENDMDL
MODEL       38
REMARK 921   NORMALIZED FREE ENERGY PREDICTED BY IDOCK:   -2.94 KCAL/MOL
REMARK 922        TOTAL FREE ENERGY PREDICTED BY IDOCK:   -3.84 KCAL/MOL
REMARK 923 INTER-LIGAND FREE ENERGY PREDICTED BY IDOCK:   -3.64 KCAL/MOL
REMARK 924 INTRA-LIGAND FREE ENERGY PREDICTED BY IDOCK:   -0.20 KCAL/MOL
REMARK 927      BINDING AFFINITY PREDICTED BY RF-SCORE:    0.00 PKD
ROOT
HETATM    1  C   UNL     1      -9.859  19.288  68.763  1.00  0.00    -0.447 C  
HETATM    2  N   UNL     1      -9.836  18.816  67.378  1.00  0.00    -0.308 N  
HETATM    3  C   UNL     1     -10.514  19.662  66.398  1.00  0.00    -0.513 C  
ENDROOT
BRANCH   2   4
HETATM    4  C   UNL     1      -9.306  17.547  67.060  1.00  0.00    -0.259 C  
HETATM    5  S   UNL     1      -7.806  16.973  67.586  1.00  0.00    -0.174 S  
BRANCH   4   6
HETATM    6  S   UNL     1     -10.390  16.435  66.229  1.00  0.00    -0.319 SA 
BRANCH   6   7
HETATM    7  C   UNL     1     -10.959  15.321  67.488  1.00  0.00    -0.315 C  
HETATM    8  S   UNL     1     -11.500  15.842  69.000  1.00  0.00    -0.403 S  
BRANCH   7   9
HETATM    9  N   UNL     1     -10.892  13.952  67.121  1.00  0.00    -0.282 N  
HETATM   10  C   UNL     1      -9.786  13.041  67.443  1.00  0.00    -0.213 C  
HETATM   11  C   UNL     1     -11.953  13.280  66.360  1.00  0.00    -0.410 C  
ENDBRANCH   7   9
ENDBRANCH   6   7
ENDBRANCH   4   6
ENDBRANCH   2   4
TORSDOF 4
ENDMDL
MODEL       39
REMARK 921   NORMALIZED FREE ENERGY PREDICTED BY IDOCK:   -2.94 KCAL/MOL
REMARK 922        TOTAL FREE ENERGY PREDICTED BY IDOCK:   -3.84 KCAL/MOL
REMARK 923 INTER-LIGAND FREE ENERGY PREDICTED BY IDOCK:   -3.74 KCAL/MOL
REMARK 924 INTRA-LIGAND FREE ENERGY PREDICTED BY IDOCK:   -0.10 KCAL/MOL
REMARK 927      BINDING AFFINITY PREDICTED BY RF-SCORE:    0.00 PKD
ROOT
HETATM    1  C   UNL     1      -7.223  17.671  66.085  1.00  0.00    -0.317 C  
HETATM    2  N   UNL     1      -8.205  17.481  67.154  1.00  0.00    -0.207 N  
HETATM    3  C   UNL     1      -7.671  17.074  68.452  1.00  0.00    -0.230 C  
ENDROOT
BRANCH   2   4
HETATM    4  C   UNL     1      -9.587  17.557  66.882  1.00  0.00    -0.278 C  
HETATM    5  S   UNL     1     -10.557  18.903  67.200  1.00  0.00    -0.446 S  
BRANCH   4   6
HETATM    6  S   UNL     1     -10.275  16.220  65.966  1.00  0.00    -0.372 SA 
BRANCH   6   7
HETATM    7  C   UNL     1     -11.147  15.243  67.164  1.00  0.00    -0.323 C  
HETATM    8  S   UNL     1     -11.183  15.622  68.809  1.00  0.00    -0.354 S  
BRANCH   7   9
HETATM    9  N   UNL     1     -11.788  14.099  66.621  1.00  0.00    -0.406 N  
HETATM   10  C   UNL     1     -11.898  12.793  67.285  1.00  0.00    -0.350 C  
HETATM   11  C   UNL     1     -12.431  14.100  65.301  1.00  0.00    -0.461 C  
ENDBRANCH   7   9
ENDBRANCH   6   7
ENDBRANCH   4   6
ENDBRANCH   2   4
TORSDOF 4
ENDMDL
MODEL       40
REMARK 921   NORMALIZED FREE ENERGY PREDICTED BY IDOCK:   -2.93 KCAL/MOL
REMARK 922        TOTAL FREE ENERGY PREDICTED BY IDOCK:   -3.83 KCAL/MOL
REMARK 923 INTER-LIGAND FREE ENERGY PREDICTED BY IDOCK:   -3.60 KCAL/MOL
REMARK 924 INTRA-LIGAND FREE ENERGY PREDICTED BY IDOCK:   -0.23 KCAL/MOL
REMARK 927      BINDING AFFINITY PREDICTED BY RF-SCORE:    0.00 PKD
ROOT
HETATM    1  C   UNL     1     -12.421  13.858  70.895  1.00  0.00    -0.375 C  
HETATM    2  N   UNL     1     -11.988  14.294  69.567  1.00  0.00    -0.318 N  
HETATM    3  C   UNL     1     -11.805  15.734  69.390  1.00  0.00    -0.349 C  
ENDROOT
BRANCH   2   4
HETATM    4  C   UNL     1     -11.896  13.373  68.502  1.00  0.00    -0.366 C  
HETATM    5  S   UNL     1     -11.750  11.699  68.689  1.00  0.00    -0.317 S  
BRANCH   4   6
HETATM    6  S   UNL     1     -12.158  14.020  66.886  1.00  0.00    -0.385 SA 
BRANCH   6   7
HETATM    7  C   UNL     1     -10.565  13.963  66.105  1.00  0.00    -0.291 C  
HETATM    8  S   UNL     1      -9.395  15.162  66.314  1.00  0.00    -0.310 S  
BRANCH   7   9
HETATM    9  N   UNL     1     -10.373  12.834  65.266  1.00  0.00    -0.292 N  
HETATM   10  C   UNL     1     -11.071  12.595  63.995  1.00  0.00    -0.405 C  
HETATM   11  C   UNL     1      -9.429  11.757  65.587  1.00  0.00    -0.192 C  
ENDBRANCH   7   9
ENDBRANCH   6   7
ENDBRANCH   4   6
ENDBRANCH   2   4
TORSDOF 4
ENDMDL
MODEL       41
REMARK 921   NORMALIZED FREE ENERGY PREDICTED BY IDOCK:   -2.93 KCAL/MOL
REMARK 922        TOTAL FREE ENERGY PREDICTED BY IDOCK:   -3.83 KCAL/MOL
REMARK 923 INTER-LIGAND FREE ENERGY PREDICTED BY IDOCK:   -3.73 KCAL/MOL
REMARK 924 INTRA-LIGAND FREE ENERGY PREDICTED BY IDOCK:   -0.10 KCAL/MOL
REMARK 927      BINDING AFFINITY PREDICTED BY RF-SCORE:    0.00 PKD
ROOT
HETATM    1  C   UNL     1     -11.951  12.042  63.641  1.00  0.00    -0.515 C  
HETATM    2  N   UNL     1     -11.835  12.394  65.057  1.00  0.00    -0.382 N  
HETATM    3  C   UNL     1     -12.783  13.389  65.552  1.00  0.00    -0.410 C  
ENDROOT
BRANCH   2   4
HETATM    4  C   UNL     1     -10.772  11.891  65.837  1.00  0.00    -0.284 C  
HETATM    5  S   UNL     1      -9.917  10.473  65.498  1.00  0.00    -0.287 S  
BRANCH   4   6
HETATM    6  S   UNL     1     -10.190  12.938  67.128  1.00  0.00    -0.240 SA 
BRANCH   6   7
HETATM    7  C   UNL     1     -11.198  12.538  68.533  1.00  0.00    -0.283 C  
HETATM    8  S   UNL     1     -11.538  10.950  68.999  1.00  0.00    -0.320 S  
BRANCH   7   9
HETATM    9  N   UNL     1     -11.716  13.670  69.214  1.00  0.00    -0.304 N  
HETATM   10  C   UNL     1     -12.275  13.660  70.572  1.00  0.00    -0.368 C  
HETATM   11  C   UNL     1     -11.748  15.011  68.616  1.00  0.00    -0.337 C  
ENDBRANCH   7   9
ENDBRANCH   6   7
ENDBRANCH   4   6
ENDBRANCH   2   4
TORSDOF 4
ENDMDL
MODEL       42
REMARK 921   NORMALIZED FREE ENERGY PREDICTED BY IDOCK:   -2.92 KCAL/MOL
REMARK 922        TOTAL FREE ENERGY PREDICTED BY IDOCK:   -3.82 KCAL/MOL
REMARK 923 INTER-LIGAND FREE ENERGY PREDICTED BY IDOCK:   -3.52 KCAL/MOL
REMARK 924 INTRA-LIGAND FREE ENERGY PREDICTED BY IDOCK:   -0.30 KCAL/MOL
REMARK 927      BINDING AFFINITY PREDICTED BY RF-SCORE:    0.00 PKD
ROOT
HETATM    1  C   UNL     1     -12.525  13.750  65.362  1.00  0.00    -0.500 C  
HETATM    2  N   UNL     1     -11.176  13.218  65.557  1.00  0.00    -0.286 N  
HETATM    3  C   UNL     1     -10.931  11.876  65.031  1.00  0.00    -0.312 C  
ENDROOT
BRANCH   2   4
HETATM    4  C   UNL     1     -10.231  13.922  66.333  1.00  0.00    -0.292 C  
HETATM    5  S   UNL     1      -9.779  15.530  66.071  1.00  0.00    -0.367 S  
BRANCH   4   6
HETATM    6  S   UNL     1      -9.651  13.110  67.784  1.00  0.00    -0.215 SA 
BRANCH   6   7
HETATM    7  C   UNL     1     -11.050  13.067  68.875  1.00  0.00    -0.262 C  
HETATM    8  S   UNL     1     -11.845  14.459  69.406  1.00  0.00    -0.338 S  
BRANCH   7   9
HETATM    9  N   UNL     1     -11.423  11.761  69.286  1.00  0.00    -0.282 N  
HETATM   10  C   UNL     1     -12.143  11.434  70.525  1.00  0.00    -0.394 C  
HETATM   11  C   UNL     1     -11.123  10.562  68.492  1.00  0.00    -0.275 C  
ENDBRANCH   7   9
ENDBRANCH   6   7
ENDBRANCH   4   6
ENDBRANCH   2   4
TORSDOF 4
ENDMDL
MODEL       43
REMARK 921   NORMALIZED FREE ENERGY PREDICTED BY IDOCK:   -2.92 KCAL/MOL
REMARK 922        TOTAL FREE ENERGY PREDICTED BY IDOCK:   -3.82 KCAL/MOL
REMARK 923 INTER-LIGAND FREE ENERGY PREDICTED BY IDOCK:   -3.54 KCAL/MOL
REMARK 924 INTRA-LIGAND FREE ENERGY PREDICTED BY IDOCK:   -0.29 KCAL/MOL
REMARK 927      BINDING AFFINITY PREDICTED BY RF-SCORE:    0.00 PKD
ROOT
HETATM    1  C   UNL     1     -11.357  11.283  67.315  1.00  0.00    -0.255 C  
HETATM    2  N   UNL     1     -10.870  11.728  66.009  1.00  0.00    -0.287 N  
HETATM    3  C   UNL     1      -9.452  11.497  65.738  1.00  0.00    -0.234 C  
ENDROOT
BRANCH   2   4
HETATM    4  C   UNL     1     -11.708  12.460  65.141  1.00  0.00    -0.382 C  
HETATM    5  S   UNL     1     -11.929  12.115  63.501  1.00  0.00    -0.512 S  
BRANCH   4   6
HETATM    6  S   UNL     1     -12.731  13.681  65.891  1.00  0.00    -0.274 SA 
BRANCH   6   7
HETATM    7  C   UNL     1     -11.605  14.799  66.687  1.00  0.00    -0.313 C  
HETATM    8  S   UNL     1     -11.563  15.026  68.360  1.00  0.00    -0.321 S  
BRANCH   7   9
HETATM    9  N   UNL     1     -10.762  15.505  65.790  1.00  0.00    -0.339 N  
HETATM   10  C   UNL     1      -9.305  15.638  65.922  1.00  0.00    -0.321 C  
HETATM   11  C   UNL     1     -11.271  16.197  64.599  1.00  0.00    -0.298 C  
ENDBRANCH   7   9
ENDBRANCH   6   7
ENDBRANCH   4   6
ENDBRANCH   2   4
TORSDOF 4
ENDMDL
MODEL       44
REMARK 921   NORMALIZED FREE ENERGY PREDICTED BY IDOCK:   -2.92 KCAL/MOL
REMARK 922        TOTAL FREE ENERGY PREDICTED BY IDOCK:   -3.82 KCAL/MOL
REMARK 923 INTER-LIGAND FREE ENERGY PREDICTED BY IDOCK:   -3.55 KCAL/MOL
REMARK 924 INTRA-LIGAND FREE ENERGY PREDICTED BY IDOCK:   -0.27 KCAL/MOL
REMARK 927      BINDING AFFINITY PREDICTED BY RF-SCORE:    0.00 PKD
ROOT
HETATM    1  C   UNL     1      -8.812  16.083  69.036  1.00  0.00    -0.244 C  
HETATM    2  N   UNL     1     -10.262  16.191  68.869  1.00  0.00    -0.231 N  
HETATM    3  C   UNL     1     -10.729  17.256  67.983  1.00  0.00    -0.367 C  
ENDROOT
BRANCH   2   4
HETATM    4  C   UNL     1     -11.135  15.394  69.638  1.00  0.00    -0.276 C  
HETATM    5  S   UNL     1     -11.512  15.673  71.262  1.00  0.00    -0.427 S  
BRANCH   4   6
HETATM    6  S   UNL     1     -12.031  14.154  68.767  1.00  0.00    -0.301 SA 
BRANCH   6   7
HETATM    7  C   UNL     1     -10.919  13.583  67.507  1.00  0.00    -0.268 C  
HETATM    8  S   UNL     1      -9.558  12.641  67.841  1.00  0.00    -0.216 S  
BRANCH   7   9
HETATM    9  N   UNL     1     -11.258  14.014  66.198  1.00  0.00    -0.313 N  
HETATM   10  C   UNL     1     -10.343  14.678  65.260  1.00  0.00    -0.399 C  
HETATM   11  C   UNL     1     -12.598  13.834  65.625  1.00  0.00    -0.509 C  
ENDBRANCH   7   9
ENDBRANCH   6   7
ENDBRANCH   4   6
ENDBRANCH   2   4
TORSDOF 4
ENDMDL
MODEL       45
REMARK 921   NORMALIZED FREE ENERGY PREDICTED BY IDOCK:   -2.92 KCAL/MOL
REMARK 922        TOTAL FREE ENERGY PREDICTED BY IDOCK:   -3.82 KCAL/MOL
REMARK 923 INTER-LIGAND FREE ENERGY PREDICTED BY IDOCK:   -3.58 KCAL/MOL
REMARK 924 INTRA-LIGAND FREE ENERGY PREDICTED BY IDOCK:   -0.24 KCAL/MOL
REMARK 927      BINDING AFFINITY PREDICTED BY RF-SCORE:    0.00 PKD
ROOT
HETATM    1  C   UNL     1     -11.443  10.558  68.994  1.00  0.00    -0.237 C  
HETATM    2  N   UNL     1     -11.817  11.705  69.823  1.00  0.00    -0.334 N  
HETATM    3  C   UNL     1     -12.555  11.399  71.047  1.00  0.00    -0.386 C  
ENDROOT
BRANCH   2   4
HETATM    4  C   UNL     1     -11.590  13.022  69.372  1.00  0.00    -0.299 C  
HETATM    5  S   UNL     1     -12.363  14.395  69.986  1.00  0.00    -0.310 S  
BRANCH   4   6
HETATM    6  S   UNL     1     -10.264  13.240  68.234  1.00  0.00    -0.251 SA 
BRANCH   6   7
HETATM    7  C   UNL     1     -11.042  13.679  66.700  1.00  0.00    -0.306 C  
HETATM    8  S   UNL     1     -11.982  12.600  65.804  1.00  0.00    -0.424 S  
BRANCH   7   9
HETATM    9  N   UNL     1     -10.781  15.010  66.280  1.00  0.00    -0.315 N  
HETATM   10  C   UNL     1     -10.981  15.524  64.918  1.00  0.00    -0.436 C  
HETATM   11  C   UNL     1     -10.271  16.044  67.189  1.00  0.00    -0.278 C  
ENDBRANCH   7   9
ENDBRANCH   6   7
ENDBRANCH   4   6
ENDBRANCH   2   4
TORSDOF 4
ENDMDL
MODEL       46
REMARK 921   NORMALIZED FREE ENERGY PREDICTED BY IDOCK:   -2.91 KCAL/MOL
REMARK 922        TOTAL FREE ENERGY PREDICTED BY IDOCK:   -3.81 KCAL/MOL
REMARK 923 INTER-LIGAND FREE ENERGY PREDICTED BY IDOCK:   -3.78 KCAL/MOL
REMARK 924 INTRA-LIGAND FREE ENERGY PREDICTED BY IDOCK:   -0.03 KCAL/MOL
REMARK 927      BINDING AFFINITY PREDICTED BY RF-SCORE:    0.00 PKD
ROOT
HETATM    1  C   UNL     1     -10.084  11.671  63.454  1.00  0.00    -0.440 C  
HETATM    2  N   UNL     1     -11.287  12.386  63.883  1.00  0.00    -0.394 N  
HETATM    3  C   UNL     1     -12.557  11.868  63.378  1.00  0.00    -0.431 C  
ENDROOT
BRANCH   2   4
HETATM    4  C   UNL     1     -11.186  13.582  64.624  1.00  0.00    -0.363 C  
HETATM    5  S   UNL     1     -12.165  14.941  64.394  1.00  0.00    -0.229 S  
BRANCH   4   6
HETATM    6  S   UNL     1     -10.095  13.553  66.006  1.00  0.00    -0.308 SA 
BRANCH   6   7
HETATM    7  C   UNL     1     -10.306  15.132  66.791  1.00  0.00    -0.273 C  
HETATM    8  S   UNL     1      -9.520  16.531  66.267  1.00  0.00    -0.317 S  
BRANCH   7   9
HETATM    9  N   UNL     1     -11.172  15.107  67.915  1.00  0.00    -0.318 N  
HETATM   10  C   UNL     1     -11.346  16.204  68.876  1.00  0.00    -0.350 C  
HETATM   11  C   UNL     1     -12.013  13.949  68.245  1.00  0.00    -0.357 C  
ENDBRANCH   7   9
ENDBRANCH   6   7
ENDBRANCH   4   6
ENDBRANCH   2   4
TORSDOF 4
ENDMDL
MODEL       47
REMARK 921   NORMALIZED FREE ENERGY PREDICTED BY IDOCK:   -2.90 KCAL/MOL
REMARK 922        TOTAL FREE ENERGY PREDICTED BY IDOCK:   -3.79 KCAL/MOL
REMARK 923 INTER-LIGAND FREE ENERGY PREDICTED BY IDOCK:   -3.54 KCAL/MOL
REMARK 924 INTRA-LIGAND FREE ENERGY PREDICTED BY IDOCK:   -0.25 KCAL/MOL
REMARK 927      BINDING AFFINITY PREDICTED BY RF-SCORE:    0.00 PKD
ROOT
HETATM    1  C   UNL     1      -8.593   8.543  68.463  1.00  0.00    -0.138 C  
HETATM    2  N   UNL     1      -9.966   8.035  68.488  1.00  0.00    -0.186 N  
HETATM    3  C   UNL     1     -10.601   7.834  67.187  1.00  0.00    -0.331 C  
ENDROOT
BRANCH   2   4
HETATM    4  C   UNL     1     -10.656   7.891  69.710  1.00  0.00    -0.242 C  
HETATM    5  S   UNL     1     -11.489   6.499  70.186  1.00  0.00    -0.389 S  
BRANCH   4   6
HETATM    6  S   UNL     1     -10.449   9.190  70.881  1.00  0.00    -0.305 SA 
BRANCH   6   7
HETATM    7  C   UNL     1     -11.720  10.367  70.491  1.00  0.00    -0.344 C  
HETATM    8  S   UNL     1     -11.729  11.271  69.065  1.00  0.00    -0.362 S  
BRANCH   7   9
HETATM    9  N   UNL     1     -12.712  10.500  71.496  1.00  0.00    -0.423 N  
HETATM   10  C   UNL     1     -13.291   9.392  72.268  1.00  0.00    -0.461 C  
HETATM   11  C   UNL     1     -13.280  11.797  71.885  1.00  0.00    -0.362 C  
ENDBRANCH   7   9
ENDBRANCH   6   7
ENDBRANCH   4   6
ENDBRANCH   2   4
TORSDOF 4
ENDMDL
MODEL       48
REMARK 921   NORMALIZED FREE ENERGY PREDICTED BY IDOCK:   -2.89 KCAL/MOL
REMARK 922        TOTAL FREE ENERGY PREDICTED BY IDOCK:   -3.79 KCAL/MOL
REMARK 923 INTER-LIGAND FREE ENERGY PREDICTED BY IDOCK:   -3.63 KCAL/MOL
REMARK 924 INTRA-LIGAND FREE ENERGY PREDICTED BY IDOCK:   -0.16 KCAL/MOL
REMARK 927      BINDING AFFINITY PREDICTED BY RF-SCORE:    0.00 PKD
ROOT
HETATM    1  C   UNL     1     -10.391   8.577  68.840  1.00  0.00    -0.210 C  
HETATM    2  N   UNL     1     -10.810   7.367  69.548  1.00  0.00    -0.222 N  
HETATM    3  C   UNL     1     -11.151   6.218  68.711  1.00  0.00    -0.346 C  
ENDROOT
BRANCH   2   4
HETATM    4  C   UNL     1     -10.999   7.381  70.946  1.00  0.00    -0.253 C  
HETATM    5  S   UNL     1     -11.097   6.001  71.917  1.00  0.00    -0.279 S  
BRANCH   4   6
HETATM    6  S   UNL     1     -10.922   8.957  71.727  1.00  0.00    -0.370 SA 
BRANCH   6   7
HETATM    7  C   UNL     1     -12.566   9.615  71.598  1.00  0.00    -0.402 C  
HETATM    8  S   UNL     1     -13.951   8.683  71.851  1.00  0.00    -0.447 S  
BRANCH   7   9
HETATM    9  N   UNL     1     -12.613  10.986  71.235  1.00  0.00    -0.406 N  
HETATM   10  C   UNL     1     -11.942  11.578  70.069  1.00  0.00    -0.357 C  
HETATM   11  C   UNL     1     -13.360  11.987  72.006  1.00  0.00    -0.341 C  
ENDBRANCH   7   9
ENDBRANCH   6   7
ENDBRANCH   4   6
ENDBRANCH   2   4
TORSDOF 4
ENDMDL
MODEL       49
REMARK 921   NORMALIZED FREE ENERGY PREDICTED BY IDOCK:   -2.89 KCAL/MOL
REMARK 922        TOTAL FREE ENERGY PREDICTED BY IDOCK:   -3.79 KCAL/MOL
REMARK 923 INTER-LIGAND FREE ENERGY PREDICTED BY IDOCK:   -3.63 KCAL/MOL
REMARK 924 INTRA-LIGAND FREE ENERGY PREDICTED BY IDOCK:   -0.16 KCAL/MOL
REMARK 927      BINDING AFFINITY PREDICTED BY RF-SCORE:    0.00 PKD
ROOT
HETATM    1  C   UNL     1      -9.366  15.335  67.297  1.00  0.00    -0.205 C  
HETATM    2  N   UNL     1      -9.712  13.990  67.760  1.00  0.00    -0.223 N  
HETATM    3  C   UNL     1      -8.590  13.089  68.016  1.00  0.00    -0.186 C  
ENDROOT
BRANCH   2   4
HETATM    4  C   UNL     1     -11.059  13.572  67.810  1.00  0.00    -0.268 C  
HETATM    5  S   UNL     1     -12.179  13.786  66.563  1.00  0.00    -0.400 S  
BRANCH   4   6
HETATM    6  S   UNL     1     -11.519  12.588  69.196  1.00  0.00    -0.307 SA 
BRANCH   6   7
HETATM    7  C   UNL     1     -12.212  13.732  70.362  1.00  0.00    -0.363 C  
HETATM    8  S   UNL     1     -11.936  15.396  70.292  1.00  0.00    -0.383 S  
BRANCH   7   9
HETATM    9  N   UNL     1     -12.995  13.120  71.376  1.00  0.00    -0.339 N  
HETATM   10  C   UNL     1     -13.945  13.820  72.251  1.00  0.00    -0.573 C  
HETATM   11  C   UNL     1     -12.939  11.682  71.664  1.00  0.00    -0.378 C  
ENDBRANCH   7   9
ENDBRANCH   6   7
ENDBRANCH   4   6
ENDBRANCH   2   4
TORSDOF 4
ENDMDL
MODEL       50
REMARK 921   NORMALIZED FREE ENERGY PREDICTED BY IDOCK:   -2.89 KCAL/MOL
REMARK 922        TOTAL FREE ENERGY PREDICTED BY IDOCK:   -3.78 KCAL/MOL
REMARK 923 INTER-LIGAND FREE ENERGY PREDICTED BY IDOCK:   -3.61 KCAL/MOL
REMARK 924 INTRA-LIGAND FREE ENERGY PREDICTED BY IDOCK:   -0.17 KCAL/MOL
REMARK 927      BINDING AFFINITY PREDICTED BY RF-SCORE:    0.00 PKD
ROOT
HETATM    1  C   UNL     1     -12.535  12.047  70.922  1.00  0.00    -0.288 C  
HETATM    2  N   UNL     1     -11.669  11.332  69.983  1.00  0.00    -0.323 N  
HETATM    3  C   UNL     1     -10.961  10.171  70.518  1.00  0.00    -0.310 C  
ENDROOT
BRANCH   2   4
HETATM    4  C   UNL     1     -11.442  11.840  68.687  1.00  0.00    -0.288 C  
HETATM    5  S   UNL     1     -11.013  10.901  67.348  1.00  0.00    -0.287 S  
BRANCH   4   6
HETATM    6  S   UNL     1     -11.837  13.537  68.433  1.00  0.00    -0.361 SA 
BRANCH   6   7
HETATM    7  C   UNL     1     -10.768  14.066  67.119  1.00  0.00    -0.283 C  
HETATM    8  S   UNL     1      -9.102  14.263  67.311  1.00  0.00    -0.226 S  
BRANCH   7   9
HETATM    9  N   UNL     1     -11.442  14.336  65.899  1.00  0.00    -0.329 N  
HETATM   10  C   UNL     1     -12.736  13.765  65.501  1.00  0.00    -0.488 C  
HETATM   11  C   UNL     1     -10.903  15.242  64.877  1.00  0.00    -0.425 C  
ENDBRANCH   7   9
ENDBRANCH   6   7
ENDBRANCH   4   6
ENDBRANCH   2   4
TORSDOF 4
ENDMDL
MODEL       51
REMARK 921   NORMALIZED FREE ENERGY PREDICTED BY IDOCK:   -2.89 KCAL/MOL
REMARK 922        TOTAL FREE ENERGY PREDICTED BY IDOCK:   -3.78 KCAL/MOL
REMARK 923 INTER-LIGAND FREE ENERGY PREDICTED BY IDOCK:   -3.63 KCAL/MOL
REMARK 924 INTRA-LIGAND FREE ENERGY PREDICTED BY IDOCK:   -0.15 KCAL/MOL
REMARK 927      BINDING AFFINITY PREDICTED BY RF-SCORE:    0.00 PKD
ROOT
HETATM    1  C   UNL     1     -11.782  15.026  68.699  1.00  0.00    -0.337 C  
HETATM    2  N   UNL     1     -11.159  13.790  68.222  1.00  0.00    -0.245 N  
HETATM    3  C   UNL     1     -11.844  12.548  68.572  1.00  0.00    -0.295 C  
ENDROOT
BRANCH   2   4
HETATM    4  C   UNL     1      -9.899  13.819  67.589  1.00  0.00    -0.234 C  
HETATM    5  S   UNL     1      -8.570  14.714  68.130  1.00  0.00    -0.174 S  
BRANCH   4   6
HETATM    6  S   UNL     1      -9.665  12.683  66.264  1.00  0.00    -0.246 SA 
BRANCH   6   7
HETATM    7  C   UNL     1     -10.633  13.332  64.926  1.00  0.00    -0.366 C  
HETATM    8  S   UNL     1     -11.151  14.938  64.860  1.00  0.00    -0.405 S  
BRANCH   7   9
HETATM    9  N   UNL     1     -10.958  12.375  63.930  1.00  0.00    -0.378 N  
HETATM   10  C   UNL     1     -12.302  12.144  63.381  1.00  0.00    -0.538 C  
HETATM   11  C   UNL     1      -9.957  11.489  63.322  1.00  0.00    -0.409 C  
ENDBRANCH   7   9
ENDBRANCH   6   7
ENDBRANCH   4   6
ENDBRANCH   2   4
TORSDOF 4
ENDMDL
MODEL       52
REMARK 921   NORMALIZED FREE ENERGY PREDICTED BY IDOCK:   -2.89 KCAL/MOL
REMARK 922        TOTAL FREE ENERGY PREDICTED BY IDOCK:   -3.78 KCAL/MOL
REMARK 923 INTER-LIGAND FREE ENERGY PREDICTED BY IDOCK:   -3.64 KCAL/MOL
REMARK 924 INTRA-LIGAND FREE ENERGY PREDICTED BY IDOCK:   -0.14 KCAL/MOL
REMARK 927      BINDING AFFINITY PREDICTED BY RF-SCORE:    0.00 PKD
ROOT
HETATM    1  C   UNL     1     -12.399  12.153  63.558  1.00  0.00    -0.574 C  
HETATM    2  N   UNL     1     -10.992  12.404  63.872  1.00  0.00    -0.378 N  
HETATM    3  C   UNL     1     -10.020  11.533  63.214  1.00  0.00    -0.409 C  
ENDROOT
BRANCH   2   4
HETATM    4  C   UNL     1     -10.633  13.344  64.862  1.00  0.00    -0.385 C  
HETATM    5  S   UNL     1     -11.146  14.954  64.890  1.00  0.00    -0.405 S  
BRANCH   4   6
HETATM    6  S   UNL     1      -9.758  12.714  66.255  1.00  0.00    -0.246 SA 
BRANCH   6   7
HETATM    7  C   UNL     1     -10.356  13.654  67.636  1.00  0.00    -0.239 C  
HETATM    8  S   UNL     1     -11.878  13.407  68.327  1.00  0.00    -0.337 S  
BRANCH   7   9
HETATM    9  N   UNL     1      -9.454  14.650  68.091  1.00  0.00    -0.206 N  
HETATM   10  C   UNL     1      -9.584  15.402  69.347  1.00  0.00    -0.270 C  
HETATM   11  C   UNL     1      -8.260  15.046  67.335  1.00  0.00    -0.194 C  
ENDBRANCH   7   9
ENDBRANCH   6   7
ENDBRANCH   4   6
ENDBRANCH   2   4
TORSDOF 4
ENDMDL
MODEL       53
REMARK 921   NORMALIZED FREE ENERGY PREDICTED BY IDOCK:   -2.88 KCAL/MOL
REMARK 922        TOTAL FREE ENERGY PREDICTED BY IDOCK:   -3.77 KCAL/MOL
REMARK 923 INTER-LIGAND FREE ENERGY PREDICTED BY IDOCK:   -3.57 KCAL/MOL
REMARK 924 INTRA-LIGAND FREE ENERGY PREDICTED BY IDOCK:   -0.20 KCAL/MOL
REMARK 927      BINDING AFFINITY PREDICTED BY RF-SCORE:    0.00 PKD
ROOT
HETATM    1  C   UNL     1     -11.946  14.322  67.052  1.00  0.00    -0.433 C  
HETATM    2  N   UNL     1     -10.773  14.965  66.460  1.00  0.00    -0.303 N  
HETATM    3  C   UNL     1     -10.460  14.588  65.083  1.00  0.00    -0.416 C  
ENDROOT
BRANCH   2   4
HETATM    4  C   UNL     1      -9.933  15.787  67.240  1.00  0.00    -0.238 C  
HETATM    5  S   UNL     1      -9.902  15.800  68.930  1.00  0.00    -0.239 S  
BRANCH   4   6
HETATM    6  S   UNL     1      -8.706  16.701  66.368  1.00  0.00    -0.324 SA 
BRANCH   6   7
HETATM    7  C   UNL     1      -9.078  18.404  66.703  1.00  0.00    -0.297 C  
HETATM    8  S   UNL     1     -10.524  19.139  66.233  1.00  0.00    -0.460 S  
BRANCH   7   9
HETATM    9  N   UNL     1      -8.040  19.100  67.376  1.00  0.00    -0.268 N  
HETATM   10  C   UNL     1      -7.755  20.535  67.239  1.00  0.00    -0.332 C  
HETATM   11  C   UNL     1      -7.117  18.442  68.309  1.00  0.00    -0.259 C  
ENDBRANCH   7   9
ENDBRANCH   6   7
ENDBRANCH   4   6
ENDBRANCH   2   4
TORSDOF 4
ENDMDL
MODEL       54
REMARK 921   NORMALIZED FREE ENERGY PREDICTED BY IDOCK:   -2.88 KCAL/MOL
REMARK 922        TOTAL FREE ENERGY PREDICTED BY IDOCK:   -3.77 KCAL/MOL
REMARK 923 INTER-LIGAND FREE ENERGY PREDICTED BY IDOCK:   -3.51 KCAL/MOL
REMARK 924 INTRA-LIGAND FREE ENERGY PREDICTED BY IDOCK:   -0.26 KCAL/MOL
REMARK 927      BINDING AFFINITY PREDICTED BY RF-SCORE:    0.00 PKD
ROOT
HETATM    1  C   UNL     1     -12.851  10.566  71.582  1.00  0.00    -0.475 C  
HETATM    2  N   UNL     1     -12.576   9.131  71.669  1.00  0.00    -0.338 N  
HETATM    3  C   UNL     1     -13.743   8.251  71.671  1.00  0.00    -0.361 C  
ENDROOT
BRANCH   2   4
HETATM    4  C   UNL     1     -11.262   8.663  71.880  1.00  0.00    -0.343 C  
HETATM    5  S   UNL     1     -10.816   7.553  73.075  1.00  0.00    -0.384 S  
BRANCH   4   6
HETATM    6  S   UNL     1     -10.065   9.129  70.675  1.00  0.00    -0.269 SA 
BRANCH   6   7
HETATM    7  C   UNL     1     -10.508   8.224  69.214  1.00  0.00    -0.210 C  
HETATM    8  S   UNL     1     -10.756   6.554  69.207  1.00  0.00    -0.311 S  
BRANCH   7   9
HETATM    9  N   UNL     1     -10.608   9.025  68.046  1.00  0.00    -0.216 N  
HETATM   10  C   UNL     1     -11.122  10.401  68.003  1.00  0.00    -0.298 C  
HETATM   11  C   UNL     1     -10.193   8.551  66.720  1.00  0.00    -0.300 C  
ENDBRANCH   7   9
ENDBRANCH   6   7
ENDBRANCH   4   6
ENDBRANCH   2   4
TORSDOF 4
ENDMDL
MODEL       55
REMARK 921   NORMALIZED FREE ENERGY PREDICTED BY IDOCK:   -2.88 KCAL/MOL
REMARK 922        TOTAL FREE ENERGY PREDICTED BY IDOCK:   -3.77 KCAL/MOL
REMARK 923 INTER-LIGAND FREE ENERGY PREDICTED BY IDOCK:   -3.57 KCAL/MOL
REMARK 924 INTRA-LIGAND FREE ENERGY PREDICTED BY IDOCK:   -0.20 KCAL/MOL
REMARK 927      BINDING AFFINITY PREDICTED BY RF-SCORE:    0.00 PKD
ROOT
HETATM    1  C   UNL     1     -10.067   8.333  66.686  1.00  0.00    -0.281 C  
HETATM    2  N   UNL     1     -10.564   8.973  67.905  1.00  0.00    -0.224 N  
HETATM    3  C   UNL     1     -10.955  10.376  67.781  1.00  0.00    -0.309 C  
ENDROOT
BRANCH   2   4
HETATM    4  C   UNL     1     -10.523   8.294  69.141  1.00  0.00    -0.206 C  
HETATM    5  S   UNL     1     -10.765   6.632  69.333  1.00  0.00    -0.285 S  
BRANCH   4   6
HETATM    6  S   UNL     1      -9.983   9.233  70.530  1.00  0.00    -0.268 SA 
BRANCH   6   7
HETATM    7  C   UNL     1     -11.121   8.825  71.830  1.00  0.00    -0.347 C  
HETATM    8  S   UNL     1     -10.777   7.688  73.030  1.00  0.00    -0.383 S  
BRANCH   7   9
HETATM    9  N   UNL     1     -12.357   9.520  71.755  1.00  0.00    -0.382 N  
HETATM   10  C   UNL     1     -12.536  10.875  71.216  1.00  0.00    -0.421 C  
HETATM   11  C   UNL     1     -13.623   8.940  72.219  1.00  0.00    -0.462 C  
ENDBRANCH   7   9
ENDBRANCH   6   7
ENDBRANCH   4   6
ENDBRANCH   2   4
TORSDOF 4
ENDMDL
MODEL       56
REMARK 921   NORMALIZED FREE ENERGY PREDICTED BY IDOCK:   -2.87 KCAL/MOL
REMARK 922        TOTAL FREE ENERGY PREDICTED BY IDOCK:   -3.75 KCAL/MOL
REMARK 923 INTER-LIGAND FREE ENERGY PREDICTED BY IDOCK:   -3.43 KCAL/MOL
REMARK 924 INTRA-LIGAND FREE ENERGY PREDICTED BY IDOCK:   -0.32 KCAL/MOL
REMARK 927      BINDING AFFINITY PREDICTED BY RF-SCORE:    0.00 PKD
ROOT
HETATM    1  C   UNL     1      -6.543  17.171  68.964  1.00  0.00    -0.218 C  
HETATM    2  N   UNL     1      -6.882  18.411  68.264  1.00  0.00    -0.231 N  
HETATM    3  C   UNL     1      -6.851  19.632  69.068  1.00  0.00    -0.343 C  
ENDROOT
BRANCH   2   4
HETATM    4  C   UNL     1      -7.344  18.381  66.932  1.00  0.00    -0.208 C  
HETATM    5  S   UNL     1      -6.761  19.368  65.689  1.00  0.00    -0.283 S  
BRANCH   4   6
HETATM    6  S   UNL     1      -8.460  17.081  66.522  1.00  0.00    -0.288 SA 
BRANCH   6   7
HETATM    7  C   UNL     1      -9.975  17.500  67.345  1.00  0.00    -0.315 C  
HETATM    8  S   UNL     1     -10.909  16.369  68.182  1.00  0.00    -0.338 S  
BRANCH   7   9
HETATM    9  N   UNL     1     -10.347  18.863  67.213  1.00  0.00    -0.393 N  
HETATM   10  C   UNL     1     -10.407  19.836  68.313  1.00  0.00    -0.410 C  
HETATM   11  C   UNL     1     -10.719  19.465  65.927  1.00  0.00    -0.407 C  
ENDBRANCH   7   9
ENDBRANCH   6   7
ENDBRANCH   4   6
ENDBRANCH   2   4
TORSDOF 4
ENDMDL
MODEL       57
REMARK 921   NORMALIZED FREE ENERGY PREDICTED BY IDOCK:   -2.87 KCAL/MOL
REMARK 922        TOTAL FREE ENERGY PREDICTED BY IDOCK:   -3.75 KCAL/MOL
REMARK 923 INTER-LIGAND FREE ENERGY PREDICTED BY IDOCK:   -3.67 KCAL/MOL
REMARK 924 INTRA-LIGAND FREE ENERGY PREDICTED BY IDOCK:   -0.09 KCAL/MOL
REMARK 927      BINDING AFFINITY PREDICTED BY RF-SCORE:    0.00 PKD
ROOT
HETATM    1  C   UNL     1     -10.836  16.444  69.550  1.00  0.00    -0.338 C  
HETATM    2  N   UNL     1     -10.637  16.289  68.108  1.00  0.00    -0.294 N  
HETATM    3  C   UNL     1     -10.505  17.527  67.341  1.00  0.00    -0.342 C  
ENDROOT
BRANCH   2   4
HETATM    4  C   UNL     1     -10.712  15.016  67.504  1.00  0.00    -0.284 C  
HETATM    5  S   UNL     1     -11.761  13.783  67.989  1.00  0.00    -0.370 S  
BRANCH   4   6
HETATM    6  S   UNL     1      -9.783  14.799  66.024  1.00  0.00    -0.312 SA 
BRANCH   6   7
HETATM    7  C   UNL     1     -10.787  13.750  65.002  1.00  0.00    -0.371 C  
HETATM    8  S   UNL     1     -12.261  14.246  64.344  1.00  0.00    -0.390 S  
BRANCH   7   9
HETATM    9  N   UNL     1     -10.254  12.448  64.812  1.00  0.00    -0.288 N  
HETATM   10  C   UNL     1      -9.642  11.621  65.860  1.00  0.00    -0.229 C  
HETATM   11  C   UNL     1     -10.262  11.770  63.510  1.00  0.00    -0.450 C  
ENDBRANCH   7   9
ENDBRANCH   6   7
ENDBRANCH   4   6
ENDBRANCH   2   4
TORSDOF 4
ENDMDL
MODEL       58
REMARK 921   NORMALIZED FREE ENERGY PREDICTED BY IDOCK:   -2.86 KCAL/MOL
REMARK 922        TOTAL FREE ENERGY PREDICTED BY IDOCK:   -3.75 KCAL/MOL
REMARK 923 INTER-LIGAND FREE ENERGY PREDICTED BY IDOCK:   -3.59 KCAL/MOL
REMARK 924 INTRA-LIGAND FREE ENERGY PREDICTED BY IDOCK:   -0.16 KCAL/MOL
REMARK 927      BINDING AFFINITY PREDICTED BY RF-SCORE:    0.00 PKD
ROOT
HETATM    1  C   UNL     1     -11.651  12.403  67.059  1.00  0.00    -0.365 C  
HETATM    2  N   UNL     1     -11.498  12.887  68.432  1.00  0.00    -0.289 N  
HETATM    3  C   UNL     1     -11.793  11.923  69.490  1.00  0.00    -0.331 C  
ENDROOT
BRANCH   2   4
HETATM    4  C   UNL     1     -11.220  14.247  68.687  1.00  0.00    -0.264 C  
HETATM    5  S   UNL     1     -12.085  15.219  69.767  1.00  0.00    -0.310 S  
BRANCH   4   6
HETATM    6  S   UNL     1      -9.745  14.889  67.972  1.00  0.00    -0.215 SA 
BRANCH   6   7
HETATM    7  C   UNL     1     -10.296  15.984  66.688  1.00  0.00    -0.298 C  
HETATM    8  S   UNL     1     -10.845  15.438  65.187  1.00  0.00    -0.444 S  
BRANCH   7   9
HETATM    9  N   UNL     1     -10.208  17.360  67.025  1.00  0.00    -0.314 N  
HETATM   10  C   UNL     1     -10.483  18.476  66.109  1.00  0.00    -0.413 C  
HETATM   11  C   UNL     1      -9.825  17.827  68.362  1.00  0.00    -0.347 C  
ENDBRANCH   7   9
ENDBRANCH   6   7
ENDBRANCH   4   6
ENDBRANCH   2   4
TORSDOF 4
ENDMDL
MODEL       59
REMARK 921   NORMALIZED FREE ENERGY PREDICTED BY IDOCK:   -2.86 KCAL/MOL
REMARK 922        TOTAL FREE ENERGY PREDICTED BY IDOCK:   -3.75 KCAL/MOL
REMARK 923 INTER-LIGAND FREE ENERGY PREDICTED BY IDOCK:   -3.44 KCAL/MOL
REMARK 924 INTRA-LIGAND FREE ENERGY PREDICTED BY IDOCK:   -0.32 KCAL/MOL
REMARK 927      BINDING AFFINITY PREDICTED BY RF-SCORE:    0.00 PKD
ROOT
HETATM    1  C   UNL     1     -10.014  10.914  65.960  1.00  0.00    -0.240 C  
HETATM    2  N   UNL     1     -10.715  11.830  65.059  1.00  0.00    -0.283 N  
HETATM    3  C   UNL     1     -10.515  11.604  63.629  1.00  0.00    -0.429 C  
ENDROOT
BRANCH   2   4
HETATM    4  C   UNL     1     -11.420  12.940  65.570  1.00  0.00    -0.326 C  
HETATM    5  S   UNL     1     -12.265  14.060  64.626  1.00  0.00    -0.421 S  
BRANCH   4   6
HETATM    6  S   UNL     1     -11.581  13.023  67.322  1.00  0.00    -0.372 SA 
BRANCH   6   7
HETATM    7  C   UNL     1     -10.749  14.520  67.788  1.00  0.00    -0.256 C  
HETATM    8  S   UNL     1     -11.495  15.748  68.676  1.00  0.00    -0.384 S  
BRANCH   7   9
HETATM    9  N   UNL     1      -9.411  14.607  67.324  1.00  0.00    -0.214 N  
HETATM   10  C   UNL     1      -8.910  15.596  66.360  1.00  0.00    -0.330 C  
HETATM   11  C   UNL     1      -8.354  13.692  67.773  1.00  0.00    -0.181 C  
ENDBRANCH   7   9
ENDBRANCH   6   7
ENDBRANCH   4   6
ENDBRANCH   2   4
TORSDOF 4
ENDMDL
MODEL       60
REMARK 921   NORMALIZED FREE ENERGY PREDICTED BY IDOCK:   -2.85 KCAL/MOL
REMARK 922        TOTAL FREE ENERGY PREDICTED BY IDOCK:   -3.74 KCAL/MOL
REMARK 923 INTER-LIGAND FREE ENERGY PREDICTED BY IDOCK:   -3.53 KCAL/MOL
REMARK 924 INTRA-LIGAND FREE ENERGY PREDICTED BY IDOCK:   -0.21 KCAL/MOL
REMARK 927      BINDING AFFINITY PREDICTED BY RF-SCORE:    0.00 PKD
ROOT
HETATM    1  C   UNL     1      -9.923  19.459  68.774  1.00  0.00    -0.444 C  
HETATM    2  N   UNL     1     -10.157  18.859  67.460  1.00  0.00    -0.344 N  
HETATM    3  C   UNL     1     -10.161  19.780  66.324  1.00  0.00    -0.509 C  
ENDROOT
BRANCH   2   4
HETATM    4  C   UNL     1     -10.494  17.494  67.342  1.00  0.00    -0.342 C  
HETATM    5  S   UNL     1     -10.263  16.563  65.950  1.00  0.00    -0.327 S  
BRANCH   4   6
HETATM    6  S   UNL     1     -11.000  16.686  68.822  1.00  0.00    -0.271 SA 
BRANCH   6   7
HETATM    7  C   UNL     1      -9.957  15.254  68.943  1.00  0.00    -0.225 C  
HETATM    8  S   UNL     1      -8.284  15.351  69.154  1.00  0.00    -0.256 S  
BRANCH   7   9
HETATM    9  N   UNL     1     -10.650  14.022  68.818  1.00  0.00    -0.251 N  
HETATM   10  C   UNL     1     -11.788  13.601  69.648  1.00  0.00    -0.335 C  
HETATM   11  C   UNL     1     -10.296  13.009  67.816  1.00  0.00    -0.226 C  
ENDBRANCH   7   9
ENDBRANCH   6   7
ENDBRANCH   4   6
ENDBRANCH   2   4
TORSDOF 4
ENDMDL
MODEL       61
REMARK 921   NORMALIZED FREE ENERGY PREDICTED BY IDOCK:   -2.85 KCAL/MOL
REMARK 922        TOTAL FREE ENERGY PREDICTED BY IDOCK:   -3.73 KCAL/MOL
REMARK 923 INTER-LIGAND FREE ENERGY PREDICTED BY IDOCK:   -3.51 KCAL/MOL
REMARK 924 INTRA-LIGAND FREE ENERGY PREDICTED BY IDOCK:   -0.23 KCAL/MOL
REMARK 927      BINDING AFFINITY PREDICTED BY RF-SCORE:    0.00 PKD
ROOT
HETATM    1  C   UNL     1     -11.640  15.177  71.879  1.00  0.00    -0.413 C  
HETATM    2  N   UNL     1     -12.518  14.103  71.411  1.00  0.00    -0.350 N  
HETATM    3  C   UNL     1     -13.703  13.840  72.226  1.00  0.00    -0.575 C  
ENDROOT
BRANCH   2   4
HETATM    4  C   UNL     1     -12.145  13.296  70.316  1.00  0.00    -0.335 C  
HETATM    5  S   UNL     1     -12.039  11.610  70.356  1.00  0.00    -0.330 S  
BRANCH   4   6
HETATM    6  S   UNL     1     -11.982  14.113  68.764  1.00  0.00    -0.301 SA 
BRANCH   6   7
HETATM    7  C   UNL     1     -10.238  14.128  68.435  1.00  0.00    -0.247 C  
HETATM    8  S   UNL     1      -9.420  12.819  67.750  1.00  0.00    -0.212 S  
BRANCH   7   9
HETATM    9  N   UNL     1      -9.586  15.327  68.826  1.00  0.00    -0.205 N  
HETATM   10  C   UNL     1      -8.208  15.419  69.326  1.00  0.00    -0.252 C  
HETATM   11  C   UNL     1     -10.238  16.641  68.767  1.00  0.00    -0.288 C  
ENDBRANCH   7   9
ENDBRANCH   6   7
ENDBRANCH   4   6
ENDBRANCH   2   4
TORSDOF 4
ENDMDL
MODEL       62
REMARK 921   NORMALIZED FREE ENERGY PREDICTED BY IDOCK:   -2.85 KCAL/MOL
REMARK 922        TOTAL FREE ENERGY PREDICTED BY IDOCK:   -3.73 KCAL/MOL
REMARK 923 INTER-LIGAND FREE ENERGY PREDICTED BY IDOCK:   -3.55 KCAL/MOL
REMARK 924 INTRA-LIGAND FREE ENERGY PREDICTED BY IDOCK:   -0.18 KCAL/MOL
REMARK 927      BINDING AFFINITY PREDICTED BY RF-SCORE:    0.00 PKD
ROOT
HETATM    1  C   UNL     1     -11.280   6.144  69.368  1.00  0.00    -0.396 C  
HETATM    2  N   UNL     1     -10.517   7.301  68.896  1.00  0.00    -0.205 N  
HETATM    3  C   UNL     1     -10.514   7.523  67.452  1.00  0.00    -0.297 C  
ENDROOT
BRANCH   2   4
HETATM    4  C   UNL     1      -9.728   8.054  69.790  1.00  0.00    -0.176 C  
HETATM    5  S   UNL     1      -8.086   7.783  70.086  1.00  0.00    -0.119 S  
BRANCH   4   6
HETATM    6  S   UNL     1     -10.481   9.490  70.476  1.00  0.00    -0.316 SA 
BRANCH   6   7
HETATM    7  C   UNL     1     -11.484   8.889  71.812  1.00  0.00    -0.353 C  
HETATM    8  S   UNL     1     -10.967   7.690  72.882  1.00  0.00    -0.392 S  
BRANCH   7   9
HETATM    9  N   UNL     1     -12.770   9.486  71.883  1.00  0.00    -0.392 N  
HETATM   10  C   UNL     1     -13.042  10.927  71.795  1.00  0.00    -0.459 C  
HETATM   11  C   UNL     1     -14.001   8.704  72.053  1.00  0.00    -0.446 C  
ENDBRANCH   7   9
ENDBRANCH   6   7
ENDBRANCH   4   6
ENDBRANCH   2   4
TORSDOF 4
ENDMDL
MODEL       63
REMARK 921   NORMALIZED FREE ENERGY PREDICTED BY IDOCK:   -2.84 KCAL/MOL
REMARK 922        TOTAL FREE ENERGY PREDICTED BY IDOCK:   -3.73 KCAL/MOL
REMARK 923 INTER-LIGAND FREE ENERGY PREDICTED BY IDOCK:   -3.47 KCAL/MOL
REMARK 924 INTRA-LIGAND FREE ENERGY PREDICTED BY IDOCK:   -0.25 KCAL/MOL
REMARK 927      BINDING AFFINITY PREDICTED BY RF-SCORE:    0.00 PKD
ROOT
HETATM    1  C   UNL     1     -11.028  10.451  67.496  1.00  0.00    -0.295 C  
HETATM    2  N   UNL     1     -11.317  11.738  68.130  1.00  0.00    -0.259 N  
HETATM    3  C   UNL     1     -11.909  11.678  69.466  1.00  0.00    -0.348 C  
ENDROOT
BRANCH   2   4
HETATM    4  C   UNL     1     -11.155  12.944  67.416  1.00  0.00    -0.273 C  
HETATM    5  S   UNL     1     -12.179  13.475  66.181  1.00  0.00    -0.418 S  
BRANCH   4   6
HETATM    6  S   UNL     1      -9.912  14.040  68.010  1.00  0.00    -0.241 SA 
BRANCH   6   7
HETATM    7  C   UNL     1     -10.790  15.493  68.527  1.00  0.00    -0.272 C  
HETATM    8  S   UNL     1     -11.989  15.468  69.716  1.00  0.00    -0.343 S  
BRANCH   7   9
HETATM    9  N   UNL     1     -10.416  16.673  67.833  1.00  0.00    -0.310 N  
HETATM   10  C   UNL     1     -10.211  16.773  66.381  1.00  0.00    -0.323 C  
HETATM   11  C   UNL     1     -10.190  17.956  68.509  1.00  0.00    -0.390 C  
ENDBRANCH   7   9
ENDBRANCH   6   7
ENDBRANCH   4   6
ENDBRANCH   2   4
TORSDOF 4
ENDMDL
MODEL       64
REMARK 921   NORMALIZED FREE ENERGY PREDICTED BY IDOCK:   -2.84 KCAL/MOL
REMARK 922        TOTAL FREE ENERGY PREDICTED BY IDOCK:   -3.73 KCAL/MOL
REMARK 923 INTER-LIGAND FREE ENERGY PREDICTED BY IDOCK:   -3.50 KCAL/MOL
REMARK 924 INTRA-LIGAND FREE ENERGY PREDICTED BY IDOCK:   -0.22 KCAL/MOL
REMARK 927      BINDING AFFINITY PREDICTED BY RF-SCORE:    0.00 PKD
ROOT
HETATM    1  C   UNL     1     -10.988   5.968  69.444  1.00  0.00    -0.385 C  
HETATM    2  N   UNL     1     -11.137   6.203  70.881  1.00  0.00    -0.301 N  
HETATM    3  C   UNL     1     -10.548   5.196  71.762  1.00  0.00    -0.168 C  
ENDROOT
BRANCH   2   4
HETATM    4  C   UNL     1     -11.927   7.271  71.357  1.00  0.00    -0.320 C  
HETATM    5  S   UNL     1     -13.615   7.249  71.455  1.00  0.00    -0.272 S  
BRANCH   4   6
HETATM    6  S   UNL     1     -11.059   8.624  72.075  1.00  0.00    -0.367 SA 
BRANCH   6   7
HETATM    7  C   UNL     1     -10.775   9.751  70.734  1.00  0.00    -0.323 C  
HETATM    8  S   UNL     1      -9.424   9.656  69.724  1.00  0.00    -0.233 S  
BRANCH   7   9
HETATM    9  N   UNL     1     -11.767  10.757  70.603  1.00  0.00    -0.342 N  
HETATM   10  C   UNL     1     -11.845  11.735  69.509  1.00  0.00    -0.337 C  
HETATM   11  C   UNL     1     -12.855  10.931  71.574  1.00  0.00    -0.454 C  
ENDBRANCH   7   9
ENDBRANCH   6   7
ENDBRANCH   4   6
ENDBRANCH   2   4
TORSDOF 4
ENDMDL
MODEL       65
REMARK 921   NORMALIZED FREE ENERGY PREDICTED BY IDOCK:   -2.84 KCAL/MOL
REMARK 922        TOTAL FREE ENERGY PREDICTED BY IDOCK:   -3.72 KCAL/MOL
REMARK 923 INTER-LIGAND FREE ENERGY PREDICTED BY IDOCK:   -3.44 KCAL/MOL
REMARK 924 INTRA-LIGAND FREE ENERGY PREDICTED BY IDOCK:   -0.28 KCAL/MOL
REMARK 927      BINDING AFFINITY PREDICTED BY RF-SCORE:    0.00 PKD
ROOT
HETATM    1  C   UNL     1      -6.511  18.436  65.669  1.00  0.00    -0.279 C  
HETATM    2  N   UNL     1      -6.897  19.299  66.786  1.00  0.00    -0.197 N  
HETATM    3  C   UNL     1      -6.701  20.734  66.589  1.00  0.00    -0.275 C  
ENDROOT
BRANCH   2   4
HETATM    4  C   UNL     1      -7.299  18.742  68.019  1.00  0.00    -0.249 C  
HETATM    5  S   UNL     1      -6.274  17.922  69.083  1.00  0.00    -0.239 S  
BRANCH   4   6
HETATM    6  S   UNL     1      -8.937  19.116  68.547  1.00  0.00    -0.367 SA 
BRANCH   6   7
HETATM    7  C   UNL     1      -9.979  18.627  67.196  1.00  0.00    -0.331 C  
HETATM    8  S   UNL     1     -10.524  19.706  66.017  1.00  0.00    -0.472 S  
BRANCH   7   9
HETATM    9  N   UNL     1     -10.335  17.253  67.210  1.00  0.00    -0.327 N  
HETATM   10  C   UNL     1     -10.930  16.543  68.351  1.00  0.00    -0.348 C  
HETATM   11  C   UNL     1     -10.145  16.371  66.052  1.00  0.00    -0.353 C  
ENDBRANCH   7   9
ENDBRANCH   6   7
ENDBRANCH   4   6
ENDBRANCH   2   4
TORSDOF 4
ENDMDL
MODEL       66
REMARK 921   NORMALIZED FREE ENERGY PREDICTED BY IDOCK:   -2.83 KCAL/MOL
REMARK 922        TOTAL FREE ENERGY PREDICTED BY IDOCK:   -3.71 KCAL/MOL
REMARK 923 INTER-LIGAND FREE ENERGY PREDICTED BY IDOCK:   -3.56 KCAL/MOL
REMARK 924 INTRA-LIGAND FREE ENERGY PREDICTED BY IDOCK:   -0.15 KCAL/MOL
REMARK 927      BINDING AFFINITY PREDICTED BY RF-SCORE:    0.00 PKD
ROOT
HETATM    1  C   UNL     1     -10.673  16.761  69.043  1.00  0.00    -0.331 C  
HETATM    2  N   UNL     1     -10.043  17.369  67.870  1.00  0.00    -0.309 N  
HETATM    3  C   UNL     1     -10.611  18.640  67.423  1.00  0.00    -0.441 C  
ENDROOT
BRANCH   2   4
HETATM    4  C   UNL     1      -9.044  16.680  67.151  1.00  0.00    -0.214 C  
HETATM    5  S   UNL     1      -7.738  17.417  66.372  1.00  0.00    -0.319 S  
BRANCH   4   6
HETATM    6  S   UNL     1      -9.076  14.923  67.262  1.00  0.00    -0.211 SA 
BRANCH   6   7
HETATM    7  C   UNL     1     -10.540  14.434  66.384  1.00  0.00    -0.297 C  
HETATM    8  S   UNL     1     -11.062  15.197  64.971  1.00  0.00    -0.419 S  
BRANCH   7   9
HETATM    9  N   UNL     1     -11.247  13.364  66.991  1.00  0.00    -0.296 N  
HETATM   10  C   UNL     1     -11.528  12.067  66.360  1.00  0.00    -0.353 C  
HETATM   11  C   UNL     1     -11.787  13.440  68.354  1.00  0.00    -0.366 C  
ENDBRANCH   7   9
ENDBRANCH   6   7
ENDBRANCH   4   6
ENDBRANCH   2   4
TORSDOF 4
ENDMDL
MODEL       67
REMARK 921   NORMALIZED FREE ENERGY PREDICTED BY IDOCK:   -2.83 KCAL/MOL
REMARK 922        TOTAL FREE ENERGY PREDICTED BY IDOCK:   -3.71 KCAL/MOL
REMARK 923 INTER-LIGAND FREE ENERGY PREDICTED BY IDOCK:   -3.56 KCAL/MOL
REMARK 924 INTRA-LIGAND FREE ENERGY PREDICTED BY IDOCK:   -0.15 KCAL/MOL
REMARK 927      BINDING AFFINITY PREDICTED BY RF-SCORE:    0.00 PKD
ROOT
HETATM    1  C   UNL     1     -12.044  10.976  70.058  1.00  0.00    -0.364 C  
HETATM    2  N   UNL     1     -11.198  11.186  68.881  1.00  0.00    -0.231 N  
HETATM    3  C   UNL     1     -10.793   9.982  68.158  1.00  0.00    -0.255 C  
ENDROOT
BRANCH   2   4
HETATM    4  C   UNL     1     -10.704  12.470  68.572  1.00  0.00    -0.239 C  
HETATM    5  S   UNL     1      -9.151  12.787  67.985  1.00  0.00    -0.211 S  
BRANCH   4   6
HETATM    6  S   UNL     1     -11.871  13.788  68.619  1.00  0.00    -0.381 SA 
BRANCH   6   7
HETATM    7  C   UNL     1     -11.762  14.555  67.022  1.00  0.00    -0.393 C  
HETATM    8  S   UNL     1     -12.553  13.953  65.657  1.00  0.00    -0.471 S  
BRANCH   7   9
HETATM    9  N   UNL     1     -10.928  15.703  66.989  1.00  0.00    -0.301 N  
HETATM   10  C   UNL     1     -10.737  16.645  68.101  1.00  0.00    -0.349 C  
HETATM   11  C   UNL     1     -10.144  16.082  65.807  1.00  0.00    -0.366 C  
ENDBRANCH   7   9
ENDBRANCH   6   7
ENDBRANCH   4   6
ENDBRANCH   2   4
TORSDOF 4
ENDMDL
MODEL       68
REMARK 921   NORMALIZED FREE ENERGY PREDICTED BY IDOCK:   -2.83 KCAL/MOL
REMARK 922        TOTAL FREE ENERGY PREDICTED BY IDOCK:   -3.71 KCAL/MOL
REMARK 923 INTER-LIGAND FREE ENERGY PREDICTED BY IDOCK:   -3.65 KCAL/MOL
REMARK 924 INTRA-LIGAND FREE ENERGY PREDICTED BY IDOCK:   -0.06 KCAL/MOL
REMARK 927      BINDING AFFINITY PREDICTED BY RF-SCORE:    0.00 PKD
ROOT
HETATM    1  C   UNL     1     -11.299   6.465  69.541  1.00  0.00    -0.393 C  
HETATM    2  N   UNL     1     -11.528   7.208  70.782  1.00  0.00    -0.293 N  
HETATM    3  C   UNL     1     -12.726   6.844  71.537  1.00  0.00    -0.349 C  
ENDROOT
BRANCH   2   4
HETATM    4  C   UNL     1     -10.703   8.298  71.130  1.00  0.00    -0.226 C  
HETATM    5  S   UNL     1      -9.657   8.326  72.458  1.00  0.00    -0.293 S  
BRANCH   4   6
HETATM    6  S   UNL     1     -10.630   9.622  69.971  1.00  0.00    -0.281 SA 
BRANCH   6   7
HETATM    7  C   UNL     1     -11.901  10.750  70.483  1.00  0.00    -0.356 C  
HETATM    8  S   UNL     1     -13.018  10.388  71.697  1.00  0.00    -0.484 S  
BRANCH   7   9
HETATM    9  N   UNL     1     -11.913  11.972  69.762  1.00  0.00    -0.312 N  
HETATM   10  C   UNL     1     -12.069  13.307  70.358  1.00  0.00    -0.327 C  
HETATM   11  C   UNL     1     -11.765  12.036  68.303  1.00  0.00    -0.334 C  
ENDBRANCH   7   9
ENDBRANCH   6   7
ENDBRANCH   4   6
ENDBRANCH   2   4
TORSDOF 4
ENDMDL
MODEL       69
REMARK 921   NORMALIZED FREE ENERGY PREDICTED BY IDOCK:   -2.83 KCAL/MOL
REMARK 922        TOTAL FREE ENERGY PREDICTED BY IDOCK:   -3.71 KCAL/MOL
REMARK 923 INTER-LIGAND FREE ENERGY PREDICTED BY IDOCK:   -3.46 KCAL/MOL
REMARK 924 INTRA-LIGAND FREE ENERGY PREDICTED BY IDOCK:   -0.24 KCAL/MOL
REMARK 927      BINDING AFFINITY PREDICTED BY RF-SCORE:    0.00 PKD
ROOT
HETATM    1  C   UNL     1     -13.262  11.495  71.716  1.00  0.00    -0.351 C  
HETATM    2  N   UNL     1     -12.805  10.107  71.633  1.00  0.00    -0.417 N  
HETATM    3  C   UNL     1     -13.541   9.139  72.444  1.00  0.00    -0.483 C  
ENDROOT
BRANCH   2   4
HETATM    4  C   UNL     1     -11.636   9.777  70.917  1.00  0.00    -0.361 C  
HETATM    5  S   UNL     1     -11.254  10.363  69.378  1.00  0.00    -0.260 S  
BRANCH   4   6
HETATM    6  S   UNL     1     -10.420   8.852  71.792  1.00  0.00    -0.351 SA 
BRANCH   6   7
HETATM    7  C   UNL     1     -10.663   7.171  71.277  1.00  0.00    -0.226 C  
HETATM    8  S   UNL     1     -11.330   5.989  72.282  1.00  0.00    -0.306 S  
BRANCH   7   9
HETATM    9  N   UNL     1     -10.221   6.902  69.955  1.00  0.00    -0.193 N  
HETATM   10  C   UNL     1      -8.899   7.249  69.416  1.00  0.00    -0.137 C  
HETATM   11  C   UNL     1     -11.061   6.226  68.959  1.00  0.00    -0.378 C  
ENDBRANCH   7   9
ENDBRANCH   6   7
ENDBRANCH   4   6
ENDBRANCH   2   4
TORSDOF 4
ENDMDL
MODEL       70
REMARK 921   NORMALIZED FREE ENERGY PREDICTED BY IDOCK:   -2.83 KCAL/MOL
REMARK 922        TOTAL FREE ENERGY PREDICTED BY IDOCK:   -3.71 KCAL/MOL
REMARK 923 INTER-LIGAND FREE ENERGY PREDICTED BY IDOCK:   -3.55 KCAL/MOL
REMARK 924 INTRA-LIGAND FREE ENERGY PREDICTED BY IDOCK:   -0.15 KCAL/MOL
REMARK 927      BINDING AFFINITY PREDICTED BY RF-SCORE:    0.00 PKD
ROOT
HETATM    1  C   UNL     1      -9.259  12.084  67.231  1.00  0.00    -0.182 C  
HETATM    2  N   UNL     1      -9.466  13.393  67.852  1.00  0.00    -0.209 N  
HETATM    3  C   UNL     1      -8.316  13.962  68.551  1.00  0.00    -0.132 C  
ENDROOT
BRANCH   2   4
HETATM    4  C   UNL     1     -10.748  13.980  67.879  1.00  0.00    -0.240 C  
HETATM    5  S   UNL     1     -11.895  13.843  66.644  1.00  0.00    -0.441 S  
BRANCH   4   6
HETATM    6  S   UNL     1     -11.231  14.731  69.397  1.00  0.00    -0.298 SA 
BRANCH   6   7
HETATM    7  C   UNL     1     -12.161  13.483  70.250  1.00  0.00    -0.347 C  
HETATM    8  S   UNL     1     -11.976  11.831  69.950  1.00  0.00    -0.311 S  
BRANCH   7   9
HETATM    9  N   UNL     1     -13.095  13.998  71.187  1.00  0.00    -0.323 N  
HETATM   10  C   UNL     1     -13.650  13.255  72.327  1.00  0.00    -0.605 C  
HETATM   11  C   UNL     1     -13.620  15.367  71.115  1.00  0.00    -0.462 C  
ENDBRANCH   7   9
ENDBRANCH   6   7
ENDBRANCH   4   6
ENDBRANCH   2   4
TORSDOF 4
ENDMDL
MODEL       71
REMARK 921   NORMALIZED FREE ENERGY PREDICTED BY IDOCK:   -2.82 KCAL/MOL
REMARK 922        TOTAL FREE ENERGY PREDICTED BY IDOCK:   -3.70 KCAL/MOL
REMARK 923 INTER-LIGAND FREE ENERGY PREDICTED BY IDOCK:   -3.45 KCAL/MOL
REMARK 924 INTRA-LIGAND FREE ENERGY PREDICTED BY IDOCK:   -0.25 KCAL/MOL
REMARK 927      BINDING AFFINITY PREDICTED BY RF-SCORE:    0.00 PKD
ROOT
HETATM    1  C   UNL     1     -10.286  16.957  65.841  1.00  0.00    -0.315 C  
HETATM    2  N   UNL     1     -10.455  16.499  67.221  1.00  0.00    -0.308 N  
HETATM    3  C   UNL     1     -10.606  17.544  68.232  1.00  0.00    -0.354 C  
ENDROOT
BRANCH   2   4
HETATM    4  C   UNL     1     -10.333  15.131  67.543  1.00  0.00    -0.242 C  
HETATM    5  S   UNL     1      -8.935  14.410  68.162  1.00  0.00    -0.192 S  
BRANCH   4   6
HETATM    6  S   UNL     1     -11.813  14.179  67.477  1.00  0.00    -0.393 SA 
BRANCH   6   7
HETATM    7  C   UNL     1     -12.087  13.638  69.145  1.00  0.00    -0.319 C  
HETATM    8  S   UNL     1     -12.524  14.689  70.392  1.00  0.00    -0.349 S  
BRANCH   7   9
HETATM    9  N   UNL     1     -11.878  12.248  69.343  1.00  0.00    -0.315 N  
HETATM   10  C   UNL     1     -11.332  11.321  68.342  1.00  0.00    -0.281 C  
HETATM   11  C   UNL     1     -12.192  11.570  70.606  1.00  0.00    -0.378 C  
ENDBRANCH   7   9
ENDBRANCH   6   7
ENDBRANCH   4   6
ENDBRANCH   2   4
TORSDOF 4
ENDMDL
MODEL       72
REMARK 921   NORMALIZED FREE ENERGY PREDICTED BY IDOCK:   -2.81 KCAL/MOL
REMARK 922        TOTAL FREE ENERGY PREDICTED BY IDOCK:   -3.69 KCAL/MOL
REMARK 923 INTER-LIGAND FREE ENERGY PREDICTED BY IDOCK:   -3.41 KCAL/MOL
REMARK 924 INTRA-LIGAND FREE ENERGY PREDICTED BY IDOCK:   -0.28 KCAL/MOL
REMARK 927      BINDING AFFINITY PREDICTED BY RF-SCORE:    0.00 PKD
ROOT
HETATM    1  C   UNL     1      -9.254  11.797  66.127  1.00  0.00    -0.210 C  
HETATM    2  N   UNL     1      -9.325  13.162  66.651  1.00  0.00    -0.250 N  
HETATM    3  C   UNL     1      -8.314  13.524  67.642  1.00  0.00    -0.179 C  
ENDROOT
BRANCH   2   4
HETATM    4  C   UNL     1     -10.400  14.008  66.306  1.00  0.00    -0.293 C  
HETATM    5  S   UNL     1     -10.349  15.180  65.089  1.00  0.00    -0.355 S  
BRANCH   4   6
HETATM    6  S   UNL     1     -11.945  13.660  67.076  1.00  0.00    -0.391 SA 
BRANCH   6   7
HETATM    7  C   UNL     1     -11.770  14.245  68.743  1.00  0.00    -0.343 C  
HETATM    8  S   UNL     1     -11.383  15.845  69.120  1.00  0.00    -0.376 S  
BRANCH   7   9
HETATM    9  N   UNL     1     -11.956  13.242  69.729  1.00  0.00    -0.327 N  
HETATM   10  C   UNL     1     -11.594  11.826  69.578  1.00  0.00    -0.332 C  
HETATM   11  C   UNL     1     -12.545  13.521  71.045  1.00  0.00    -0.359 C  
ENDBRANCH   7   9
ENDBRANCH   6   7
ENDBRANCH   4   6
ENDBRANCH   2   4
TORSDOF 4
ENDMDL
MODEL       73
REMARK 921   NORMALIZED FREE ENERGY PREDICTED BY IDOCK:   -2.81 KCAL/MOL
REMARK 922        TOTAL FREE ENERGY PREDICTED BY IDOCK:   -3.69 KCAL/MOL
REMARK 923 INTER-LIGAND FREE ENERGY PREDICTED BY IDOCK:   -3.55 KCAL/MOL
REMARK 924 INTRA-LIGAND FREE ENERGY PREDICTED BY IDOCK:   -0.14 KCAL/MOL
REMARK 927      BINDING AFFINITY PREDICTED BY RF-SCORE:    0.00 PKD
ROOT
HETATM    1  C   UNL     1     -11.410   7.998  72.766  1.00  0.00    -0.374 C  
HETATM    2  N   UNL     1     -12.205   8.979  72.025  1.00  0.00    -0.369 N  
HETATM    3  C   UNL     1     -13.639   8.987  72.304  1.00  0.00    -0.484 C  
ENDROOT
BRANCH   2   4
HETATM    4  C   UNL     1     -11.617   9.758  71.006  1.00  0.00    -0.376 C  
HETATM    5  S   UNL     1     -12.142  11.298  70.550  1.00  0.00    -0.384 S  
BRANCH   4   6
HETATM    6  S   UNL     1     -10.115   9.143  70.322  1.00  0.00    -0.223 SA 
BRANCH   6   7
HETATM    7  C   UNL     1     -10.520   8.699  68.652  1.00  0.00    -0.177 C  
HETATM    8  S   UNL     1     -10.625   9.827  67.400  1.00  0.00    -0.248 S  
BRANCH   7   9
HETATM    9  N   UNL     1     -10.774   7.315  68.467  1.00  0.00    -0.167 N  
HETATM   10  C   UNL     1     -11.219   6.387  69.517  1.00  0.00    -0.412 C  
HETATM   11  C   UNL     1     -10.619   6.644  67.171  1.00  0.00    -0.331 C  
ENDBRANCH   7   9
ENDBRANCH   6   7
ENDBRANCH   4   6
ENDBRANCH   2   4
TORSDOF 4
ENDMDL
MODEL       74
REMARK 921   NORMALIZED FREE ENERGY PREDICTED BY IDOCK:   -2.81 KCAL/MOL
REMARK 922        TOTAL FREE ENERGY PREDICTED BY IDOCK:   -3.68 KCAL/MOL
REMARK 923 INTER-LIGAND FREE ENERGY PREDICTED BY IDOCK:   -3.37 KCAL/MOL
REMARK 924 INTRA-LIGAND FREE ENERGY PREDICTED BY IDOCK:   -0.31 KCAL/MOL
REMARK 927      BINDING AFFINITY PREDICTED BY RF-SCORE:    0.00 PKD
ROOT
HETATM    1  C   UNL     1     -10.528  15.232  65.713  1.00  0.00    -0.349 C  
HETATM    2  N   UNL     1     -11.539  14.386  66.350  1.00  0.00    -0.365 N  
HETATM    3  C   UNL     1     -12.592  13.873  65.475  1.00  0.00    -0.526 C  
ENDROOT
BRANCH   2   4
HETATM    4  C   UNL     1     -11.549  14.209  67.749  1.00  0.00    -0.347 C  
HETATM    5  S   UNL     1     -11.738  15.456  68.875  1.00  0.00    -0.342 S  
BRANCH   4   6
HETATM    6  S   UNL     1     -11.567  12.545  68.325  1.00  0.00    -0.344 SA 
BRANCH   6   7
HETATM    7  C   UNL     1     -10.105  11.807  67.642  1.00  0.00    -0.193 C  
HETATM    8  S   UNL     1      -8.549  12.374  67.971  1.00  0.00    -0.187 S  
BRANCH   7   9
HETATM    9  N   UNL     1     -10.361  10.715  66.772  1.00  0.00    -0.236 N  
HETATM   10  C   UNL     1     -10.628   9.335  67.199  1.00  0.00    -0.216 C  
HETATM   11  C   UNL     1     -10.390  10.854  65.311  1.00  0.00    -0.268 C  
ENDBRANCH   7   9
ENDBRANCH   6   7
ENDBRANCH   4   6
ENDBRANCH   2   4
TORSDOF 4
ENDMDL
MODEL       75
REMARK 921   NORMALIZED FREE ENERGY PREDICTED BY IDOCK:   -2.81 KCAL/MOL
REMARK 922        TOTAL FREE ENERGY PREDICTED BY IDOCK:   -3.68 KCAL/MOL
REMARK 923 INTER-LIGAND FREE ENERGY PREDICTED BY IDOCK:   -3.46 KCAL/MOL
REMARK 924 INTRA-LIGAND FREE ENERGY PREDICTED BY IDOCK:   -0.23 KCAL/MOL
REMARK 927      BINDING AFFINITY PREDICTED BY RF-SCORE:    0.00 PKD
ROOT
HETATM    1  C   UNL     1      -9.433  10.781  63.695  1.00  0.00    -0.291 C  
HETATM    2  N   UNL     1     -10.303  10.904  64.865  1.00  0.00    -0.308 N  
HETATM    3  C   UNL     1     -10.145   9.879  65.895  1.00  0.00    -0.245 C  
ENDROOT
BRANCH   2   4
HETATM    4  C   UNL     1     -11.319  11.882  64.905  1.00  0.00    -0.277 C  
HETATM    5  S   UNL     1     -12.432  12.162  63.664  1.00  0.00    -0.490 S  
BRANCH   4   6
HETATM    6  S   UNL     1     -11.545  12.711  66.442  1.00  0.00    -0.399 SA 
BRANCH   6   7
HETATM    7  C   UNL     1     -10.116  13.750  66.617  1.00  0.00    -0.277 C  
HETATM    8  S   UNL     1      -8.652  13.200  67.253  1.00  0.00    -0.202 S  
BRANCH   7   9
HETATM    9  N   UNL     1     -10.323  15.091  66.201  1.00  0.00    -0.285 N  
HETATM   10  C   UNL     1     -10.990  15.500  64.957  1.00  0.00    -0.440 C  
HETATM   11  C   UNL     1      -9.882  16.246  66.994  1.00  0.00    -0.244 C  
ENDBRANCH   7   9
ENDBRANCH   6   7
ENDBRANCH   4   6
ENDBRANCH   2   4
TORSDOF 4
ENDMDL
MODEL       76
REMARK 921   NORMALIZED FREE ENERGY PREDICTED BY IDOCK:   -2.80 KCAL/MOL
REMARK 922        TOTAL FREE ENERGY PREDICTED BY IDOCK:   -3.68 KCAL/MOL
REMARK 923 INTER-LIGAND FREE ENERGY PREDICTED BY IDOCK:   -3.44 KCAL/MOL
REMARK 924 INTRA-LIGAND FREE ENERGY PREDICTED BY IDOCK:   -0.24 KCAL/MOL
REMARK 927      BINDING AFFINITY PREDICTED BY RF-SCORE:    0.00 PKD
ROOT
HETATM    1  C   UNL     1     -10.143   9.148  66.335  1.00  0.00    -0.274 C  
HETATM    2  N   UNL     1     -10.182  10.121  67.428  1.00  0.00    -0.205 N  
HETATM    3  C   UNL     1     -10.515   9.590  68.749  1.00  0.00    -0.219 C  
ENDROOT
BRANCH   2   4
HETATM    4  C   UNL     1     -10.042  11.500  67.168  1.00  0.00    -0.197 C  
HETATM    5  S   UNL     1      -8.564  12.308  67.035  1.00  0.00    -0.177 S  
BRANCH   4   6
HETATM    6  S   UNL     1     -11.518  12.371  66.761  1.00  0.00    -0.371 SA 
BRANCH   6   7
HETATM    7  C   UNL     1     -11.163  13.182  65.223  1.00  0.00    -0.291 C  
HETATM    8  S   UNL     1     -10.749  14.816  65.119  1.00  0.00    -0.443 S  
BRANCH   7   9
HETATM    9  N   UNL     1     -11.286  12.342  64.085  1.00  0.00    -0.346 N  
HETATM   10  C   UNL     1     -12.549  11.991  63.423  1.00  0.00    -0.469 C  
HETATM   11  C   UNL     1     -10.129  11.720  63.428  1.00  0.00    -0.446 C  
ENDBRANCH   7   9
ENDBRANCH   6   7
ENDBRANCH   4   6
ENDBRANCH   2   4
TORSDOF 4
ENDMDL
MODEL       77
REMARK 921   NORMALIZED FREE ENERGY PREDICTED BY IDOCK:   -2.80 KCAL/MOL
REMARK 922        TOTAL FREE ENERGY PREDICTED BY IDOCK:   -3.68 KCAL/MOL
REMARK 923 INTER-LIGAND FREE ENERGY PREDICTED BY IDOCK:   -3.41 KCAL/MOL
REMARK 924 INTRA-LIGAND FREE ENERGY PREDICTED BY IDOCK:   -0.26 KCAL/MOL
REMARK 927      BINDING AFFINITY PREDICTED BY RF-SCORE:    0.00 PKD
ROOT
HETATM    1  C   UNL     1     -10.777  16.888  68.826  1.00  0.00    -0.333 C  
HETATM    2  N   UNL     1     -10.222  17.647  67.705  1.00  0.00    -0.335 N  
HETATM    3  C   UNL     1     -10.636  19.045  67.607  1.00  0.00    -0.441 C  
ENDROOT
BRANCH   2   4
HETATM    4  C   UNL     1      -9.449  17.004  66.715  1.00  0.00    -0.258 C  
HETATM    5  S   UNL     1     -10.009  15.765  65.711  1.00  0.00    -0.362 S  
BRANCH   4   6
HETATM    6  S   UNL     1      -7.863  17.699  66.390  1.00  0.00    -0.282 SA 
BRANCH   6   7
HETATM    7  C   UNL     1      -7.181  18.053  67.990  1.00  0.00    -0.230 C  
HETATM    8  S   UNL     1      -6.835  16.855  69.128  1.00  0.00    -0.229 S  
BRANCH   7   9
HETATM    9  N   UNL     1      -6.980  19.436  68.239  1.00  0.00    -0.272 N  
HETATM   10  C   UNL     1      -6.399  20.001  69.464  1.00  0.00    -0.344 C  
HETATM   11  C   UNL     1      -7.339  20.478  67.269  1.00  0.00    -0.327 C  
ENDBRANCH   7   9
ENDBRANCH   6   7
ENDBRANCH   4   6
ENDBRANCH   2   4
TORSDOF 4
ENDMDL
MODEL       78
REMARK 921   NORMALIZED FREE ENERGY PREDICTED BY IDOCK:   -2.80 KCAL/MOL
REMARK 922        TOTAL FREE ENERGY PREDICTED BY IDOCK:   -3.67 KCAL/MOL
REMARK 923 INTER-LIGAND FREE ENERGY PREDICTED BY IDOCK:   -3.42 KCAL/MOL
REMARK 924 INTRA-LIGAND FREE ENERGY PREDICTED BY IDOCK:   -0.25 KCAL/MOL
REMARK 927      BINDING AFFINITY PREDICTED BY RF-SCORE:    0.00 PKD
ROOT
HETATM    1  C   UNL     1     -10.294  11.324  67.990  1.00  0.00    -0.183 C  
HETATM    2  N   UNL     1     -10.955  12.458  68.638  1.00  0.00    -0.237 N  
HETATM    3  C   UNL     1     -11.825  12.136  69.767  1.00  0.00    -0.327 C  
ENDROOT
BRANCH   2   4
HETATM    4  C   UNL     1     -10.851  13.756  68.095  1.00  0.00    -0.246 C  
HETATM    5  S   UNL     1     -11.574  15.135  68.753  1.00  0.00    -0.353 S  
BRANCH   4   6
HETATM    6  S   UNL     1      -9.722  13.954  66.758  1.00  0.00    -0.287 SA 
BRANCH   6   7
HETATM    7  C   UNL     1     -10.741  14.269  65.339  1.00  0.00    -0.343 C  
HETATM    8  S   UNL     1     -11.110  15.827  64.801  1.00  0.00    -0.296 S  
BRANCH   7   9
HETATM    9  N   UNL     1     -11.240  13.097  64.715  1.00  0.00    -0.311 N  
HETATM   10  C   UNL     1     -12.647  12.671  64.713  1.00  0.00    -0.454 C  
HETATM   11  C   UNL     1     -10.381  12.160  63.980  1.00  0.00    -0.385 C  
ENDBRANCH   7   9
ENDBRANCH   6   7
ENDBRANCH   4   6
ENDBRANCH   2   4
TORSDOF 4
ENDMDL
MODEL       79
REMARK 921   NORMALIZED FREE ENERGY PREDICTED BY IDOCK:   -2.80 KCAL/MOL
REMARK 922        TOTAL FREE ENERGY PREDICTED BY IDOCK:   -3.67 KCAL/MOL
REMARK 923 INTER-LIGAND FREE ENERGY PREDICTED BY IDOCK:   -3.42 KCAL/MOL
REMARK 924 INTRA-LIGAND FREE ENERGY PREDICTED BY IDOCK:   -0.24 KCAL/MOL
REMARK 927      BINDING AFFINITY PREDICTED BY RF-SCORE:    0.00 PKD
ROOT
HETATM    1  C   UNL     1     -12.348  11.152  70.810  1.00  0.00    -0.406 C  
HETATM    2  N   UNL     1     -12.106  12.457  70.194  1.00  0.00    -0.328 N  
HETATM    3  C   UNL     1     -12.532  13.623  70.967  1.00  0.00    -0.377 C  
ENDROOT
BRANCH   2   4
HETATM    4  C   UNL     1     -11.618  12.549  68.873  1.00  0.00    -0.318 C  
HETATM    5  S   UNL     1     -10.958  11.260  68.001  1.00  0.00    -0.271 S  
BRANCH   4   6
HETATM    6  S   UNL     1     -11.915  14.069  68.036  1.00  0.00    -0.295 SA 
BRANCH   6   7
HETATM    7  C   UNL     1     -10.320  14.837  67.899  1.00  0.00    -0.240 C  
HETATM    8  S   UNL     1      -9.433  15.358  69.238  1.00  0.00    -0.262 S  
BRANCH   7   9
HETATM    9  N   UNL     1      -9.870  15.000  66.563  1.00  0.00    -0.248 N  
HETATM   10  C   UNL     1      -9.011  16.092  66.085  1.00  0.00    -0.337 C  
HETATM   11  C   UNL     1     -10.223  14.066  65.486  1.00  0.00    -0.343 C  
ENDBRANCH   7   9
ENDBRANCH   6   7
ENDBRANCH   4   6
ENDBRANCH   2   4
TORSDOF 4
ENDMDL
MODEL       80
REMARK 921   NORMALIZED FREE ENERGY PREDICTED BY IDOCK:   -2.79 KCAL/MOL
REMARK 922        TOTAL FREE ENERGY PREDICTED BY IDOCK:   -3.66 KCAL/MOL
REMARK 923 INTER-LIGAND FREE ENERGY PREDICTED BY IDOCK:   -3.38 KCAL/MOL
REMARK 924 INTRA-LIGAND FREE ENERGY PREDICTED BY IDOCK:   -0.28 KCAL/MOL
REMARK 927      BINDING AFFINITY PREDICTED BY RF-SCORE:    0.00 PKD
ROOT
HETATM    1  C   UNL     1      -7.206  17.610  66.187  1.00  0.00    -0.317 C  
HETATM    2  N   UNL     1      -7.858  17.720  67.493  1.00  0.00    -0.205 N  
HETATM    3  C   UNL     1      -7.088  17.239  68.639  1.00  0.00    -0.227 C  
ENDROOT
BRANCH   2   4
HETATM    4  C   UNL     1      -9.202  18.137  67.592  1.00  0.00    -0.259 C  
HETATM    5  S   UNL     1      -9.788  19.226  68.744  1.00  0.00    -0.446 S  
BRANCH   4   6
HETATM    6  S   UNL     1     -10.275  17.626  66.293  1.00  0.00    -0.326 SA 
BRANCH   6   7
HETATM    7  C   UNL     1     -10.434  15.870  66.491  1.00  0.00    -0.304 C  
HETATM    8  S   UNL     1     -10.473  14.797  65.188  1.00  0.00    -0.417 S  
BRANCH   7   9
HETATM    9  N   UNL     1     -10.553  15.449  67.841  1.00  0.00    -0.260 N  
HETATM   10  C   UNL     1     -11.637  15.833  68.757  1.00  0.00    -0.395 C  
HETATM   11  C   UNL     1      -9.580  14.558  68.485  1.00  0.00    -0.220 C  
ENDBRANCH   7   9
ENDBRANCH   6   7
ENDBRANCH   4   6
ENDBRANCH   2   4
TORSDOF 4
ENDMDL
MODEL       81
REMARK 921   NORMALIZED FREE ENERGY PREDICTED BY IDOCK:   -2.78 KCAL/MOL
REMARK 922        TOTAL FREE ENERGY PREDICTED BY IDOCK:   -3.65 KCAL/MOL
REMARK 923 INTER-LIGAND FREE ENERGY PREDICTED BY IDOCK:   -3.33 KCAL/MOL
REMARK 924 INTRA-LIGAND FREE ENERGY PREDICTED BY IDOCK:   -0.32 KCAL/MOL
REMARK 927      BINDING AFFINITY PREDICTED BY RF-SCORE:    0.00 PKD
ROOT
HETATM    1  C   UNL     1      -7.660  19.246  68.635  1.00  0.00    -0.350 C  
HETATM    2  N   UNL     1      -8.238  18.731  67.393  1.00  0.00    -0.261 N  
HETATM    3  C   UNL     1      -7.290  18.408  66.328  1.00  0.00    -0.258 C  
ENDROOT
BRANCH   2   4
HETATM    4  C   UNL     1      -9.637  18.693  67.213  1.00  0.00    -0.297 C  
HETATM    5  S   UNL     1     -10.496  19.680  66.143  1.00  0.00    -0.499 S  
BRANCH   4   6
HETATM    6  S   UNL     1     -10.491  17.382  68.021  1.00  0.00    -0.388 SA 
BRANCH   6   7
HETATM    7  C   UNL     1      -9.928  15.903  67.218  1.00  0.00    -0.240 C  
HETATM    8  S   UNL     1     -10.335  15.508  65.628  1.00  0.00    -0.413 S  
BRANCH   7   9
HETATM    9  N   UNL     1      -9.128  15.068  68.042  1.00  0.00    -0.176 N  
HETATM   10  C   UNL     1      -8.364  15.514  69.214  1.00  0.00    -0.257 C  
HETATM   11  C   UNL     1      -8.978  13.627  67.803  1.00  0.00    -0.196 C  
ENDBRANCH   7   9
ENDBRANCH   6   7
ENDBRANCH   4   6
ENDBRANCH   2   4
TORSDOF 4
ENDMDL
MODEL       82
REMARK 921   NORMALIZED FREE ENERGY PREDICTED BY IDOCK:   -2.78 KCAL/MOL
REMARK 922        TOTAL FREE ENERGY PREDICTED BY IDOCK:   -3.65 KCAL/MOL
REMARK 923 INTER-LIGAND FREE ENERGY PREDICTED BY IDOCK:   -3.39 KCAL/MOL
REMARK 924 INTRA-LIGAND FREE ENERGY PREDICTED BY IDOCK:   -0.26 KCAL/MOL
REMARK 927      BINDING AFFINITY PREDICTED BY RF-SCORE:    0.00 PKD
ROOT
HETATM    1  C   UNL     1     -12.598  10.799  71.181  1.00  0.00    -0.428 C  
HETATM    2  N   UNL     1     -12.509   9.439  71.715  1.00  0.00    -0.366 N  
HETATM    3  C   UNL     1     -13.761   8.849  72.184  1.00  0.00    -0.474 C  
ENDROOT
BRANCH   2   4
HETATM    4  C   UNL     1     -11.256   8.814  71.884  1.00  0.00    -0.368 C  
HETATM    5  S   UNL     1     -10.986   7.442  72.834  1.00  0.00    -0.365 S  
BRANCH   4   6
HETATM    6  S   UNL     1      -9.946   9.404  70.865  1.00  0.00    -0.247 SA 
BRANCH   6   7
HETATM    7  C   UNL     1     -10.168   8.581  69.308  1.00  0.00    -0.208 C  
HETATM    8  S   UNL     1     -10.525   9.402  67.877  1.00  0.00    -0.237 S  
BRANCH   7   9
HETATM    9  N   UNL     1     -10.048   7.169  69.379  1.00  0.00    -0.172 N  
HETATM   10  C   UNL     1     -11.128   6.211  69.107  1.00  0.00    -0.378 C  
HETATM   11  C   UNL     1      -8.794   6.495  69.739  1.00  0.00    -0.143 C  
ENDBRANCH   7   9
ENDBRANCH   6   7
ENDBRANCH   4   6
ENDBRANCH   2   4
TORSDOF 4
ENDMDL
MODEL       83
REMARK 921   NORMALIZED FREE ENERGY PREDICTED BY IDOCK:   -2.78 KCAL/MOL
REMARK 922        TOTAL FREE ENERGY PREDICTED BY IDOCK:   -3.65 KCAL/MOL
REMARK 923 INTER-LIGAND FREE ENERGY PREDICTED BY IDOCK:   -3.42 KCAL/MOL
REMARK 924 INTRA-LIGAND FREE ENERGY PREDICTED BY IDOCK:   -0.22 KCAL/MOL
REMARK 927      BINDING AFFINITY PREDICTED BY RF-SCORE:    0.00 PKD
ROOT
HETATM    1  C   UNL     1     -11.926  12.306  63.902  1.00  0.00    -0.491 C  
HETATM    2  N   UNL     1     -10.723  11.529  64.207  1.00  0.00    -0.332 N  
HETATM    3  C   UNL     1      -9.831  11.257  63.081  1.00  0.00    -0.375 C  
ENDROOT
BRANCH   2   4
HETATM    4  C   UNL     1     -10.534  10.970  65.488  1.00  0.00    -0.238 C  
HETATM    5  S   UNL     1      -9.660   9.558  65.802  1.00  0.00    -0.277 S  
BRANCH   4   6
HETATM    6  S   UNL     1     -11.088  11.939  66.851  1.00  0.00    -0.321 SA 
BRANCH   6   7
HETATM    7  C   UNL     1      -9.866  13.214  67.034  1.00  0.00    -0.244 C  
HETATM    8  S   UNL     1      -8.265  12.897  67.467  1.00  0.00    -0.195 S  
BRANCH   7   9
HETATM    9  N   UNL     1     -10.362  14.525  66.811  1.00  0.00    -0.266 N  
HETATM   10  C   UNL     1     -11.362  15.206  67.645  1.00  0.00    -0.321 C  
HETATM   11  C   UNL     1      -9.913  15.366  65.695  1.00  0.00    -0.362 C  
ENDBRANCH   7   9
ENDBRANCH   6   7
ENDBRANCH   4   6
ENDBRANCH   2   4
TORSDOF 4
ENDMDL
MODEL       84
REMARK 921   NORMALIZED FREE ENERGY PREDICTED BY IDOCK:   -2.78 KCAL/MOL
REMARK 922        TOTAL FREE ENERGY PREDICTED BY IDOCK:   -3.65 KCAL/MOL
REMARK 923 INTER-LIGAND FREE ENERGY PREDICTED BY IDOCK:   -3.38 KCAL/MOL
REMARK 924 INTRA-LIGAND FREE ENERGY PREDICTED BY IDOCK:   -0.26 KCAL/MOL
REMARK 927      BINDING AFFINITY PREDICTED BY RF-SCORE:    0.00 PKD
ROOT
HETATM    1  C   UNL     1     -11.130   6.018  69.634  1.00  0.00    -0.404 C  
HETATM    2  N   UNL     1      -9.896   6.788  69.462  1.00  0.00    -0.157 N  
HETATM    3  C   UNL     1      -8.649   6.066  69.707  1.00  0.00    -0.130 C  
ENDROOT
BRANCH   2   4
HETATM    4  C   UNL     1      -9.944   8.176  69.214  1.00  0.00    -0.188 C  
HETATM    5  S   UNL     1     -10.390   8.873  67.740  1.00  0.00    -0.238 S  
BRANCH   4   6
HETATM    6  S   UNL     1      -9.713   9.226  70.608  1.00  0.00    -0.278 SA 
BRANCH   6   7
HETATM    7  C   UNL     1     -11.348   9.736  71.074  1.00  0.00    -0.387 C  
HETATM    8  S   UNL     1     -12.087  11.126  70.464  1.00  0.00    -0.394 S  
BRANCH   7   9
HETATM    9  N   UNL     1     -11.968   8.887  72.028  1.00  0.00    -0.362 N  
HETATM   10  C   UNL     1     -13.399   8.888  72.360  1.00  0.00    -0.440 C  
HETATM   11  C   UNL     1     -11.224   7.887  72.804  1.00  0.00    -0.405 C  
ENDBRANCH   7   9
ENDBRANCH   6   7
ENDBRANCH   4   6
ENDBRANCH   2   4
TORSDOF 4
ENDMDL
MODEL       85
REMARK 921   NORMALIZED FREE ENERGY PREDICTED BY IDOCK:   -2.77 KCAL/MOL
REMARK 922        TOTAL FREE ENERGY PREDICTED BY IDOCK:   -3.64 KCAL/MOL
REMARK 923 INTER-LIGAND FREE ENERGY PREDICTED BY IDOCK:   -3.31 KCAL/MOL
REMARK 924 INTRA-LIGAND FREE ENERGY PREDICTED BY IDOCK:   -0.33 KCAL/MOL
REMARK 927      BINDING AFFINITY PREDICTED BY RF-SCORE:    0.00 PKD
ROOT
HETATM    1  C   UNL     1     -10.507  19.636  66.034  1.00  0.00    -0.523 C  
HETATM    2  N   UNL     1      -9.718  18.765  66.906  1.00  0.00    -0.303 N  
HETATM    3  C   UNL     1      -9.494  19.250  68.266  1.00  0.00    -0.359 C  
ENDROOT
BRANCH   2   4
HETATM    4  C   UNL     1      -9.106  17.601  66.395  1.00  0.00    -0.234 C  
HETATM    5  S   UNL     1      -7.438  17.333  66.351  1.00  0.00    -0.318 S  
BRANCH   4   6
HETATM    6  S   UNL     1     -10.184  16.276  65.969  1.00  0.00    -0.372 SA 
BRANCH   6   7
HETATM    7  C   UNL     1      -9.810  14.987  67.131  1.00  0.00    -0.233 C  
HETATM    8  S   UNL     1      -9.520  13.389  66.670  1.00  0.00    -0.243 S  
BRANCH   7   9
HETATM    9  N   UNL     1      -9.805  15.414  68.485  1.00  0.00    -0.203 N  
HETATM   10  C   UNL     1     -10.956  15.985  69.198  1.00  0.00    -0.297 C  
HETATM   11  C   UNL     1      -8.616  15.325  69.341  1.00  0.00    -0.226 C  
ENDBRANCH   7   9
ENDBRANCH   6   7
ENDBRANCH   4   6
ENDBRANCH   2   4
TORSDOF 4
ENDMDL
MODEL       86
REMARK 921   NORMALIZED FREE ENERGY PREDICTED BY IDOCK:   -2.76 KCAL/MOL
REMARK 922        TOTAL FREE ENERGY PREDICTED BY IDOCK:   -3.62 KCAL/MOL
REMARK 923 INTER-LIGAND FREE ENERGY PREDICTED BY IDOCK:   -3.43 KCAL/MOL
REMARK 924 INTRA-LIGAND FREE ENERGY PREDICTED BY IDOCK:   -0.20 KCAL/MOL
REMARK 927      BINDING AFFINITY PREDICTED BY RF-SCORE:    0.00 PKD
ROOT
HETATM    1  C   UNL     1     -13.842   9.134  72.206  1.00  0.00    -0.463 C  
HETATM    2  N   UNL     1     -12.523   9.419  71.639  1.00  0.00    -0.352 N  
HETATM    3  C   UNL     1     -12.366  10.725  71.001  1.00  0.00    -0.404 C  
ENDROOT
BRANCH   2   4
HETATM    4  C   UNL     1     -11.527   8.421  71.601  1.00  0.00    -0.287 C  
HETATM    5  S   UNL     1      -9.872   8.706  71.796  1.00  0.00    -0.317 S  
BRANCH   4   6
HETATM    6  S   UNL     1     -12.094   6.755  71.545  1.00  0.00    -0.366 SA 
BRANCH   6   7
HETATM    7  C   UNL     1     -10.989   5.931  70.426  1.00  0.00    -0.306 C  
HETATM    8  S   UNL     1     -10.901   6.302  68.781  1.00  0.00    -0.352 S  
BRANCH   7   9
HETATM    9  N   UNL     1     -10.207   4.913  71.031  1.00  0.00    -0.213 N  
HETATM   10  C   UNL     1      -9.469   3.868  70.308  1.00  0.00    -0.185 C  
HETATM   11  C   UNL     1     -10.045   4.794  72.486  1.00  0.00    -0.181 C  
ENDBRANCH   7   9
ENDBRANCH   6   7
ENDBRANCH   4   6
ENDBRANCH   2   4
TORSDOF 4
ENDMDL
MODEL       87
REMARK 921   NORMALIZED FREE ENERGY PREDICTED BY IDOCK:   -2.76 KCAL/MOL
REMARK 922        TOTAL FREE ENERGY PREDICTED BY IDOCK:   -3.62 KCAL/MOL
REMARK 923 INTER-LIGAND FREE ENERGY PREDICTED BY IDOCK:   -3.48 KCAL/MOL
REMARK 924 INTRA-LIGAND FREE ENERGY PREDICTED BY IDOCK:   -0.14 KCAL/MOL
REMARK 927      BINDING AFFINITY PREDICTED BY RF-SCORE:    0.00 PKD
ROOT
HETATM    1  C   UNL     1      -8.344  12.495  68.043  1.00  0.00    -0.171 C  
HETATM    2  N   UNL     1      -9.339  13.490  67.640  1.00  0.00    -0.208 N  
HETATM    3  C   UNL     1      -8.829  14.651  66.912  1.00  0.00    -0.242 C  
ENDROOT
BRANCH   2   4
HETATM    4  C   UNL     1     -10.679  13.379  68.064  1.00  0.00    -0.248 C  
HETATM    5  S   UNL     1     -11.485  14.522  69.014  1.00  0.00    -0.309 S  
BRANCH   4   6
HETATM    6  S   UNL     1     -11.608  12.050  67.376  1.00  0.00    -0.286 SA 
BRANCH   6   7
HETATM    7  C   UNL     1     -11.193  12.046  65.650  1.00  0.00    -0.327 C  
HETATM    8  S   UNL     1     -10.003  11.044  64.993  1.00  0.00    -0.307 S  
BRANCH   7   9
HETATM    9  N   UNL     1     -11.931  12.980  64.877  1.00  0.00    -0.372 N  
HETATM   10  C   UNL     1     -11.963  13.027  63.408  1.00  0.00    -0.520 C  
HETATM   11  C   UNL     1     -12.766  14.027  65.479  1.00  0.00    -0.486 C  
ENDBRANCH   7   9
ENDBRANCH   6   7
ENDBRANCH   4   6
ENDBRANCH   2   4
TORSDOF 4
ENDMDL
MODEL       88
REMARK 921   NORMALIZED FREE ENERGY PREDICTED BY IDOCK:   -2.76 KCAL/MOL
REMARK 922        TOTAL FREE ENERGY PREDICTED BY IDOCK:   -3.62 KCAL/MOL
REMARK 923 INTER-LIGAND FREE ENERGY PREDICTED BY IDOCK:   -3.32 KCAL/MOL
REMARK 924 INTRA-LIGAND FREE ENERGY PREDICTED BY IDOCK:   -0.30 KCAL/MOL
REMARK 927      BINDING AFFINITY PREDICTED BY RF-SCORE:    0.00 PKD
ROOT
HETATM    1  C   UNL     1     -10.630  16.072  67.132  1.00  0.00    -0.305 C  
HETATM    2  N   UNL     1     -11.158  15.226  66.061  1.00  0.00    -0.314 N  
HETATM    3  C   UNL     1     -11.121  15.795  64.715  1.00  0.00    -0.400 C  
ENDROOT
BRANCH   2   4
HETATM    4  C   UNL     1     -11.787  13.999  66.358  1.00  0.00    -0.418 C  
HETATM    5  S   UNL     1     -12.344  12.898  65.202  1.00  0.00    -0.494 S  
BRANCH   4   6
HETATM    6  S   UNL     1     -11.796  13.518  68.052  1.00  0.00    -0.350 SA 
BRANCH   6   7
HETATM    7  C   UNL     1     -10.709  12.117  68.138  1.00  0.00    -0.211 C  
HETATM    8  S   UNL     1     -11.128  10.675  68.910  1.00  0.00    -0.281 S  
BRANCH   7   9
HETATM    9  N   UNL     1      -9.447  12.328  67.526  1.00  0.00    -0.178 N  
HETATM   10  C   UNL     1      -8.443  13.307  67.966  1.00  0.00    -0.170 C  
HETATM   11  C   UNL     1      -8.995  11.566  66.355  1.00  0.00    -0.197 C  
ENDBRANCH   7   9
ENDBRANCH   6   7
ENDBRANCH   4   6
ENDBRANCH   2   4
TORSDOF 4
ENDMDL
MODEL       89
REMARK 921   NORMALIZED FREE ENERGY PREDICTED BY IDOCK:   -2.76 KCAL/MOL
REMARK 922        TOTAL FREE ENERGY PREDICTED BY IDOCK:   -3.62 KCAL/MOL
REMARK 923 INTER-LIGAND FREE ENERGY PREDICTED BY IDOCK:   -3.43 KCAL/MOL
REMARK 924 INTRA-LIGAND FREE ENERGY PREDICTED BY IDOCK:   -0.19 KCAL/MOL
REMARK 927      BINDING AFFINITY PREDICTED BY RF-SCORE:    0.00 PKD
ROOT
HETATM    1  C   UNL     1     -13.222  12.798  71.767  1.00  0.00    -0.374 C  
HETATM    2  N   UNL     1     -12.511  12.889  70.490  1.00  0.00    -0.265 N  
HETATM    3  C   UNL     1     -11.981  11.635  69.958  1.00  0.00    -0.351 C  
ENDROOT
BRANCH   2   4
HETATM    4  C   UNL     1     -12.247  14.144  69.903  1.00  0.00    -0.359 C  
HETATM    5  S   UNL     1     -11.955  15.567  70.767  1.00  0.00    -0.418 S  
BRANCH   4   6
HETATM    6  S   UNL     1     -12.013  14.155  68.158  1.00  0.00    -0.279 SA 
BRANCH   6   7
HETATM    7  C   UNL     1     -10.369  14.780  67.919  1.00  0.00    -0.240 C  
HETATM    8  S   UNL     1      -8.986  13.935  68.395  1.00  0.00    -0.149 S  
BRANCH   7   9
HETATM    9  N   UNL     1     -10.320  16.065  67.318  1.00  0.00    -0.290 N  
HETATM   10  C   UNL     1     -10.390  16.328  65.874  1.00  0.00    -0.365 C  
HETATM   11  C   UNL     1     -10.194  17.302  68.097  1.00  0.00    -0.343 C  
ENDBRANCH   7   9
ENDBRANCH   6   7
ENDBRANCH   4   6
ENDBRANCH   2   4
TORSDOF 4
ENDMDL
MODEL       90
REMARK 921   NORMALIZED FREE ENERGY PREDICTED BY IDOCK:   -2.75 KCAL/MOL
REMARK 922        TOTAL FREE ENERGY PREDICTED BY IDOCK:   -3.61 KCAL/MOL
REMARK 923 INTER-LIGAND FREE ENERGY PREDICTED BY IDOCK:   -3.45 KCAL/MOL
REMARK 924 INTRA-LIGAND FREE ENERGY PREDICTED BY IDOCK:   -0.16 KCAL/MOL
REMARK 927      BINDING AFFINITY PREDICTED BY RF-SCORE:    0.00 PKD
ROOT
HETATM    1  C   UNL     1     -12.590  13.769  65.628  1.00  0.00    -0.509 C  
HETATM    2  N   UNL     1     -11.629  13.847  66.729  1.00  0.00    -0.358 N  
HETATM    3  C   UNL     1     -11.455  12.629  67.518  1.00  0.00    -0.340 C  
ENDROOT
BRANCH   2   4
HETATM    4  C   UNL     1     -11.027  15.076  67.071  1.00  0.00    -0.318 C  
HETATM    5  S   UNL     1     -11.051  15.762  68.616  1.00  0.00    -0.347 S  
BRANCH   4   6
HETATM    6  S   UNL     1     -10.020  15.823  65.834  1.00  0.00    -0.375 SA 
BRANCH   6   7
HETATM    7  C   UNL     1      -8.399  15.911  66.553  1.00  0.00    -0.295 C  
HETATM    8  S   UNL     1      -7.671  14.607  67.340  1.00  0.00    -0.178 S  
BRANCH   7   9
HETATM    9  N   UNL     1      -7.782  17.183  66.432  1.00  0.00    -0.284 N  
HETATM   10  C   UNL     1      -6.356  17.412  66.161  1.00  0.00    -0.177 C  
HETATM   11  C   UNL     1      -8.525  18.443  66.567  1.00  0.00    -0.270 C  
ENDBRANCH   7   9
ENDBRANCH   6   7
ENDBRANCH   4   6
ENDBRANCH   2   4
TORSDOF 4
ENDMDL
MODEL       91
REMARK 921   NORMALIZED FREE ENERGY PREDICTED BY IDOCK:   -2.75 KCAL/MOL
REMARK 922        TOTAL FREE ENERGY PREDICTED BY IDOCK:   -3.61 KCAL/MOL
REMARK 923 INTER-LIGAND FREE ENERGY PREDICTED BY IDOCK:   -3.33 KCAL/MOL
REMARK 924 INTRA-LIGAND FREE ENERGY PREDICTED BY IDOCK:   -0.28 KCAL/MOL
REMARK 927      BINDING AFFINITY PREDICTED BY RF-SCORE:    0.00 PKD
ROOT
HETATM    1  C   UNL     1      -9.189  11.045  62.538  1.00  0.00    -0.299 C  
HETATM    2  N   UNL     1      -9.947  11.180  63.783  1.00  0.00    -0.315 N  
HETATM    3  C   UNL     1      -9.810  10.085  64.741  1.00  0.00    -0.254 C  
ENDROOT
BRANCH   2   4
HETATM    4  C   UNL     1     -10.855  12.245  63.959  1.00  0.00    -0.389 C  
HETATM    5  S   UNL     1     -12.519  12.146  63.680  1.00  0.00    -0.490 S  
BRANCH   4   6
HETATM    6  S   UNL     1     -10.213  13.702  64.712  1.00  0.00    -0.254 SA 
BRANCH   6   7
HETATM    7  C   UNL     1      -9.942  13.260  66.409  1.00  0.00    -0.288 C  
HETATM    8  S   UNL     1      -8.414  12.902  67.034  1.00  0.00    -0.091 S  
BRANCH   7   9
HETATM    9  N   UNL     1     -11.127  13.206  67.188  1.00  0.00    -0.272 N  
HETATM   10  C   UNL     1     -11.967  14.360  67.535  1.00  0.00    -0.354 C  
HETATM   11  C   UNL     1     -11.656  11.954  67.745  1.00  0.00    -0.323 C  
ENDBRANCH   7   9
ENDBRANCH   6   7
ENDBRANCH   4   6
ENDBRANCH   2   4
TORSDOF 4
ENDMDL
MODEL       92
REMARK 921   NORMALIZED FREE ENERGY PREDICTED BY IDOCK:   -2.74 KCAL/MOL
REMARK 922        TOTAL FREE ENERGY PREDICTED BY IDOCK:   -3.60 KCAL/MOL
REMARK 923 INTER-LIGAND FREE ENERGY PREDICTED BY IDOCK:   -3.40 KCAL/MOL
REMARK 924 INTRA-LIGAND FREE ENERGY PREDICTED BY IDOCK:   -0.20 KCAL/MOL
REMARK 927      BINDING AFFINITY PREDICTED BY RF-SCORE:    0.00 PKD
ROOT
HETATM    1  C   UNL     1     -12.356  13.409  70.633  1.00  0.00    -0.348 C  
HETATM    2  N   UNL     1     -11.941  14.797  70.428  1.00  0.00    -0.288 N  
HETATM    3  C   UNL     1     -12.208  15.718  71.531  1.00  0.00    -0.453 C  
ENDROOT
BRANCH   2   4
HETATM    4  C   UNL     1     -11.444  15.221  69.177  1.00  0.00    -0.316 C  
HETATM    5  S   UNL     1     -11.703  14.412  67.716  1.00  0.00    -0.371 S  
BRANCH   4   6
HETATM    6  S   UNL     1     -10.679  16.807  69.138  1.00  0.00    -0.296 SA 
BRANCH   6   7
HETATM    7  C   UNL     1      -9.134  16.551  68.304  1.00  0.00    -0.214 C  
HETATM    8  S   UNL     1      -7.845  15.706  68.994  1.00  0.00    -0.220 S  
BRANCH   7   9
HETATM    9  N   UNL     1      -9.067  17.144  67.016  1.00  0.00    -0.225 N  
HETATM   10  C   UNL     1     -10.207  17.717  66.286  1.00  0.00    -0.362 C  
HETATM   11  C   UNL     1      -7.816  17.255  66.256  1.00  0.00    -0.309 C  
ENDBRANCH   7   9
ENDBRANCH   6   7
ENDBRANCH   4   6
ENDBRANCH   2   4
TORSDOF 4
ENDMDL
MODEL       93
REMARK 921   NORMALIZED FREE ENERGY PREDICTED BY IDOCK:   -2.74 KCAL/MOL
REMARK 922        TOTAL FREE ENERGY PREDICTED BY IDOCK:   -3.60 KCAL/MOL
REMARK 923 INTER-LIGAND FREE ENERGY PREDICTED BY IDOCK:   -3.34 KCAL/MOL
REMARK 924 INTRA-LIGAND FREE ENERGY PREDICTED BY IDOCK:   -0.26 KCAL/MOL
REMARK 927      BINDING AFFINITY PREDICTED BY RF-SCORE:    0.00 PKD
ROOT
HETATM    1  C   UNL     1     -13.956   7.580  71.670  1.00  0.00    -0.412 C  
HETATM    2  N   UNL     1     -12.861   8.549  71.591  1.00  0.00    -0.329 N  
HETATM    3  C   UNL     1     -13.195   9.927  71.947  1.00  0.00    -0.458 C  
ENDROOT
BRANCH   2   4
HETATM    4  C   UNL     1     -11.606   8.175  71.066  1.00  0.00    -0.279 C  
HETATM    5  S   UNL     1     -10.223   9.145  71.098  1.00  0.00    -0.320 S  
BRANCH   4   6
HETATM    6  S   UNL     1     -11.452   6.504  70.531  1.00  0.00    -0.388 SA 
BRANCH   6   7
HETATM    7  C   UNL     1     -10.151   5.821  71.527  1.00  0.00    -0.196 C  
HETATM    8  S   UNL     1      -8.660   5.346  70.892  1.00  0.00    -0.128 S  
BRANCH   7   9
HETATM    9  N   UNL     1     -10.486   5.683  72.899  1.00  0.00    -0.201 N  
HETATM   10  C   UNL     1     -10.052   6.588  73.973  1.00  0.00    -0.326 C  
HETATM   11  C   UNL     1     -11.328   4.592  73.406  1.00  0.00    -0.305 C  
ENDBRANCH   7   9
ENDBRANCH   6   7
ENDBRANCH   4   6
ENDBRANCH   2   4
TORSDOF 4
ENDMDL
MODEL       94
REMARK 921   NORMALIZED FREE ENERGY PREDICTED BY IDOCK:   -2.73 KCAL/MOL
REMARK 922        TOTAL FREE ENERGY PREDICTED BY IDOCK:   -3.58 KCAL/MOL
REMARK 923 INTER-LIGAND FREE ENERGY PREDICTED BY IDOCK:   -3.56 KCAL/MOL
REMARK 924 INTRA-LIGAND FREE ENERGY PREDICTED BY IDOCK:   -0.02 KCAL/MOL
REMARK 927      BINDING AFFINITY PREDICTED BY RF-SCORE:    0.00 PKD
ROOT
HETATM    1  C   UNL     1     -11.958  13.526  69.119  1.00  0.00    -0.333 C  
HETATM    2  N   UNL     1     -11.526  14.910  69.317  1.00  0.00    -0.285 N  
HETATM    3  C   UNL     1     -12.187  15.643  70.394  1.00  0.00    -0.395 C  
ENDROOT
BRANCH   2   4
HETATM    4  C   UNL     1     -10.625  15.517  68.416  1.00  0.00    -0.252 C  
HETATM    5  S   UNL     1     -10.397  17.185  68.262  1.00  0.00    -0.374 S  
BRANCH   4   6
HETATM    6  S   UNL     1      -9.537  14.434  67.553  1.00  0.00    -0.219 SA 
BRANCH   6   7
HETATM    7  C   UNL     1     -10.234  14.283  65.928  1.00  0.00    -0.324 C  
HETATM    8  S   UNL     1     -10.891  15.589  65.083  1.00  0.00    -0.437 S  
BRANCH   7   9
HETATM    9  N   UNL     1     -10.217  12.960  65.413  1.00  0.00    -0.293 N  
HETATM   10  C   UNL     1      -9.720  11.778  66.129  1.00  0.00    -0.229 C  
HETATM   11  C   UNL     1     -10.710  12.623  64.071  1.00  0.00    -0.425 C  
ENDBRANCH   7   9
ENDBRANCH   6   7
ENDBRANCH   4   6
ENDBRANCH   2   4
TORSDOF 4
ENDMDL
MODEL       95
REMARK 921   NORMALIZED FREE ENERGY PREDICTED BY IDOCK:   -2.72 KCAL/MOL
REMARK 922        TOTAL FREE ENERGY PREDICTED BY IDOCK:   -3.58 KCAL/MOL
REMARK 923 INTER-LIGAND FREE ENERGY PREDICTED BY IDOCK:   -3.52 KCAL/MOL
REMARK 924 INTRA-LIGAND FREE ENERGY PREDICTED BY IDOCK:   -0.06 KCAL/MOL
REMARK 927      BINDING AFFINITY PREDICTED BY RF-SCORE:    0.00 PKD
ROOT
HETATM    1  C   UNL     1     -11.705  11.972  66.879  1.00  0.00    -0.266 C  
HETATM    2  N   UNL     1     -11.605  13.331  66.346  1.00  0.00    -0.331 N  
HETATM    3  C   UNL     1     -12.589  13.697  65.329  1.00  0.00    -0.469 C  
ENDROOT
BRANCH   2   4
HETATM    4  C   UNL     1     -10.528  14.168  66.708  1.00  0.00    -0.277 C  
HETATM    5  S   UNL     1      -9.968  15.468  65.784  1.00  0.00    -0.369 S  
BRANCH   4   6
HETATM    6  S   UNL     1      -9.875  13.942  68.328  1.00  0.00    -0.232 SA 
BRANCH   6   7
HETATM    7  C   UNL     1     -10.732  15.125  69.337  1.00  0.00    -0.265 C  
HETATM    8  S   UNL     1     -10.627  16.792  69.089  1.00  0.00    -0.327 S  
BRANCH   7   9
HETATM    9  N   UNL     1     -11.491  14.546  70.387  1.00  0.00    -0.240 N  
HETATM   10  C   UNL     1     -11.712  15.153  71.707  1.00  0.00    -0.413 C  
HETATM   11  C   UNL     1     -12.156  13.243  70.263  1.00  0.00    -0.335 C  
ENDBRANCH   7   9
ENDBRANCH   6   7
ENDBRANCH   4   6
ENDBRANCH   2   4
TORSDOF 4
ENDMDL
MODEL       96
REMARK 921   NORMALIZED FREE ENERGY PREDICTED BY IDOCK:   -2.72 KCAL/MOL
REMARK 922        TOTAL FREE ENERGY PREDICTED BY IDOCK:   -3.58 KCAL/MOL
REMARK 923 INTER-LIGAND FREE ENERGY PREDICTED BY IDOCK:   -3.52 KCAL/MOL
REMARK 924 INTRA-LIGAND FREE ENERGY PREDICTED BY IDOCK:   -0.06 KCAL/MOL
REMARK 927      BINDING AFFINITY PREDICTED BY RF-SCORE:    0.00 PKD
ROOT
HETATM    1  C   UNL     1     -11.371  15.449  72.052  1.00  0.00    -0.379 C  
HETATM    2  N   UNL     1     -12.321  15.374  70.940  1.00  0.00    -0.363 N  
HETATM    3  C   UNL     1     -13.737  15.414  71.300  1.00  0.00    -0.475 C  
ENDROOT
BRANCH   2   4
HETATM    4  C   UNL     1     -11.870  15.136  69.625  1.00  0.00    -0.334 C  
HETATM    5  S   UNL     1     -11.379  16.340  68.544  1.00  0.00    -0.256 S  
BRANCH   4   6
HETATM    6  S   UNL     1     -11.622  13.451  69.178  1.00  0.00    -0.332 SA 
BRANCH   6   7
HETATM    7  C   UNL     1     -10.423  13.495  67.869  1.00  0.00    -0.250 C  
HETATM    8  S   UNL     1      -8.777  13.757  68.139  1.00  0.00    -0.188 S  
BRANCH   7   9
HETATM    9  N   UNL     1     -10.975  13.318  66.574  1.00  0.00    -0.284 N  
HETATM   10  C   UNL     1     -10.712  14.182  65.415  1.00  0.00    -0.342 C  
HETATM   11  C   UNL     1     -11.893  12.220  66.244  1.00  0.00    -0.317 C  
ENDBRANCH   7   9
ENDBRANCH   6   7
ENDBRANCH   4   6
ENDBRANCH   2   4
TORSDOF 4
ENDMDL
MODEL       97
REMARK 921   NORMALIZED FREE ENERGY PREDICTED BY IDOCK:   -2.72 KCAL/MOL
REMARK 922        TOTAL FREE ENERGY PREDICTED BY IDOCK:   -3.58 KCAL/MOL
REMARK 923 INTER-LIGAND FREE ENERGY PREDICTED BY IDOCK:   -3.34 KCAL/MOL
REMARK 924 INTRA-LIGAND FREE ENERGY PREDICTED BY IDOCK:   -0.24 KCAL/MOL
REMARK 927      BINDING AFFINITY PREDICTED BY RF-SCORE:    0.00 PKD
ROOT
HETATM    1  C   UNL     1     -10.450  15.851  66.974  1.00  0.00    -0.306 C  
HETATM    2  N   UNL     1     -11.404  14.847  67.449  1.00  0.00    -0.339 N  
HETATM    3  C   UNL     1     -11.699  14.868  68.881  1.00  0.00    -0.315 C  
ENDROOT
BRANCH   2   4
HETATM    4  C   UNL     1     -11.884  13.845  66.581  1.00  0.00    -0.420 C  
HETATM    5  S   UNL     1     -12.497  14.127  65.031  1.00  0.00    -0.373 S  
BRANCH   4   6
HETATM    6  S   UNL     1     -11.627  12.180  67.094  1.00  0.00    -0.305 SA 
BRANCH   6   7
HETATM    7  C   UNL     1     -10.003  11.764  66.511  1.00  0.00    -0.204 C  
HETATM    8  S   UNL     1      -8.597  12.468  67.127  1.00  0.00    -0.193 S  
BRANCH   7   9
HETATM    9  N   UNL     1      -9.993  10.810  65.460  1.00  0.00    -0.248 N  
HETATM   10  C   UNL     1      -9.596   9.402  65.598  1.00  0.00    -0.274 C  
HETATM   11  C   UNL     1     -10.393  11.136  64.086  1.00  0.00    -0.361 C  
ENDBRANCH   7   9
ENDBRANCH   6   7
ENDBRANCH   4   6
ENDBRANCH   2   4
TORSDOF 4
ENDMDL
MODEL       98
REMARK 921   NORMALIZED FREE ENERGY PREDICTED BY IDOCK:   -2.72 KCAL/MOL
REMARK 922        TOTAL FREE ENERGY PREDICTED BY IDOCK:   -3.58 KCAL/MOL
REMARK 923 INTER-LIGAND FREE ENERGY PREDICTED BY IDOCK:   -3.32 KCAL/MOL
REMARK 924 INTRA-LIGAND FREE ENERGY PREDICTED BY IDOCK:   -0.26 KCAL/MOL
REMARK 927      BINDING AFFINITY PREDICTED BY RF-SCORE:    0.00 PKD
ROOT
HETATM    1  C   UNL     1     -10.659  19.102  66.323  1.00  0.00    -0.434 C  
HETATM    2  N   UNL     1      -9.815  18.900  67.502  1.00  0.00    -0.316 N  
HETATM    3  C   UNL     1     -10.135  19.718  68.670  1.00  0.00    -0.440 C  
ENDROOT
BRANCH   2   4
HETATM    4  C   UNL     1      -8.681  18.063  67.439  1.00  0.00    -0.248 C  
HETATM    5  S   UNL     1      -7.312  18.368  66.495  1.00  0.00    -0.247 S  
BRANCH   4   6
HETATM    6  S   UNL     1      -8.635  16.724  68.582  1.00  0.00    -0.262 SA 
BRANCH   6   7
HETATM    7  C   UNL     1     -10.093  15.773  68.235  1.00  0.00    -0.222 C  
HETATM    8  S   UNL     1     -11.536  15.956  69.093  1.00  0.00    -0.370 S  
BRANCH   7   9
HETATM    9  N   UNL     1      -9.931  14.826  67.191  1.00  0.00    -0.234 N  
HETATM   10  C   UNL     1      -8.826  13.863  67.084  1.00  0.00    -0.226 C  
HETATM   11  C   UNL     1     -10.877  14.703  66.075  1.00  0.00    -0.318 C  
ENDBRANCH   7   9
ENDBRANCH   6   7
ENDBRANCH   4   6
ENDBRANCH   2   4
TORSDOF 4
ENDMDL
MODEL       99
REMARK 921   NORMALIZED FREE ENERGY PREDICTED BY IDOCK:   -2.72 KCAL/MOL
REMARK 922        TOTAL FREE ENERGY PREDICTED BY IDOCK:   -3.57 KCAL/MOL
REMARK 923 INTER-LIGAND FREE ENERGY PREDICTED BY IDOCK:   -3.30 KCAL/MOL
REMARK 924 INTRA-LIGAND FREE ENERGY PREDICTED BY IDOCK:   -0.28 KCAL/MOL
REMARK 927      BINDING AFFINITY PREDICTED BY RF-SCORE:    0.00 PKD
ROOT
HETATM    1  C   UNL     1      -9.244   9.368  70.428  1.00  0.00    -0.257 C  
HETATM    2  N   UNL     1     -10.646   9.600  70.779  1.00  0.00    -0.312 N  
HETATM    3  C   UNL     1     -11.316  10.687  70.067  1.00  0.00    -0.324 C  
ENDROOT
BRANCH   2   4
HETATM    4  C   UNL     1     -11.246   8.895  71.844  1.00  0.00    -0.377 C  
HETATM    5  S   UNL     1     -12.912   8.802  72.117  1.00  0.00    -0.423 S  
BRANCH   4   6
HETATM    6  S   UNL     1     -10.175   7.891  72.816  1.00  0.00    -0.332 SA 
BRANCH   6   7
HETATM    7  C   UNL     1     -10.482   6.230  72.271  1.00  0.00    -0.199 C  
HETATM    8  S   UNL     1     -11.148   5.043  73.270  1.00  0.00    -0.339 S  
BRANCH   7   9
HETATM    9  N   UNL     1     -10.093   5.981  70.929  1.00  0.00    -0.190 N  
HETATM   10  C   UNL     1      -8.727   5.668  70.487  1.00  0.00    -0.137 C  
HETATM   11  C   UNL     1     -11.040   6.009  69.808  1.00  0.00    -0.406 C  
ENDBRANCH   7   9
ENDBRANCH   6   7
ENDBRANCH   4   6
ENDBRANCH   2   4
TORSDOF 4
ENDMDL
MODEL      100
REMARK 921   NORMALIZED FREE ENERGY PREDICTED BY IDOCK:   -2.72 KCAL/MOL
REMARK 922        TOTAL FREE ENERGY PREDICTED BY IDOCK:   -3.57 KCAL/MOL
REMARK 923 INTER-LIGAND FREE ENERGY PREDICTED BY IDOCK:   -3.43 KCAL/MOL
REMARK 924 INTRA-LIGAND FREE ENERGY PREDICTED BY IDOCK:   -0.14 KCAL/MOL
REMARK 927      BINDING AFFINITY PREDICTED BY RF-SCORE:    0.00 PKD
ROOT
HETATM    1  C   UNL     1     -12.222  11.603  70.596  1.00  0.00    -0.366 C  
HETATM    2  N   UNL     1     -12.531  12.972  71.011  1.00  0.00    -0.353 N  
HETATM    3  C   UNL     1     -13.427  13.109  72.158  1.00  0.00    -0.560 C  
ENDROOT
BRANCH   2   4
HETATM    4  C   UNL     1     -12.091  14.072  70.245  1.00  0.00    -0.355 C  
HETATM    5  S   UNL     1     -11.534  15.531  70.891  1.00  0.00    -0.410 S  
BRANCH   4   6
HETATM    6  S   UNL     1     -11.932  13.802  68.512  1.00  0.00    -0.314 SA 
BRANCH   6   7
HETATM    7  C   UNL     1     -10.474  14.697  68.040  1.00  0.00    -0.236 C  
HETATM    8  S   UNL     1     -10.522  16.254  67.387  1.00  0.00    -0.300 S  
BRANCH   7   9
HETATM    9  N   UNL     1      -9.266  13.978  68.234  1.00  0.00    -0.196 N  
HETATM   10  C   UNL     1      -9.092  12.536  68.009  1.00  0.00    -0.200 C  
HETATM   11  C   UNL     1      -8.025  14.616  68.690  1.00  0.00    -0.141 C  
ENDBRANCH   7   9
ENDBRANCH   6   7
ENDBRANCH   4   6
ENDBRANCH   2   4
TORSDOF 4
ENDMDL
MODEL      101
REMARK 921   NORMALIZED FREE ENERGY PREDICTED BY IDOCK:   -2.72 KCAL/MOL
REMARK 922        TOTAL FREE ENERGY PREDICTED BY IDOCK:   -3.57 KCAL/MOL
REMARK 923 INTER-LIGAND FREE ENERGY PREDICTED BY IDOCK:   -3.37 KCAL/MOL
REMARK 924 INTRA-LIGAND FREE ENERGY PREDICTED BY IDOCK:   -0.20 KCAL/MOL
REMARK 927      BINDING AFFINITY PREDICTED BY RF-SCORE:    0.00 PKD
ROOT
HETATM    1  C   UNL     1     -10.149   7.139  73.879  1.00  0.00    -0.317 C  
HETATM    2  N   UNL     1     -10.832   6.577  72.712  1.00  0.00    -0.238 N  
HETATM    3  C   UNL     1     -11.504   5.295  72.917  1.00  0.00    -0.270 C  
ENDROOT
BRANCH   2   4
HETATM    4  C   UNL     1     -10.712   7.188  71.446  1.00  0.00    -0.225 C  
HETATM    5  S   UNL     1     -11.343   6.557  70.011  1.00  0.00    -0.410 S  
BRANCH   4   6
HETATM    6  S   UNL     1     -10.030   8.811  71.425  1.00  0.00    -0.311 SA 
BRANCH   6   7
HETATM    7  C   UNL     1     -11.377   9.869  70.959  1.00  0.00    -0.386 C  
HETATM    8  S   UNL     1     -12.849   9.901  71.786  1.00  0.00    -0.456 S  
BRANCH   7   9
HETATM    9  N   UNL     1     -11.118  10.664  69.812  1.00  0.00    -0.277 N  
HETATM   10  C   UNL     1      -9.851  10.689  69.067  1.00  0.00    -0.205 C  
HETATM   11  C   UNL     1     -12.116  11.570  69.231  1.00  0.00    -0.278 C  
ENDBRANCH   7   9
ENDBRANCH   6   7
ENDBRANCH   4   6
ENDBRANCH   2   4
TORSDOF 4
ENDMDL
MODEL      102
REMARK 921   NORMALIZED FREE ENERGY PREDICTED BY IDOCK:   -2.71 KCAL/MOL
REMARK 922        TOTAL FREE ENERGY PREDICTED BY IDOCK:   -3.56 KCAL/MOL
REMARK 923 INTER-LIGAND FREE ENERGY PREDICTED BY IDOCK:   -3.31 KCAL/MOL
REMARK 924 INTRA-LIGAND FREE ENERGY PREDICTED BY IDOCK:   -0.25 KCAL/MOL
REMARK 927      BINDING AFFINITY PREDICTED BY RF-SCORE:    0.00 PKD
ROOT
HETATM    1  C   UNL     1     -12.888  13.938  65.333  1.00  0.00    -0.427 C  
HETATM    2  N   UNL     1     -11.998  12.907  64.797  1.00  0.00    -0.372 N  
HETATM    3  C   UNL     1     -12.205  12.543  63.397  1.00  0.00    -0.517 C  
ENDROOT
BRANCH   2   4
HETATM    4  C   UNL     1     -11.099  12.224  65.643  1.00  0.00    -0.317 C  
HETATM    5  S   UNL     1     -10.140  10.915  65.170  1.00  0.00    -0.308 S  
BRANCH   4   6
HETATM    6  S   UNL     1     -10.833  12.932  67.233  1.00  0.00    -0.260 SA 
BRANCH   6   7
HETATM    7  C   UNL     1      -9.423  13.992  67.034  1.00  0.00    -0.250 C  
HETATM    8  S   UNL     1      -9.476  15.439  66.166  1.00  0.00    -0.351 S  
BRANCH   7   9
HETATM    9  N   UNL     1      -8.240  13.500  67.645  1.00  0.00    -0.164 N  
HETATM   10  C   UNL     1      -6.961  14.220  67.717  1.00  0.00    -0.177 C  
HETATM   11  C   UNL     1      -8.168  12.184  68.291  1.00  0.00    -0.168 C  
ENDBRANCH   7   9
ENDBRANCH   6   7
ENDBRANCH   4   6
ENDBRANCH   2   4
TORSDOF 4
ENDMDL
MODEL      103
REMARK 921   NORMALIZED FREE ENERGY PREDICTED BY IDOCK:   -2.71 KCAL/MOL
REMARK 922        TOTAL FREE ENERGY PREDICTED BY IDOCK:   -3.56 KCAL/MOL
REMARK 923 INTER-LIGAND FREE ENERGY PREDICTED BY IDOCK:   -3.37 KCAL/MOL
REMARK 924 INTRA-LIGAND FREE ENERGY PREDICTED BY IDOCK:   -0.19 KCAL/MOL
REMARK 927      BINDING AFFINITY PREDICTED BY RF-SCORE:    0.00 PKD
ROOT
HETATM    1  C   UNL     1      -6.447  17.348  69.244  1.00  0.00    -0.245 C  
HETATM    2  N   UNL     1      -7.265  18.520  68.928  1.00  0.00    -0.292 N  
HETATM    3  C   UNL     1      -6.759  19.805  69.406  1.00  0.00    -0.347 C  
ENDROOT
BRANCH   2   4
HETATM    4  C   UNL     1      -8.530  18.371  68.321  1.00  0.00    -0.303 C  
HETATM    5  S   UNL     1      -9.838  19.414  68.557  1.00  0.00    -0.446 S  
BRANCH   4   6
HETATM    6  S   UNL     1      -8.661  17.122  67.086  1.00  0.00    -0.211 SA 
BRANCH   6   7
HETATM    7  C   UNL     1      -9.767  15.914  67.770  1.00  0.00    -0.220 C  
HETATM    8  S   UNL     1      -9.872  15.597  69.426  1.00  0.00    -0.295 S  
BRANCH   7   9
HETATM    9  N   UNL     1     -10.534  15.218  66.800  1.00  0.00    -0.287 N  
HETATM   10  C   UNL     1     -10.722  15.641  65.405  1.00  0.00    -0.408 C  
HETATM   11  C   UNL     1     -11.240  13.965  67.095  1.00  0.00    -0.313 C  
ENDBRANCH   7   9
ENDBRANCH   6   7
ENDBRANCH   4   6
ENDBRANCH   2   4
TORSDOF 4
ENDMDL
MODEL      104
REMARK 921   NORMALIZED FREE ENERGY PREDICTED BY IDOCK:   -2.70 KCAL/MOL
REMARK 922        TOTAL FREE ENERGY PREDICTED BY IDOCK:   -3.55 KCAL/MOL
REMARK 923 INTER-LIGAND FREE ENERGY PREDICTED BY IDOCK:   -3.38 KCAL/MOL
REMARK 924 INTRA-LIGAND FREE ENERGY PREDICTED BY IDOCK:   -0.17 KCAL/MOL
REMARK 927      BINDING AFFINITY PREDICTED BY RF-SCORE:    0.00 PKD
ROOT
HETATM    1  C   UNL     1      -9.521  15.369  67.983  1.00  0.00    -0.201 C  
HETATM    2  N   UNL     1     -10.919  15.074  67.667  1.00  0.00    -0.295 N  
HETATM    3  C   UNL     1     -11.844  15.058  68.799  1.00  0.00    -0.301 C  
ENDROOT
BRANCH   2   4
HETATM    4  C   UNL     1     -11.297  14.693  66.362  1.00  0.00    -0.348 C  
HETATM    5  S   UNL     1     -10.929  15.565  64.962  1.00  0.00    -0.415 S  
BRANCH   4   6
HETATM    6  S   UNL     1     -12.022  13.097  66.195  1.00  0.00    -0.421 SA 
BRANCH   6   7
HETATM    7  C   UNL     1     -10.791  12.117  65.375  1.00  0.00    -0.294 C  
HETATM    8  S   UNL     1     -10.711  11.958  63.695  1.00  0.00    -0.471 S  
BRANCH   7   9
HETATM    9  N   UNL     1      -9.898  11.455  66.257  1.00  0.00    -0.212 N  
HETATM   10  C   UNL     1      -8.670  12.038  66.814  1.00  0.00    -0.192 C  
HETATM   11  C   UNL     1     -10.113  10.079  66.721  1.00  0.00    -0.226 C  
ENDBRANCH   7   9
ENDBRANCH   6   7
ENDBRANCH   4   6
ENDBRANCH   2   4
TORSDOF 4
ENDMDL
MODEL      105
REMARK 921   NORMALIZED FREE ENERGY PREDICTED BY IDOCK:   -2.68 KCAL/MOL
REMARK 922        TOTAL FREE ENERGY PREDICTED BY IDOCK:   -3.53 KCAL/MOL
REMARK 923 INTER-LIGAND FREE ENERGY PREDICTED BY IDOCK:   -3.27 KCAL/MOL
REMARK 924 INTRA-LIGAND FREE ENERGY PREDICTED BY IDOCK:   -0.26 KCAL/MOL
REMARK 927      BINDING AFFINITY PREDICTED BY RF-SCORE:    0.00 PKD
ROOT
HETATM    1  C   UNL     1      -9.808   4.537  71.173  1.00  0.00    -0.193 C  
HETATM    2  N   UNL     1     -10.629   5.607  71.741  1.00  0.00    -0.232 N  
HETATM    3  C   UNL     1     -11.463   5.240  72.884  1.00  0.00    -0.270 C  
ENDROOT
BRANCH   2   4
HETATM    4  C   UNL     1     -10.698   6.869  71.114  1.00  0.00    -0.225 C  
HETATM    5  S   UNL     1     -10.764   7.110  69.443  1.00  0.00    -0.211 S  
BRANCH   4   6
HETATM    6  S   UNL     1     -10.934   8.255  72.175  1.00  0.00    -0.351 SA 
BRANCH   6   7
HETATM    7  C   UNL     1     -12.488   8.953  71.680  1.00  0.00    -0.344 C  
HETATM    8  S   UNL     1     -13.916   8.054  71.597  1.00  0.00    -0.384 S  
BRANCH   7   9
HETATM    9  N   UNL     1     -12.420  10.327  71.332  1.00  0.00    -0.392 N  
HETATM   10  C   UNL     1     -13.198  11.402  71.963  1.00  0.00    -0.327 C  
HETATM   11  C   UNL     1     -11.536  10.836  70.276  1.00  0.00    -0.338 C  
ENDBRANCH   7   9
ENDBRANCH   6   7
ENDBRANCH   4   6
ENDBRANCH   2   4
TORSDOF 4
ENDMDL
MODEL      106
REMARK 921   NORMALIZED FREE ENERGY PREDICTED BY IDOCK:   -2.68 KCAL/MOL
REMARK 922        TOTAL FREE ENERGY PREDICTED BY IDOCK:   -3.52 KCAL/MOL
REMARK 923 INTER-LIGAND FREE ENERGY PREDICTED BY IDOCK:   -3.13 KCAL/MOL
REMARK 924 INTRA-LIGAND FREE ENERGY PREDICTED BY IDOCK:   -0.39 KCAL/MOL
REMARK 927      BINDING AFFINITY PREDICTED BY RF-SCORE:    0.00 PKD
ROOT
HETATM    1  C   UNL     1      -8.809  11.515  68.036  1.00  0.00    -0.158 C  
HETATM    2  N   UNL     1      -9.948  11.734  67.144  1.00  0.00    -0.202 N  
HETATM    3  C   UNL     1      -9.669  11.649  65.712  1.00  0.00    -0.236 C  
ENDROOT
BRANCH   2   4
HETATM    4  C   UNL     1     -11.197  12.139  67.660  1.00  0.00    -0.286 C  
HETATM    5  S   UNL     1     -11.842  11.622  69.135  1.00  0.00    -0.317 S  
BRANCH   4   6
HETATM    6  S   UNL     1     -12.024  13.423  66.784  1.00  0.00    -0.375 SA 
BRANCH   6   7
HETATM    7  C   UNL     1     -11.011  14.862  67.013  1.00  0.00    -0.327 C  
HETATM    8  S   UNL     1     -10.369  15.749  65.728  1.00  0.00    -0.392 S  
BRANCH   7   9
HETATM    9  N   UNL     1     -10.764  15.184  68.373  1.00  0.00    -0.242 N  
HETATM   10  C   UNL     1     -11.787  15.585  69.349  1.00  0.00    -0.374 C  
HETATM   11  C   UNL     1      -9.422  15.147  68.968  1.00  0.00    -0.221 C  
ENDBRANCH   7   9
ENDBRANCH   6   7
ENDBRANCH   4   6
ENDBRANCH   2   4
TORSDOF 4
ENDMDL
MODEL      107
REMARK 921   NORMALIZED FREE ENERGY PREDICTED BY IDOCK:   -2.67 KCAL/MOL
REMARK 922        TOTAL FREE ENERGY PREDICTED BY IDOCK:   -3.52 KCAL/MOL
REMARK 923 INTER-LIGAND FREE ENERGY PREDICTED BY IDOCK:   -3.33 KCAL/MOL
REMARK 924 INTRA-LIGAND FREE ENERGY PREDICTED BY IDOCK:   -0.18 KCAL/MOL
REMARK 927      BINDING AFFINITY PREDICTED BY RF-SCORE:    0.00 PKD
ROOT
HETATM    1  C   UNL     1     -12.536   6.862  71.163  1.00  0.00    -0.349 C  
HETATM    2  N   UNL     1     -11.227   7.496  71.328  1.00  0.00    -0.247 N  
HETATM    3  C   UNL     1     -10.795   7.729  72.705  1.00  0.00    -0.379 C  
ENDROOT
BRANCH   2   4
HETATM    4  C   UNL     1     -10.511   7.969  70.209  1.00  0.00    -0.222 C  
HETATM    5  S   UNL     1     -10.400   7.162  68.728  1.00  0.00    -0.196 S  
BRANCH   4   6
HETATM    6  S   UNL     1      -9.871   9.605  70.327  1.00  0.00    -0.246 SA 
BRANCH   6   7
HETATM    7  C   UNL     1     -11.060  10.625  69.493  1.00  0.00    -0.274 C  
HETATM    8  S   UNL     1     -11.144  10.752  67.811  1.00  0.00    -0.318 S  
BRANCH   7   9
HETATM    9  N   UNL     1     -11.916  11.347  70.365  1.00  0.00    -0.362 N  
HETATM   10  C   UNL     1     -12.082  12.807  70.374  1.00  0.00    -0.302 C  
HETATM   11  C   UNL     1     -12.752  10.692  71.379  1.00  0.00    -0.440 C  
ENDBRANCH   7   9
ENDBRANCH   6   7
ENDBRANCH   4   6
ENDBRANCH   2   4
TORSDOF 4
ENDMDL
MODEL      108
REMARK 921   NORMALIZED FREE ENERGY PREDICTED BY IDOCK:   -2.67 KCAL/MOL
REMARK 922        TOTAL FREE ENERGY PREDICTED BY IDOCK:   -3.52 KCAL/MOL
REMARK 923 INTER-LIGAND FREE ENERGY PREDICTED BY IDOCK:   -3.30 KCAL/MOL
REMARK 924 INTRA-LIGAND FREE ENERGY PREDICTED BY IDOCK:   -0.22 KCAL/MOL
REMARK 927      BINDING AFFINITY PREDICTED BY RF-SCORE:    0.00 PKD
ROOT
HETATM    1  C   UNL     1     -13.494   7.292  71.572  1.00  0.00    -0.363 C  
HETATM    2  N   UNL     1     -12.673   8.439  71.963  1.00  0.00    -0.343 N  
HETATM    3  C   UNL     1     -13.342   9.738  71.963  1.00  0.00    -0.451 C  
ENDROOT
BRANCH   2   4
HETATM    4  C   UNL     1     -11.287   8.289  72.183  1.00  0.00    -0.352 C  
HETATM    5  S   UNL     1     -10.602   7.217  73.296  1.00  0.00    -0.383 S  
BRANCH   4   6
HETATM    6  S   UNL     1     -10.223   9.141  71.069  1.00  0.00    -0.320 SA 
BRANCH   6   7
HETATM    7  C   UNL     1      -9.482   7.869  70.077  1.00  0.00    -0.157 C  
HETATM    8  S   UNL     1      -7.973   7.196  70.423  1.00  0.00    -0.114 S  
BRANCH   7   9
HETATM    9  N   UNL     1     -10.259   7.488  68.952  1.00  0.00    -0.203 N  
HETATM   10  C   UNL     1     -10.369   8.250  67.701  1.00  0.00    -0.248 C  
HETATM   11  C   UNL     1     -11.055   6.255  68.917  1.00  0.00    -0.362 C  
ENDBRANCH   7   9
ENDBRANCH   6   7
ENDBRANCH   4   6
ENDBRANCH   2   4
TORSDOF 4
ENDMDL
MODEL      109
REMARK 921   NORMALIZED FREE ENERGY PREDICTED BY IDOCK:   -2.67 KCAL/MOL
REMARK 922        TOTAL FREE ENERGY PREDICTED BY IDOCK:   -3.51 KCAL/MOL
REMARK 923 INTER-LIGAND FREE ENERGY PREDICTED BY IDOCK:   -3.25 KCAL/MOL
REMARK 924 INTRA-LIGAND FREE ENERGY PREDICTED BY IDOCK:   -0.27 KCAL/MOL
REMARK 927      BINDING AFFINITY PREDICTED BY RF-SCORE:    0.00 PKD
ROOT
HETATM    1  C   UNL     1     -11.012  10.221  68.330  1.00  0.00    -0.264 C  
HETATM    2  N   UNL     1     -11.328  11.640  68.159  1.00  0.00    -0.266 N  
HETATM    3  C   UNL     1     -11.796  12.342  69.353  1.00  0.00    -0.304 C  
ENDROOT
BRANCH   2   4
HETATM    4  C   UNL     1     -11.308  12.231  66.879  1.00  0.00    -0.333 C  
HETATM    5  S   UNL     1     -10.532  11.575  65.528  1.00  0.00    -0.284 S  
BRANCH   4   6
HETATM    6  S   UNL     1     -12.338  13.643  66.655  1.00  0.00    -0.253 SA 
BRANCH   6   7
HETATM    7  C   UNL     1     -11.216  15.006  66.478  1.00  0.00    -0.312 C  
HETATM    8  S   UNL     1     -10.852  15.709  64.986  1.00  0.00    -0.404 S  
BRANCH   7   9
HETATM    9  N   UNL     1     -10.630  15.435  67.697  1.00  0.00    -0.274 N  
HETATM   10  C   UNL     1     -11.369  15.940  68.862  1.00  0.00    -0.377 C  
HETATM   11  C   UNL     1      -9.181  15.416  67.932  1.00  0.00    -0.180 C  
ENDBRANCH   7   9
ENDBRANCH   6   7
ENDBRANCH   4   6
ENDBRANCH   2   4
TORSDOF 4
ENDMDL
MODEL      110
REMARK 921   NORMALIZED FREE ENERGY PREDICTED BY IDOCK:   -2.67 KCAL/MOL
REMARK 922        TOTAL FREE ENERGY PREDICTED BY IDOCK:   -3.51 KCAL/MOL
REMARK 923 INTER-LIGAND FREE ENERGY PREDICTED BY IDOCK:   -3.36 KCAL/MOL
REMARK 924 INTRA-LIGAND FREE ENERGY PREDICTED BY IDOCK:   -0.15 KCAL/MOL
REMARK 927      BINDING AFFINITY PREDICTED BY RF-SCORE:    0.00 PKD
ROOT
HETATM    1  C   UNL     1      -9.717   3.859  70.721  1.00  0.00    -0.185 C  
HETATM    2  N   UNL     1      -9.747   5.312  70.899  1.00  0.00    -0.174 N  
HETATM    3  C   UNL     1      -8.789   5.863  71.855  1.00  0.00    -0.138 C  
ENDROOT
BRANCH   2   4
HETATM    4  C   UNL     1     -10.745   6.092  70.277  1.00  0.00    -0.300 C  
HETATM    5  S   UNL     1     -10.909   6.288  68.606  1.00  0.00    -0.345 S  
BRANCH   4   6
HETATM    6  S   UNL     1     -12.008   6.725  71.328  1.00  0.00    -0.368 SA 
BRANCH   6   7
HETATM    7  C   UNL     1     -11.751   8.481  71.347  1.00  0.00    -0.294 C  
HETATM    8  S   UNL     1     -10.235   9.191  71.128  1.00  0.00    -0.320 S  
BRANCH   7   9
HETATM    9  N   UNL     1     -12.929   9.234  71.591  1.00  0.00    -0.351 N  
HETATM   10  C   UNL     1     -14.187   8.692  72.122  1.00  0.00    -0.439 C  
HETATM   11  C   UNL     1     -13.017  10.677  71.334  1.00  0.00    -0.443 C  
ENDBRANCH   7   9
ENDBRANCH   6   7
ENDBRANCH   4   6
ENDBRANCH   2   4
TORSDOF 4
ENDMDL
MODEL      111
REMARK 921   NORMALIZED FREE ENERGY PREDICTED BY IDOCK:   -2.66 KCAL/MOL
REMARK 922        TOTAL FREE ENERGY PREDICTED BY IDOCK:   -3.50 KCAL/MOL
REMARK 923 INTER-LIGAND FREE ENERGY PREDICTED BY IDOCK:   -3.40 KCAL/MOL
REMARK 924 INTRA-LIGAND FREE ENERGY PREDICTED BY IDOCK:   -0.09 KCAL/MOL
REMARK 927      BINDING AFFINITY PREDICTED BY RF-SCORE:    0.00 PKD
ROOT
HETATM    1  C   UNL     1     -10.053  15.285  69.099  1.00  0.00    -0.240 C  
HETATM    2  N   UNL     1     -10.875  15.007  67.920  1.00  0.00    -0.272 N  
HETATM    3  C   UNL     1     -11.937  14.018  68.094  1.00  0.00    -0.347 C  
ENDROOT
BRANCH   2   4
HETATM    4  C   UNL     1     -10.549  15.571  66.668  1.00  0.00    -0.307 C  
HETATM    5  S   UNL     1     -10.423  14.700  65.225  1.00  0.00    -0.419 S  
BRANCH   4   6
HETATM    6  S   UNL     1     -10.473  17.329  66.601  1.00  0.00    -0.205 SA 
BRANCH   6   7
HETATM    7  C   UNL     1      -8.821  17.737  67.107  1.00  0.00    -0.246 C  
HETATM    8  S   UNL     1      -7.450  16.998  66.454  1.00  0.00    -0.287 S  
BRANCH   7   9
HETATM    9  N   UNL     1      -8.757  18.718  68.130  1.00  0.00    -0.297 N  
HETATM   10  C   UNL     1      -7.521  19.316  68.655  1.00  0.00    -0.345 C  
HETATM   11  C   UNL     1      -9.952  19.259  68.790  1.00  0.00    -0.440 C  
ENDBRANCH   7   9
ENDBRANCH   6   7
ENDBRANCH   4   6
ENDBRANCH   2   4
TORSDOF 4
ENDMDL
MODEL      112
REMARK 921   NORMALIZED FREE ENERGY PREDICTED BY IDOCK:   -2.66 KCAL/MOL
REMARK 922        TOTAL FREE ENERGY PREDICTED BY IDOCK:   -3.50 KCAL/MOL
REMARK 923 INTER-LIGAND FREE ENERGY PREDICTED BY IDOCK:   -3.30 KCAL/MOL
REMARK 924 INTRA-LIGAND FREE ENERGY PREDICTED BY IDOCK:   -0.20 KCAL/MOL
REMARK 927      BINDING AFFINITY PREDICTED BY RF-SCORE:    0.00 PKD
ROOT
HETATM    1  C   UNL     1     -14.390   8.585  71.949  1.00  0.00    -0.448 C  
HETATM    2  N   UNL     1     -13.093   9.237  71.764  1.00  0.00    -0.371 N  
HETATM    3  C   UNL     1     -13.070  10.688  71.943  1.00  0.00    -0.458 C  
ENDROOT
BRANCH   2   4
HETATM    4  C   UNL     1     -11.980   8.504  71.302  1.00  0.00    -0.294 C  
HETATM    5  S   UNL     1     -10.452   9.162  71.003  1.00  0.00    -0.324 S  
BRANCH   4   6
HETATM    6  S   UNL     1     -12.171   6.754  71.236  1.00  0.00    -0.327 SA 
BRANCH   6   7
HETATM    7  C   UNL     1     -10.710   6.103  72.004  1.00  0.00    -0.233 C  
HETATM    8  S   UNL     1     -10.391   6.260  73.655  1.00  0.00    -0.297 S  
BRANCH   7   9
HETATM    9  N   UNL     1      -9.820   5.463  71.103  1.00  0.00    -0.177 N  
HETATM   10  C   UNL     1      -8.577   4.777  71.482  1.00  0.00    -0.117 C  
HETATM   11  C   UNL     1     -10.054   5.415  69.654  1.00  0.00    -0.249 C  
ENDBRANCH   7   9
ENDBRANCH   6   7
ENDBRANCH   4   6
ENDBRANCH   2   4
TORSDOF 4
ENDMDL
MODEL      113
REMARK 921   NORMALIZED FREE ENERGY PREDICTED BY IDOCK:   -2.65 KCAL/MOL
REMARK 922        TOTAL FREE ENERGY PREDICTED BY IDOCK:   -3.49 KCAL/MOL
REMARK 923 INTER-LIGAND FREE ENERGY PREDICTED BY IDOCK:   -3.35 KCAL/MOL
REMARK 924 INTRA-LIGAND FREE ENERGY PREDICTED BY IDOCK:   -0.15 KCAL/MOL
REMARK 927      BINDING AFFINITY PREDICTED BY RF-SCORE:    0.00 PKD
ROOT
HETATM    1  C   UNL     1      -9.952   9.960  69.719  1.00  0.00    -0.243 C  
HETATM    2  N   UNL     1     -10.865  10.963  69.169  1.00  0.00    -0.220 N  
HETATM    3  C   UNL     1     -11.963  11.379  70.039  1.00  0.00    -0.363 C  
ENDROOT
BRANCH   2   4
HETATM    4  C   UNL     1     -10.749  11.380  67.826  1.00  0.00    -0.211 C  
HETATM    5  S   UNL     1      -9.856  10.570  66.641  1.00  0.00    -0.207 S  
BRANCH   4   6
HETATM    6  S   UNL     1     -11.777  12.723  67.335  1.00  0.00    -0.348 SA 
BRANCH   6   7
HETATM    7  C   UNL     1     -10.815  13.629  66.150  1.00  0.00    -0.279 C  
HETATM    8  S   UNL     1      -9.372  14.413  66.544  1.00  0.00    -0.254 S  
BRANCH   7   9
HETATM    9  N   UNL     1     -11.381  13.659  64.849  1.00  0.00    -0.331 N  
HETATM   10  C   UNL     1     -11.195  12.627  63.819  1.00  0.00    -0.463 C  
HETATM   11  C   UNL     1     -12.237  14.755  64.380  1.00  0.00    -0.428 C  
ENDBRANCH   7   9
ENDBRANCH   6   7
ENDBRANCH   4   6
ENDBRANCH   2   4
TORSDOF 4
ENDMDL
MODEL      114
REMARK 921   NORMALIZED FREE ENERGY PREDICTED BY IDOCK:   -2.65 KCAL/MOL
REMARK 922        TOTAL FREE ENERGY PREDICTED BY IDOCK:   -3.49 KCAL/MOL
REMARK 923 INTER-LIGAND FREE ENERGY PREDICTED BY IDOCK:   -3.24 KCAL/MOL
REMARK 924 INTRA-LIGAND FREE ENERGY PREDICTED BY IDOCK:   -0.24 KCAL/MOL
REMARK 927      BINDING AFFINITY PREDICTED BY RF-SCORE:    0.00 PKD
ROOT
HETATM    1  C   UNL     1     -13.203   9.702  72.202  1.00  0.00    -0.444 C  
HETATM    2  N   UNL     1     -13.060   8.368  71.618  1.00  0.00    -0.335 N  
HETATM    3  C   UNL     1     -14.276   7.558  71.560  1.00  0.00    -0.445 C  
ENDROOT
BRANCH   2   4
HETATM    4  C   UNL     1     -11.788   7.868  71.270  1.00  0.00    -0.296 C  
HETATM    5  S   UNL     1     -11.520   6.470  70.359  1.00  0.00    -0.401 S  
BRANCH   4   6
HETATM    6  S   UNL     1     -10.413   8.899  71.654  1.00  0.00    -0.354 SA 
BRANCH   6   7
HETATM    7  C   UNL     1      -9.990   9.690  70.122  1.00  0.00    -0.261 C  
HETATM    8  S   UNL     1     -11.098  10.584  69.213  1.00  0.00    -0.263 S  
BRANCH   7   9
HETATM    9  N   UNL     1      -8.647   9.479  69.715  1.00  0.00    -0.173 N  
HETATM   10  C   UNL     1      -7.684  10.540  69.391  1.00  0.00    -0.155 C  
HETATM   11  C   UNL     1      -8.061   8.141  69.571  1.00  0.00    -0.119 C  
ENDBRANCH   7   9
ENDBRANCH   6   7
ENDBRANCH   4   6
ENDBRANCH   2   4
TORSDOF 4
ENDMDL
MODEL      115
REMARK 921   NORMALIZED FREE ENERGY PREDICTED BY IDOCK:   -2.64 KCAL/MOL
REMARK 922        TOTAL FREE ENERGY PREDICTED BY IDOCK:   -3.48 KCAL/MOL
REMARK 923 INTER-LIGAND FREE ENERGY PREDICTED BY IDOCK:   -3.16 KCAL/MOL
REMARK 924 INTRA-LIGAND FREE ENERGY PREDICTED BY IDOCK:   -0.32 KCAL/MOL
REMARK 927      BINDING AFFINITY PREDICTED BY RF-SCORE:    0.00 PKD
ROOT
HETATM    1  C   UNL     1     -10.500  19.381  66.078  1.00  0.00    -0.505 C  
HETATM    2  N   UNL     1      -9.645  19.239  67.257  1.00  0.00    -0.312 N  
HETATM    3  C   UNL     1     -10.267  19.543  68.544  1.00  0.00    -0.416 C  
ENDROOT
BRANCH   2   4
HETATM    4  C   UNL     1      -8.269  18.960  67.117  1.00  0.00    -0.269 C  
HETATM    5  S   UNL     1      -7.024  20.000  67.592  1.00  0.00    -0.272 S  
BRANCH   4   6
HETATM    6  S   UNL     1      -7.852  17.331  66.595  1.00  0.00    -0.288 SA 
BRANCH   6   7
HETATM    7  C   UNL     1      -8.138  16.307  68.016  1.00  0.00    -0.148 C  
HETATM    8  S   UNL     1      -6.891  15.731  69.000  1.00  0.00    -0.160 S  
BRANCH   7   9
HETATM    9  N   UNL     1      -9.504  15.990  68.235  1.00  0.00    -0.204 N  
HETATM   10  C   UNL     1     -10.499  15.754  67.180  1.00  0.00    -0.309 C  
HETATM   11  C   UNL     1     -10.083  15.859  69.577  1.00  0.00    -0.277 C  
ENDBRANCH   7   9
ENDBRANCH   6   7
ENDBRANCH   4   6
ENDBRANCH   2   4
TORSDOF 4
ENDMDL
MODEL      116
REMARK 921   NORMALIZED FREE ENERGY PREDICTED BY IDOCK:   -2.64 KCAL/MOL
REMARK 922        TOTAL FREE ENERGY PREDICTED BY IDOCK:   -3.47 KCAL/MOL
REMARK 923 INTER-LIGAND FREE ENERGY PREDICTED BY IDOCK:   -3.25 KCAL/MOL
REMARK 924 INTRA-LIGAND FREE ENERGY PREDICTED BY IDOCK:   -0.23 KCAL/MOL
REMARK 927      BINDING AFFINITY PREDICTED BY RF-SCORE:    0.00 PKD
ROOT
HETATM    1  C   UNL     1      -9.629  16.815  68.318  1.00  0.00    -0.244 C  
HETATM    2  N   UNL     1      -9.432  16.054  67.083  1.00  0.00    -0.214 N  
HETATM    3  C   UNL     1      -8.062  15.993  66.577  1.00  0.00    -0.269 C  
ENDROOT
BRANCH   2   4
HETATM    4  C   UNL     1     -10.537  15.541  66.372  1.00  0.00    -0.311 C  
HETATM    5  S   UNL     1     -11.037  16.083  64.851  1.00  0.00    -0.267 S  
BRANCH   4   6
HETATM    6  S   UNL     1     -11.302  14.106  67.048  1.00  0.00    -0.348 SA 
BRANCH   6   7
HETATM    7  C   UNL     1     -10.504  12.739  66.246  1.00  0.00    -0.257 C  
HETATM    8  S   UNL     1      -9.049  12.076  66.788  1.00  0.00    -0.198 S  
BRANCH   7   9
HETATM    9  N   UNL     1     -11.184  12.270  65.091  1.00  0.00    -0.315 N  
HETATM   10  C   UNL     1     -10.619  11.360  64.085  1.00  0.00    -0.369 C  
HETATM   11  C   UNL     1     -12.565  12.653  64.772  1.00  0.00    -0.454 C  
ENDBRANCH   7   9
ENDBRANCH   6   7
ENDBRANCH   4   6
ENDBRANCH   2   4
TORSDOF 4
ENDMDL
MODEL      117
REMARK 921   NORMALIZED FREE ENERGY PREDICTED BY IDOCK:   -2.64 KCAL/MOL
REMARK 922        TOTAL FREE ENERGY PREDICTED BY IDOCK:   -3.47 KCAL/MOL
REMARK 923 INTER-LIGAND FREE ENERGY PREDICTED BY IDOCK:   -3.25 KCAL/MOL
REMARK 924 INTRA-LIGAND FREE ENERGY PREDICTED BY IDOCK:   -0.22 KCAL/MOL
REMARK 927      BINDING AFFINITY PREDICTED BY RF-SCORE:    0.00 PKD
ROOT
HETATM    1  C   UNL     1     -10.772  15.592  65.161  1.00  0.00    -0.440 C  
HETATM    2  N   UNL     1     -10.493  16.172  66.476  1.00  0.00    -0.303 N  
HETATM    3  C   UNL     1     -11.129  15.516  67.617  1.00  0.00    -0.311 C  
ENDROOT
BRANCH   2   4
HETATM    4  C   UNL     1      -9.765  17.375  66.590  1.00  0.00    -0.290 C  
HETATM    5  S   UNL     1     -10.414  18.846  67.112  1.00  0.00    -0.456 S  
BRANCH   4   6
HETATM    6  S   UNL     1      -8.023  17.257  66.361  1.00  0.00    -0.304 SA 
BRANCH   6   7
HETATM    7  C   UNL     1      -7.339  17.317  67.997  1.00  0.00    -0.192 C  
HETATM    8  S   UNL     1      -7.549  16.079  69.127  1.00  0.00    -0.227 S  
BRANCH   7   9
HETATM    9  N   UNL     1      -6.624  18.509  68.282  1.00  0.00    -0.213 N  
HETATM   10  C   UNL     1      -6.978  19.481  69.325  1.00  0.00    -0.350 C  
HETATM   11  C   UNL     1      -5.419  18.908  67.545  1.00  0.00    -0.162 C  
ENDBRANCH   7   9
ENDBRANCH   6   7
ENDBRANCH   4   6
ENDBRANCH   2   4
TORSDOF 4
ENDMDL
MODEL      118
REMARK 921   NORMALIZED FREE ENERGY PREDICTED BY IDOCK:   -2.64 KCAL/MOL
REMARK 922        TOTAL FREE ENERGY PREDICTED BY IDOCK:   -3.47 KCAL/MOL
REMARK 923 INTER-LIGAND FREE ENERGY PREDICTED BY IDOCK:   -3.39 KCAL/MOL
REMARK 924 INTRA-LIGAND FREE ENERGY PREDICTED BY IDOCK:   -0.08 KCAL/MOL
REMARK 927      BINDING AFFINITY PREDICTED BY RF-SCORE:    0.00 PKD
ROOT
HETATM    1  C   UNL     1     -13.962   7.354  71.552  1.00  0.00    -0.396 C  
HETATM    2  N   UNL     1     -12.890   8.318  71.804  1.00  0.00    -0.329 N  
HETATM    3  C   UNL     1     -13.313   9.667  72.175  1.00  0.00    -0.454 C  
ENDROOT
BRANCH   2   4
HETATM    4  C   UNL     1     -11.543   7.977  71.557  1.00  0.00    -0.275 C  
HETATM    5  S   UNL     1     -10.951   6.396  71.483  1.00  0.00    -0.274 S  
BRANCH   4   6
HETATM    6  S   UNL     1     -10.474   9.300  71.102  1.00  0.00    -0.333 SA 
BRANCH   6   7
HETATM    7  C   UNL     1     -10.646   9.444  69.342  1.00  0.00    -0.221 C  
HETATM    8  S   UNL     1     -10.185   8.223  68.270  1.00  0.00    -0.203 S  
BRANCH   7   9
HETATM    9  N   UNL     1     -11.179  10.688  68.913  1.00  0.00    -0.256 N  
HETATM   10  C   UNL     1     -11.822  11.680  69.785  1.00  0.00    -0.357 C  
HETATM   11  C   UNL     1     -11.141  11.129  67.513  1.00  0.00    -0.291 C  
ENDBRANCH   7   9
ENDBRANCH   6   7
ENDBRANCH   4   6
ENDBRANCH   2   4
TORSDOF 4
ENDMDL
MODEL      119
REMARK 921   NORMALIZED FREE ENERGY PREDICTED BY IDOCK:   -2.63 KCAL/MOL
REMARK 922        TOTAL FREE ENERGY PREDICTED BY IDOCK:   -3.47 KCAL/MOL
REMARK 923 INTER-LIGAND FREE ENERGY PREDICTED BY IDOCK:   -3.15 KCAL/MOL
REMARK 924 INTRA-LIGAND FREE ENERGY PREDICTED BY IDOCK:   -0.31 KCAL/MOL
REMARK 927      BINDING AFFINITY PREDICTED BY RF-SCORE:    0.00 PKD
ROOT
HETATM    1  C   UNL     1     -11.392   5.708  72.209  1.00  0.00    -0.240 C  
HETATM    2  N   UNL     1     -10.710   6.411  71.122  1.00  0.00    -0.235 N  
HETATM    3  C   UNL     1     -11.290   6.254  69.790  1.00  0.00    -0.436 C  
ENDROOT
BRANCH   2   4
HETATM    4  C   UNL     1      -9.488   7.078  71.353  1.00  0.00    -0.159 C  
HETATM    5  S   UNL     1      -7.976   6.515  70.852  1.00  0.00    -0.112 S  
BRANCH   4   6
HETATM    6  S   UNL     1      -9.601   8.699  72.034  1.00  0.00    -0.295 SA 
BRANCH   6   7
HETATM    7  C   UNL     1     -10.294   9.694  70.738  1.00  0.00    -0.286 C  
HETATM    8  S   UNL     1      -9.463  10.056  69.313  1.00  0.00    -0.228 S  
BRANCH   7   9
HETATM    9  N   UNL     1     -11.596  10.182  71.018  1.00  0.00    -0.372 N  
HETATM   10  C   UNL     1     -12.595   9.503  71.855  1.00  0.00    -0.396 C  
HETATM   11  C   UNL     1     -12.098  11.456  70.488  1.00  0.00    -0.394 C  
ENDBRANCH   7   9
ENDBRANCH   6   7
ENDBRANCH   4   6
ENDBRANCH   2   4
TORSDOF 4
ENDMDL
MODEL      120
REMARK 921   NORMALIZED FREE ENERGY PREDICTED BY IDOCK:   -2.63 KCAL/MOL
REMARK 922        TOTAL FREE ENERGY PREDICTED BY IDOCK:   -3.46 KCAL/MOL
REMARK 923 INTER-LIGAND FREE ENERGY PREDICTED BY IDOCK:   -3.37 KCAL/MOL
REMARK 924 INTRA-LIGAND FREE ENERGY PREDICTED BY IDOCK:   -0.09 KCAL/MOL
REMARK 927      BINDING AFFINITY PREDICTED BY RF-SCORE:    0.00 PKD
ROOT
HETATM    1  C   UNL     1     -10.472  17.253  67.303  1.00  0.00    -0.319 C  
HETATM    2  N   UNL     1      -9.565  16.125  67.082  1.00  0.00    -0.227 N  
HETATM    3  C   UNL     1      -8.360  16.412  66.307  1.00  0.00    -0.327 C  
ENDROOT
BRANCH   2   4
HETATM    4  C   UNL     1      -9.928  14.822  67.484  1.00  0.00    -0.219 C  
HETATM    5  S   UNL     1      -8.838  13.636  67.995  1.00  0.00    -0.195 S  
BRANCH   4   6
HETATM    6  S   UNL     1     -11.653  14.507  67.644  1.00  0.00    -0.388 SA 
BRANCH   6   7
HETATM    7  C   UNL     1     -11.842  13.797  69.259  1.00  0.00    -0.344 C  
HETATM    8  S   UNL     1     -11.816  12.132  69.540  1.00  0.00    -0.300 S  
BRANCH   7   9
HETATM    9  N   UNL     1     -12.045  14.751  70.290  1.00  0.00    -0.301 N  
HETATM   10  C   UNL     1     -11.104  15.820  70.653  1.00  0.00    -0.354 C  
HETATM   11  C   UNL     1     -13.252  14.774  71.125  1.00  0.00    -0.393 C  
ENDBRANCH   7   9
ENDBRANCH   6   7
ENDBRANCH   4   6
ENDBRANCH   2   4
TORSDOF 4
ENDMDL
MODEL      121
REMARK 921   NORMALIZED FREE ENERGY PREDICTED BY IDOCK:   -2.61 KCAL/MOL
REMARK 922        TOTAL FREE ENERGY PREDICTED BY IDOCK:   -3.44 KCAL/MOL
REMARK 923 INTER-LIGAND FREE ENERGY PREDICTED BY IDOCK:   -3.12 KCAL/MOL
REMARK 924 INTRA-LIGAND FREE ENERGY PREDICTED BY IDOCK:   -0.32 KCAL/MOL
REMARK 927      BINDING AFFINITY PREDICTED BY RF-SCORE:    0.00 PKD
ROOT
HETATM    1  C   UNL     1      -9.988  10.593  65.545  1.00  0.00    -0.272 C  
HETATM    2  N   UNL     1      -9.529  11.102  66.837  1.00  0.00    -0.183 N  
HETATM    3  C   UNL     1      -8.125  11.502  66.909  1.00  0.00    -0.164 C  
ENDROOT
BRANCH   2   4
HETATM    4  C   UNL     1     -10.375  11.066  67.966  1.00  0.00    -0.185 C  
HETATM    5  S   UNL     1     -10.129  10.085  69.320  1.00  0.00    -0.228 S  
BRANCH   4   6
HETATM    6  S   UNL     1     -11.649  12.279  68.025  1.00  0.00    -0.356 SA 
BRANCH   6   7
HETATM    7  C   UNL     1     -10.914  13.750  67.356  1.00  0.00    -0.284 C  
HETATM    8  S   UNL     1      -9.846  14.723  68.230  1.00  0.00    -0.227 S  
BRANCH   7   9
HETATM    9  N   UNL     1     -11.326  14.051  66.031  1.00  0.00    -0.322 N  
HETATM   10  C   UNL     1     -10.433  14.458  64.938  1.00  0.00    -0.423 C  
HETATM   11  C   UNL     1     -12.727  13.982  65.600  1.00  0.00    -0.481 C  
ENDBRANCH   7   9
ENDBRANCH   6   7
ENDBRANCH   4   6
ENDBRANCH   2   4
TORSDOF 4
ENDMDL
MODEL      122
REMARK 921   NORMALIZED FREE ENERGY PREDICTED BY IDOCK:   -2.60 KCAL/MOL
REMARK 922        TOTAL FREE ENERGY PREDICTED BY IDOCK:   -3.43 KCAL/MOL
REMARK 923 INTER-LIGAND FREE ENERGY PREDICTED BY IDOCK:   -3.28 KCAL/MOL
REMARK 924 INTRA-LIGAND FREE ENERGY PREDICTED BY IDOCK:   -0.15 KCAL/MOL
REMARK 927      BINDING AFFINITY PREDICTED BY RF-SCORE:    0.00 PKD
ROOT
HETATM    1  C   UNL     1      -9.014  18.786  67.846  1.00  0.00    -0.295 C  
HETATM    2  N   UNL     1      -9.829  18.284  66.739  1.00  0.00    -0.323 N  
HETATM    3  C   UNL     1     -10.612  19.282  66.012  1.00  0.00    -0.461 C  
ENDROOT
BRANCH   2   4
HETATM    4  C   UNL     1      -9.943  16.898  66.500  1.00  0.00    -0.301 C  
HETATM    5  S   UNL     1     -10.726  16.212  65.169  1.00  0.00    -0.280 S  
BRANCH   4   6
HETATM    6  S   UNL     1      -9.023  15.845  67.572  1.00  0.00    -0.196 SA 
BRANCH   6   7
HETATM    7  C   UNL     1     -10.182  14.612  68.109  1.00  0.00    -0.231 C  
HETATM    8  S   UNL     1     -10.329  13.102  67.368  1.00  0.00    -0.240 S  
BRANCH   7   9
HETATM    9  N   UNL     1     -10.994  15.020  69.200  1.00  0.00    -0.249 N  
HETATM   10  C   UNL     1     -10.869  16.294  69.921  1.00  0.00    -0.352 C  
HETATM   11  C   UNL     1     -12.078  14.188  69.738  1.00  0.00    -0.354 C  
ENDBRANCH   7   9
ENDBRANCH   6   7
ENDBRANCH   4   6
ENDBRANCH   2   4
TORSDOF 4
ENDMDL
MODEL      123
REMARK 921   NORMALIZED FREE ENERGY PREDICTED BY IDOCK:   -2.60 KCAL/MOL
REMARK 922        TOTAL FREE ENERGY PREDICTED BY IDOCK:   -3.43 KCAL/MOL
REMARK 923 INTER-LIGAND FREE ENERGY PREDICTED BY IDOCK:   -3.17 KCAL/MOL
REMARK 924 INTRA-LIGAND FREE ENERGY PREDICTED BY IDOCK:   -0.26 KCAL/MOL
REMARK 927      BINDING AFFINITY PREDICTED BY RF-SCORE:    0.00 PKD
ROOT
HETATM    1  C   UNL     1     -11.692  11.801  69.281  1.00  0.00    -0.335 C  
HETATM    2  N   UNL     1     -11.708  13.162  68.740  1.00  0.00    -0.304 N  
HETATM    3  C   UNL     1     -12.247  14.197  69.620  1.00  0.00    -0.326 C  
ENDROOT
BRANCH   2   4
HETATM    4  C   UNL     1     -11.349  13.406  67.398  1.00  0.00    -0.309 C  
HETATM    5  S   UNL     1     -12.438  13.805  66.169  1.00  0.00    -0.370 S  
BRANCH   4   6
HETATM    6  S   UNL     1      -9.624  13.490  67.055  1.00  0.00    -0.255 SA 
BRANCH   6   7
HETATM    7  C   UNL     1      -9.087  15.022  67.775  1.00  0.00    -0.180 C  
HETATM    8  S   UNL     1      -7.819  15.121  68.886  1.00  0.00    -0.178 S  
BRANCH   7   9
HETATM    9  N   UNL     1      -9.837  16.151  67.355  1.00  0.00    -0.235 N  
HETATM   10  C   UNL     1     -10.697  16.967  68.223  1.00  0.00    -0.372 C  
HETATM   11  C   UNL     1      -9.830  16.640  65.971  1.00  0.00    -0.309 C  
ENDBRANCH   7   9
ENDBRANCH   6   7
ENDBRANCH   4   6
ENDBRANCH   2   4
TORSDOF 4
ENDMDL
MODEL      124
REMARK 921   NORMALIZED FREE ENERGY PREDICTED BY IDOCK:   -2.60 KCAL/MOL
REMARK 922        TOTAL FREE ENERGY PREDICTED BY IDOCK:   -3.42 KCAL/MOL
REMARK 923 INTER-LIGAND FREE ENERGY PREDICTED BY IDOCK:   -3.37 KCAL/MOL
REMARK 924 INTRA-LIGAND FREE ENERGY PREDICTED BY IDOCK:   -0.05 KCAL/MOL
REMARK 927      BINDING AFFINITY PREDICTED BY RF-SCORE:    0.00 PKD
ROOT
HETATM    1  C   UNL     1     -10.457  17.329  68.663  1.00  0.00    -0.356 C  
HETATM    2  N   UNL     1     -10.469  16.741  67.322  1.00  0.00    -0.321 N  
HETATM    3  C   UNL     1     -10.317  17.677  66.209  1.00  0.00    -0.342 C  
ENDROOT
BRANCH   2   4
HETATM    4  C   UNL     1     -10.753  15.372  67.140  1.00  0.00    -0.314 C  
HETATM    5  S   UNL     1     -11.750  14.454  68.150  1.00  0.00    -0.336 S  
BRANCH   4   6
HETATM    6  S   UNL     1     -10.179  14.648  65.641  1.00  0.00    -0.383 SA 
BRANCH   6   7
HETATM    7  C   UNL     1     -10.929  13.041  65.589  1.00  0.00    -0.273 C  
HETATM    8  S   UNL     1     -12.405  12.739  64.826  1.00  0.00    -0.475 S  
BRANCH   7   9
HETATM    9  N   UNL     1     -10.193  12.038  66.272  1.00  0.00    -0.217 N  
HETATM   10  C   UNL     1      -8.728  11.988  66.383  1.00  0.00    -0.088 C  
HETATM   11  C   UNL     1     -10.835  10.912  66.962  1.00  0.00    -0.266 C  
ENDBRANCH   7   9
ENDBRANCH   6   7
ENDBRANCH   4   6
ENDBRANCH   2   4
TORSDOF 4
ENDMDL
MODEL      125
REMARK 921   NORMALIZED FREE ENERGY PREDICTED BY IDOCK:   -2.60 KCAL/MOL
REMARK 922        TOTAL FREE ENERGY PREDICTED BY IDOCK:   -3.42 KCAL/MOL
REMARK 923 INTER-LIGAND FREE ENERGY PREDICTED BY IDOCK:   -3.33 KCAL/MOL
REMARK 924 INTRA-LIGAND FREE ENERGY PREDICTED BY IDOCK:   -0.09 KCAL/MOL
REMARK 927      BINDING AFFINITY PREDICTED BY RF-SCORE:    0.00 PKD
ROOT
HETATM    1  C   UNL     1     -10.935   6.708  69.413  1.00  0.00    -0.309 C  
HETATM    2  N   UNL     1     -10.609   7.866  68.579  1.00  0.00    -0.154 N  
HETATM    3  C   UNL     1     -10.545   7.624  67.139  1.00  0.00    -0.340 C  
ENDROOT
BRANCH   2   4
HETATM    4  C   UNL     1     -10.246   9.096  69.168  1.00  0.00    -0.207 C  
HETATM    5  S   UNL     1      -9.099   9.273  70.396  1.00  0.00    -0.261 S  
BRANCH   4   6
HETATM    6  S   UNL     1     -10.902  10.545  68.412  1.00  0.00    -0.260 SA 
BRANCH   6   7
HETATM    7  C   UNL     1     -11.887  11.314  69.672  1.00  0.00    -0.360 C  
HETATM    8  S   UNL     1     -12.643  10.445  70.907  1.00  0.00    -0.408 S  
BRANCH   7   9
HETATM    9  N   UNL     1     -12.008  12.722  69.533  1.00  0.00    -0.301 N  
HETATM   10  C   UNL     1     -11.766  13.475  68.295  1.00  0.00    -0.359 C  
HETATM   11  C   UNL     1     -12.400  13.599  70.643  1.00  0.00    -0.368 C  
ENDBRANCH   7   9
ENDBRANCH   6   7
ENDBRANCH   4   6
ENDBRANCH   2   4
TORSDOF 4
ENDMDL
MODEL      126
REMARK 921   NORMALIZED FREE ENERGY PREDICTED BY IDOCK:   -2.59 KCAL/MOL
REMARK 922        TOTAL FREE ENERGY PREDICTED BY IDOCK:   -3.41 KCAL/MOL
REMARK 923 INTER-LIGAND FREE ENERGY PREDICTED BY IDOCK:   -3.21 KCAL/MOL
REMARK 924 INTRA-LIGAND FREE ENERGY PREDICTED BY IDOCK:   -0.20 KCAL/MOL
REMARK 927      BINDING AFFINITY PREDICTED BY RF-SCORE:    0.00 PKD
ROOT
HETATM    1  C   UNL     1     -12.745  14.003  65.597  1.00  0.00    -0.481 C  
HETATM    2  N   UNL     1     -12.006  12.966  64.875  1.00  0.00    -0.368 N  
HETATM    3  C   UNL     1     -12.179  12.947  63.424  1.00  0.00    -0.490 C  
ENDROOT
BRANCH   2   4
HETATM    4  C   UNL     1     -11.292  11.972  65.576  1.00  0.00    -0.328 C  
HETATM    5  S   UNL     1     -10.193  10.900  64.870  1.00  0.00    -0.316 S  
BRANCH   4   6
HETATM    6  S   UNL     1     -11.424  12.010  67.332  1.00  0.00    -0.326 SA 
BRANCH   6   7
HETATM    7  C   UNL     1      -9.751  11.933  67.920  1.00  0.00    -0.192 C  
HETATM    8  S   UNL     1      -8.646  13.194  67.715  1.00  0.00    -0.203 S  
BRANCH   7   9
HETATM    9  N   UNL     1      -9.416  10.707  68.551  1.00  0.00    -0.168 N  
HETATM   10  C   UNL     1      -8.069  10.324  68.999  1.00  0.00    -0.132 C  
HETATM   11  C   UNL     1     -10.407   9.663  68.835  1.00  0.00    -0.203 C  
ENDBRANCH   7   9
ENDBRANCH   6   7
ENDBRANCH   4   6
ENDBRANCH   2   4
TORSDOF 4
ENDMDL
MODEL      127
REMARK 921   NORMALIZED FREE ENERGY PREDICTED BY IDOCK:   -2.57 KCAL/MOL
REMARK 922        TOTAL FREE ENERGY PREDICTED BY IDOCK:   -3.39 KCAL/MOL
REMARK 923 INTER-LIGAND FREE ENERGY PREDICTED BY IDOCK:   -3.22 KCAL/MOL
REMARK 924 INTRA-LIGAND FREE ENERGY PREDICTED BY IDOCK:   -0.17 KCAL/MOL
REMARK 927      BINDING AFFINITY PREDICTED BY RF-SCORE:    0.00 PKD
ROOT
HETATM    1  C   UNL     1     -12.641   6.869  71.491  1.00  0.00    -0.367 C  
HETATM    2  N   UNL     1     -11.710   7.911  71.925  1.00  0.00    -0.282 N  
HETATM    3  C   UNL     1     -10.968   7.638  73.155  1.00  0.00    -0.353 C  
ENDROOT
BRANCH   2   4
HETATM    4  C   UNL     1     -11.657   9.152  71.256  1.00  0.00    -0.331 C  
HETATM    5  S   UNL     1     -12.853  10.343  71.344  1.00  0.00    -0.486 S  
BRANCH   4   6
HETATM    6  S   UNL     1     -10.142   9.537  70.446  1.00  0.00    -0.282 SA 
BRANCH   6   7
HETATM    7  C   UNL     1      -9.812   8.140  69.402  1.00  0.00    -0.182 C  
HETATM    8  S   UNL     1      -9.067   6.731  69.960  1.00  0.00    -0.147 S  
BRANCH   7   9
HETATM    9  N   UNL     1     -10.203   8.324  68.050  1.00  0.00    -0.206 N  
HETATM   10  C   UNL     1     -10.439   7.245  67.081  1.00  0.00    -0.324 C  
HETATM   11  C   UNL     1     -10.422   9.650  67.460  1.00  0.00    -0.262 C  
ENDBRANCH   7   9
ENDBRANCH   6   7
ENDBRANCH   4   6
ENDBRANCH   2   4
TORSDOF 4
ENDMDL
MODEL      128
REMARK 921   NORMALIZED FREE ENERGY PREDICTED BY IDOCK:   -2.57 KCAL/MOL
REMARK 922        TOTAL FREE ENERGY PREDICTED BY IDOCK:   -3.39 KCAL/MOL
REMARK 923 INTER-LIGAND FREE ENERGY PREDICTED BY IDOCK:   -3.17 KCAL/MOL
REMARK 924 INTRA-LIGAND FREE ENERGY PREDICTED BY IDOCK:   -0.22 KCAL/MOL
REMARK 927      BINDING AFFINITY PREDICTED BY RF-SCORE:    0.00 PKD
ROOT
HETATM    1  C   UNL     1      -9.667   9.276  68.275  1.00  0.00    -0.150 C  
HETATM    2  N   UNL     1     -10.311  10.368  69.007  1.00  0.00    -0.201 N  
HETATM    3  C   UNL     1     -10.878  10.022  70.309  1.00  0.00    -0.313 C  
ENDROOT
BRANCH   2   4
HETATM    4  C   UNL     1     -10.483  11.632  68.405  1.00  0.00    -0.213 C  
HETATM    5  S   UNL     1     -11.641  12.771  68.876  1.00  0.00    -0.333 S  
BRANCH   4   6
HETATM    6  S   UNL     1      -9.266  12.107  67.225  1.00  0.00    -0.192 SA 
BRANCH   6   7
HETATM    7  C   UNL     1     -10.147  13.066  66.018  1.00  0.00    -0.284 C  
HETATM    8  S   UNL     1     -10.048  14.750  65.932  1.00  0.00    -0.341 S  
BRANCH   7   9
HETATM    9  N   UNL     1     -10.963  12.294  65.150  1.00  0.00    -0.294 N  
HETATM   10  C   UNL     1     -10.530  11.091  64.427  1.00  0.00    -0.354 C  
HETATM   11  C   UNL     1     -12.367  12.625  64.877  1.00  0.00    -0.498 C  
ENDBRANCH   7   9
ENDBRANCH   6   7
ENDBRANCH   4   6
ENDBRANCH   2   4
TORSDOF 4
ENDMDL
MODEL      129
REMARK 921   NORMALIZED FREE ENERGY PREDICTED BY IDOCK:   -2.57 KCAL/MOL
REMARK 922        TOTAL FREE ENERGY PREDICTED BY IDOCK:   -3.39 KCAL/MOL
REMARK 923 INTER-LIGAND FREE ENERGY PREDICTED BY IDOCK:   -3.22 KCAL/MOL
REMARK 924 INTRA-LIGAND FREE ENERGY PREDICTED BY IDOCK:   -0.17 KCAL/MOL
REMARK 927      BINDING AFFINITY PREDICTED BY RF-SCORE:    0.00 PKD
ROOT
HETATM    1  C   UNL     1     -10.277  10.927  65.109  1.00  0.00    -0.297 C  
HETATM    2  N   UNL     1     -10.861  11.845  66.088  1.00  0.00    -0.281 N  
HETATM    3  C   UNL     1     -11.971  12.669  65.615  1.00  0.00    -0.452 C  
ENDROOT
BRANCH   2   4
HETATM    4  C   UNL     1     -10.276  12.004  67.362  1.00  0.00    -0.200 C  
HETATM    5  S   UNL     1      -8.735  12.641  67.639  1.00  0.00    -0.191 S  
BRANCH   4   6
HETATM    6  S   UNL     1     -11.322  11.698  68.745  1.00  0.00    -0.293 SA 
BRANCH   6   7
HETATM    7  C   UNL     1     -10.858  10.085  69.323  1.00  0.00    -0.230 C  
HETATM    8  S   UNL     1     -10.090   8.943  68.345  1.00  0.00    -0.194 S  
BRANCH   7   9
HETATM    9  N   UNL     1     -11.216   9.830  70.673  1.00  0.00    -0.306 N  
HETATM   10  C   UNL     1     -10.436   9.019  71.618  1.00  0.00    -0.355 C  
HETATM   11  C   UNL     1     -12.437  10.367  71.286  1.00  0.00    -0.415 C  
ENDBRANCH   7   9
ENDBRANCH   6   7
ENDBRANCH   4   6
ENDBRANCH   2   4
TORSDOF 4
ENDMDL
MODEL      130
REMARK 921   NORMALIZED FREE ENERGY PREDICTED BY IDOCK:   -2.57 KCAL/MOL
REMARK 922        TOTAL FREE ENERGY PREDICTED BY IDOCK:   -3.38 KCAL/MOL
REMARK 923 INTER-LIGAND FREE ENERGY PREDICTED BY IDOCK:   -3.11 KCAL/MOL
REMARK 924 INTRA-LIGAND FREE ENERGY PREDICTED BY IDOCK:   -0.28 KCAL/MOL
REMARK 927      BINDING AFFINITY PREDICTED BY RF-SCORE:    0.00 PKD
ROOT
HETATM    1  C   UNL     1      -6.892  17.792  66.096  1.00  0.00    -0.294 C  
HETATM    2  N   UNL     1      -7.948  18.035  67.081  1.00  0.00    -0.208 N  
HETATM    3  C   UNL     1      -7.503  18.411  68.421  1.00  0.00    -0.286 C  
ENDROOT
BRANCH   2   4
HETATM    4  C   UNL     1      -9.298  17.776  66.764  1.00  0.00    -0.280 C  
HETATM    5  S   UNL     1     -10.526  18.938  66.764  1.00  0.00    -0.429 S  
BRANCH   4   6
HETATM    6  S   UNL     1      -9.659  16.170  66.137  1.00  0.00    -0.349 SA 
BRANCH   6   7
HETATM    7  C   UNL     1      -9.393  15.072  67.506  1.00  0.00    -0.195 C  
HETATM    8  S   UNL     1      -7.936  14.259  67.762  1.00  0.00    -0.185 S  
BRANCH   7   9
HETATM    9  N   UNL     1     -10.524  14.916  68.349  1.00  0.00    -0.238 N  
HETATM   10  C   UNL     1     -11.693  14.078  68.053  1.00  0.00    -0.359 C  
HETATM   11  C   UNL     1     -10.647  15.594  69.645  1.00  0.00    -0.283 C  
ENDBRANCH   7   9
ENDBRANCH   6   7
ENDBRANCH   4   6
ENDBRANCH   2   4
TORSDOF 4
ENDMDL
MODEL      131
REMARK 921   NORMALIZED FREE ENERGY PREDICTED BY IDOCK:   -2.56 KCAL/MOL
REMARK 922        TOTAL FREE ENERGY PREDICTED BY IDOCK:   -3.38 KCAL/MOL
REMARK 923 INTER-LIGAND FREE ENERGY PREDICTED BY IDOCK:   -3.10 KCAL/MOL
REMARK 924 INTRA-LIGAND FREE ENERGY PREDICTED BY IDOCK:   -0.28 KCAL/MOL
REMARK 927      BINDING AFFINITY PREDICTED BY RF-SCORE:    0.00 PKD
ROOT
HETATM    1  C   UNL     1     -10.570  13.828  64.718  1.00  0.00    -0.428 C  
HETATM    2  N   UNL     1     -11.190  12.503  64.677  1.00  0.00    -0.300 N  
HETATM    3  C   UNL     1     -12.263  12.324  63.701  1.00  0.00    -0.567 C  
ENDROOT
BRANCH   2   4
HETATM    4  C   UNL     1     -10.847  11.520  65.630  1.00  0.00    -0.252 C  
HETATM    5  S   UNL     1      -9.862  10.182  65.319  1.00  0.00    -0.313 S  
BRANCH   4   6
HETATM    6  S   UNL     1     -11.328  11.844  67.292  1.00  0.00    -0.327 SA 
BRANCH   6   7
HETATM    7  C   UNL     1      -9.883  11.498  68.264  1.00  0.00    -0.203 C  
HETATM    8  S   UNL     1      -9.795  10.209  69.351  1.00  0.00    -0.231 S  
BRANCH   7   9
HETATM    9  N   UNL     1      -8.820  12.417  68.066  1.00  0.00    -0.181 N  
HETATM   10  C   UNL     1      -8.956  13.880  68.049  1.00  0.00    -0.184 C  
HETATM   11  C   UNL     1      -7.431  11.991  67.855  1.00  0.00    -0.114 C  
ENDBRANCH   7   9
ENDBRANCH   6   7
ENDBRANCH   4   6
ENDBRANCH   2   4
TORSDOF 4
ENDMDL
MODEL      132
REMARK 921   NORMALIZED FREE ENERGY PREDICTED BY IDOCK:   -2.56 KCAL/MOL
REMARK 922        TOTAL FREE ENERGY PREDICTED BY IDOCK:   -3.38 KCAL/MOL
REMARK 923 INTER-LIGAND FREE ENERGY PREDICTED BY IDOCK:   -3.20 KCAL/MOL
REMARK 924 INTRA-LIGAND FREE ENERGY PREDICTED BY IDOCK:   -0.18 KCAL/MOL
REMARK 927      BINDING AFFINITY PREDICTED BY RF-SCORE:    0.00 PKD
ROOT
HETATM    1  C   UNL     1     -12.511   9.997  71.133  1.00  0.00    -0.379 C  
HETATM    2  N   UNL     1     -12.782   8.589  71.429  1.00  0.00    -0.300 N  
HETATM    3  C   UNL     1     -14.177   8.246  71.700  1.00  0.00    -0.447 C  
ENDROOT
BRANCH   2   4
HETATM    4  C   UNL     1     -11.722   7.669  71.577  1.00  0.00    -0.281 C  
HETATM    5  S   UNL     1     -10.861   7.416  73.009  1.00  0.00    -0.377 S  
BRANCH   4   6
HETATM    6  S   UNL     1     -11.436   6.585  70.219  1.00  0.00    -0.397 SA 
BRANCH   6   7
HETATM    7  C   UNL     1     -10.125   7.344  69.294  1.00  0.00    -0.186 C  
HETATM    8  S   UNL     1      -8.549   7.488  69.884  1.00  0.00    -0.140 S  
BRANCH   7   9
HETATM    9  N   UNL     1     -10.525   7.844  68.028  1.00  0.00    -0.207 N  
HETATM   10  C   UNL     1     -10.825   7.021  66.848  1.00  0.00    -0.280 C  
HETATM   11  C   UNL     1     -10.688   9.277  67.755  1.00  0.00    -0.207 C  
ENDBRANCH   7   9
ENDBRANCH   6   7
ENDBRANCH   4   6
ENDBRANCH   2   4
TORSDOF 4
ENDMDL
MODEL      133
REMARK 921   NORMALIZED FREE ENERGY PREDICTED BY IDOCK:   -2.55 KCAL/MOL
REMARK 922        TOTAL FREE ENERGY PREDICTED BY IDOCK:   -3.37 KCAL/MOL
REMARK 923 INTER-LIGAND FREE ENERGY PREDICTED BY IDOCK:   -3.46 KCAL/MOL
REMARK 924 INTRA-LIGAND FREE ENERGY PREDICTED BY IDOCK:    0.09 KCAL/MOL
REMARK 927      BINDING AFFINITY PREDICTED BY RF-SCORE:    0.00 PKD
ROOT
HETATM    1  C   UNL     1     -13.666   9.017  71.859  1.00  0.00    -0.441 C  
HETATM    2  N   UNL     1     -12.421   8.571  71.233  1.00  0.00    -0.286 N  
HETATM    3  C   UNL     1     -12.301   7.135  70.991  1.00  0.00    -0.334 C  
ENDROOT
BRANCH   2   4
HETATM    4  C   UNL     1     -11.361   9.477  71.016  1.00  0.00    -0.352 C  
HETATM    5  S   UNL     1      -9.723   9.103  71.202  1.00  0.00    -0.266 S  
BRANCH   4   6
HETATM    6  S   UNL     1     -11.796  11.032  70.311  1.00  0.00    -0.387 SA 
BRANCH   6   7
HETATM    7  C   UNL     1     -11.385  10.887  68.591  1.00  0.00    -0.295 C  
HETATM    8  S   UNL     1     -10.765   9.472  67.909  1.00  0.00    -0.186 S  
BRANCH   7   9
HETATM    9  N   UNL     1     -11.598  12.075  67.844  1.00  0.00    -0.330 N  
HETATM   10  C   UNL     1     -11.830  12.135  66.394  1.00  0.00    -0.246 C  
HETATM   11  C   UNL     1     -11.612  13.408  68.459  1.00  0.00    -0.333 C  
ENDBRANCH   7   9
ENDBRANCH   6   7
ENDBRANCH   4   6
ENDBRANCH   2   4
TORSDOF 4
ENDMDL
MODEL      134
REMARK 921   NORMALIZED FREE ENERGY PREDICTED BY IDOCK:   -2.55 KCAL/MOL
REMARK 922        TOTAL FREE ENERGY PREDICTED BY IDOCK:   -3.37 KCAL/MOL
REMARK 923 INTER-LIGAND FREE ENERGY PREDICTED BY IDOCK:   -3.16 KCAL/MOL
REMARK 924 INTRA-LIGAND FREE ENERGY PREDICTED BY IDOCK:   -0.21 KCAL/MOL
REMARK 927      BINDING AFFINITY PREDICTED BY RF-SCORE:    0.00 PKD
ROOT
HETATM    1  C   UNL     1     -10.024  11.038  68.092  1.00  0.00    -0.177 C  
HETATM    2  N   UNL     1     -10.723  12.215  68.610  1.00  0.00    -0.229 N  
HETATM    3  C   UNL     1     -11.575  11.996  69.777  1.00  0.00    -0.276 C  
ENDROOT
BRANCH   2   4
HETATM    4  C   UNL     1     -10.670  13.444  67.919  1.00  0.00    -0.247 C  
HETATM    5  S   UNL     1      -9.514  13.842  66.752  1.00  0.00    -0.276 S  
BRANCH   4   6
HETATM    6  S   UNL     1     -12.029  14.536  68.164  1.00  0.00    -0.204 SA 
BRANCH   6   7
HETATM    7  C   UNL     1     -11.472  15.696  69.387  1.00  0.00    -0.348 C  
HETATM    8  S   UNL     1     -10.313  16.882  69.069  1.00  0.00    -0.335 S  
BRANCH   7   9
HETATM    9  N   UNL     1     -12.065  15.518  70.664  1.00  0.00    -0.357 N  
HETATM   10  C   UNL     1     -11.362  15.632  71.949  1.00  0.00    -0.334 C  
HETATM   11  C   UNL     1     -13.487  15.196  70.842  1.00  0.00    -0.376 C  
ENDBRANCH   7   9
ENDBRANCH   6   7
ENDBRANCH   4   6
ENDBRANCH   2   4
TORSDOF 4
ENDMDL
MODEL      135
REMARK 921   NORMALIZED FREE ENERGY PREDICTED BY IDOCK:   -2.54 KCAL/MOL
REMARK 922        TOTAL FREE ENERGY PREDICTED BY IDOCK:   -3.36 KCAL/MOL
REMARK 923 INTER-LIGAND FREE ENERGY PREDICTED BY IDOCK:   -3.09 KCAL/MOL
REMARK 924 INTRA-LIGAND FREE ENERGY PREDICTED BY IDOCK:   -0.26 KCAL/MOL
REMARK 927      BINDING AFFINITY PREDICTED BY RF-SCORE:    0.00 PKD
ROOT
HETATM    1  C   UNL     1     -12.798  13.845  65.701  1.00  0.00    -0.424 C  
HETATM    2  N   UNL     1     -11.747  13.116  66.413  1.00  0.00    -0.360 N  
HETATM    3  C   UNL     1     -12.021  12.794  67.812  1.00  0.00    -0.260 C  
ENDROOT
BRANCH   2   4
HETATM    4  C   UNL     1     -10.498  12.877  65.801  1.00  0.00    -0.278 C  
HETATM    5  S   UNL     1     -10.292  12.395  64.193  1.00  0.00    -0.383 S  
BRANCH   4   6
HETATM    6  S   UNL     1      -9.073  13.311  66.740  1.00  0.00    -0.168 SA 
BRANCH   6   7
HETATM    7  C   UNL     1      -9.289  15.028  67.133  1.00  0.00    -0.215 C  
HETATM    8  S   UNL     1      -9.649  16.199  65.971  1.00  0.00    -0.338 S  
BRANCH   7   9
HETATM    9  N   UNL     1      -9.103  15.334  68.507  1.00  0.00    -0.184 N  
HETATM   10  C   UNL     1      -7.817  15.295  69.217  1.00  0.00    -0.221 C  
HETATM   11  C   UNL     1     -10.206  15.736  69.388  1.00  0.00    -0.262 C  
ENDBRANCH   7   9
ENDBRANCH   6   7
ENDBRANCH   4   6
ENDBRANCH   2   4
TORSDOF 4
ENDMDL
MODEL      136
REMARK 921   NORMALIZED FREE ENERGY PREDICTED BY IDOCK:   -2.54 KCAL/MOL
REMARK 922        TOTAL FREE ENERGY PREDICTED BY IDOCK:   -3.36 KCAL/MOL
REMARK 923 INTER-LIGAND FREE ENERGY PREDICTED BY IDOCK:   -3.37 KCAL/MOL
REMARK 924 INTRA-LIGAND FREE ENERGY PREDICTED BY IDOCK:    0.01 KCAL/MOL
REMARK 927      BINDING AFFINITY PREDICTED BY RF-SCORE:    0.00 PKD
ROOT
HETATM    1  C   UNL     1      -7.869  16.979  66.449  1.00  0.00    -0.308 C  
HETATM    2  N   UNL     1      -9.188  16.522  66.889  1.00  0.00    -0.217 N  
HETATM    3  C   UNL     1      -9.636  17.012  68.192  1.00  0.00    -0.266 C  
ENDROOT
BRANCH   2   4
HETATM    4  C   UNL     1      -9.898  15.556  66.146  1.00  0.00    -0.316 C  
HETATM    5  S   UNL     1     -10.932  15.906  64.855  1.00  0.00    -0.306 S  
BRANCH   4   6
HETATM    6  S   UNL     1      -9.506  13.872  66.479  1.00  0.00    -0.247 SA 
BRANCH   6   7
HETATM    7  C   UNL     1     -11.074  13.050  66.597  1.00  0.00    -0.289 C  
HETATM    8  S   UNL     1     -11.942  12.526  65.246  1.00  0.00    -0.422 S  
BRANCH   7   9
HETATM    9  N   UNL     1     -11.548  12.897  67.926  1.00  0.00    -0.323 N  
HETATM   10  C   UNL     1     -11.719  11.615  68.624  1.00  0.00    -0.325 C  
HETATM   11  C   UNL     1     -11.926  14.037  68.771  1.00  0.00    -0.347 C  
ENDBRANCH   7   9
ENDBRANCH   6   7
ENDBRANCH   4   6
ENDBRANCH   2   4
TORSDOF 4
ENDMDL
MODEL      137
REMARK 921   NORMALIZED FREE ENERGY PREDICTED BY IDOCK:   -2.54 KCAL/MOL
REMARK 922        TOTAL FREE ENERGY PREDICTED BY IDOCK:   -3.35 KCAL/MOL
REMARK 923 INTER-LIGAND FREE ENERGY PREDICTED BY IDOCK:   -3.22 KCAL/MOL
REMARK 924 INTRA-LIGAND FREE ENERGY PREDICTED BY IDOCK:   -0.13 KCAL/MOL
REMARK 927      BINDING AFFINITY PREDICTED BY RF-SCORE:    0.00 PKD
ROOT
HETATM    1  C   UNL     1     -11.404  11.441  67.638  1.00  0.00    -0.290 C  
HETATM    2  N   UNL     1     -11.301  12.613  66.767  1.00  0.00    -0.301 N  
HETATM    3  C   UNL     1     -11.068  12.343  65.350  1.00  0.00    -0.306 C  
ENDROOT
BRANCH   2   4
HETATM    4  C   UNL     1     -11.290  13.914  67.313  1.00  0.00    -0.323 C  
HETATM    5  S   UNL     1     -11.512  14.272  68.950  1.00  0.00    -0.307 S  
BRANCH   4   6
HETATM    6  S   UNL     1     -10.811  15.212  66.224  1.00  0.00    -0.329 SA 
BRANCH   6   7
HETATM    7  C   UNL     1      -9.453  16.015  67.037  1.00  0.00    -0.218 C  
HETATM    8  S   UNL     1      -7.947  15.282  67.252  1.00  0.00    -0.215 S  
BRANCH   7   9
HETATM    9  N   UNL     1      -9.753  17.317  67.515  1.00  0.00    -0.259 N  
HETATM   10  C   UNL     1     -10.206  17.637  68.876  1.00  0.00    -0.354 C  
HETATM   11  C   UNL     1      -9.638  18.518  66.678  1.00  0.00    -0.321 C  
ENDBRANCH   7   9
ENDBRANCH   6   7
ENDBRANCH   4   6
ENDBRANCH   2   4
TORSDOF 4
ENDMDL
MODEL      138
REMARK 921   NORMALIZED FREE ENERGY PREDICTED BY IDOCK:   -2.54 KCAL/MOL
REMARK 922        TOTAL FREE ENERGY PREDICTED BY IDOCK:   -3.35 KCAL/MOL
REMARK 923 INTER-LIGAND FREE ENERGY PREDICTED BY IDOCK:   -3.33 KCAL/MOL
REMARK 924 INTRA-LIGAND FREE ENERGY PREDICTED BY IDOCK:   -0.02 KCAL/MOL
REMARK 927      BINDING AFFINITY PREDICTED BY RF-SCORE:    0.00 PKD
ROOT
HETATM    1  C   UNL     1      -6.678  16.866  66.827  1.00  0.00    -0.227 C  
HETATM    2  N   UNL     1      -8.137  16.931  66.732  1.00  0.00    -0.216 N  
HETATM    3  C   UNL     1      -8.712  18.264  66.559  1.00  0.00    -0.274 C  
ENDROOT
BRANCH   2   4
HETATM    4  C   UNL     1      -8.923  15.777  66.939  1.00  0.00    -0.240 C  
HETATM    5  S   UNL     1      -8.349  14.328  67.591  1.00  0.00    -0.195 S  
BRANCH   4   6
HETATM    6  S   UNL     1     -10.655  15.957  66.680  1.00  0.00    -0.276 SA 
BRANCH   6   7
HETATM    7  C   UNL     1     -11.395  14.614  67.574  1.00  0.00    -0.348 C  
HETATM    8  S   UNL     1     -11.549  14.603  69.256  1.00  0.00    -0.321 S  
BRANCH   7   9
HETATM    9  N   UNL     1     -11.820  13.537  66.753  1.00  0.00    -0.386 N  
HETATM   10  C   UNL     1     -12.639  13.668  65.540  1.00  0.00    -0.496 C  
HETATM   11  C   UNL     1     -11.474  12.138  67.034  1.00  0.00    -0.350 C  
ENDBRANCH   7   9
ENDBRANCH   6   7
ENDBRANCH   4   6
ENDBRANCH   2   4
TORSDOF 4
ENDMDL
MODEL      139
REMARK 921   NORMALIZED FREE ENERGY PREDICTED BY IDOCK:   -2.53 KCAL/MOL
REMARK 922        TOTAL FREE ENERGY PREDICTED BY IDOCK:   -3.35 KCAL/MOL
REMARK 923 INTER-LIGAND FREE ENERGY PREDICTED BY IDOCK:   -3.26 KCAL/MOL
REMARK 924 INTRA-LIGAND FREE ENERGY PREDICTED BY IDOCK:   -0.09 KCAL/MOL
REMARK 927      BINDING AFFINITY PREDICTED BY RF-SCORE:    0.00 PKD
ROOT
HETATM    1  C   UNL     1     -10.380  18.313  66.592  1.00  0.00    -0.381 C  
HETATM    2  N   UNL     1     -10.541  17.205  67.535  1.00  0.00    -0.344 N  
HETATM    3  C   UNL     1     -10.345  17.529  68.947  1.00  0.00    -0.338 C  
ENDROOT
BRANCH   2   4
HETATM    4  C   UNL     1     -10.733  15.887  67.070  1.00  0.00    -0.292 C  
HETATM    5  S   UNL     1     -10.487  15.386  65.474  1.00  0.00    -0.408 S  
BRANCH   4   6
HETATM    6  S   UNL     1     -11.057  14.666  68.296  1.00  0.00    -0.283 SA 
BRANCH   6   7
HETATM    7  C   UNL     1     -10.054  13.276  67.836  1.00  0.00    -0.235 C  
HETATM    8  S   UNL     1      -8.370  13.351  67.736  1.00  0.00    -0.194 S  
BRANCH   7   9
HETATM    9  N   UNL     1     -10.794  12.104  67.533  1.00  0.00    -0.234 N  
HETATM   10  C   UNL     1     -10.625  11.282  66.327  1.00  0.00    -0.263 C  
HETATM   11  C   UNL     1     -11.836  11.571  68.420  1.00  0.00    -0.283 C  
ENDBRANCH   7   9
ENDBRANCH   6   7
ENDBRANCH   4   6
ENDBRANCH   2   4
TORSDOF 4
ENDMDL
MODEL      140
REMARK 921   NORMALIZED FREE ENERGY PREDICTED BY IDOCK:   -2.53 KCAL/MOL
REMARK 922        TOTAL FREE ENERGY PREDICTED BY IDOCK:   -3.35 KCAL/MOL
REMARK 923 INTER-LIGAND FREE ENERGY PREDICTED BY IDOCK:   -3.17 KCAL/MOL
REMARK 924 INTRA-LIGAND FREE ENERGY PREDICTED BY IDOCK:   -0.17 KCAL/MOL
REMARK 927      BINDING AFFINITY PREDICTED BY RF-SCORE:    0.00 PKD
ROOT
HETATM    1  C   UNL     1     -10.975  14.722  66.828  1.00  0.00    -0.327 C  
HETATM    2  N   UNL     1     -11.430  13.356  67.091  1.00  0.00    -0.322 N  
HETATM    3  C   UNL     1     -11.685  12.526  65.915  1.00  0.00    -0.426 C  
ENDROOT
BRANCH   2   4
HETATM    4  C   UNL     1     -11.732  12.939  68.404  1.00  0.00    -0.345 C  
HETATM    5  S   UNL     1     -12.144  13.979  69.672  1.00  0.00    -0.344 S  
BRANCH   4   6
HETATM    6  S   UNL     1     -11.877  11.203  68.658  1.00  0.00    -0.217 SA 
BRANCH   6   7
HETATM    7  C   UNL     1     -10.277  10.686  69.225  1.00  0.00    -0.213 C  
HETATM    8  S   UNL     1      -8.836  11.249  68.548  1.00  0.00    -0.141 S  
BRANCH   7   9
HETATM    9  N   UNL     1     -10.316   9.736  70.278  1.00  0.00    -0.276 N  
HETATM   10  C   UNL     1      -9.306   8.697  70.521  1.00  0.00    -0.175 C  
HETATM   11  C   UNL     1     -11.400   9.691  71.268  1.00  0.00    -0.388 C  
ENDBRANCH   7   9
ENDBRANCH   6   7
ENDBRANCH   4   6
ENDBRANCH   2   4
TORSDOF 4
ENDMDL
MODEL      141
REMARK 921   NORMALIZED FREE ENERGY PREDICTED BY IDOCK:   -2.53 KCAL/MOL
REMARK 922        TOTAL FREE ENERGY PREDICTED BY IDOCK:   -3.34 KCAL/MOL
REMARK 923 INTER-LIGAND FREE ENERGY PREDICTED BY IDOCK:   -3.05 KCAL/MOL
REMARK 924 INTRA-LIGAND FREE ENERGY PREDICTED BY IDOCK:   -0.29 KCAL/MOL
REMARK 927      BINDING AFFINITY PREDICTED BY RF-SCORE:    0.00 PKD
ROOT
HETATM    1  C   UNL     1     -12.741   9.260  71.998  1.00  0.00    -0.401 C  
HETATM    2  N   UNL     1     -11.947  10.216  71.225  1.00  0.00    -0.377 N  
HETATM    3  C   UNL     1     -12.519  11.553  71.075  1.00  0.00    -0.356 C  
ENDROOT
BRANCH   2   4
HETATM    4  C   UNL     1     -10.774   9.804  70.558  1.00  0.00    -0.317 C  
HETATM    5  S   UNL     1     -10.307  10.328  69.021  1.00  0.00    -0.226 S  
BRANCH   4   6
HETATM    6  S   UNL     1      -9.642   8.836  71.498  1.00  0.00    -0.294 SA 
BRANCH   6   7
HETATM    7  C   UNL     1      -9.354   7.385  70.517  1.00  0.00    -0.157 C  
HETATM    8  S   UNL     1      -7.842   6.995  69.875  1.00  0.00    -0.116 S  
BRANCH   7   9
HETATM    9  N   UNL     1     -10.514   6.597  70.296  1.00  0.00    -0.202 N  
HETATM   10  C   UNL     1     -11.331   5.977  71.348  1.00  0.00    -0.236 C  
HETATM   11  C   UNL     1     -11.037   6.313  68.954  1.00  0.00    -0.362 C  
ENDBRANCH   7   9
ENDBRANCH   6   7
ENDBRANCH   4   6
ENDBRANCH   2   4
TORSDOF 4
ENDMDL
MODEL      142
REMARK 921   NORMALIZED FREE ENERGY PREDICTED BY IDOCK:   -2.52 KCAL/MOL
REMARK 922        TOTAL FREE ENERGY PREDICTED BY IDOCK:   -3.33 KCAL/MOL
REMARK 923 INTER-LIGAND FREE ENERGY PREDICTED BY IDOCK:   -3.20 KCAL/MOL
REMARK 924 INTRA-LIGAND FREE ENERGY PREDICTED BY IDOCK:   -0.13 KCAL/MOL
REMARK 927      BINDING AFFINITY PREDICTED BY RF-SCORE:    0.00 PKD
ROOT
HETATM    1  C   UNL     1     -10.388   6.813  73.959  1.00  0.00    -0.347 C  
HETATM    2  N   UNL     1     -10.790   6.000  72.810  1.00  0.00    -0.235 N  
HETATM    3  C   UNL     1     -11.535   4.780  73.114  1.00  0.00    -0.260 C  
ENDROOT
BRANCH   2   4
HETATM    4  C   UNL     1     -10.349   6.326  71.510  1.00  0.00    -0.204 C  
HETATM    5  S   UNL     1      -8.749   6.201  70.978  1.00  0.00    -0.132 S  
BRANCH   4   6
HETATM    6  S   UNL     1     -11.603   6.692  70.330  1.00  0.00    -0.361 SA 
BRANCH   6   7
HETATM    7  C   UNL     1     -12.747   7.745  71.187  1.00  0.00    -0.176 C  
HETATM    8  S   UNL     1     -14.268   7.224  71.701  1.00  0.00    -0.340 S  
BRANCH   7   9
HETATM    9  N   UNL     1     -12.280   9.072  71.376  1.00  0.00    -0.310 N  
HETATM   10  C   UNL     1     -10.916   9.540  71.093  1.00  0.00    -0.368 C  
HETATM   11  C   UNL     1     -13.135  10.150  71.887  1.00  0.00    -0.466 C  
ENDBRANCH   7   9
ENDBRANCH   6   7
ENDBRANCH   4   6
ENDBRANCH   2   4
TORSDOF 4
ENDMDL
MODEL      143
REMARK 921   NORMALIZED FREE ENERGY PREDICTED BY IDOCK:   -2.52 KCAL/MOL
REMARK 922        TOTAL FREE ENERGY PREDICTED BY IDOCK:   -3.33 KCAL/MOL
REMARK 923 INTER-LIGAND FREE ENERGY PREDICTED BY IDOCK:   -3.02 KCAL/MOL
REMARK 924 INTRA-LIGAND FREE ENERGY PREDICTED BY IDOCK:   -0.31 KCAL/MOL
REMARK 927      BINDING AFFINITY PREDICTED BY RF-SCORE:    0.00 PKD
ROOT
HETATM    1  C   UNL     1      -8.951  15.342  69.273  1.00  0.00    -0.261 C  
HETATM    2  N   UNL     1     -10.358  15.637  68.993  1.00  0.00    -0.213 N  
HETATM    3  C   UNL     1     -11.226  15.795  70.158  1.00  0.00    -0.349 C  
ENDROOT
BRANCH   2   4
HETATM    4  C   UNL     1     -10.845  15.623  67.669  1.00  0.00    -0.307 C  
HETATM    5  S   UNL     1     -10.251  16.588  66.415  1.00  0.00    -0.321 S  
BRANCH   4   6
HETATM    6  S   UNL     1     -12.011  14.362  67.280  1.00  0.00    -0.311 SA 
BRANCH   6   7
HETATM    7  C   UNL     1     -11.034  12.919  66.945  1.00  0.00    -0.266 C  
HETATM    8  S   UNL     1     -10.390  12.578  65.422  1.00  0.00    -0.284 S  
BRANCH   7   9
HETATM    9  N   UNL     1     -10.865  12.063  68.065  1.00  0.00    -0.206 N  
HETATM   10  C   UNL     1      -9.859  10.997  68.173  1.00  0.00    -0.176 C  
HETATM   11  C   UNL     1     -11.699  12.156  69.269  1.00  0.00    -0.328 C  
ENDBRANCH   7   9
ENDBRANCH   6   7
ENDBRANCH   4   6
ENDBRANCH   2   4
TORSDOF 4
ENDMDL
MODEL      144
REMARK 921   NORMALIZED FREE ENERGY PREDICTED BY IDOCK:   -2.51 KCAL/MOL
REMARK 922        TOTAL FREE ENERGY PREDICTED BY IDOCK:   -3.32 KCAL/MOL
REMARK 923 INTER-LIGAND FREE ENERGY PREDICTED BY IDOCK:   -3.31 KCAL/MOL
REMARK 924 INTRA-LIGAND FREE ENERGY PREDICTED BY IDOCK:   -0.01 KCAL/MOL
REMARK 927      BINDING AFFINITY PREDICTED BY RF-SCORE:    0.00 PKD
ROOT
HETATM    1  C   UNL     1      -6.510  17.148  68.996  1.00  0.00    -0.208 C  
HETATM    2  N   UNL     1      -6.950  18.378  68.335  1.00  0.00    -0.244 N  
HETATM    3  C   UNL     1      -7.144  19.539  69.201  1.00  0.00    -0.357 C  
ENDROOT
BRANCH   2   4
HETATM    4  C   UNL     1      -7.295  18.374  66.967  1.00  0.00    -0.208 C  
HETATM    5  S   UNL     1      -6.959  19.630  65.887  1.00  0.00    -0.293 S  
BRANCH   4   6
HETATM    6  S   UNL     1      -7.937  16.864  66.328  1.00  0.00    -0.265 SA 
BRANCH   6   7
HETATM    7  C   UNL     1      -9.690  17.121  66.216  1.00  0.00    -0.278 C  
HETATM    8  S   UNL     1     -10.403  18.648  66.315  1.00  0.00    -0.428 S  
BRANCH   7   9
HETATM    9  N   UNL     1     -10.440  15.926  66.064  1.00  0.00    -0.331 N  
HETATM   10  C   UNL     1     -11.149  15.519  64.843  1.00  0.00    -0.416 C  
HETATM   11  C   UNL     1     -10.590  14.940  67.141  1.00  0.00    -0.285 C  
ENDBRANCH   7   9
ENDBRANCH   6   7
ENDBRANCH   4   6
ENDBRANCH   2   4
TORSDOF 4
ENDMDL
MODEL      145
REMARK 921   NORMALIZED FREE ENERGY PREDICTED BY IDOCK:   -2.51 KCAL/MOL
REMARK 922        TOTAL FREE ENERGY PREDICTED BY IDOCK:   -3.32 KCAL/MOL
REMARK 923 INTER-LIGAND FREE ENERGY PREDICTED BY IDOCK:   -3.22 KCAL/MOL
REMARK 924 INTRA-LIGAND FREE ENERGY PREDICTED BY IDOCK:   -0.10 KCAL/MOL
REMARK 927      BINDING AFFINITY PREDICTED BY RF-SCORE:    0.00 PKD
ROOT
HETATM    1  C   UNL     1     -11.503   6.421  70.086  1.00  0.00    -0.417 C  
HETATM    2  N   UNL     1     -12.078   7.204  71.181  1.00  0.00    -0.342 N  
HETATM    3  C   UNL     1     -13.519   7.063  71.384  1.00  0.00    -0.233 C  
ENDROOT
BRANCH   2   4
HETATM    4  C   UNL     1     -11.291   8.137  71.888  1.00  0.00    -0.296 C  
HETATM    5  S   UNL     1     -10.054   7.730  72.966  1.00  0.00    -0.329 S  
BRANCH   4   6
HETATM    6  S   UNL     1     -11.500   9.828  71.446  1.00  0.00    -0.315 SA 
BRANCH   6   7
HETATM    7  C   UNL     1     -10.464  10.062  70.024  1.00  0.00    -0.287 C  
HETATM    8  S   UNL     1      -8.851   9.567  69.970  1.00  0.00    -0.235 S  
BRANCH   7   9
HETATM    9  N   UNL     1     -11.104  10.729  68.946  1.00  0.00    -0.233 N  
HETATM   10  C   UNL     1     -10.900  10.428  67.523  1.00  0.00    -0.301 C  
HETATM   11  C   UNL     1     -12.066  11.820  69.146  1.00  0.00    -0.228 C  
ENDBRANCH   7   9
ENDBRANCH   6   7
ENDBRANCH   4   6
ENDBRANCH   2   4
TORSDOF 4
ENDMDL
MODEL      146
REMARK 921   NORMALIZED FREE ENERGY PREDICTED BY IDOCK:   -2.51 KCAL/MOL
REMARK 922        TOTAL FREE ENERGY PREDICTED BY IDOCK:   -3.32 KCAL/MOL
REMARK 923 INTER-LIGAND FREE ENERGY PREDICTED BY IDOCK:   -3.21 KCAL/MOL
REMARK 924 INTRA-LIGAND FREE ENERGY PREDICTED BY IDOCK:   -0.11 KCAL/MOL
REMARK 927      BINDING AFFINITY PREDICTED BY RF-SCORE:    0.00 PKD
ROOT
HETATM    1  C   UNL     1     -10.462  15.669  65.527  1.00  0.00    -0.404 C  
HETATM    2  N   UNL     1     -11.025  14.446  64.950  1.00  0.00    -0.387 N  
HETATM    3  C   UNL     1     -12.332  14.580  64.311  1.00  0.00    -0.369 C  
ENDROOT
BRANCH   2   4
HETATM    4  C   UNL     1     -10.386  13.203  65.140  1.00  0.00    -0.311 C  
HETATM    5  S   UNL     1     -10.296  11.981  63.975  1.00  0.00    -0.408 S  
BRANCH   4   6
HETATM    6  S   UNL     1      -9.458  13.021  66.625  1.00  0.00    -0.243 SA 
BRANCH   6   7
HETATM    7  C   UNL     1      -9.231  11.271  66.813  1.00  0.00    -0.175 C  
HETATM    8  S   UNL     1      -7.811  10.474  66.365  1.00  0.00    -0.143 S  
BRANCH   7   9
HETATM    9  N   UNL     1     -10.360  10.596  67.347  1.00  0.00    -0.207 N  
HETATM   10  C   UNL     1     -11.481  11.240  68.045  1.00  0.00    -0.298 C  
HETATM   11  C   UNL     1     -10.534   9.141  67.253  1.00  0.00    -0.265 C  
ENDBRANCH   7   9
ENDBRANCH   6   7
ENDBRANCH   4   6
ENDBRANCH   2   4
TORSDOF 4
ENDMDL
MODEL      147
REMARK 921   NORMALIZED FREE ENERGY PREDICTED BY IDOCK:   -2.51 KCAL/MOL
REMARK 922        TOTAL FREE ENERGY PREDICTED BY IDOCK:   -3.31 KCAL/MOL
REMARK 923 INTER-LIGAND FREE ENERGY PREDICTED BY IDOCK:   -3.07 KCAL/MOL
REMARK 924 INTRA-LIGAND FREE ENERGY PREDICTED BY IDOCK:   -0.24 KCAL/MOL
REMARK 927      BINDING AFFINITY PREDICTED BY RF-SCORE:    0.00 PKD
ROOT
HETATM    1  C   UNL     1      -9.766   9.173  65.991  1.00  0.00    -0.287 C  
HETATM    2  N   UNL     1      -9.944  10.372  65.170  1.00  0.00    -0.306 N  
HETATM    3  C   UNL     1      -9.616  10.235  63.752  1.00  0.00    -0.284 C  
ENDROOT
BRANCH   2   4
HETATM    4  C   UNL     1     -10.279  11.607  65.765  1.00  0.00    -0.240 C  
HETATM    5  S   UNL     1     -11.538  12.611  65.253  1.00  0.00    -0.370 S  
BRANCH   4   6
HETATM    6  S   UNL     1      -9.440  12.004  67.261  1.00  0.00    -0.185 SA 
BRANCH   6   7
HETATM    7  C   UNL     1     -10.727  12.243  68.460  1.00  0.00    -0.237 C  
HETATM    8  S   UNL     1     -11.695  10.983  69.032  1.00  0.00    -0.328 S  
BRANCH   7   9
HETATM    9  N   UNL     1     -10.889  13.591  68.873  1.00  0.00    -0.243 N  
HETATM   10  C   UNL     1      -9.939  14.680  68.606  1.00  0.00    -0.234 C  
HETATM   11  C   UNL     1     -12.058  14.055  69.631  1.00  0.00    -0.355 C  
ENDBRANCH   7   9
ENDBRANCH   6   7
ENDBRANCH   4   6
ENDBRANCH   2   4
TORSDOF 4
ENDMDL
MODEL      148
REMARK 921   NORMALIZED FREE ENERGY PREDICTED BY IDOCK:   -2.51 KCAL/MOL
REMARK 922        TOTAL FREE ENERGY PREDICTED BY IDOCK:   -3.31 KCAL/MOL
REMARK 923 INTER-LIGAND FREE ENERGY PREDICTED BY IDOCK:   -3.14 KCAL/MOL
REMARK 924 INTRA-LIGAND FREE ENERGY PREDICTED BY IDOCK:   -0.18 KCAL/MOL
REMARK 927      BINDING AFFINITY PREDICTED BY RF-SCORE:    0.00 PKD
ROOT
HETATM    1  C   UNL     1     -10.262   8.579  66.760  1.00  0.00    -0.300 C  
HETATM    2  N   UNL     1     -10.183   9.345  68.005  1.00  0.00    -0.192 N  
HETATM    3  C   UNL     1      -9.924   8.574  69.219  1.00  0.00    -0.195 C  
ENDROOT
BRANCH   2   4
HETATM    4  C   UNL     1     -10.484  10.723  68.020  1.00  0.00    -0.194 C  
HETATM    5  S   UNL     1     -11.699  11.432  68.958  1.00  0.00    -0.364 S  
BRANCH   4   6
HETATM    6  S   UNL     1      -9.372  11.774  67.148  1.00  0.00    -0.181 SA 
BRANCH   6   7
HETATM    7  C   UNL     1     -10.291  12.350  65.743  1.00  0.00    -0.263 C  
HETATM    8  S   UNL     1     -10.531  11.417  64.356  1.00  0.00    -0.354 S  
BRANCH   7   9
HETATM    9  N   UNL     1     -10.782  13.675  65.877  1.00  0.00    -0.278 N  
HETATM   10  C   UNL     1     -10.009  14.896  65.613  1.00  0.00    -0.358 C  
HETATM   11  C   UNL     1     -12.154  13.975  66.304  1.00  0.00    -0.456 C  
ENDBRANCH   7   9
ENDBRANCH   6   7
ENDBRANCH   4   6
ENDBRANCH   2   4
TORSDOF 4
ENDMDL
MODEL      149
REMARK 921   NORMALIZED FREE ENERGY PREDICTED BY IDOCK:   -2.51 KCAL/MOL
REMARK 922        TOTAL FREE ENERGY PREDICTED BY IDOCK:   -3.31 KCAL/MOL
REMARK 923 INTER-LIGAND FREE ENERGY PREDICTED BY IDOCK:   -3.25 KCAL/MOL
REMARK 924 INTRA-LIGAND FREE ENERGY PREDICTED BY IDOCK:   -0.06 KCAL/MOL
REMARK 927      BINDING AFFINITY PREDICTED BY RF-SCORE:    0.00 PKD
ROOT
HETATM    1  C   UNL     1     -11.914  14.265  67.201  1.00  0.00    -0.417 C  
HETATM    2  N   UNL     1     -10.793  14.749  66.393  1.00  0.00    -0.316 N  
HETATM    3  C   UNL     1     -11.098  15.079  65.002  1.00  0.00    -0.413 C  
ENDROOT
BRANCH   2   4
HETATM    4  C   UNL     1      -9.481  14.753  66.913  1.00  0.00    -0.240 C  
HETATM    5  S   UNL     1      -8.769  13.459  67.735  1.00  0.00    -0.211 S  
BRANCH   4   6
HETATM    6  S   UNL     1      -8.477  16.135  66.486  1.00  0.00    -0.331 SA 
BRANCH   6   7
HETATM    7  C   UNL     1      -7.932  16.803  68.038  1.00  0.00    -0.178 C  
HETATM    8  S   UNL     1      -6.562  16.242  68.850  1.00  0.00    -0.161 S  
BRANCH   7   9
HETATM    9  N   UNL     1      -8.766  17.831  68.549  1.00  0.00    -0.287 N  
HETATM   10  C   UNL     1      -8.346  19.217  68.802  1.00  0.00    -0.342 C  
HETATM   11  C   UNL     1     -10.178  17.615  68.886  1.00  0.00    -0.354 C  
ENDBRANCH   7   9
ENDBRANCH   6   7
ENDBRANCH   4   6
ENDBRANCH   2   4
TORSDOF 4
ENDMDL
MODEL      150
REMARK 921   NORMALIZED FREE ENERGY PREDICTED BY IDOCK:   -2.51 KCAL/MOL
REMARK 922        TOTAL FREE ENERGY PREDICTED BY IDOCK:   -3.31 KCAL/MOL
REMARK 923 INTER-LIGAND FREE ENERGY PREDICTED BY IDOCK:   -3.02 KCAL/MOL
REMARK 924 INTRA-LIGAND FREE ENERGY PREDICTED BY IDOCK:   -0.29 KCAL/MOL
REMARK 927      BINDING AFFINITY PREDICTED BY RF-SCORE:    0.00 PKD
ROOT
HETATM    1  C   UNL     1     -14.194   7.234  71.478  1.00  0.00    -0.390 C  
HETATM    2  N   UNL     1     -12.774   7.568  71.602  1.00  0.00    -0.344 N  
HETATM    3  C   UNL     1     -12.457   8.989  71.735  1.00  0.00    -0.368 C  
ENDROOT
BRANCH   2   4
HETATM    4  C   UNL     1     -11.786   6.572  71.455  1.00  0.00    -0.324 C  
HETATM    5  S   UNL     1     -11.229   5.579  72.705  1.00  0.00    -0.295 S  
BRANCH   4   6
HETATM    6  S   UNL     1     -11.263   6.228  69.809  1.00  0.00    -0.423 SA 
BRANCH   6   7
HETATM    7  C   UNL     1      -9.650   6.956  69.679  1.00  0.00    -0.146 C  
HETATM    8  S   UNL     1      -8.226   6.049  69.710  1.00  0.00    -0.120 S  
BRANCH   7   9
HETATM    9  N   UNL     1      -9.661   8.372  69.574  1.00  0.00    -0.174 N  
HETATM   10  C   UNL     1     -10.480   9.145  68.630  1.00  0.00    -0.207 C  
HETATM   11  C   UNL     1      -8.835   9.238  70.423  1.00  0.00    -0.234 C  
ENDBRANCH   7   9
ENDBRANCH   6   7
ENDBRANCH   4   6
ENDBRANCH   2   4
TORSDOF 4
ENDMDL
MODEL      151
REMARK 921   NORMALIZED FREE ENERGY PREDICTED BY IDOCK:   -2.49 KCAL/MOL
REMARK 922        TOTAL FREE ENERGY PREDICTED BY IDOCK:   -3.30 KCAL/MOL
REMARK 923 INTER-LIGAND FREE ENERGY PREDICTED BY IDOCK:   -3.11 KCAL/MOL
REMARK 924 INTRA-LIGAND FREE ENERGY PREDICTED BY IDOCK:   -0.19 KCAL/MOL
REMARK 927      BINDING AFFINITY PREDICTED BY RF-SCORE:    0.00 PKD
ROOT
HETATM    1  C   UNL     1     -12.388  11.339  70.805  1.00  0.00    -0.398 C  
HETATM    2  N   UNL     1     -11.645  10.080  70.877  1.00  0.00    -0.350 N  
HETATM    3  C   UNL     1     -12.080   9.134  71.903  1.00  0.00    -0.378 C  
ENDROOT
BRANCH   2   4
HETATM    4  C   UNL     1     -10.495   9.878  70.086  1.00  0.00    -0.285 C  
HETATM    5  S   UNL     1      -9.088   9.103  70.614  1.00  0.00    -0.266 S  
BRANCH   4   6
HETATM    6  S   UNL     1     -10.639  10.291  68.380  1.00  0.00    -0.232 SA 
BRANCH   6   7
HETATM    7  C   UNL     1      -9.827  11.861  68.218  1.00  0.00    -0.199 C  
HETATM    8  S   UNL     1      -8.151  12.044  68.321  1.00  0.00    -0.155 S  
BRANCH   7   9
HETATM    9  N   UNL     1     -10.713  12.952  68.022  1.00  0.00    -0.222 N  
HETATM   10  C   UNL     1     -10.651  14.233  68.740  1.00  0.00    -0.252 C  
HETATM   11  C   UNL     1     -11.815  12.918  67.053  1.00  0.00    -0.374 C  
ENDBRANCH   7   9
ENDBRANCH   6   7
ENDBRANCH   4   6
ENDBRANCH   2   4
TORSDOF 4
ENDMDL
MODEL      152
REMARK 921   NORMALIZED FREE ENERGY PREDICTED BY IDOCK:   -2.47 KCAL/MOL
REMARK 922        TOTAL FREE ENERGY PREDICTED BY IDOCK:   -3.27 KCAL/MOL
REMARK 923 INTER-LIGAND FREE ENERGY PREDICTED BY IDOCK:   -3.10 KCAL/MOL
REMARK 924 INTRA-LIGAND FREE ENERGY PREDICTED BY IDOCK:   -0.16 KCAL/MOL
REMARK 927      BINDING AFFINITY PREDICTED BY RF-SCORE:    0.00 PKD
ROOT
HETATM    1  C   UNL     1     -12.056   6.186  72.156  1.00  0.00    -0.207 C  
HETATM    2  N   UNL     1     -11.877   7.112  71.036  1.00  0.00    -0.319 N  
HETATM    3  C   UNL     1     -11.490   6.512  69.761  1.00  0.00    -0.379 C  
ENDROOT
BRANCH   2   4
HETATM    4  C   UNL     1     -11.942   8.507  71.240  1.00  0.00    -0.294 C  
HETATM    5  S   UNL     1     -13.291   9.328  71.843  1.00  0.00    -0.459 S  
BRANCH   4   6
HETATM    6  S   UNL     1     -10.436   9.396  71.034  1.00  0.00    -0.314 SA 
BRANCH   6   7
HETATM    7  C   UNL     1     -10.611  10.242  69.484  1.00  0.00    -0.245 C  
HETATM    8  S   UNL     1     -11.601  11.595  69.281  1.00  0.00    -0.348 S  
BRANCH   7   9
HETATM    9  N   UNL     1      -9.868   9.663  68.423  1.00  0.00    -0.150 N  
HETATM   10  C   UNL     1      -8.402   9.656  68.319  1.00  0.00    -0.117 C  
HETATM   11  C   UNL     1     -10.502   8.987  67.284  1.00  0.00    -0.273 C  
ENDBRANCH   7   9
ENDBRANCH   6   7
ENDBRANCH   4   6
ENDBRANCH   2   4
TORSDOF 4
ENDMDL
MODEL      153
REMARK 921   NORMALIZED FREE ENERGY PREDICTED BY IDOCK:   -2.47 KCAL/MOL
REMARK 922        TOTAL FREE ENERGY PREDICTED BY IDOCK:   -3.27 KCAL/MOL
REMARK 923 INTER-LIGAND FREE ENERGY PREDICTED BY IDOCK:   -3.17 KCAL/MOL
REMARK 924 INTRA-LIGAND FREE ENERGY PREDICTED BY IDOCK:   -0.09 KCAL/MOL
REMARK 927      BINDING AFFINITY PREDICTED BY RF-SCORE:    0.00 PKD
ROOT
HETATM    1  C   UNL     1      -9.034  10.822  66.614  1.00  0.00    -0.153 C  
HETATM    2  N   UNL     1      -9.863  11.643  65.730  1.00  0.00    -0.231 N  
HETATM    3  C   UNL     1     -10.497  10.946  64.613  1.00  0.00    -0.314 C  
ENDROOT
BRANCH   2   4
HETATM    4  C   UNL     1      -9.913  13.044  65.888  1.00  0.00    -0.267 C  
HETATM    5  S   UNL     1     -10.764  14.096  64.875  1.00  0.00    -0.433 S  
BRANCH   4   6
HETATM    6  S   UNL     1      -9.200  13.688  67.364  1.00  0.00    -0.233 SA 
BRANCH   6   7
HETATM    7  C   UNL     1      -9.305  15.452  67.193  1.00  0.00    -0.214 C  
HETATM    8  S   UNL     1      -8.165  16.363  66.345  1.00  0.00    -0.312 S  
BRANCH   7   9
HETATM    9  N   UNL     1     -10.418  16.031  67.857  1.00  0.00    -0.283 N  
HETATM   10  C   UNL     1     -11.481  15.282  68.542  1.00  0.00    -0.342 C  
HETATM   11  C   UNL     1     -10.631  17.481  67.934  1.00  0.00    -0.390 C  
ENDBRANCH   7   9
ENDBRANCH   6   7
ENDBRANCH   4   6
ENDBRANCH   2   4
TORSDOF 4
ENDMDL
MODEL      154
REMARK 921   NORMALIZED FREE ENERGY PREDICTED BY IDOCK:   -2.47 KCAL/MOL
REMARK 922        TOTAL FREE ENERGY PREDICTED BY IDOCK:   -3.26 KCAL/MOL
REMARK 923 INTER-LIGAND FREE ENERGY PREDICTED BY IDOCK:   -3.00 KCAL/MOL
REMARK 924 INTRA-LIGAND FREE ENERGY PREDICTED BY IDOCK:   -0.26 KCAL/MOL
REMARK 927      BINDING AFFINITY PREDICTED BY RF-SCORE:    0.00 PKD
ROOT
HETATM    1  C   UNL     1     -10.198   7.158  73.668  1.00  0.00    -0.359 C  
HETATM    2  N   UNL     1     -11.137   6.480  72.773  1.00  0.00    -0.253 N  
HETATM    3  C   UNL     1     -11.166   5.021  72.859  1.00  0.00    -0.271 C  
ENDROOT
BRANCH   2   4
HETATM    4  C   UNL     1     -11.855   7.206  71.800  1.00  0.00    -0.303 C  
HETATM    5  S   UNL     1     -12.717   8.628  72.104  1.00  0.00    -0.402 S  
BRANCH   4   6
HETATM    6  S   UNL     1     -11.654   6.683  70.131  1.00  0.00    -0.339 SA 
BRANCH   6   7
HETATM    7  C   UNL     1     -10.169   7.482  69.575  1.00  0.00    -0.207 C  
HETATM    8  S   UNL     1      -8.629   7.020  70.089  1.00  0.00    -0.141 S  
BRANCH   7   9
HETATM    9  N   UNL     1     -10.394   8.562  68.682  1.00  0.00    -0.205 N  
HETATM   10  C   UNL     1     -10.628   9.957  69.080  1.00  0.00    -0.220 C  
HETATM   11  C   UNL     1     -10.415   8.396  67.223  1.00  0.00    -0.303 C  
ENDBRANCH   7   9
ENDBRANCH   6   7
ENDBRANCH   4   6
ENDBRANCH   2   4
TORSDOF 4
ENDMDL
MODEL      155
REMARK 921   NORMALIZED FREE ENERGY PREDICTED BY IDOCK:   -2.46 KCAL/MOL
REMARK 922        TOTAL FREE ENERGY PREDICTED BY IDOCK:   -3.26 KCAL/MOL
REMARK 923 INTER-LIGAND FREE ENERGY PREDICTED BY IDOCK:   -3.17 KCAL/MOL
REMARK 924 INTRA-LIGAND FREE ENERGY PREDICTED BY IDOCK:   -0.09 KCAL/MOL
REMARK 927      BINDING AFFINITY PREDICTED BY RF-SCORE:    0.00 PKD
ROOT
HETATM    1  C   UNL     1      -7.268  19.256  68.835  1.00  0.00    -0.358 C  
HETATM    2  N   UNL     1      -7.971  18.660  67.697  1.00  0.00    -0.245 N  
HETATM    3  C   UNL     1      -7.577  19.142  66.375  1.00  0.00    -0.264 C  
ENDROOT
BRANCH   2   4
HETATM    4  C   UNL     1      -9.055  17.781  67.903  1.00  0.00    -0.259 C  
HETATM    5  S   UNL     1     -10.602  17.994  67.256  1.00  0.00    -0.297 S  
BRANCH   4   6
HETATM    6  S   UNL     1      -8.686  16.268  68.725  1.00  0.00    -0.253 SA 
BRANCH   6   7
HETATM    7  C   UNL     1     -10.263  15.502  69.005  1.00  0.00    -0.229 C  
HETATM    8  S   UNL     1     -11.276  15.927  70.287  1.00  0.00    -0.404 S  
BRANCH   7   9
HETATM    9  N   UNL     1     -10.583  14.481  68.073  1.00  0.00    -0.235 N  
HETATM   10  C   UNL     1     -11.681  13.516  68.217  1.00  0.00    -0.359 C  
HETATM   11  C   UNL     1      -9.831  14.277  66.828  1.00  0.00    -0.270 C  
ENDBRANCH   7   9
ENDBRANCH   6   7
ENDBRANCH   4   6
ENDBRANCH   2   4
TORSDOF 4
ENDMDL
MODEL      156
REMARK 921   NORMALIZED FREE ENERGY PREDICTED BY IDOCK:   -2.46 KCAL/MOL
REMARK 922        TOTAL FREE ENERGY PREDICTED BY IDOCK:   -3.25 KCAL/MOL
REMARK 923 INTER-LIGAND FREE ENERGY PREDICTED BY IDOCK:   -3.14 KCAL/MOL
REMARK 924 INTRA-LIGAND FREE ENERGY PREDICTED BY IDOCK:   -0.11 KCAL/MOL
REMARK 927      BINDING AFFINITY PREDICTED BY RF-SCORE:    0.00 PKD
ROOT
HETATM    1  C   UNL     1      -9.076   9.677  63.969  1.00  0.00    -0.200 C  
HETATM    2  N   UNL     1      -9.743  10.880  64.471  1.00  0.00    -0.257 N  
HETATM    3  C   UNL     1     -10.381  11.728  63.466  1.00  0.00    -0.448 C  
ENDROOT
BRANCH   2   4
HETATM    4  C   UNL     1      -9.638  11.246  65.830  1.00  0.00    -0.227 C  
HETATM    5  S   UNL     1      -8.182  11.551  66.633  1.00  0.00    -0.126 S  
BRANCH   4   6
HETATM    6  S   UNL     1     -11.149  11.597  66.662  1.00  0.00    -0.295 SA 
BRANCH   6   7
HETATM    7  C   UNL     1     -11.413  13.335  66.422  1.00  0.00    -0.329 C  
HETATM    8  S   UNL     1     -12.605  13.952  65.397  1.00  0.00    -0.470 S  
BRANCH   7   9
HETATM    9  N   UNL     1     -10.514  14.161  67.146  1.00  0.00    -0.269 N  
HETATM   10  C   UNL     1      -9.578  15.123  66.548  1.00  0.00    -0.271 C  
HETATM   11  C   UNL     1     -10.423  14.143  68.611  1.00  0.00    -0.250 C  
ENDBRANCH   7   9
ENDBRANCH   6   7
ENDBRANCH   4   6
ENDBRANCH   2   4
TORSDOF 4
ENDMDL
MODEL      157
REMARK 921   NORMALIZED FREE ENERGY PREDICTED BY IDOCK:   -2.46 KCAL/MOL
REMARK 922        TOTAL FREE ENERGY PREDICTED BY IDOCK:   -3.25 KCAL/MOL
REMARK 923 INTER-LIGAND FREE ENERGY PREDICTED BY IDOCK:   -3.01 KCAL/MOL
REMARK 924 INTRA-LIGAND FREE ENERGY PREDICTED BY IDOCK:   -0.25 KCAL/MOL
REMARK 927      BINDING AFFINITY PREDICTED BY RF-SCORE:    0.00 PKD
ROOT
HETATM    1  C   UNL     1     -10.935  10.255  69.134  1.00  0.00    -0.238 C  
HETATM    2  N   UNL     1      -9.618  10.528  68.556  1.00  0.00    -0.156 N  
HETATM    3  C   UNL     1      -8.469  10.248  69.415  1.00  0.00    -0.160 C  
ENDROOT
BRANCH   2   4
HETATM    4  C   UNL     1      -9.502  11.156  67.298  1.00  0.00    -0.164 C  
HETATM    5  S   UNL     1      -9.828  10.408  65.817  1.00  0.00    -0.255 S  
BRANCH   4   6
HETATM    6  S   UNL     1      -9.190  12.889  67.317  1.00  0.00    -0.217 SA 
BRANCH   6   7
HETATM    7  C   UNL     1     -10.795  13.645  67.267  1.00  0.00    -0.284 C  
HETATM    8  S   UNL     1     -11.688  13.998  68.657  1.00  0.00    -0.372 S  
BRANCH   7   9
HETATM    9  N   UNL     1     -11.273  13.900  65.956  1.00  0.00    -0.297 N  
HETATM   10  C   UNL     1     -12.685  14.068  65.586  1.00  0.00    -0.481 C  
HETATM   11  C   UNL     1     -10.382  14.029  64.796  1.00  0.00    -0.380 C  
ENDBRANCH   7   9
ENDBRANCH   6   7
ENDBRANCH   4   6
ENDBRANCH   2   4
TORSDOF 4
ENDMDL
MODEL      158
REMARK 921   NORMALIZED FREE ENERGY PREDICTED BY IDOCK:   -2.45 KCAL/MOL
REMARK 922        TOTAL FREE ENERGY PREDICTED BY IDOCK:   -3.25 KCAL/MOL
REMARK 923 INTER-LIGAND FREE ENERGY PREDICTED BY IDOCK:   -3.00 KCAL/MOL
REMARK 924 INTRA-LIGAND FREE ENERGY PREDICTED BY IDOCK:   -0.24 KCAL/MOL
REMARK 927      BINDING AFFINITY PREDICTED BY RF-SCORE:    0.00 PKD
ROOT
HETATM    1  C   UNL     1      -6.895  19.608  69.543  1.00  0.00    -0.315 C  
HETATM    2  N   UNL     1      -7.116  19.941  68.134  1.00  0.00    -0.284 N  
HETATM    3  C   UNL     1      -6.364  21.084  67.618  1.00  0.00    -0.351 C  
ENDROOT
BRANCH   2   4
HETATM    4  C   UNL     1      -8.105  19.272  67.384  1.00  0.00    -0.277 C  
HETATM    5  S   UNL     1      -9.764  19.584  67.485  1.00  0.00    -0.369 S  
BRANCH   4   6
HETATM    6  S   UNL     1      -7.527  18.186  66.124  1.00  0.00    -0.239 SA 
BRANCH   6   7
HETATM    7  C   UNL     1      -7.278  16.629  66.938  1.00  0.00    -0.226 C  
HETATM    8  S   UNL     1      -5.861  16.243  67.771  1.00  0.00    -0.150 S  
BRANCH   7   9
HETATM    9  N   UNL     1      -8.365  15.726  66.802  1.00  0.00    -0.250 N  
HETATM   10  C   UNL     1      -9.551  15.946  65.963  1.00  0.00    -0.350 C  
HETATM   11  C   UNL     1      -8.420  14.437  67.503  1.00  0.00    -0.192 C  
ENDBRANCH   7   9
ENDBRANCH   6   7
ENDBRANCH   4   6
ENDBRANCH   2   4
TORSDOF 4
ENDMDL
MODEL      159
REMARK 921   NORMALIZED FREE ENERGY PREDICTED BY IDOCK:   -2.45 KCAL/MOL
REMARK 922        TOTAL FREE ENERGY PREDICTED BY IDOCK:   -3.24 KCAL/MOL
REMARK 923 INTER-LIGAND FREE ENERGY PREDICTED BY IDOCK:   -3.03 KCAL/MOL
REMARK 924 INTRA-LIGAND FREE ENERGY PREDICTED BY IDOCK:   -0.21 KCAL/MOL
REMARK 927      BINDING AFFINITY PREDICTED BY RF-SCORE:    0.00 PKD
ROOT
HETATM    1  C   UNL     1     -12.110  13.354  70.037  1.00  0.00    -0.334 C  
HETATM    2  N   UNL     1     -11.819  13.881  68.703  1.00  0.00    -0.356 N  
HETATM    3  C   UNL     1     -11.720  15.336  68.593  1.00  0.00    -0.346 C  
ENDROOT
BRANCH   2   4
HETATM    4  C   UNL     1     -11.780  13.023  67.584  1.00  0.00    -0.366 C  
HETATM    5  S   UNL     1     -11.917  13.531  65.977  1.00  0.00    -0.433 S  
BRANCH   4   6
HETATM    6  S   UNL     1     -11.358  11.344  67.903  1.00  0.00    -0.304 SA 
BRANCH   6   7
HETATM    7  C   UNL     1      -9.882  11.054  66.961  1.00  0.00    -0.182 C  
HETATM    8  S   UNL     1      -9.871  10.183  65.514  1.00  0.00    -0.302 S  
BRANCH   7   9
HETATM    9  N   UNL     1      -8.708  11.594  67.546  1.00  0.00    -0.151 N  
HETATM   10  C   UNL     1      -8.085  12.872  67.173  1.00  0.00    -0.117 C  
HETATM   11  C   UNL     1      -7.970  10.916  68.620  1.00  0.00    -0.140 C  
ENDBRANCH   7   9
ENDBRANCH   6   7
ENDBRANCH   4   6
ENDBRANCH   2   4
TORSDOF 4
ENDMDL
MODEL      160
REMARK 921   NORMALIZED FREE ENERGY PREDICTED BY IDOCK:   -2.45 KCAL/MOL
REMARK 922        TOTAL FREE ENERGY PREDICTED BY IDOCK:   -3.24 KCAL/MOL
REMARK 923 INTER-LIGAND FREE ENERGY PREDICTED BY IDOCK:   -3.05 KCAL/MOL
REMARK 924 INTRA-LIGAND FREE ENERGY PREDICTED BY IDOCK:   -0.19 KCAL/MOL
REMARK 927      BINDING AFFINITY PREDICTED BY RF-SCORE:    0.00 PKD
ROOT
HETATM    1  C   UNL     1      -8.541  10.448  69.109  1.00  0.00    -0.164 C  
HETATM    2  N   UNL     1      -8.699  11.347  67.965  1.00  0.00    -0.142 N  
HETATM    3  C   UNL     1      -7.464  11.847  67.364  1.00  0.00    -0.148 C  
ENDROOT
BRANCH   2   4
HETATM    4  C   UNL     1      -9.978  11.798  67.576  1.00  0.00    -0.192 C  
HETATM    5  S   UNL     1     -11.424  11.359  68.336  1.00  0.00    -0.313 S  
BRANCH   4   6
HETATM    6  S   UNL     1     -10.022  13.056  66.346  1.00  0.00    -0.280 SA 
BRANCH   6   7
HETATM    7  C   UNL     1     -10.557  12.234  64.867  1.00  0.00    -0.293 C  
HETATM    8  S   UNL     1      -9.683  10.983  64.143  1.00  0.00    -0.311 S  
BRANCH   7   9
HETATM    9  N   UNL     1     -11.770  12.740  64.331  1.00  0.00    -0.345 N  
HETATM   10  C   UNL     1     -12.329  14.070  64.608  1.00  0.00    -0.397 C  
HETATM   11  C   UNL     1     -12.617  11.967  63.414  1.00  0.00    -0.469 C  
ENDBRANCH   7   9
ENDBRANCH   6   7
ENDBRANCH   4   6
ENDBRANCH   2   4
TORSDOF 4
ENDMDL
MODEL      161
REMARK 921   NORMALIZED FREE ENERGY PREDICTED BY IDOCK:   -2.44 KCAL/MOL
REMARK 922        TOTAL FREE ENERGY PREDICTED BY IDOCK:   -3.24 KCAL/MOL
REMARK 923 INTER-LIGAND FREE ENERGY PREDICTED BY IDOCK:   -3.06 KCAL/MOL
REMARK 924 INTRA-LIGAND FREE ENERGY PREDICTED BY IDOCK:   -0.18 KCAL/MOL
REMARK 927      BINDING AFFINITY PREDICTED BY RF-SCORE:    0.00 PKD
ROOT
HETATM    1  C   UNL     1     -14.303   7.413  71.673  1.00  0.00    -0.461 C  
HETATM    2  N   UNL     1     -13.203   8.379  71.694  1.00  0.00    -0.342 N  
HETATM    3  C   UNL     1     -13.566   9.759  72.014  1.00  0.00    -0.349 C  
ENDROOT
BRANCH   2   4
HETATM    4  C   UNL     1     -11.906   8.001  71.289  1.00  0.00    -0.294 C  
HETATM    5  S   UNL     1     -11.501   6.488  70.652  1.00  0.00    -0.377 S  
BRANCH   4   6
HETATM    6  S   UNL     1     -10.692   9.276  71.269  1.00  0.00    -0.361 SA 
BRANCH   6   7
HETATM    7  C   UNL     1      -9.199   8.497  71.831  1.00  0.00    -0.255 C  
HETATM    8  S   UNL     1      -8.988   7.946  73.413  1.00  0.00    -0.282 S  
BRANCH   7   9
HETATM    9  N   UNL     1      -8.188   8.404  70.839  1.00  0.00    -0.108 N  
HETATM   10  C   UNL     1      -7.709   9.518  70.009  1.00  0.00    -0.142 C  
HETATM   11  C   UNL     1      -7.490   7.149  70.531  1.00  0.00    -0.087 C  
ENDBRANCH   7   9
ENDBRANCH   6   7
ENDBRANCH   4   6
ENDBRANCH   2   4
TORSDOF 4
ENDMDL
MODEL      162
REMARK 921   NORMALIZED FREE ENERGY PREDICTED BY IDOCK:   -2.44 KCAL/MOL
REMARK 922        TOTAL FREE ENERGY PREDICTED BY IDOCK:   -3.23 KCAL/MOL
REMARK 923 INTER-LIGAND FREE ENERGY PREDICTED BY IDOCK:   -2.98 KCAL/MOL
REMARK 924 INTRA-LIGAND FREE ENERGY PREDICTED BY IDOCK:   -0.26 KCAL/MOL
REMARK 927      BINDING AFFINITY PREDICTED BY RF-SCORE:    0.00 PKD
ROOT
HETATM    1  C   UNL     1      -7.678   6.641  70.554  1.00  0.00    -0.104 C  
HETATM    2  N   UNL     1      -8.982   6.710  69.892  1.00  0.00    -0.144 N  
HETATM    3  C   UNL     1      -9.157   7.795  68.928  1.00  0.00    -0.141 C  
ENDROOT
BRANCH   2   4
HETATM    4  C   UNL     1     -10.033   5.855  70.284  1.00  0.00    -0.192 C  
HETATM    5  S   UNL     1      -9.834   4.251  70.779  1.00  0.00    -0.164 S  
BRANCH   4   6
HETATM    6  S   UNL     1     -11.621   6.598  70.453  1.00  0.00    -0.377 SA 
BRANCH   6   7
HETATM    7  C   UNL     1     -11.491   7.641  71.882  1.00  0.00    -0.272 C  
HETATM    8  S   UNL     1     -10.614   7.209  73.259  1.00  0.00    -0.377 S  
BRANCH   7   9
HETATM    9  N   UNL     1     -12.213   8.859  71.777  1.00  0.00    -0.335 N  
HETATM   10  C   UNL     1     -13.538   9.112  72.361  1.00  0.00    -0.483 C  
HETATM   11  C   UNL     1     -11.698  10.028  71.055  1.00  0.00    -0.392 C  
ENDBRANCH   7   9
ENDBRANCH   6   7
ENDBRANCH   4   6
ENDBRANCH   2   4
TORSDOF 4
ENDMDL
MODEL      163
REMARK 921   NORMALIZED FREE ENERGY PREDICTED BY IDOCK:   -2.44 KCAL/MOL
REMARK 922        TOTAL FREE ENERGY PREDICTED BY IDOCK:   -3.23 KCAL/MOL
REMARK 923 INTER-LIGAND FREE ENERGY PREDICTED BY IDOCK:   -3.05 KCAL/MOL
REMARK 924 INTRA-LIGAND FREE ENERGY PREDICTED BY IDOCK:   -0.18 KCAL/MOL
REMARK 927      BINDING AFFINITY PREDICTED BY RF-SCORE:    0.00 PKD
ROOT
HETATM    1  C   UNL     1     -11.616  12.525  66.330  1.00  0.00    -0.394 C  
HETATM    2  N   UNL     1     -10.782  11.353  66.058  1.00  0.00    -0.271 N  
HETATM    3  C   UNL     1     -10.532  11.054  64.650  1.00  0.00    -0.329 C  
ENDROOT
BRANCH   2   4
HETATM    4  C   UNL     1     -10.376  10.502  67.107  1.00  0.00    -0.235 C  
HETATM    5  S   UNL     1     -10.160   8.832  66.961  1.00  0.00    -0.288 S  
BRANCH   4   6
HETATM    6  S   UNL     1      -9.874  11.289  68.601  1.00  0.00    -0.182 SA 
BRANCH   6   7
HETATM    7  C   UNL     1     -10.823  10.500  69.877  1.00  0.00    -0.276 C  
HETATM    8  S   UNL     1     -12.363  11.021  70.333  1.00  0.00    -0.354 S  
BRANCH   7   9
HETATM    9  N   UNL     1     -10.161   9.410  70.499  1.00  0.00    -0.255 N  
HETATM   10  C   UNL     1     -10.826   8.254  71.116  1.00  0.00    -0.233 C  
HETATM   11  C   UNL     1      -8.699   9.317  70.592  1.00  0.00    -0.234 C  
ENDBRANCH   7   9
ENDBRANCH   6   7
ENDBRANCH   4   6
ENDBRANCH   2   4
TORSDOF 4
ENDMDL
MODEL      164
REMARK 921   NORMALIZED FREE ENERGY PREDICTED BY IDOCK:   -2.44 KCAL/MOL
REMARK 922        TOTAL FREE ENERGY PREDICTED BY IDOCK:   -3.22 KCAL/MOL
REMARK 923 INTER-LIGAND FREE ENERGY PREDICTED BY IDOCK:   -3.32 KCAL/MOL
REMARK 924 INTRA-LIGAND FREE ENERGY PREDICTED BY IDOCK:    0.09 KCAL/MOL
REMARK 927      BINDING AFFINITY PREDICTED BY RF-SCORE:    0.00 PKD
ROOT
HETATM    1  C   UNL     1     -10.283  17.469  66.074  1.00  0.00    -0.299 C  
HETATM    2  N   UNL     1     -10.535  16.042  66.278  1.00  0.00    -0.315 N  
HETATM    3  C   UNL     1     -10.448  15.197  65.088  1.00  0.00    -0.410 C  
ENDROOT
BRANCH   2   4
HETATM    4  C   UNL     1     -10.973  15.561  67.530  1.00  0.00    -0.316 C  
HETATM    5  S   UNL     1     -10.712  16.345  69.005  1.00  0.00    -0.342 S  
BRANCH   4   6
HETATM    6  S   UNL     1     -12.032  14.155  67.499  1.00  0.00    -0.335 SA 
BRANCH   6   7
HETATM    7  C   UNL     1     -11.582  13.210  68.933  1.00  0.00    -0.311 C  
HETATM    8  S   UNL     1     -12.172  13.547  70.478  1.00  0.00    -0.322 S  
BRANCH   7   9
HETATM    9  N   UNL     1     -10.660  12.163  68.669  1.00  0.00    -0.227 N  
HETATM   10  C   UNL     1     -10.873  10.745  68.987  1.00  0.00    -0.235 C  
HETATM   11  C   UNL     1      -9.358  12.394  68.030  1.00  0.00    -0.204 C  
ENDBRANCH   7   9
ENDBRANCH   6   7
ENDBRANCH   4   6
ENDBRANCH   2   4
TORSDOF 4
ENDMDL
MODEL      165
REMARK 921   NORMALIZED FREE ENERGY PREDICTED BY IDOCK:   -2.43 KCAL/MOL
REMARK 922        TOTAL FREE ENERGY PREDICTED BY IDOCK:   -3.22 KCAL/MOL
REMARK 923 INTER-LIGAND FREE ENERGY PREDICTED BY IDOCK:   -3.12 KCAL/MOL
REMARK 924 INTRA-LIGAND FREE ENERGY PREDICTED BY IDOCK:   -0.10 KCAL/MOL
REMARK 927      BINDING AFFINITY PREDICTED BY RF-SCORE:    0.00 PKD
ROOT
HETATM    1  C   UNL     1     -12.782  13.828  65.302  1.00  0.00    -0.439 C  
HETATM    2  N   UNL     1     -11.543  13.114  64.991  1.00  0.00    -0.314 N  
HETATM    3  C   UNL     1     -11.421  12.602  63.628  1.00  0.00    -0.495 C  
ENDROOT
BRANCH   2   4
HETATM    4  C   UNL     1     -10.603  12.831  66.004  1.00  0.00    -0.268 C  
HETATM    5  S   UNL     1      -9.357  11.697  65.870  1.00  0.00    -0.190 S  
BRANCH   4   6
HETATM    6  S   UNL     1     -10.633  13.887  67.413  1.00  0.00    -0.268 SA 
BRANCH   6   7
HETATM    7  C   UNL     1      -9.096  14.772  67.356  1.00  0.00    -0.195 C  
HETATM    8  S   UNL     1      -7.662  14.168  68.013  1.00  0.00    -0.166 S  
BRANCH   7   9
HETATM    9  N   UNL     1      -9.184  16.045  66.735  1.00  0.00    -0.225 N  
HETATM   10  C   UNL     1      -8.089  17.020  66.639  1.00  0.00    -0.262 C  
HETATM   11  C   UNL     1     -10.415  16.536  66.102  1.00  0.00    -0.294 C  
ENDBRANCH   7   9
ENDBRANCH   6   7
ENDBRANCH   4   6
ENDBRANCH   2   4
TORSDOF 4
ENDMDL
MODEL      166
REMARK 921   NORMALIZED FREE ENERGY PREDICTED BY IDOCK:   -2.42 KCAL/MOL
REMARK 922        TOTAL FREE ENERGY PREDICTED BY IDOCK:   -3.20 KCAL/MOL
REMARK 923 INTER-LIGAND FREE ENERGY PREDICTED BY IDOCK:   -2.98 KCAL/MOL
REMARK 924 INTRA-LIGAND FREE ENERGY PREDICTED BY IDOCK:   -0.22 KCAL/MOL
REMARK 927      BINDING AFFINITY PREDICTED BY RF-SCORE:    0.00 PKD
ROOT
HETATM    1  C   UNL     1     -12.092  13.791  66.738  1.00  0.00    -0.418 C  
HETATM    2  N   UNL     1     -11.313  14.519  67.741  1.00  0.00    -0.302 N  
HETATM    3  C   UNL     1     -11.415  14.030  69.114  1.00  0.00    -0.296 C  
ENDROOT
BRANCH   2   4
HETATM    4  C   UNL     1     -10.626  15.703  67.396  1.00  0.00    -0.301 C  
HETATM    5  S   UNL     1     -10.757  17.168  68.229  1.00  0.00    -0.322 S  
BRANCH   4   6
HETATM    6  S   UNL     1      -9.406  15.557  66.134  1.00  0.00    -0.349 SA 
BRANCH   6   7
HETATM    7  C   UNL     1      -7.929  16.242  66.841  1.00  0.00    -0.243 C  
HETATM    8  S   UNL     1      -7.068  17.506  66.126  1.00  0.00    -0.275 S  
BRANCH   7   9
HETATM    9  N   UNL     1      -7.521  15.613  68.046  1.00  0.00    -0.120 N  
HETATM   10  C   UNL     1      -7.117  16.313  69.273  1.00  0.00    -0.222 C  
HETATM   11  C   UNL     1      -7.459  14.154  68.200  1.00  0.00    -0.129 C  
ENDBRANCH   7   9
ENDBRANCH   6   7
ENDBRANCH   4   6
ENDBRANCH   2   4
TORSDOF 4
ENDMDL
MODEL      167
REMARK 921   NORMALIZED FREE ENERGY PREDICTED BY IDOCK:   -2.41 KCAL/MOL
REMARK 922        TOTAL FREE ENERGY PREDICTED BY IDOCK:   -3.20 KCAL/MOL
REMARK 923 INTER-LIGAND FREE ENERGY PREDICTED BY IDOCK:   -3.02 KCAL/MOL
REMARK 924 INTRA-LIGAND FREE ENERGY PREDICTED BY IDOCK:   -0.18 KCAL/MOL
REMARK 927      BINDING AFFINITY PREDICTED BY RF-SCORE:    0.00 PKD
ROOT
HETATM    1  C   UNL     1     -10.308  13.692  64.946  1.00  0.00    -0.388 C  
HETATM    2  N   UNL     1     -10.768  12.600  64.087  1.00  0.00    -0.378 N  
HETATM    3  C   UNL     1     -12.059  12.798  63.431  1.00  0.00    -0.534 C  
ENDROOT
BRANCH   2   4
HETATM    4  C   UNL     1     -10.056  11.384  64.027  1.00  0.00    -0.320 C  
HETATM    5  S   UNL     1      -9.098  10.894  62.723  1.00  0.00    -0.349 S  
BRANCH   4   6
HETATM    6  S   UNL     1     -10.019  10.427  65.505  1.00  0.00    -0.281 SA 
BRANCH   6   7
HETATM    7  C   UNL     1      -8.396  10.680  66.176  1.00  0.00    -0.158 C  
HETATM    8  S   UNL     1      -7.057   9.760  65.715  1.00  0.00    -0.110 S  
BRANCH   7   9
HETATM    9  N   UNL     1      -8.328  11.705  67.155  1.00  0.00    -0.157 N  
HETATM   10  C   UNL     1      -7.166  12.570  67.399  1.00  0.00    -0.146 C  
HETATM   11  C   UNL     1      -9.446  12.021  68.053  1.00  0.00    -0.199 C  
ENDBRANCH   7   9
ENDBRANCH   6   7
ENDBRANCH   4   6
ENDBRANCH   2   4
TORSDOF 4
ENDMDL
MODEL      168
REMARK 921   NORMALIZED FREE ENERGY PREDICTED BY IDOCK:   -2.41 KCAL/MOL
REMARK 922        TOTAL FREE ENERGY PREDICTED BY IDOCK:   -3.20 KCAL/MOL
REMARK 923 INTER-LIGAND FREE ENERGY PREDICTED BY IDOCK:   -2.89 KCAL/MOL
REMARK 924 INTRA-LIGAND FREE ENERGY PREDICTED BY IDOCK:   -0.30 KCAL/MOL
REMARK 927      BINDING AFFINITY PREDICTED BY RF-SCORE:    0.00 PKD
ROOT
HETATM    1  C   UNL     1      -9.881   4.474  70.781  1.00  0.00    -0.210 C  
HETATM    2  N   UNL     1     -10.142   5.250  69.568  1.00  0.00    -0.230 N  
HETATM    3  C   UNL     1      -9.682   4.657  68.314  1.00  0.00    -0.131 C  
ENDROOT
BRANCH   2   4
HETATM    4  C   UNL     1     -10.679   6.552  69.650  1.00  0.00    -0.269 C  
HETATM    5  S   UNL     1     -10.275   7.826  68.614  1.00  0.00    -0.200 S  
BRANCH   4   6
HETATM    6  S   UNL     1     -12.003   6.779  70.788  1.00  0.00    -0.321 SA 
BRANCH   6   7
HETATM    7  C   UNL     1     -11.498   8.136  71.815  1.00  0.00    -0.284 C  
HETATM    8  S   UNL     1     -12.243   9.651  71.769  1.00  0.00    -0.352 S  
BRANCH   7   9
HETATM    9  N   UNL     1     -10.395   7.843  72.658  1.00  0.00    -0.281 N  
HETATM   10  C   UNL     1      -9.053   8.430  72.534  1.00  0.00    -0.256 C  
HETATM   11  C   UNL     1     -10.479   6.896  73.777  1.00  0.00    -0.357 C  
ENDBRANCH   7   9
ENDBRANCH   6   7
ENDBRANCH   4   6
ENDBRANCH   2   4
TORSDOF 4
ENDMDL
MODEL      169
REMARK 921   NORMALIZED FREE ENERGY PREDICTED BY IDOCK:   -2.41 KCAL/MOL
REMARK 922        TOTAL FREE ENERGY PREDICTED BY IDOCK:   -3.19 KCAL/MOL
REMARK 923 INTER-LIGAND FREE ENERGY PREDICTED BY IDOCK:   -2.94 KCAL/MOL
REMARK 924 INTRA-LIGAND FREE ENERGY PREDICTED BY IDOCK:   -0.25 KCAL/MOL
REMARK 927      BINDING AFFINITY PREDICTED BY RF-SCORE:    0.00 PKD
ROOT
HETATM    1  C   UNL     1      -6.628  13.928  68.542  1.00  0.00    -0.098 C  
HETATM    2  N   UNL     1      -7.771  13.125  68.105  1.00  0.00    -0.131 N  
HETATM    3  C   UNL     1      -7.755  11.717  68.495  1.00  0.00    -0.134 C  
ENDROOT
BRANCH   2   4
HETATM    4  C   UNL     1      -8.744  13.671  67.241  1.00  0.00    -0.218 C  
HETATM    5  S   UNL     1      -8.807  15.292  66.766  1.00  0.00    -0.286 S  
BRANCH   4   6
HETATM    6  S   UNL     1      -9.831  12.523  66.465  1.00  0.00    -0.250 SA 
BRANCH   6   7
HETATM    7  C   UNL     1     -11.463  13.094  66.863  1.00  0.00    -0.341 C  
HETATM    8  S   UNL     1     -12.497  13.789  65.723  1.00  0.00    -0.471 S  
BRANCH   7   9
HETATM    9  N   UNL     1     -11.812  12.941  68.230  1.00  0.00    -0.342 N  
HETATM   10  C   UNL     1     -11.884  11.661  68.948  1.00  0.00    -0.329 C  
HETATM   11  C   UNL     1     -12.144  14.078  69.097  1.00  0.00    -0.337 C  
ENDBRANCH   7   9
ENDBRANCH   6   7
ENDBRANCH   4   6
ENDBRANCH   2   4
TORSDOF 4
ENDMDL
MODEL      170
REMARK 921   NORMALIZED FREE ENERGY PREDICTED BY IDOCK:   -2.41 KCAL/MOL
REMARK 922        TOTAL FREE ENERGY PREDICTED BY IDOCK:   -3.19 KCAL/MOL
REMARK 923 INTER-LIGAND FREE ENERGY PREDICTED BY IDOCK:   -2.94 KCAL/MOL
REMARK 924 INTRA-LIGAND FREE ENERGY PREDICTED BY IDOCK:   -0.25 KCAL/MOL
REMARK 927      BINDING AFFINITY PREDICTED BY RF-SCORE:    0.00 PKD
ROOT
HETATM    1  C   UNL     1      -6.740  19.740  69.809  1.00  0.00    -0.279 C  
HETATM    2  N   UNL     1      -6.978  20.115  68.414  1.00  0.00    -0.291 N  
HETATM    3  C   UNL     1      -6.027  21.060  67.831  1.00  0.00    -0.342 C  
ENDROOT
BRANCH   2   4
HETATM    4  C   UNL     1      -8.141  19.684  67.743  1.00  0.00    -0.301 C  
HETATM    5  S   UNL     1      -9.720  19.966  68.278  1.00  0.00    -0.342 S  
BRANCH   4   6
HETATM    6  S   UNL     1      -7.906  18.987  66.143  1.00  0.00    -0.222 SA 
BRANCH   6   7
HETATM    7  C   UNL     1      -7.790  17.237  66.417  1.00  0.00    -0.310 C  
HETATM    8  S   UNL     1      -9.114  16.197  66.288  1.00  0.00    -0.356 S  
BRANCH   7   9
HETATM    9  N   UNL     1      -6.493  16.794  66.784  1.00  0.00    -0.200 N  
HETATM   10  C   UNL     1      -6.198  15.582  67.560  1.00  0.00    -0.111 C  
HETATM   11  C   UNL     1      -5.271  17.520  66.413  1.00  0.00    -0.183 C  
ENDBRANCH   7   9
ENDBRANCH   6   7
ENDBRANCH   4   6
ENDBRANCH   2   4
TORSDOF 4
ENDMDL
MODEL      171
REMARK 921   NORMALIZED FREE ENERGY PREDICTED BY IDOCK:   -2.40 KCAL/MOL
REMARK 922        TOTAL FREE ENERGY PREDICTED BY IDOCK:   -3.18 KCAL/MOL
REMARK 923 INTER-LIGAND FREE ENERGY PREDICTED BY IDOCK:   -2.97 KCAL/MOL
REMARK 924 INTRA-LIGAND FREE ENERGY PREDICTED BY IDOCK:   -0.21 KCAL/MOL
REMARK 927      BINDING AFFINITY PREDICTED BY RF-SCORE:    0.00 PKD
ROOT
HETATM    1  C   UNL     1     -12.147  14.232  66.725  1.00  0.00    -0.417 C  
HETATM    2  N   UNL     1     -11.129  13.572  67.543  1.00  0.00    -0.267 N  
HETATM    3  C   UNL     1     -11.605  12.934  68.769  1.00  0.00    -0.311 C  
ENDROOT
BRANCH   2   4
HETATM    4  C   UNL     1      -9.761  13.682  67.216  1.00  0.00    -0.243 C  
HETATM    5  S   UNL     1      -8.604  12.484  67.505  1.00  0.00    -0.195 S  
BRANCH   4   6
HETATM    6  S   UNL     1      -9.298  15.088  66.263  1.00  0.00    -0.292 SA 
BRANCH   6   7
HETATM    7  C   UNL     1      -9.163  16.413  67.436  1.00  0.00    -0.208 C  
HETATM    8  S   UNL     1      -8.843  16.161  69.075  1.00  0.00    -0.239 S  
BRANCH   7   9
HETATM    9  N   UNL     1      -9.375  17.702  66.880  1.00  0.00    -0.256 N  
HETATM   10  C   UNL     1     -10.429  18.045  65.915  1.00  0.00    -0.264 C  
HETATM   11  C   UNL     1      -8.542  18.862  67.220  1.00  0.00    -0.277 C  
ENDBRANCH   7   9
ENDBRANCH   6   7
ENDBRANCH   4   6
ENDBRANCH   2   4
TORSDOF 4
ENDMDL
MODEL      172
REMARK 921   NORMALIZED FREE ENERGY PREDICTED BY IDOCK:   -2.40 KCAL/MOL
REMARK 922        TOTAL FREE ENERGY PREDICTED BY IDOCK:   -3.18 KCAL/MOL
REMARK 923 INTER-LIGAND FREE ENERGY PREDICTED BY IDOCK:   -2.90 KCAL/MOL
REMARK 924 INTRA-LIGAND FREE ENERGY PREDICTED BY IDOCK:   -0.28 KCAL/MOL
REMARK 927      BINDING AFFINITY PREDICTED BY RF-SCORE:    0.00 PKD
ROOT
HETATM    1  C   UNL     1     -10.440   8.210  68.602  1.00  0.00    -0.165 C  
HETATM    2  N   UNL     1     -10.436   8.797  69.943  1.00  0.00    -0.216 N  
HETATM    3  C   UNL     1      -9.190   9.436  70.361  1.00  0.00    -0.257 C  
ENDROOT
BRANCH   2   4
HETATM    4  C   UNL     1     -11.535   8.617  70.809  1.00  0.00    -0.259 C  
HETATM    5  S   UNL     1     -12.466   9.872  71.455  1.00  0.00    -0.429 S  
BRANCH   4   6
HETATM    6  S   UNL     1     -12.072   6.958  71.053  1.00  0.00    -0.357 SA 
BRANCH   6   7
HETATM    7  C   UNL     1     -10.814   6.212  72.059  1.00  0.00    -0.247 C  
HETATM    8  S   UNL     1     -10.289   6.878  73.519  1.00  0.00    -0.368 S  
BRANCH   7   9
HETATM    9  N   UNL     1     -10.269   5.020  71.514  1.00  0.00    -0.205 N  
HETATM   10  C   UNL     1     -10.060   4.762  70.083  1.00  0.00    -0.240 C  
HETATM   11  C   UNL     1      -9.842   3.888  72.345  1.00  0.00    -0.157 C  
ENDBRANCH   7   9
ENDBRANCH   6   7
ENDBRANCH   4   6
ENDBRANCH   2   4
TORSDOF 4
ENDMDL
MODEL      173
REMARK 921   NORMALIZED FREE ENERGY PREDICTED BY IDOCK:   -2.40 KCAL/MOL
REMARK 922        TOTAL FREE ENERGY PREDICTED BY IDOCK:   -3.18 KCAL/MOL
REMARK 923 INTER-LIGAND FREE ENERGY PREDICTED BY IDOCK:   -2.89 KCAL/MOL
REMARK 924 INTRA-LIGAND FREE ENERGY PREDICTED BY IDOCK:   -0.29 KCAL/MOL
REMARK 927      BINDING AFFINITY PREDICTED BY RF-SCORE:    0.00 PKD
ROOT
HETATM    1  C   UNL     1     -11.848  10.070  71.109  1.00  0.00    -0.393 C  
HETATM    2  N   UNL     1     -11.334   8.807  70.577  1.00  0.00    -0.253 N  
HETATM    3  C   UNL     1     -10.280   8.916  69.570  1.00  0.00    -0.204 C  
ENDROOT
BRANCH   2   4
HETATM    4  C   UNL     1     -11.935   7.581  70.930  1.00  0.00    -0.251 C  
HETATM    5  S   UNL     1     -13.454   7.429  71.656  1.00  0.00    -0.311 S  
BRANCH   4   6
HETATM    6  S   UNL     1     -11.114   6.123  70.381  1.00  0.00    -0.347 SA 
BRANCH   6   7
HETATM    7  C   UNL     1      -9.882   5.797  71.616  1.00  0.00    -0.167 C  
HETATM    8  S   UNL     1      -8.245   5.601  71.253  1.00  0.00    -0.127 S  
BRANCH   7   9
HETATM    9  N   UNL     1     -10.400   5.688  72.933  1.00  0.00    -0.186 N  
HETATM   10  C   UNL     1     -10.100   6.605  74.041  1.00  0.00    -0.347 C  
HETATM   11  C   UNL     1     -11.317   4.616  73.340  1.00  0.00    -0.305 C  
ENDBRANCH   7   9
ENDBRANCH   6   7
ENDBRANCH   4   6
ENDBRANCH   2   4
TORSDOF 4
ENDMDL
MODEL      174
REMARK 921   NORMALIZED FREE ENERGY PREDICTED BY IDOCK:   -2.39 KCAL/MOL
REMARK 922        TOTAL FREE ENERGY PREDICTED BY IDOCK:   -3.16 KCAL/MOL
REMARK 923 INTER-LIGAND FREE ENERGY PREDICTED BY IDOCK:   -2.93 KCAL/MOL
REMARK 924 INTRA-LIGAND FREE ENERGY PREDICTED BY IDOCK:   -0.23 KCAL/MOL
REMARK 927      BINDING AFFINITY PREDICTED BY RF-SCORE:    0.00 PKD
ROOT
HETATM    1  C   UNL     1      -8.708   8.806  66.421  1.00  0.00    -0.139 C  
HETATM    2  N   UNL     1      -9.098   9.459  67.672  1.00  0.00    -0.122 N  
HETATM    3  C   UNL     1      -8.826  10.893  67.760  1.00  0.00    -0.135 C  
ENDROOT
BRANCH   2   4
HETATM    4  C   UNL     1      -9.576   8.700  68.760  1.00  0.00    -0.156 C  
HETATM    5  S   UNL     1     -10.038   7.077  68.671  1.00  0.00    -0.171 S  
BRANCH   4   6
HETATM    6  S   UNL     1      -9.483   9.463  70.344  1.00  0.00    -0.271 SA 
BRANCH   6   7
HETATM    7  C   UNL     1     -11.151   9.931  70.728  1.00  0.00    -0.347 C  
HETATM    8  S   UNL     1     -11.930  11.241  70.000  1.00  0.00    -0.384 S  
BRANCH   7   9
HETATM    9  N   UNL     1     -11.764   9.123  71.721  1.00  0.00    -0.369 N  
HETATM   10  C   UNL     1     -11.087   8.077  72.500  1.00  0.00    -0.375 C  
HETATM   11  C   UNL     1     -13.179   9.252  72.089  1.00  0.00    -0.461 C  
ENDBRANCH   7   9
ENDBRANCH   6   7
ENDBRANCH   4   6
ENDBRANCH   2   4
TORSDOF 4
ENDMDL
MODEL      175
REMARK 921   NORMALIZED FREE ENERGY PREDICTED BY IDOCK:   -2.38 KCAL/MOL
REMARK 922        TOTAL FREE ENERGY PREDICTED BY IDOCK:   -3.15 KCAL/MOL
REMARK 923 INTER-LIGAND FREE ENERGY PREDICTED BY IDOCK:   -3.05 KCAL/MOL
REMARK 924 INTRA-LIGAND FREE ENERGY PREDICTED BY IDOCK:   -0.11 KCAL/MOL
REMARK 927      BINDING AFFINITY PREDICTED BY RF-SCORE:    0.00 PKD
ROOT
HETATM    1  C   UNL     1     -10.462  15.524  65.285  1.00  0.00    -0.411 C  
HETATM    2  N   UNL     1     -10.108  15.347  66.694  1.00  0.00    -0.258 N  
HETATM    3  C   UNL     1     -10.920  14.393  67.446  1.00  0.00    -0.299 C  
ENDROOT
BRANCH   2   4
HETATM    4  C   UNL     1      -9.130  16.165  67.297  1.00  0.00    -0.203 C  
HETATM    5  S   UNL     1      -7.461  15.955  67.125  1.00  0.00    -0.228 S  
BRANCH   4   6
HETATM    6  S   UNL     1      -9.717  17.612  68.112  1.00  0.00    -0.326 SA 
BRANCH   6   7
HETATM    7  C   UNL     1      -8.438  18.821  67.880  1.00  0.00    -0.292 C  
HETATM    8  S   UNL     1      -7.240  19.124  69.030  1.00  0.00    -0.310 S  
BRANCH   7   9
HETATM    9  N   UNL     1      -8.529  19.530  66.653  1.00  0.00    -0.310 N  
HETATM   10  C   UNL     1      -9.665  20.365  66.240  1.00  0.00    -0.228 C  
HETATM   11  C   UNL     1      -7.467  19.505  65.640  1.00  0.00    -0.182 C  
ENDBRANCH   7   9
ENDBRANCH   6   7
ENDBRANCH   4   6
ENDBRANCH   2   4
TORSDOF 4
ENDMDL
MODEL      176
REMARK 921   NORMALIZED FREE ENERGY PREDICTED BY IDOCK:   -2.38 KCAL/MOL
REMARK 922        TOTAL FREE ENERGY PREDICTED BY IDOCK:   -3.15 KCAL/MOL
REMARK 923 INTER-LIGAND FREE ENERGY PREDICTED BY IDOCK:   -2.87 KCAL/MOL
REMARK 924 INTRA-LIGAND FREE ENERGY PREDICTED BY IDOCK:   -0.29 KCAL/MOL
REMARK 927      BINDING AFFINITY PREDICTED BY RF-SCORE:    0.00 PKD
ROOT
HETATM    1  C   UNL     1     -13.013   7.130  71.458  1.00  0.00    -0.383 C  
HETATM    2  N   UNL     1     -11.601   6.886  71.758  1.00  0.00    -0.272 N  
HETATM    3  C   UNL     1     -11.040   7.649  72.872  1.00  0.00    -0.393 C  
ENDROOT
BRANCH   2   4
HETATM    4  C   UNL     1     -10.819   6.066  70.919  1.00  0.00    -0.285 C  
HETATM    5  S   UNL     1     -10.059   4.637  71.408  1.00  0.00    -0.146 S  
BRANCH   4   6
HETATM    6  S   UNL     1     -10.820   6.476  69.206  1.00  0.00    -0.333 SA 
BRANCH   6   7
HETATM    7  C   UNL     1      -9.737   7.875  69.069  1.00  0.00    -0.162 C  
HETATM    8  S   UNL     1      -8.057   7.754  69.196  1.00  0.00    -0.126 S  
BRANCH   7   9
HETATM    9  N   UNL     1     -10.410   9.109  68.872  1.00  0.00    -0.211 N  
HETATM   10  C   UNL     1     -11.030   9.916  69.932  1.00  0.00    -0.281 C  
HETATM   11  C   UNL     1     -10.559   9.731  67.550  1.00  0.00    -0.275 C  
ENDBRANCH   7   9
ENDBRANCH   6   7
ENDBRANCH   4   6
ENDBRANCH   2   4
TORSDOF 4
ENDMDL
MODEL      177
REMARK 921   NORMALIZED FREE ENERGY PREDICTED BY IDOCK:   -2.38 KCAL/MOL
REMARK 922        TOTAL FREE ENERGY PREDICTED BY IDOCK:   -3.15 KCAL/MOL
REMARK 923 INTER-LIGAND FREE ENERGY PREDICTED BY IDOCK:   -2.93 KCAL/MOL
REMARK 924 INTRA-LIGAND FREE ENERGY PREDICTED BY IDOCK:   -0.22 KCAL/MOL
REMARK 927      BINDING AFFINITY PREDICTED BY RF-SCORE:    0.00 PKD
ROOT
HETATM    1  C   UNL     1     -12.605  13.659  65.683  1.00  0.00    -0.484 C  
HETATM    2  N   UNL     1     -11.174  13.699  65.379  1.00  0.00    -0.295 N  
HETATM    3  C   UNL     1     -10.752  12.981  64.177  1.00  0.00    -0.402 C  
ENDROOT
BRANCH   2   4
HETATM    4  C   UNL     1     -10.262  14.283  66.284  1.00  0.00    -0.301 C  
HETATM    5  S   UNL     1      -9.351  15.671  65.969  1.00  0.00    -0.330 S  
BRANCH   4   6
HETATM    6  S   UNL     1     -10.245  13.615  67.913  1.00  0.00    -0.256 SA 
BRANCH   6   7
HETATM    7  C   UNL     1      -9.717  11.932  67.714  1.00  0.00    -0.189 C  
HETATM    8  S   UNL     1     -10.778  10.673  67.338  1.00  0.00    -0.287 S  
BRANCH   7   9
HETATM    9  N   UNL     1      -8.327  11.733  67.926  1.00  0.00    -0.141 N  
HETATM   10  C   UNL     1      -7.735  10.618  68.677  1.00  0.00    -0.110 C  
HETATM   11  C   UNL     1      -7.305  12.646  67.400  1.00  0.00    -0.140 C  
ENDBRANCH   7   9
ENDBRANCH   6   7
ENDBRANCH   4   6
ENDBRANCH   2   4
TORSDOF 4
ENDMDL
MODEL      178
REMARK 921   NORMALIZED FREE ENERGY PREDICTED BY IDOCK:   -2.37 KCAL/MOL
REMARK 922        TOTAL FREE ENERGY PREDICTED BY IDOCK:   -3.15 KCAL/MOL
REMARK 923 INTER-LIGAND FREE ENERGY PREDICTED BY IDOCK:   -2.90 KCAL/MOL
REMARK 924 INTRA-LIGAND FREE ENERGY PREDICTED BY IDOCK:   -0.25 KCAL/MOL
REMARK 927      BINDING AFFINITY PREDICTED BY RF-SCORE:    0.00 PKD
ROOT
HETATM    1  C   UNL     1      -8.896   7.769  67.614  1.00  0.00    -0.128 C  
HETATM    2  N   UNL     1      -8.878   8.453  68.909  1.00  0.00    -0.142 N  
HETATM    3  C   UNL     1      -7.814   8.057  69.829  1.00  0.00    -0.106 C  
ENDROOT
BRANCH   2   4
HETATM    4  C   UNL     1      -9.919   9.332  69.271  1.00  0.00    -0.180 C  
HETATM    5  S   UNL     1     -10.838  10.237  68.179  1.00  0.00    -0.271 S  
BRANCH   4   6
HETATM    6  S   UNL     1     -10.403   9.311  70.964  1.00  0.00    -0.323 SA 
BRANCH   6   7
HETATM    7  C   UNL     1     -11.654   8.057  71.069  1.00  0.00    -0.283 C  
HETATM    8  S   UNL     1     -11.354   6.429  70.737  1.00  0.00    -0.350 S  
BRANCH   7   9
HETATM    9  N   UNL     1     -12.937   8.548  71.429  1.00  0.00    -0.283 N  
HETATM   10  C   UNL     1     -14.117   7.717  71.703  1.00  0.00    -0.434 C  
HETATM   11  C   UNL     1     -13.228   9.980  71.571  1.00  0.00    -0.401 C  
ENDBRANCH   7   9
ENDBRANCH   6   7
ENDBRANCH   4   6
ENDBRANCH   2   4
TORSDOF 4
ENDMDL
MODEL      179
REMARK 921   NORMALIZED FREE ENERGY PREDICTED BY IDOCK:   -2.37 KCAL/MOL
REMARK 922        TOTAL FREE ENERGY PREDICTED BY IDOCK:   -3.15 KCAL/MOL
REMARK 923 INTER-LIGAND FREE ENERGY PREDICTED BY IDOCK:   -2.93 KCAL/MOL
REMARK 924 INTRA-LIGAND FREE ENERGY PREDICTED BY IDOCK:   -0.22 KCAL/MOL
REMARK 927      BINDING AFFINITY PREDICTED BY RF-SCORE:    0.00 PKD
ROOT
HETATM    1  C   UNL     1     -12.285  11.102  70.594  1.00  0.00    -0.397 C  
HETATM    2  N   UNL     1     -11.510  10.474  69.523  1.00  0.00    -0.262 N  
HETATM    3  C   UNL     1     -11.567  11.130  68.218  1.00  0.00    -0.289 C  
ENDROOT
BRANCH   2   4
HETATM    4  C   UNL     1     -10.869   9.235  69.731  1.00  0.00    -0.224 C  
HETATM    5  S   UNL     1     -10.318   8.218  68.499  1.00  0.00    -0.172 S  
BRANCH   4   6
HETATM    6  S   UNL     1     -10.451   8.843  71.397  1.00  0.00    -0.333 SA 
BRANCH   6   7
HETATM    7  C   UNL     1     -11.485   7.463  71.817  1.00  0.00    -0.265 C  
HETATM    8  S   UNL     1     -13.158   7.463  71.584  1.00  0.00    -0.337 S  
BRANCH   7   9
HETATM    9  N   UNL     1     -10.785   6.371  72.393  1.00  0.00    -0.217 N  
HETATM   10  C   UNL     1     -11.409   5.238  73.092  1.00  0.00    -0.291 C  
HETATM   11  C   UNL     1      -9.323   6.252  72.349  1.00  0.00    -0.141 C  
ENDBRANCH   7   9
ENDBRANCH   6   7
ENDBRANCH   4   6
ENDBRANCH   2   4
TORSDOF 4
ENDMDL
MODEL      180
REMARK 921   NORMALIZED FREE ENERGY PREDICTED BY IDOCK:   -2.37 KCAL/MOL
REMARK 922        TOTAL FREE ENERGY PREDICTED BY IDOCK:   -3.14 KCAL/MOL
REMARK 923 INTER-LIGAND FREE ENERGY PREDICTED BY IDOCK:   -2.85 KCAL/MOL
REMARK 924 INTRA-LIGAND FREE ENERGY PREDICTED BY IDOCK:   -0.29 KCAL/MOL
REMARK 927      BINDING AFFINITY PREDICTED BY RF-SCORE:    0.00 PKD
ROOT
HETATM    1  C   UNL     1     -10.855   9.770  67.364  1.00  0.00    -0.197 C  
HETATM    2  N   UNL     1      -9.890  10.451  66.499  1.00  0.00    -0.197 N  
HETATM    3  C   UNL     1      -9.916  10.077  65.086  1.00  0.00    -0.280 C  
ENDROOT
BRANCH   2   4
HETATM    4  C   UNL     1      -8.913  11.307  67.049  1.00  0.00    -0.154 C  
HETATM    5  S   UNL     1      -7.251  11.172  66.771  1.00  0.00    -0.145 S  
BRANCH   4   6
HETATM    6  S   UNL     1      -9.510  12.721  67.912  1.00  0.00    -0.213 SA 
BRANCH   6   7
HETATM    7  C   UNL     1      -9.843  13.923  66.650  1.00  0.00    -0.284 C  
HETATM    8  S   UNL     1      -8.977  15.366  66.503  1.00  0.00    -0.319 S  
BRANCH   7   9
HETATM    9  N   UNL     1     -10.920  13.578  65.793  1.00  0.00    -0.277 N  
HETATM   10  C   UNL     1     -10.835  13.457  64.331  1.00  0.00    -0.406 C  
HETATM   11  C   UNL     1     -12.272  13.295  66.290  1.00  0.00    -0.377 C  
ENDBRANCH   7   9
ENDBRANCH   6   7
ENDBRANCH   4   6
ENDBRANCH   2   4
TORSDOF 4
ENDMDL
MODEL      181
REMARK 921   NORMALIZED FREE ENERGY PREDICTED BY IDOCK:   -2.37 KCAL/MOL
REMARK 922        TOTAL FREE ENERGY PREDICTED BY IDOCK:   -3.14 KCAL/MOL
REMARK 923 INTER-LIGAND FREE ENERGY PREDICTED BY IDOCK:   -2.96 KCAL/MOL
REMARK 924 INTRA-LIGAND FREE ENERGY PREDICTED BY IDOCK:   -0.18 KCAL/MOL
REMARK 927      BINDING AFFINITY PREDICTED BY RF-SCORE:    0.00 PKD
ROOT
HETATM    1  C   UNL     1      -8.498  12.009  68.121  1.00  0.00    -0.171 C  
HETATM    2  N   UNL     1      -9.850  11.586  68.487  1.00  0.00    -0.196 N  
HETATM    3  C   UNL     1     -10.820  12.657  68.712  1.00  0.00    -0.231 C  
ENDROOT
BRANCH   2   4
HETATM    4  C   UNL     1     -10.136  10.228  68.739  1.00  0.00    -0.187 C  
HETATM    5  S   UNL     1     -10.614   9.112  67.562  1.00  0.00    -0.192 S  
BRANCH   4   6
HETATM    6  S   UNL     1      -9.765   9.639  70.356  1.00  0.00    -0.191 SA 
BRANCH   6   7
HETATM    7  C   UNL     1     -11.344   9.343  71.110  1.00  0.00    -0.351 C  
HETATM    8  S   UNL     1     -12.535  10.532  71.249  1.00  0.00    -0.433 S  
BRANCH   7   9
HETATM    9  N   UNL     1     -11.507   8.025  71.611  1.00  0.00    -0.257 N  
HETATM   10  C   UNL     1     -12.184   6.927  70.907  1.00  0.00    -0.353 C  
HETATM   11  C   UNL     1     -10.999   7.606  72.923  1.00  0.00    -0.400 C  
ENDBRANCH   7   9
ENDBRANCH   6   7
ENDBRANCH   4   6
ENDBRANCH   2   4
TORSDOF 4
ENDMDL
MODEL      182
REMARK 921   NORMALIZED FREE ENERGY PREDICTED BY IDOCK:   -2.36 KCAL/MOL
REMARK 922        TOTAL FREE ENERGY PREDICTED BY IDOCK:   -3.13 KCAL/MOL
REMARK 923 INTER-LIGAND FREE ENERGY PREDICTED BY IDOCK:   -3.16 KCAL/MOL
REMARK 924 INTRA-LIGAND FREE ENERGY PREDICTED BY IDOCK:    0.02 KCAL/MOL
REMARK 927      BINDING AFFINITY PREDICTED BY RF-SCORE:    0.00 PKD
ROOT
HETATM    1  C   UNL     1      -7.472  15.439  67.268  1.00  0.00    -0.207 C  
HETATM    2  N   UNL     1      -8.635  14.737  66.720  1.00  0.00    -0.225 N  
HETATM    3  C   UNL     1      -9.632  15.571  66.051  1.00  0.00    -0.345 C  
ENDROOT
BRANCH   2   4
HETATM    4  C   UNL     1      -8.823  13.361  66.963  1.00  0.00    -0.211 C  
HETATM    5  S   UNL     1      -8.196  12.524  68.291  1.00  0.00    -0.152 S  
BRANCH   4   6
HETATM    6  S   UNL     1      -9.958  12.530  65.902  1.00  0.00    -0.246 SA 
BRANCH   6   7
HETATM    7  C   UNL     1     -11.565  13.009  66.483  1.00  0.00    -0.356 C  
HETATM    8  S   UNL     1     -12.726  13.725  65.488  1.00  0.00    -0.414 S  
BRANCH   7   9
HETATM    9  N   UNL     1     -11.776  12.764  67.865  1.00  0.00    -0.348 N  
HETATM   10  C   UNL     1     -11.809  11.437  68.496  1.00  0.00    -0.294 C  
HETATM   11  C   UNL     1     -11.989  13.841  68.840  1.00  0.00    -0.359 C  
ENDBRANCH   7   9
ENDBRANCH   6   7
ENDBRANCH   4   6
ENDBRANCH   2   4
TORSDOF 4
ENDMDL
MODEL      183
REMARK 921   NORMALIZED FREE ENERGY PREDICTED BY IDOCK:   -2.36 KCAL/MOL
REMARK 922        TOTAL FREE ENERGY PREDICTED BY IDOCK:   -3.13 KCAL/MOL
REMARK 923 INTER-LIGAND FREE ENERGY PREDICTED BY IDOCK:   -3.06 KCAL/MOL
REMARK 924 INTRA-LIGAND FREE ENERGY PREDICTED BY IDOCK:   -0.07 KCAL/MOL
REMARK 927      BINDING AFFINITY PREDICTED BY RF-SCORE:    0.00 PKD
ROOT
HETATM    1  C   UNL     1      -8.830  10.887  67.656  1.00  0.00    -0.133 C  
HETATM    2  N   UNL     1     -10.151  10.333  67.957  1.00  0.00    -0.156 N  
HETATM    3  C   UNL     1     -11.296  11.149  67.557  1.00  0.00    -0.278 C  
ENDROOT
BRANCH   2   4
HETATM    4  C   UNL     1     -10.279   9.149  68.712  1.00  0.00    -0.210 C  
HETATM    5  S   UNL     1     -10.400   7.597  68.054  1.00  0.00    -0.194 S  
BRANCH   4   6
HETATM    6  S   UNL     1     -10.094   9.313  70.456  1.00  0.00    -0.276 SA 
BRANCH   6   7
HETATM    7  C   UNL     1     -11.513   8.501  71.147  1.00  0.00    -0.276 C  
HETATM    8  S   UNL     1     -11.569   6.840  71.443  1.00  0.00    -0.323 S  
BRANCH   7   9
HETATM    9  N   UNL     1     -12.607   9.368  71.401  1.00  0.00    -0.332 N  
HETATM   10  C   UNL     1     -13.849   8.987  72.088  1.00  0.00    -0.466 C  
HETATM   11  C   UNL     1     -12.614  10.779  70.996  1.00  0.00    -0.420 C  
ENDBRANCH   7   9
ENDBRANCH   6   7
ENDBRANCH   4   6
ENDBRANCH   2   4
TORSDOF 4
ENDMDL
MODEL      184
REMARK 921   NORMALIZED FREE ENERGY PREDICTED BY IDOCK:   -2.35 KCAL/MOL
REMARK 922        TOTAL FREE ENERGY PREDICTED BY IDOCK:   -3.12 KCAL/MOL
REMARK 923 INTER-LIGAND FREE ENERGY PREDICTED BY IDOCK:   -2.93 KCAL/MOL
REMARK 924 INTRA-LIGAND FREE ENERGY PREDICTED BY IDOCK:   -0.19 KCAL/MOL
REMARK 927      BINDING AFFINITY PREDICTED BY RF-SCORE:    0.00 PKD
ROOT
HETATM    1  C   UNL     1     -10.080   9.944  69.954  1.00  0.00    -0.257 C  
HETATM    2  N   UNL     1      -9.204  10.438  68.890  1.00  0.00    -0.168 N  
HETATM    3  C   UNL     1      -7.771  10.427  69.180  1.00  0.00    -0.126 C  
ENDROOT
BRANCH   2   4
HETATM    4  C   UNL     1      -9.747  11.015  67.723  1.00  0.00    -0.170 C  
HETATM    5  S   UNL     1      -8.859  11.393  66.335  1.00  0.00    -0.190 S  
BRANCH   4   6
HETATM    6  S   UNL     1     -11.502  11.151  67.664  1.00  0.00    -0.180 SA 
BRANCH   6   7
HETATM    7  C   UNL     1     -11.817  12.854  67.274  1.00  0.00    -0.356 C  
HETATM    8  S   UNL     1     -12.066  13.405  65.697  1.00  0.00    -0.463 S  
BRANCH   7   9
HETATM    9  N   UNL     1     -11.812  13.716  68.402  1.00  0.00    -0.358 N  
HETATM   10  C   UNL     1     -11.605  15.170  68.357  1.00  0.00    -0.337 C  
HETATM   11  C   UNL     1     -12.022  13.232  69.772  1.00  0.00    -0.324 C  
ENDBRANCH   7   9
ENDBRANCH   6   7
ENDBRANCH   4   6
ENDBRANCH   2   4
TORSDOF 4
ENDMDL
MODEL      185
REMARK 921   NORMALIZED FREE ENERGY PREDICTED BY IDOCK:   -2.34 KCAL/MOL
REMARK 922        TOTAL FREE ENERGY PREDICTED BY IDOCK:   -3.10 KCAL/MOL
REMARK 923 INTER-LIGAND FREE ENERGY PREDICTED BY IDOCK:   -2.74 KCAL/MOL
REMARK 924 INTRA-LIGAND FREE ENERGY PREDICTED BY IDOCK:   -0.36 KCAL/MOL
REMARK 927      BINDING AFFINITY PREDICTED BY RF-SCORE:    0.00 PKD
ROOT
HETATM    1  C   UNL     1      -8.341   6.598  68.520  1.00  0.00    -0.122 C  
HETATM    2  N   UNL     1      -9.797   6.539  68.653  1.00  0.00    -0.137 N  
HETATM    3  C   UNL     1     -10.565   7.260  67.640  1.00  0.00    -0.246 C  
ENDROOT
BRANCH   2   4
HETATM    4  C   UNL     1     -10.392   5.934  69.780  1.00  0.00    -0.243 C  
HETATM    5  S   UNL     1      -9.762   4.595  70.597  1.00  0.00    -0.221 S  
BRANCH   4   6
HETATM    6  S   UNL     1     -11.773   6.774  70.479  1.00  0.00    -0.348 SA 
BRANCH   6   7
HETATM    7  C   UNL     1     -11.093   8.233  71.225  1.00  0.00    -0.251 C  
HETATM    8  S   UNL     1     -11.522   9.795  70.748  1.00  0.00    -0.368 S  
BRANCH   7   9
HETATM    9  N   UNL     1     -10.134   7.971  72.239  1.00  0.00    -0.223 N  
HETATM   10  C   UNL     1      -8.724   8.381  72.198  1.00  0.00    -0.205 C  
HETATM   11  C   UNL     1     -10.461   7.244  73.472  1.00  0.00    -0.374 C  
ENDBRANCH   7   9
ENDBRANCH   6   7
ENDBRANCH   4   6
ENDBRANCH   2   4
TORSDOF 4
ENDMDL
MODEL      186
REMARK 921   NORMALIZED FREE ENERGY PREDICTED BY IDOCK:   -2.34 KCAL/MOL
REMARK 922        TOTAL FREE ENERGY PREDICTED BY IDOCK:   -3.10 KCAL/MOL
REMARK 923 INTER-LIGAND FREE ENERGY PREDICTED BY IDOCK:   -2.84 KCAL/MOL
REMARK 924 INTRA-LIGAND FREE ENERGY PREDICTED BY IDOCK:   -0.26 KCAL/MOL
REMARK 927      BINDING AFFINITY PREDICTED BY RF-SCORE:    0.00 PKD
ROOT
HETATM    1  C   UNL     1      -8.915  20.303  66.745  1.00  0.00    -0.283 C  
HETATM    2  N   UNL     1      -7.809  19.351  66.859  1.00  0.00    -0.251 N  
HETATM    3  C   UNL     1      -7.008  19.148  65.652  1.00  0.00    -0.260 C  
ENDROOT
BRANCH   2   4
HETATM    4  C   UNL     1      -7.637  18.586  68.031  1.00  0.00    -0.256 C  
HETATM    5  S   UNL     1      -6.449  18.871  69.199  1.00  0.00    -0.293 S  
BRANCH   4   6
HETATM    6  S   UNL     1      -8.884  17.390  68.372  1.00  0.00    -0.274 SA 
BRANCH   6   7
HETATM    7  C   UNL     1      -8.433  15.970  67.408  1.00  0.00    -0.168 C  
HETATM    8  S   UNL     1      -6.934  15.204  67.545  1.00  0.00    -0.168 S  
BRANCH   7   9
HETATM    9  N   UNL     1      -9.433  15.552  66.492  1.00  0.00    -0.252 N  
HETATM   10  C   UNL     1      -9.791  14.156  66.206  1.00  0.00    -0.306 C  
HETATM   11  C   UNL     1     -10.240  16.497  65.711  1.00  0.00    -0.329 C  
ENDBRANCH   7   9
ENDBRANCH   6   7
ENDBRANCH   4   6
ENDBRANCH   2   4
TORSDOF 4
ENDMDL
MODEL      187
REMARK 921   NORMALIZED FREE ENERGY PREDICTED BY IDOCK:   -2.33 KCAL/MOL
REMARK 922        TOTAL FREE ENERGY PREDICTED BY IDOCK:   -3.10 KCAL/MOL
REMARK 923 INTER-LIGAND FREE ENERGY PREDICTED BY IDOCK:   -2.93 KCAL/MOL
REMARK 924 INTRA-LIGAND FREE ENERGY PREDICTED BY IDOCK:   -0.17 KCAL/MOL
REMARK 927      BINDING AFFINITY PREDICTED BY RF-SCORE:    0.00 PKD
ROOT
HETATM    1  C   UNL     1      -9.945  16.525  66.168  1.00  0.00    -0.343 C  
HETATM    2  N   UNL     1      -9.493  15.140  66.314  1.00  0.00    -0.290 N  
HETATM    3  C   UNL     1      -8.166  14.955  66.899  1.00  0.00    -0.143 C  
ENDROOT
BRANCH   2   4
HETATM    4  C   UNL     1     -10.253  14.077  65.784  1.00  0.00    -0.328 C  
HETATM    5  S   UNL     1     -11.520  14.258  64.680  1.00  0.00    -0.374 S  
BRANCH   4   6
HETATM    6  S   UNL     1      -9.690  12.452  66.162  1.00  0.00    -0.231 SA 
BRANCH   6   7
HETATM    7  C   UNL     1     -10.621  11.964  67.593  1.00  0.00    -0.211 C  
HETATM    8  S   UNL     1     -11.718  12.988  68.368  1.00  0.00    -0.354 S  
BRANCH   7   9
HETATM    9  N   UNL     1     -10.340  10.649  68.045  1.00  0.00    -0.170 N  
HETATM   10  C   UNL     1     -10.414   9.435  67.219  1.00  0.00    -0.264 C  
HETATM   11  C   UNL     1      -9.931  10.352  69.423  1.00  0.00    -0.218 C  
ENDBRANCH   7   9
ENDBRANCH   6   7
ENDBRANCH   4   6
ENDBRANCH   2   4
TORSDOF 4
ENDMDL
MODEL      188
REMARK 921   NORMALIZED FREE ENERGY PREDICTED BY IDOCK:   -2.33 KCAL/MOL
REMARK 922        TOTAL FREE ENERGY PREDICTED BY IDOCK:   -3.10 KCAL/MOL
REMARK 923 INTER-LIGAND FREE ENERGY PREDICTED BY IDOCK:   -2.88 KCAL/MOL
REMARK 924 INTRA-LIGAND FREE ENERGY PREDICTED BY IDOCK:   -0.22 KCAL/MOL
REMARK 927      BINDING AFFINITY PREDICTED BY RF-SCORE:    0.00 PKD
ROOT
HETATM    1  C   UNL     1     -10.338  18.926  66.094  1.00  0.00    -0.460 C  
HETATM    2  N   UNL     1      -9.007  18.965  66.701  1.00  0.00    -0.313 N  
HETATM    3  C   UNL     1      -8.732  20.103  67.576  1.00  0.00    -0.336 C  
ENDROOT
BRANCH   2   4
HETATM    4  C   UNL     1      -8.023  18.023  66.334  1.00  0.00    -0.262 C  
HETATM    5  S   UNL     1      -6.427  18.407  65.932  1.00  0.00    -0.279 S  
BRANCH   4   6
HETATM    6  S   UNL     1      -8.462  16.327  66.512  1.00  0.00    -0.328 SA 
BRANCH   6   7
HETATM    7  C   UNL     1      -8.195  15.961  68.229  1.00  0.00    -0.152 C  
HETATM    8  S   UNL     1      -9.454  15.629  69.304  1.00  0.00    -0.273 S  
BRANCH   7   9
HETATM    9  N   UNL     1      -6.832  16.001  68.623  1.00  0.00    -0.126 N  
HETATM   10  C   UNL     1      -5.817  15.000  68.268  1.00  0.00    -0.119 C  
HETATM   11  C   UNL     1      -6.275  17.080  69.449  1.00  0.00    -0.232 C  
ENDBRANCH   7   9
ENDBRANCH   6   7
ENDBRANCH   4   6
ENDBRANCH   2   4
TORSDOF 4
ENDMDL
MODEL      189
REMARK 921   NORMALIZED FREE ENERGY PREDICTED BY IDOCK:   -2.31 KCAL/MOL
REMARK 922        TOTAL FREE ENERGY PREDICTED BY IDOCK:   -3.07 KCAL/MOL
REMARK 923 INTER-LIGAND FREE ENERGY PREDICTED BY IDOCK:   -2.91 KCAL/MOL
REMARK 924 INTRA-LIGAND FREE ENERGY PREDICTED BY IDOCK:   -0.16 KCAL/MOL
REMARK 927      BINDING AFFINITY PREDICTED BY RF-SCORE:    0.00 PKD
ROOT
HETATM    1  C   UNL     1      -8.295  16.059  69.136  1.00  0.00    -0.244 C  
HETATM    2  N   UNL     1      -8.042  14.865  68.329  1.00  0.00    -0.127 N  
HETATM    3  C   UNL     1      -6.906  14.041  68.738  1.00  0.00    -0.103 C  
ENDROOT
BRANCH   2   4
HETATM    4  C   UNL     1      -8.779  14.625  67.150  1.00  0.00    -0.222 C  
HETATM    5  S   UNL     1      -9.168  15.804  66.003  1.00  0.00    -0.312 S  
BRANCH   4   6
HETATM    6  S   UNL     1      -9.127  12.940  66.777  1.00  0.00    -0.177 SA 
BRANCH   6   7
HETATM    7  C   UNL     1     -10.874  12.763  67.038  1.00  0.00    -0.257 C  
HETATM    8  S   UNL     1     -11.557  12.542  68.567  1.00  0.00    -0.341 S  
BRANCH   7   9
HETATM    9  N   UNL     1     -11.643  12.796  65.846  1.00  0.00    -0.360 N  
HETATM   10  C   UNL     1     -12.745  13.729  65.573  1.00  0.00    -0.488 C  
HETATM   11  C   UNL     1     -11.410  11.876  64.725  1.00  0.00    -0.283 C  
ENDBRANCH   7   9
ENDBRANCH   6   7
ENDBRANCH   4   6
ENDBRANCH   2   4
TORSDOF 4
ENDMDL
MODEL      190
REMARK 921   NORMALIZED FREE ENERGY PREDICTED BY IDOCK:   -2.31 KCAL/MOL
REMARK 922        TOTAL FREE ENERGY PREDICTED BY IDOCK:   -3.07 KCAL/MOL
REMARK 923 INTER-LIGAND FREE ENERGY PREDICTED BY IDOCK:   -2.86 KCAL/MOL
REMARK 924 INTRA-LIGAND FREE ENERGY PREDICTED BY IDOCK:   -0.21 KCAL/MOL
REMARK 927      BINDING AFFINITY PREDICTED BY RF-SCORE:    0.00 PKD
ROOT
HETATM    1  C   UNL     1     -12.661  10.419  71.439  1.00  0.00    -0.434 C  
HETATM    2  N   UNL     1     -12.039   9.238  70.838  1.00  0.00    -0.267 N  
HETATM    3  C   UNL     1     -10.977   9.494  69.866  1.00  0.00    -0.238 C  
ENDROOT
BRANCH   2   4
HETATM    4  C   UNL     1     -12.549   7.948  71.095  1.00  0.00    -0.175 C  
HETATM    5  S   UNL     1     -14.123   7.623  71.618  1.00  0.00    -0.408 S  
BRANCH   4   6
HETATM    6  S   UNL     1     -11.517   6.596  70.639  1.00  0.00    -0.383 SA 
BRANCH   6   7
HETATM    7  C   UNL     1     -10.248   6.548  71.878  1.00  0.00    -0.194 C  
HETATM    8  S   UNL     1     -10.508   7.017  73.479  1.00  0.00    -0.370 S  
BRANCH   7   9
HETATM    9  N   UNL     1      -8.987   6.107  71.398  1.00  0.00    -0.143 N  
HETATM   10  C   UNL     1      -8.199   5.007  71.970  1.00  0.00    -0.116 C  
HETATM   11  C   UNL     1      -8.318   6.720  70.244  1.00  0.00    -0.134 C  
ENDBRANCH   7   9
ENDBRANCH   6   7
ENDBRANCH   4   6
ENDBRANCH   2   4
TORSDOF 4
ENDMDL
MODEL      191
REMARK 921   NORMALIZED FREE ENERGY PREDICTED BY IDOCK:   -2.31 KCAL/MOL
REMARK 922        TOTAL FREE ENERGY PREDICTED BY IDOCK:   -3.07 KCAL/MOL
REMARK 923 INTER-LIGAND FREE ENERGY PREDICTED BY IDOCK:   -2.88 KCAL/MOL
REMARK 924 INTRA-LIGAND FREE ENERGY PREDICTED BY IDOCK:   -0.19 KCAL/MOL
REMARK 927      BINDING AFFINITY PREDICTED BY RF-SCORE:    0.00 PKD
ROOT
HETATM    1  C   UNL     1     -12.529  13.010  64.639  1.00  0.00    -0.400 C  
HETATM    2  N   UNL     1     -11.073  12.882  64.708  1.00  0.00    -0.297 N  
HETATM    3  C   UNL     1     -10.429  12.239  63.564  1.00  0.00    -0.424 C  
ENDROOT
BRANCH   2   4
HETATM    4  C   UNL     1     -10.375  13.237  65.882  1.00  0.00    -0.292 C  
HETATM    5  S   UNL     1      -9.666  14.747  66.159  1.00  0.00    -0.315 S  
BRANCH   4   6
HETATM    6  S   UNL     1     -10.439  12.081  67.208  1.00  0.00    -0.222 SA 
BRANCH   6   7
HETATM    7  C   UNL     1      -9.050  11.006  66.947  1.00  0.00    -0.156 C  
HETATM    8  S   UNL     1      -7.449  11.517  67.110  1.00  0.00    -0.149 S  
BRANCH   7   9
HETATM    9  N   UNL     1      -9.405   9.687  66.562  1.00  0.00    -0.157 N  
HETATM   10  C   UNL     1      -8.812   8.943  65.441  1.00  0.00    -0.193 C  
HETATM   11  C   UNL     1     -10.429   8.902  67.262  1.00  0.00    -0.277 C  
ENDBRANCH   7   9
ENDBRANCH   6   7
ENDBRANCH   4   6
ENDBRANCH   2   4
TORSDOF 4
ENDMDL
MODEL      192
REMARK 921   NORMALIZED FREE ENERGY PREDICTED BY IDOCK:   -2.31 KCAL/MOL
REMARK 922        TOTAL FREE ENERGY PREDICTED BY IDOCK:   -3.06 KCAL/MOL
REMARK 923 INTER-LIGAND FREE ENERGY PREDICTED BY IDOCK:   -2.96 KCAL/MOL
REMARK 924 INTRA-LIGAND FREE ENERGY PREDICTED BY IDOCK:   -0.10 KCAL/MOL
REMARK 927      BINDING AFFINITY PREDICTED BY RF-SCORE:    0.00 PKD
ROOT
HETATM    1  C   UNL     1     -11.218  13.417  64.733  1.00  0.00    -0.345 C  
HETATM    2  N   UNL     1     -11.163  14.129  66.011  1.00  0.00    -0.314 N  
HETATM    3  C   UNL     1     -12.277  13.891  66.927  1.00  0.00    -0.377 C  
ENDROOT
BRANCH   2   4
HETATM    4  C   UNL     1     -10.158  15.087  66.256  1.00  0.00    -0.282 C  
HETATM    5  S   UNL     1     -10.124  16.639  65.586  1.00  0.00    -0.142 S  
BRANCH   4   6
HETATM    6  S   UNL     1      -8.984  14.683  67.505  1.00  0.00    -0.199 SA 
BRANCH   6   7
HETATM    7  C   UNL     1      -8.604  16.227  68.295  1.00  0.00    -0.196 C  
HETATM    8  S   UNL     1      -7.065  16.921  68.265  1.00  0.00    -0.187 S  
BRANCH   7   9
HETATM    9  N   UNL     1      -9.702  16.812  68.978  1.00  0.00    -0.260 N  
HETATM   10  C   UNL     1     -10.067  18.235  68.934  1.00  0.00    -0.335 C  
HETATM   11  C   UNL     1     -10.618  16.035  69.822  1.00  0.00    -0.323 C  
ENDBRANCH   7   9
ENDBRANCH   6   7
ENDBRANCH   4   6
ENDBRANCH   2   4
TORSDOF 4
ENDMDL
MODEL      193
REMARK 921   NORMALIZED FREE ENERGY PREDICTED BY IDOCK:   -2.31 KCAL/MOL
REMARK 922        TOTAL FREE ENERGY PREDICTED BY IDOCK:   -3.06 KCAL/MOL
REMARK 923 INTER-LIGAND FREE ENERGY PREDICTED BY IDOCK:   -2.75 KCAL/MOL
REMARK 924 INTRA-LIGAND FREE ENERGY PREDICTED BY IDOCK:   -0.31 KCAL/MOL
REMARK 927      BINDING AFFINITY PREDICTED BY RF-SCORE:    0.00 PKD
ROOT
HETATM    1  C   UNL     1     -10.917   6.156  69.878  1.00  0.00    -0.389 C  
HETATM    2  N   UNL     1     -10.143   5.758  71.054  1.00  0.00    -0.196 N  
HETATM    3  C   UNL     1      -8.851   5.127  70.790  1.00  0.00    -0.133 C  
ENDROOT
BRANCH   2   4
HETATM    4  C   UNL     1     -10.697   5.860  72.348  1.00  0.00    -0.232 C  
HETATM    5  S   UNL     1     -11.047   4.545  73.350  1.00  0.00    -0.313 S  
BRANCH   4   6
HETATM    6  S   UNL     1     -10.833   7.486  73.011  1.00  0.00    -0.384 SA 
BRANCH   6   7
HETATM    7  C   UNL     1      -9.202   8.173  72.883  1.00  0.00    -0.273 C  
HETATM    8  S   UNL     1      -8.048   8.037  74.109  1.00  0.00    -0.261 S  
BRANCH   7   9
HETATM    9  N   UNL     1      -8.962   8.870  71.671  1.00  0.00    -0.220 N  
HETATM   10  C   UNL     1      -7.656   9.000  71.011  1.00  0.00    -0.115 C  
HETATM   11  C   UNL     1     -10.025   9.555  70.924  1.00  0.00    -0.238 C  
ENDBRANCH   7   9
ENDBRANCH   6   7
ENDBRANCH   4   6
ENDBRANCH   2   4
TORSDOF 4
ENDMDL
MODEL      194
REMARK 921   NORMALIZED FREE ENERGY PREDICTED BY IDOCK:   -2.30 KCAL/MOL
REMARK 922        TOTAL FREE ENERGY PREDICTED BY IDOCK:   -3.06 KCAL/MOL
REMARK 923 INTER-LIGAND FREE ENERGY PREDICTED BY IDOCK:   -2.87 KCAL/MOL
REMARK 924 INTRA-LIGAND FREE ENERGY PREDICTED BY IDOCK:   -0.19 KCAL/MOL
REMARK 927      BINDING AFFINITY PREDICTED BY RF-SCORE:    0.00 PKD
ROOT
HETATM    1  C   UNL     1     -10.364   8.250  66.979  1.00  0.00    -0.323 C  
HETATM    2  N   UNL     1      -9.258   9.055  66.457  1.00  0.00    -0.166 N  
HETATM    3  C   UNL     1      -8.102   8.312  65.959  1.00  0.00    -0.110 C  
ENDROOT
BRANCH   2   4
HETATM    4  C   UNL     1      -9.277  10.461  66.571  1.00  0.00    -0.160 C  
HETATM    5  S   UNL     1      -7.963  11.403  67.062  1.00  0.00    -0.163 S  
BRANCH   4   6
HETATM    6  S   UNL     1     -10.715  11.274  65.960  1.00  0.00    -0.207 SA 
BRANCH   6   7
HETATM    7  C   UNL     1     -11.432  12.065  67.377  1.00  0.00    -0.336 C  
HETATM    8  S   UNL     1     -11.801  11.238  68.803  1.00  0.00    -0.285 S  
BRANCH   7   9
HETATM    9  N   UNL     1     -11.695  13.448  67.196  1.00  0.00    -0.357 N  
HETATM   10  C   UNL     1     -12.345  14.040  66.019  1.00  0.00    -0.473 C  
HETATM   11  C   UNL     1     -11.337  14.462  68.195  1.00  0.00    -0.294 C  
ENDBRANCH   7   9
ENDBRANCH   6   7
ENDBRANCH   4   6
ENDBRANCH   2   4
TORSDOF 4
ENDMDL
MODEL      195
REMARK 921   NORMALIZED FREE ENERGY PREDICTED BY IDOCK:   -2.30 KCAL/MOL
REMARK 922        TOTAL FREE ENERGY PREDICTED BY IDOCK:   -3.06 KCAL/MOL
REMARK 923 INTER-LIGAND FREE ENERGY PREDICTED BY IDOCK:   -2.69 KCAL/MOL
REMARK 924 INTRA-LIGAND FREE ENERGY PREDICTED BY IDOCK:   -0.37 KCAL/MOL
REMARK 927      BINDING AFFINITY PREDICTED BY RF-SCORE:    0.00 PKD
ROOT
HETATM    1  C   UNL     1      -7.820  11.609  68.369  1.00  0.00    -0.137 C  
HETATM    2  N   UNL     1      -8.294  11.095  67.083  1.00  0.00    -0.131 N  
HETATM    3  C   UNL     1      -7.262  10.766  66.102  1.00  0.00    -0.126 C  
ENDROOT
BRANCH   2   4
HETATM    4  C   UNL     1      -9.673  11.064  66.787  1.00  0.00    -0.193 C  
HETATM    5  S   UNL     1     -10.861  10.425  67.806  1.00  0.00    -0.311 S  
BRANCH   4   6
HETATM    6  S   UNL     1     -10.181  11.936  65.344  1.00  0.00    -0.272 SA 
BRANCH   6   7
HETATM    7  C   UNL     1     -11.115  13.319  65.948  1.00  0.00    -0.285 C  
HETATM    8  S   UNL     1     -12.650  13.716  65.368  1.00  0.00    -0.452 S  
BRANCH   7   9
HETATM    9  N   UNL     1     -10.444  14.079  66.942  1.00  0.00    -0.274 N  
HETATM   10  C   UNL     1      -9.166  14.779  66.755  1.00  0.00    -0.260 C  
HETATM   11  C   UNL     1     -10.972  14.254  68.300  1.00  0.00    -0.247 C  
ENDBRANCH   7   9
ENDBRANCH   6   7
ENDBRANCH   4   6
ENDBRANCH   2   4
TORSDOF 4
ENDMDL
MODEL      196
REMARK 921   NORMALIZED FREE ENERGY PREDICTED BY IDOCK:   -2.29 KCAL/MOL
REMARK 922        TOTAL FREE ENERGY PREDICTED BY IDOCK:   -3.05 KCAL/MOL
REMARK 923 INTER-LIGAND FREE ENERGY PREDICTED BY IDOCK:   -3.35 KCAL/MOL
REMARK 924 INTRA-LIGAND FREE ENERGY PREDICTED BY IDOCK:    0.31 KCAL/MOL
REMARK 927      BINDING AFFINITY PREDICTED BY RF-SCORE:    0.00 PKD
ROOT
HETATM    1  C   UNL     1     -11.444  15.490  72.014  1.00  0.00    -0.428 C  
HETATM    2  N   UNL     1     -12.142  15.380  70.733  1.00  0.00    -0.333 N  
HETATM    3  C   UNL     1     -13.601  15.325  70.798  1.00  0.00    -0.254 C  
ENDROOT
BRANCH   2   4
HETATM    4  C   UNL     1     -11.419  15.197  69.535  1.00  0.00    -0.296 C  
HETATM    5  S   UNL     1     -11.941  14.256  68.231  1.00  0.00    -0.264 S  
BRANCH   4   6
HETATM    6  S   UNL     1      -9.978  16.188  69.334  1.00  0.00    -0.220 SA 
BRANCH   6   7
HETATM    7  C   UNL     1     -10.122  16.884  67.708  1.00  0.00    -0.292 C  
HETATM    8  S   UNL     1     -10.649  18.464  67.428  1.00  0.00    -0.371 S  
BRANCH   7   9
HETATM    9  N   UNL     1      -9.783  15.987  66.662  1.00  0.00    -0.233 N  
HETATM   10  C   UNL     1     -10.561  15.784  65.432  1.00  0.00    -0.421 C  
HETATM   11  C   UNL     1      -8.582  15.142  66.699  1.00  0.00    -0.243 C  
ENDBRANCH   7   9
ENDBRANCH   6   7
ENDBRANCH   4   6
ENDBRANCH   2   4
TORSDOF 4
ENDMDL
MODEL      197
REMARK 921   NORMALIZED FREE ENERGY PREDICTED BY IDOCK:   -2.28 KCAL/MOL
REMARK 922        TOTAL FREE ENERGY PREDICTED BY IDOCK:   -3.04 KCAL/MOL
REMARK 923 INTER-LIGAND FREE ENERGY PREDICTED BY IDOCK:   -2.82 KCAL/MOL
REMARK 924 INTRA-LIGAND FREE ENERGY PREDICTED BY IDOCK:   -0.22 KCAL/MOL
REMARK 927      BINDING AFFINITY PREDICTED BY RF-SCORE:    0.00 PKD
ROOT
HETATM    1  C   UNL     1      -8.679   6.163  67.804  1.00  0.00    -0.112 C  
HETATM    2  N   UNL     1     -10.096   6.119  68.169  1.00  0.00    -0.145 N  
HETATM    3  C   UNL     1     -11.031   6.656  67.181  1.00  0.00    -0.408 C  
ENDROOT
BRANCH   2   4
HETATM    4  C   UNL     1     -10.494   5.708  69.458  1.00  0.00    -0.302 C  
HETATM    5  S   UNL     1      -9.842   4.389  70.290  1.00  0.00    -0.181 S  
BRANCH   4   6
HETATM    6  S   UNL     1     -11.601   6.778  70.311  1.00  0.00    -0.336 SA 
BRANCH   6   7
HETATM    7  C   UNL     1     -10.654   8.240  70.653  1.00  0.00    -0.215 C  
HETATM    8  S   UNL     1      -9.012   8.201  71.043  1.00  0.00    -0.159 S  
BRANCH   7   9
HETATM    9  N   UNL     1     -11.407   9.442  70.597  1.00  0.00    -0.276 N  
HETATM   10  C   UNL     1     -11.281  10.474  69.558  1.00  0.00    -0.271 C  
HETATM   11  C   UNL     1     -12.422   9.792  71.599  1.00  0.00    -0.410 C  
ENDBRANCH   7   9
ENDBRANCH   6   7
ENDBRANCH   4   6
ENDBRANCH   2   4
TORSDOF 4
ENDMDL
MODEL      198
REMARK 921   NORMALIZED FREE ENERGY PREDICTED BY IDOCK:   -2.28 KCAL/MOL
REMARK 922        TOTAL FREE ENERGY PREDICTED BY IDOCK:   -3.04 KCAL/MOL
REMARK 923 INTER-LIGAND FREE ENERGY PREDICTED BY IDOCK:   -2.74 KCAL/MOL
REMARK 924 INTRA-LIGAND FREE ENERGY PREDICTED BY IDOCK:   -0.30 KCAL/MOL
REMARK 927      BINDING AFFINITY PREDICTED BY RF-SCORE:    0.00 PKD
ROOT
HETATM    1  C   UNL     1      -7.779  10.261  65.196  1.00  0.00    -0.136 C  
HETATM    2  N   UNL     1      -8.882  10.419  66.145  1.00  0.00    -0.153 N  
HETATM    3  C   UNL     1     -10.126   9.732  65.805  1.00  0.00    -0.238 C  
ENDROOT
BRANCH   2   4
HETATM    4  C   UNL     1      -8.766  11.301  67.240  1.00  0.00    -0.145 C  
HETATM    5  S   UNL     1      -8.253  10.852  68.787  1.00  0.00    -0.145 S  
BRANCH   4   6
HETATM    6  S   UNL     1      -8.984  13.013  66.889  1.00  0.00    -0.177 SA 
BRANCH   6   7
HETATM    7  C   UNL     1     -10.742  13.254  66.852  1.00  0.00    -0.271 C  
HETATM    8  S   UNL     1     -11.662  13.529  68.241  1.00  0.00    -0.373 S  
BRANCH   7   9
HETATM    9  N   UNL     1     -11.309  13.167  65.554  1.00  0.00    -0.296 N  
HETATM   10  C   UNL     1     -12.747  13.093  65.260  1.00  0.00    -0.394 C  
HETATM   11  C   UNL     1     -10.497  13.143  64.331  1.00  0.00    -0.407 C  
ENDBRANCH   7   9
ENDBRANCH   6   7
ENDBRANCH   4   6
ENDBRANCH   2   4
TORSDOF 4
ENDMDL
MODEL      199
REMARK 921   NORMALIZED FREE ENERGY PREDICTED BY IDOCK:   -2.28 KCAL/MOL
REMARK 922        TOTAL FREE ENERGY PREDICTED BY IDOCK:   -3.03 KCAL/MOL
REMARK 923 INTER-LIGAND FREE ENERGY PREDICTED BY IDOCK:   -2.81 KCAL/MOL
REMARK 924 INTRA-LIGAND FREE ENERGY PREDICTED BY IDOCK:   -0.22 KCAL/MOL
REMARK 927      BINDING AFFINITY PREDICTED BY RF-SCORE:    0.00 PKD
ROOT
HETATM    1  C   UNL     1     -10.605   6.685  67.047  1.00  0.00    -0.333 C  
HETATM    2  N   UNL     1     -10.347   7.677  68.092  1.00  0.00    -0.203 N  
HETATM    3  C   UNL     1     -10.759   7.308  69.445  1.00  0.00    -0.225 C  
ENDROOT
BRANCH   2   4
HETATM    4  C   UNL     1      -9.858   8.958  67.761  1.00  0.00    -0.166 C  
HETATM    5  S   UNL     1      -9.828   9.602  66.199  1.00  0.00    -0.268 S  
BRANCH   4   6
HETATM    6  S   UNL     1      -9.446  10.009  69.114  1.00  0.00    -0.218 SA 
BRANCH   6   7
HETATM    7  C   UNL     1     -10.802  11.146  69.241  1.00  0.00    -0.229 C  
HETATM    8  S   UNL     1     -12.142  10.872  70.233  1.00  0.00    -0.382 S  
BRANCH   7   9
HETATM    9  N   UNL     1     -10.675  12.293  68.415  1.00  0.00    -0.226 N  
HETATM   10  C   UNL     1      -9.413  12.982  68.110  1.00  0.00    -0.218 C  
HETATM   11  C   UNL     1     -11.822  12.929  67.756  1.00  0.00    -0.339 C  
ENDBRANCH   7   9
ENDBRANCH   6   7
ENDBRANCH   4   6
ENDBRANCH   2   4
TORSDOF 4
ENDMDL
MODEL      200
REMARK 921   NORMALIZED FREE ENERGY PREDICTED BY IDOCK:   -2.28 KCAL/MOL
REMARK 922        TOTAL FREE ENERGY PREDICTED BY IDOCK:   -3.03 KCAL/MOL
REMARK 923 INTER-LIGAND FREE ENERGY PREDICTED BY IDOCK:   -2.84 KCAL/MOL
REMARK 924 INTRA-LIGAND FREE ENERGY PREDICTED BY IDOCK:   -0.19 KCAL/MOL
REMARK 927      BINDING AFFINITY PREDICTED BY RF-SCORE:    0.00 PKD
ROOT
HETATM    1  C   UNL     1      -7.444  10.473  65.921  1.00  0.00    -0.147 C  
HETATM    2  N   UNL     1      -8.864  10.118  65.926  1.00  0.00    -0.144 N  
HETATM    3  C   UNL     1      -9.604  10.410  64.700  1.00  0.00    -0.300 C  
ENDROOT
BRANCH   2   4
HETATM    4  C   UNL     1      -9.484   9.653  67.105  1.00  0.00    -0.148 C  
HETATM    5  S   UNL     1     -10.328   8.195  67.237  1.00  0.00    -0.315 S  
BRANCH   4   6
HETATM    6  S   UNL     1      -9.168  10.579  68.569  1.00  0.00    -0.176 SA 
BRANCH   6   7
HETATM    7  C   UNL     1     -10.755  11.189  69.078  1.00  0.00    -0.225 C  
HETATM    8  S   UNL     1     -11.569  12.425  68.265  1.00  0.00    -0.349 S  
BRANCH   7   9
HETATM    9  N   UNL     1     -11.267  10.565  70.246  1.00  0.00    -0.312 N  
HETATM   10  C   UNL     1     -12.548  10.889  70.888  1.00  0.00    -0.397 C  
HETATM   11  C   UNL     1     -10.551   9.496  70.954  1.00  0.00    -0.325 C  
ENDBRANCH   7   9
ENDBRANCH   6   7
ENDBRANCH   4   6
ENDBRANCH   2   4
TORSDOF 4
ENDMDL
MODEL      201
REMARK 921   NORMALIZED FREE ENERGY PREDICTED BY IDOCK:   -2.28 KCAL/MOL
REMARK 922        TOTAL FREE ENERGY PREDICTED BY IDOCK:   -3.03 KCAL/MOL
REMARK 923 INTER-LIGAND FREE ENERGY PREDICTED BY IDOCK:   -2.83 KCAL/MOL
REMARK 924 INTRA-LIGAND FREE ENERGY PREDICTED BY IDOCK:   -0.19 KCAL/MOL
REMARK 927      BINDING AFFINITY PREDICTED BY RF-SCORE:    0.00 PKD
ROOT
HETATM    1  C   UNL     1     -10.473   8.746  66.934  1.00  0.00    -0.249 C  
HETATM    2  N   UNL     1     -10.578   9.045  68.363  1.00  0.00    -0.188 N  
HETATM    3  C   UNL     1     -10.986  10.407  68.706  1.00  0.00    -0.245 C  
ENDROOT
BRANCH   2   4
HETATM    4  C   UNL     1     -10.169   8.100  69.327  1.00  0.00    -0.214 C  
HETATM    5  S   UNL     1     -10.182   6.426  69.097  1.00  0.00    -0.199 S  
BRANCH   4   6
HETATM    6  S   UNL     1      -9.412   8.746  70.779  1.00  0.00    -0.227 SA 
BRANCH   6   7
HETATM    7  C   UNL     1     -10.498   8.288  72.106  1.00  0.00    -0.301 C  
HETATM    8  S   UNL     1     -12.146   8.655  72.114  1.00  0.00    -0.379 S  
BRANCH   7   9
HETATM    9  N   UNL     1      -9.852   7.610  73.173  1.00  0.00    -0.253 N  
HETATM   10  C   UNL     1     -10.401   6.459  73.902  1.00  0.00    -0.322 C  
HETATM   11  C   UNL     1      -8.528   7.998  73.675  1.00  0.00    -0.256 C  
ENDBRANCH   7   9
ENDBRANCH   6   7
ENDBRANCH   4   6
ENDBRANCH   2   4
TORSDOF 4
ENDMDL
MODEL      202
REMARK 921   NORMALIZED FREE ENERGY PREDICTED BY IDOCK:   -2.28 KCAL/MOL
REMARK 922        TOTAL FREE ENERGY PREDICTED BY IDOCK:   -3.03 KCAL/MOL
REMARK 923 INTER-LIGAND FREE ENERGY PREDICTED BY IDOCK:   -2.82 KCAL/MOL
REMARK 924 INTRA-LIGAND FREE ENERGY PREDICTED BY IDOCK:   -0.21 KCAL/MOL
REMARK 927      BINDING AFFINITY PREDICTED BY RF-SCORE:    0.00 PKD
ROOT
HETATM    1  C   UNL     1      -9.530   7.475  73.615  1.00  0.00    -0.284 C  
HETATM    2  N   UNL     1     -10.291   8.158  72.568  1.00  0.00    -0.308 N  
HETATM    3  C   UNL     1     -11.746   8.072  72.670  1.00  0.00    -0.358 C  
ENDROOT
BRANCH   2   4
HETATM    4  C   UNL     1      -9.632   8.735  71.462  1.00  0.00    -0.284 C  
HETATM    5  S   UNL     1      -7.963   8.676  71.199  1.00  0.00    -0.150 S  
BRANCH   4   6
HETATM    6  S   UNL     1     -10.663   9.377  70.187  1.00  0.00    -0.260 SA 
BRANCH   6   7
HETATM    7  C   UNL     1     -10.639   8.144  68.911  1.00  0.00    -0.140 C  
HETATM    8  S   UNL     1     -10.950   6.510  69.206  1.00  0.00    -0.340 S  
BRANCH   7   9
HETATM    9  N   UNL     1     -10.306   8.647  67.627  1.00  0.00    -0.242 N  
HETATM   10  C   UNL     1     -10.586  10.010  67.152  1.00  0.00    -0.232 C  
HETATM   11  C   UNL     1      -9.627   7.839  66.608  1.00  0.00    -0.220 C  
ENDBRANCH   7   9
ENDBRANCH   6   7
ENDBRANCH   4   6
ENDBRANCH   2   4
TORSDOF 4
ENDMDL
MODEL      203
REMARK 921   NORMALIZED FREE ENERGY PREDICTED BY IDOCK:   -2.27 KCAL/MOL
REMARK 922        TOTAL FREE ENERGY PREDICTED BY IDOCK:   -3.02 KCAL/MOL
REMARK 923 INTER-LIGAND FREE ENERGY PREDICTED BY IDOCK:   -2.93 KCAL/MOL
REMARK 924 INTRA-LIGAND FREE ENERGY PREDICTED BY IDOCK:   -0.09 KCAL/MOL
REMARK 927      BINDING AFFINITY PREDICTED BY RF-SCORE:    0.00 PKD
ROOT
HETATM    1  C   UNL     1      -7.872   8.096  72.755  1.00  0.00    -0.145 C  
HETATM    2  N   UNL     1      -8.885   8.311  71.721  1.00  0.00    -0.155 N  
HETATM    3  C   UNL     1      -8.541   9.271  70.674  1.00  0.00    -0.225 C  
ENDROOT
BRANCH   2   4
HETATM    4  C   UNL     1     -10.162   7.721  71.831  1.00  0.00    -0.202 C  
HETATM    5  S   UNL     1     -10.757   6.970  73.223  1.00  0.00    -0.334 S  
BRANCH   4   6
HETATM    6  S   UNL     1     -11.259   7.978  70.478  1.00  0.00    -0.216 SA 
BRANCH   6   7
HETATM    7  C   UNL     1     -12.270   9.354  70.961  1.00  0.00    -0.279 C  
HETATM    8  S   UNL     1     -13.449   9.251  72.166  1.00  0.00    -0.489 S  
BRANCH   7   9
HETATM    9  N   UNL     1     -12.019  10.542  70.225  1.00  0.00    -0.301 N  
HETATM   10  C   UNL     1     -11.411  10.598  68.889  1.00  0.00    -0.265 C  
HETATM   11  C   UNL     1     -12.353  11.878  70.734  1.00  0.00    -0.320 C  
ENDBRANCH   7   9
ENDBRANCH   6   7
ENDBRANCH   4   6
ENDBRANCH   2   4
TORSDOF 4
ENDMDL
MODEL      204
REMARK 921   NORMALIZED FREE ENERGY PREDICTED BY IDOCK:   -2.27 KCAL/MOL
REMARK 922        TOTAL FREE ENERGY PREDICTED BY IDOCK:   -3.02 KCAL/MOL
REMARK 923 INTER-LIGAND FREE ENERGY PREDICTED BY IDOCK:   -2.81 KCAL/MOL
REMARK 924 INTRA-LIGAND FREE ENERGY PREDICTED BY IDOCK:   -0.21 KCAL/MOL
REMARK 927      BINDING AFFINITY PREDICTED BY RF-SCORE:    0.00 PKD
ROOT
HETATM    1  C   UNL     1      -9.765  10.796  64.264  1.00  0.00    -0.302 C  
HETATM    2  N   UNL     1     -10.561  11.792  64.983  1.00  0.00    -0.277 N  
HETATM    3  C   UNL     1     -11.390  12.670  64.160  1.00  0.00    -0.383 C  
ENDROOT
BRANCH   2   4
HETATM    4  C   UNL     1     -10.408  11.964  66.375  1.00  0.00    -0.219 C  
HETATM    5  S   UNL     1     -11.589  12.606  67.400  1.00  0.00    -0.369 S  
BRANCH   4   6
HETATM    6  S   UNL     1      -8.957  11.270  67.093  1.00  0.00    -0.158 SA 
BRANCH   6   7
HETATM    7  C   UNL     1      -9.524   9.844  67.984  1.00  0.00    -0.134 C  
HETATM    8  S   UNL     1     -10.374   8.580  67.254  1.00  0.00    -0.303 S  
BRANCH   7   9
HETATM    9  N   UNL     1      -9.224   9.873  69.371  1.00  0.00    -0.200 N  
HETATM   10  C   UNL     1     -10.202   9.696  70.454  1.00  0.00    -0.288 C  
HETATM   11  C   UNL     1      -7.866  10.087  69.887  1.00  0.00    -0.174 C  
ENDBRANCH   7   9
ENDBRANCH   6   7
ENDBRANCH   4   6
ENDBRANCH   2   4
TORSDOF 4
ENDMDL
MODEL      205
REMARK 921   NORMALIZED FREE ENERGY PREDICTED BY IDOCK:   -2.26 KCAL/MOL
REMARK 922        TOTAL FREE ENERGY PREDICTED BY IDOCK:   -3.01 KCAL/MOL
REMARK 923 INTER-LIGAND FREE ENERGY PREDICTED BY IDOCK:   -2.81 KCAL/MOL
REMARK 924 INTRA-LIGAND FREE ENERGY PREDICTED BY IDOCK:   -0.20 KCAL/MOL
REMARK 927      BINDING AFFINITY PREDICTED BY RF-SCORE:    0.00 PKD
ROOT
HETATM    1  C   UNL     1      -7.589  11.025  68.900  1.00  0.00    -0.134 C  
HETATM    2  N   UNL     1      -7.724  12.314  68.220  1.00  0.00    -0.135 N  
HETATM    3  C   UNL     1      -7.132  13.465  68.901  1.00  0.00    -0.084 C  
ENDROOT
BRANCH   2   4
HETATM    4  C   UNL     1      -8.504  12.432  67.051  1.00  0.00    -0.170 C  
HETATM    5  S   UNL     1      -8.984  11.134  66.080  1.00  0.00    -0.197 S  
BRANCH   4   6
HETATM    6  S   UNL     1      -9.175  14.026  66.718  1.00  0.00    -0.244 SA 
BRANCH   6   7
HETATM    7  C   UNL     1     -10.929  13.836  66.913  1.00  0.00    -0.290 C  
HETATM    8  S   UNL     1     -11.668  13.612  68.415  1.00  0.00    -0.375 S  
BRANCH   7   9
HETATM    9  N   UNL     1     -11.652  13.860  65.692  1.00  0.00    -0.325 N  
HETATM   10  C   UNL     1     -11.747  15.012  64.786  1.00  0.00    -0.370 C  
HETATM   11  C   UNL     1     -12.401  12.702  65.189  1.00  0.00    -0.484 C  
ENDBRANCH   7   9
ENDBRANCH   6   7
ENDBRANCH   4   6
ENDBRANCH   2   4
TORSDOF 4
ENDMDL
MODEL      206
REMARK 921   NORMALIZED FREE ENERGY PREDICTED BY IDOCK:   -2.26 KCAL/MOL
REMARK 922        TOTAL FREE ENERGY PREDICTED BY IDOCK:   -3.01 KCAL/MOL
REMARK 923 INTER-LIGAND FREE ENERGY PREDICTED BY IDOCK:   -2.66 KCAL/MOL
REMARK 924 INTRA-LIGAND FREE ENERGY PREDICTED BY IDOCK:   -0.34 KCAL/MOL
REMARK 927      BINDING AFFINITY PREDICTED BY RF-SCORE:    0.00 PKD
ROOT
HETATM    1  C   UNL     1      -9.899   7.418  73.148  1.00  0.00    -0.254 C  
HETATM    2  N   UNL     1     -10.484   6.389  72.287  1.00  0.00    -0.193 N  
HETATM    3  C   UNL     1     -11.488   5.527  72.907  1.00  0.00    -0.267 C  
ENDROOT
BRANCH   2   4
HETATM    4  C   UNL     1      -9.987   6.175  70.984  1.00  0.00    -0.184 C  
HETATM    5  S   UNL     1      -8.463   5.535  70.629  1.00  0.00    -0.122 S  
BRANCH   4   6
HETATM    6  S   UNL     1     -11.130   6.409  69.665  1.00  0.00    -0.423 SA 
BRANCH   6   7
HETATM    7  C   UNL     1     -10.636   7.929  68.894  1.00  0.00    -0.145 C  
HETATM    8  S   UNL     1     -10.385   8.077  67.231  1.00  0.00    -0.316 S  
BRANCH   7   9
HETATM    9  N   UNL     1     -10.442   9.002  69.803  1.00  0.00    -0.213 N  
HETATM   10  C   UNL     1     -11.494   9.623  70.618  1.00  0.00    -0.306 C  
HETATM   11  C   UNL     1      -9.130   9.621  70.033  1.00  0.00    -0.237 C  
ENDBRANCH   7   9
ENDBRANCH   6   7
ENDBRANCH   4   6
ENDBRANCH   2   4
TORSDOF 4
ENDMDL
MODEL      207
REMARK 921   NORMALIZED FREE ENERGY PREDICTED BY IDOCK:   -2.25 KCAL/MOL
REMARK 922        TOTAL FREE ENERGY PREDICTED BY IDOCK:   -3.00 KCAL/MOL
REMARK 923 INTER-LIGAND FREE ENERGY PREDICTED BY IDOCK:   -2.76 KCAL/MOL
REMARK 924 INTRA-LIGAND FREE ENERGY PREDICTED BY IDOCK:   -0.24 KCAL/MOL
REMARK 927      BINDING AFFINITY PREDICTED BY RF-SCORE:    0.00 PKD
ROOT
HETATM    1  C   UNL     1     -12.858   7.056  71.601  1.00  0.00    -0.364 C  
HETATM    2  N   UNL     1     -12.522   8.480  71.540  1.00  0.00    -0.310 N  
HETATM    3  C   UNL     1     -13.449   9.389  72.209  1.00  0.00    -0.465 C  
ENDROOT
BRANCH   2   4
HETATM    4  C   UNL     1     -11.438   8.929  70.756  1.00  0.00    -0.275 C  
HETATM    5  S   UNL     1     -11.375  10.424  69.970  1.00  0.00    -0.333 S  
BRANCH   4   6
HETATM    6  S   UNL     1      -9.989   7.928  70.781  1.00  0.00    -0.184 SA 
BRANCH   6   7
HETATM    7  C   UNL     1      -9.787   7.370  69.109  1.00  0.00    -0.168 C  
HETATM    8  S   UNL     1     -10.890   6.349  68.340  1.00  0.00    -0.313 S  
BRANCH   7   9
HETATM    9  N   UNL     1      -8.600   7.836  68.484  1.00  0.00    -0.128 N  
HETATM   10  C   UNL     1      -8.463   9.113  67.770  1.00  0.00    -0.117 C  
HETATM   11  C   UNL     1      -7.348   7.070  68.487  1.00  0.00    -0.100 C  
ENDBRANCH   7   9
ENDBRANCH   6   7
ENDBRANCH   4   6
ENDBRANCH   2   4
TORSDOF 4
ENDMDL
MODEL      208
REMARK 921   NORMALIZED FREE ENERGY PREDICTED BY IDOCK:   -2.25 KCAL/MOL
REMARK 922        TOTAL FREE ENERGY PREDICTED BY IDOCK:   -2.99 KCAL/MOL
REMARK 923 INTER-LIGAND FREE ENERGY PREDICTED BY IDOCK:   -2.73 KCAL/MOL
REMARK 924 INTRA-LIGAND FREE ENERGY PREDICTED BY IDOCK:   -0.26 KCAL/MOL
REMARK 927      BINDING AFFINITY PREDICTED BY RF-SCORE:    0.00 PKD
ROOT
HETATM    1  C   UNL     1      -8.577   8.793  68.207  1.00  0.00    -0.134 C  
HETATM    2  N   UNL     1      -9.514   7.675  68.085  1.00  0.00    -0.144 N  
HETATM    3  C   UNL     1     -10.523   7.793  67.034  1.00  0.00    -0.349 C  
ENDROOT
BRANCH   2   4
HETATM    4  C   UNL     1      -9.508   6.627  69.030  1.00  0.00    -0.131 C  
HETATM    5  S   UNL     1      -8.117   5.981  69.739  1.00  0.00    -0.115 S  
BRANCH   4   6
HETATM    6  S   UNL     1     -11.079   6.117  69.639  1.00  0.00    -0.413 SA 
BRANCH   6   7
HETATM    7  C   UNL     1     -11.098   6.623  71.340  1.00  0.00    -0.263 C  
HETATM    8  S   UNL     1     -11.077   5.528  72.625  1.00  0.00    -0.287 S  
BRANCH   7   9
HETATM    9  N   UNL     1     -11.162   8.029  71.524  1.00  0.00    -0.248 N  
HETATM   10  C   UNL     1     -12.363   8.855  71.338  1.00  0.00    -0.313 C  
HETATM   11  C   UNL     1     -10.002   8.830  71.934  1.00  0.00    -0.331 C  
ENDBRANCH   7   9
ENDBRANCH   6   7
ENDBRANCH   4   6
ENDBRANCH   2   4
TORSDOF 4
ENDMDL
MODEL      209
REMARK 921   NORMALIZED FREE ENERGY PREDICTED BY IDOCK:   -2.24 KCAL/MOL
REMARK 922        TOTAL FREE ENERGY PREDICTED BY IDOCK:   -2.98 KCAL/MOL
REMARK 923 INTER-LIGAND FREE ENERGY PREDICTED BY IDOCK:   -2.80 KCAL/MOL
REMARK 924 INTRA-LIGAND FREE ENERGY PREDICTED BY IDOCK:   -0.18 KCAL/MOL
REMARK 927      BINDING AFFINITY PREDICTED BY RF-SCORE:    0.00 PKD
ROOT
HETATM    1  C   UNL     1      -7.248   6.763  68.560  1.00  0.00    -0.085 C  
HETATM    2  N   UNL     1      -8.292   7.068  69.540  1.00  0.00    -0.131 N  
HETATM    3  C   UNL     1      -8.425   6.128  70.651  1.00  0.00    -0.134 C  
ENDROOT
BRANCH   2   4
HETATM    4  C   UNL     1      -9.191   8.133  69.323  1.00  0.00    -0.151 C  
HETATM    5  S   UNL     1     -10.352   8.177  68.095  1.00  0.00    -0.177 S  
BRANCH   4   6
HETATM    6  S   UNL     1      -9.216   9.395  70.551  1.00  0.00    -0.233 SA 
BRANCH   6   7
HETATM    7  C   UNL     1     -10.791   9.225  71.352  1.00  0.00    -0.364 C  
HETATM    8  S   UNL     1     -11.143   7.975  72.432  1.00  0.00    -0.378 S  
BRANCH   7   9
HETATM    9  N   UNL     1     -11.737  10.216  70.983  1.00  0.00    -0.366 N  
HETATM   10  C   UNL     1     -13.031  10.441  71.643  1.00  0.00    -0.475 C  
HETATM   11  C   UNL     1     -11.517  11.150  69.871  1.00  0.00    -0.306 C  
ENDBRANCH   7   9
ENDBRANCH   6   7
ENDBRANCH   4   6
ENDBRANCH   2   4
TORSDOF 4
ENDMDL
MODEL      210
REMARK 921   NORMALIZED FREE ENERGY PREDICTED BY IDOCK:   -2.23 KCAL/MOL
REMARK 922        TOTAL FREE ENERGY PREDICTED BY IDOCK:   -2.98 KCAL/MOL
REMARK 923 INTER-LIGAND FREE ENERGY PREDICTED BY IDOCK:   -2.90 KCAL/MOL
REMARK 924 INTRA-LIGAND FREE ENERGY PREDICTED BY IDOCK:   -0.08 KCAL/MOL
REMARK 927      BINDING AFFINITY PREDICTED BY RF-SCORE:    0.00 PKD
ROOT
HETATM    1  C   UNL     1      -7.852  11.060  68.847  1.00  0.00    -0.138 C  
HETATM    2  N   UNL     1      -8.931  11.576  68.003  1.00  0.00    -0.163 N  
HETATM    3  C   UNL     1      -9.520  10.627  67.061  1.00  0.00    -0.164 C  
ENDROOT
BRANCH   2   4
HETATM    4  C   UNL     1      -9.264  12.947  68.022  1.00  0.00    -0.212 C  
HETATM    5  S   UNL     1      -8.140  14.209  68.062  1.00  0.00    -0.164 S  
BRANCH   4   6
HETATM    6  S   UNL     1     -10.963  13.340  67.783  1.00  0.00    -0.267 SA 
BRANCH   6   7
HETATM    7  C   UNL     1     -10.960  14.924  66.983  1.00  0.00    -0.327 C  
HETATM    8  S   UNL     1     -10.885  15.107  65.305  1.00  0.00    -0.427 S  
BRANCH   7   9
HETATM    9  N   UNL     1     -10.997  16.024  67.879  1.00  0.00    -0.335 N  
HETATM   10  C   UNL     1     -11.430  15.961  69.281  1.00  0.00    -0.374 C  
HETATM   11  C   UNL     1     -10.593  17.381  67.489  1.00  0.00    -0.330 C  
ENDBRANCH   7   9
ENDBRANCH   6   7
ENDBRANCH   4   6
ENDBRANCH   2   4
TORSDOF 4
ENDMDL
MODEL      211
REMARK 921   NORMALIZED FREE ENERGY PREDICTED BY IDOCK:   -2.23 KCAL/MOL
REMARK 922        TOTAL FREE ENERGY PREDICTED BY IDOCK:   -2.97 KCAL/MOL
REMARK 923 INTER-LIGAND FREE ENERGY PREDICTED BY IDOCK:   -2.76 KCAL/MOL
REMARK 924 INTRA-LIGAND FREE ENERGY PREDICTED BY IDOCK:   -0.22 KCAL/MOL
REMARK 927      BINDING AFFINITY PREDICTED BY RF-SCORE:    0.00 PKD
ROOT
HETATM    1  C   UNL     1      -6.228  18.971  65.202  1.00  0.00    -0.285 C  
HETATM    2  N   UNL     1      -6.230  18.471  66.578  1.00  0.00    -0.166 N  
HETATM    3  C   UNL     1      -5.668  17.137  66.779  1.00  0.00    -0.196 C  
ENDROOT
BRANCH   2   4
HETATM    4  C   UNL     1      -6.870  19.197  67.604  1.00  0.00    -0.215 C  
HETATM    5  S   UNL     1      -6.441  19.134  69.238  1.00  0.00    -0.303 S  
BRANCH   4   6
HETATM    6  S   UNL     1      -8.059  20.391  67.091  1.00  0.00    -0.298 SA 
BRANCH   6   7
HETATM    7  C   UNL     1      -9.610  19.528  67.100  1.00  0.00    -0.331 C  
HETATM    8  S   UNL     1     -10.560  19.331  65.718  1.00  0.00    -0.220 S  
BRANCH   7   9
HETATM    9  N   UNL     1      -9.994  19.043  68.377  1.00  0.00    -0.387 N  
HETATM   10  C   UNL     1     -10.352  17.651  68.683  1.00  0.00    -0.359 C  
HETATM   11  C   UNL     1     -10.074  19.905  69.563  1.00  0.00     0.004 C  
ENDBRANCH   7   9
ENDBRANCH   6   7
ENDBRANCH   4   6
ENDBRANCH   2   4
TORSDOF 4
ENDMDL
MODEL      212
REMARK 921   NORMALIZED FREE ENERGY PREDICTED BY IDOCK:   -2.21 KCAL/MOL
REMARK 922        TOTAL FREE ENERGY PREDICTED BY IDOCK:   -2.95 KCAL/MOL
REMARK 923 INTER-LIGAND FREE ENERGY PREDICTED BY IDOCK:   -2.79 KCAL/MOL
REMARK 924 INTRA-LIGAND FREE ENERGY PREDICTED BY IDOCK:   -0.16 KCAL/MOL
REMARK 927      BINDING AFFINITY PREDICTED BY RF-SCORE:    0.00 PKD
ROOT
HETATM    1  C   UNL     1     -12.345  14.164  66.632  1.00  0.00    -0.339 C  
HETATM    2  N   UNL     1     -11.174  13.575  67.284  1.00  0.00    -0.289 N  
HETATM    3  C   UNL     1     -11.420  12.896  68.555  1.00  0.00    -0.310 C  
ENDROOT
BRANCH   2   4
HETATM    4  C   UNL     1      -9.880  13.787  66.765  1.00  0.00    -0.275 C  
HETATM    5  S   UNL     1      -9.232  15.301  66.385  1.00  0.00    -0.317 S  
BRANCH   4   6
HETATM    6  S   UNL     1      -8.821  12.380  66.711  1.00  0.00    -0.153 SA 
BRANCH   6   7
HETATM    7  C   UNL     1      -9.423  11.405  65.356  1.00  0.00    -0.216 C  
HETATM    8  S   UNL     1     -10.409  12.033  64.137  1.00  0.00    -0.377 S  
BRANCH   7   9
HETATM    9  N   UNL     1      -9.026  10.043  65.403  1.00  0.00    -0.167 N  
HETATM   10  C   UNL     1      -9.220   9.142  66.548  1.00  0.00    -0.175 C  
HETATM   11  C   UNL     1      -8.362   9.369  64.280  1.00  0.00    -0.173 C  
ENDBRANCH   7   9
ENDBRANCH   6   7
ENDBRANCH   4   6
ENDBRANCH   2   4
TORSDOF 4
ENDMDL
MODEL      213
REMARK 921   NORMALIZED FREE ENERGY PREDICTED BY IDOCK:   -2.21 KCAL/MOL
REMARK 922        TOTAL FREE ENERGY PREDICTED BY IDOCK:   -2.95 KCAL/MOL
REMARK 923 INTER-LIGAND FREE ENERGY PREDICTED BY IDOCK:   -2.64 KCAL/MOL
REMARK 924 INTRA-LIGAND FREE ENERGY PREDICTED BY IDOCK:   -0.30 KCAL/MOL
REMARK 927      BINDING AFFINITY PREDICTED BY RF-SCORE:    0.00 PKD
ROOT
HETATM    1  C   UNL     1     -13.017   7.306  71.317  1.00  0.00    -0.328 C  
HETATM    2  N   UNL     1     -11.783   8.079  71.168  1.00  0.00    -0.284 N  
HETATM    3  C   UNL     1     -11.865   9.494  71.524  1.00  0.00    -0.405 C  
ENDROOT
BRANCH   2   4
HETATM    4  C   UNL     1     -10.639   7.500  70.579  1.00  0.00    -0.225 C  
HETATM    5  S   UNL     1      -9.387   8.372  69.852  1.00  0.00    -0.155 S  
BRANCH   4   6
HETATM    6  S   UNL     1     -10.434   5.767  70.813  1.00  0.00    -0.271 SA 
BRANCH   6   7
HETATM    7  C   UNL     1     -10.150   5.568  72.553  1.00  0.00    -0.177 C  
HETATM    8  S   UNL     1     -11.132   4.614  73.542  1.00  0.00    -0.313 S  
BRANCH   7   9
HETATM    9  N   UNL     1      -9.042   6.306  73.046  1.00  0.00    -0.131 N  
HETATM   10  C   UNL     1      -7.631   6.003  72.766  1.00  0.00    -0.095 C  
HETATM   11  C   UNL     1      -9.191   7.483  73.909  1.00  0.00    -0.262 C  
ENDBRANCH   7   9
ENDBRANCH   6   7
ENDBRANCH   4   6
ENDBRANCH   2   4
TORSDOF 4
ENDMDL
MODEL      214
REMARK 921   NORMALIZED FREE ENERGY PREDICTED BY IDOCK:   -2.21 KCAL/MOL
REMARK 922        TOTAL FREE ENERGY PREDICTED BY IDOCK:   -2.94 KCAL/MOL
REMARK 923 INTER-LIGAND FREE ENERGY PREDICTED BY IDOCK:   -2.98 KCAL/MOL
REMARK 924 INTRA-LIGAND FREE ENERGY PREDICTED BY IDOCK:    0.04 KCAL/MOL
REMARK 927      BINDING AFFINITY PREDICTED BY RF-SCORE:    0.00 PKD
ROOT
HETATM    1  C   UNL     1     -12.134  12.891  65.979  1.00  0.00    -0.422 C  
HETATM    2  N   UNL     1     -10.801  13.217  66.489  1.00  0.00    -0.280 N  
HETATM    3  C   UNL     1     -10.106  14.314  65.816  1.00  0.00    -0.335 C  
ENDROOT
BRANCH   2   4
HETATM    4  C   UNL     1     -10.192  12.414  67.476  1.00  0.00    -0.209 C  
HETATM    5  S   UNL     1      -8.591  12.574  67.993  1.00  0.00    -0.191 S  
BRANCH   4   6
HETATM    6  S   UNL     1     -11.255  11.315  68.351  1.00  0.00    -0.291 SA 
BRANCH   6   7
HETATM    7  C   UNL     1     -10.361   9.784  68.438  1.00  0.00    -0.201 C  
HETATM    8  S   UNL     1      -9.592   9.247  69.842  1.00  0.00    -0.214 S  
BRANCH   7   9
HETATM    9  N   UNL     1     -10.325   9.066  67.214  1.00  0.00    -0.257 N  
HETATM   10  C   UNL     1      -9.846   9.599  65.932  1.00  0.00    -0.288 C  
HETATM   11  C   UNL     1     -10.774   7.673  67.097  1.00  0.00    -0.290 C  
ENDBRANCH   7   9
ENDBRANCH   6   7
ENDBRANCH   4   6
ENDBRANCH   2   4
TORSDOF 4
ENDMDL
MODEL      215
REMARK 921   NORMALIZED FREE ENERGY PREDICTED BY IDOCK:   -2.20 KCAL/MOL
REMARK 922        TOTAL FREE ENERGY PREDICTED BY IDOCK:   -2.94 KCAL/MOL
REMARK 923 INTER-LIGAND FREE ENERGY PREDICTED BY IDOCK:   -2.72 KCAL/MOL
REMARK 924 INTRA-LIGAND FREE ENERGY PREDICTED BY IDOCK:   -0.22 KCAL/MOL
REMARK 927      BINDING AFFINITY PREDICTED BY RF-SCORE:    0.00 PKD
ROOT
HETATM    1  C   UNL     1     -11.388   6.261  69.420  1.00  0.00    -0.378 C  
HETATM    2  N   UNL     1     -10.563   6.464  70.612  1.00  0.00    -0.225 N  
HETATM    3  C   UNL     1      -9.529   5.460  70.857  1.00  0.00    -0.167 C  
ENDROOT
BRANCH   2   4
HETATM    4  C   UNL     1     -10.861   7.497  71.526  1.00  0.00    -0.227 C  
HETATM    5  S   UNL     1     -10.709   7.369  73.204  1.00  0.00    -0.381 S  
BRANCH   4   6
HETATM    6  S   UNL     1     -11.222   9.074  70.830  1.00  0.00    -0.288 SA 
BRANCH   6   7
HETATM    7  C   UNL     1      -9.807   9.471  69.835  1.00  0.00    -0.226 C  
HETATM    8  S   UNL     1      -8.219   9.233  70.359  1.00  0.00    -0.189 S  
BRANCH   7   9
HETATM    9  N   UNL     1     -10.128  10.033  68.572  1.00  0.00    -0.163 N  
HETATM   10  C   UNL     1     -10.519   9.270  67.379  1.00  0.00    -0.273 C  
HETATM   11  C   UNL     1     -10.105  11.479  68.316  1.00  0.00    -0.199 C  
ENDBRANCH   7   9
ENDBRANCH   6   7
ENDBRANCH   4   6
ENDBRANCH   2   4
TORSDOF 4
ENDMDL
MODEL      216
REMARK 921   NORMALIZED FREE ENERGY PREDICTED BY IDOCK:   -2.20 KCAL/MOL
REMARK 922        TOTAL FREE ENERGY PREDICTED BY IDOCK:   -2.94 KCAL/MOL
REMARK 923 INTER-LIGAND FREE ENERGY PREDICTED BY IDOCK:   -2.74 KCAL/MOL
REMARK 924 INTRA-LIGAND FREE ENERGY PREDICTED BY IDOCK:   -0.20 KCAL/MOL
REMARK 927      BINDING AFFINITY PREDICTED BY RF-SCORE:    0.00 PKD
ROOT
HETATM    1  C   UNL     1     -11.200   4.755  73.338  1.00  0.00    -0.343 C  
HETATM    2  N   UNL     1     -10.930   5.895  72.460  1.00  0.00    -0.248 N  
HETATM    3  C   UNL     1     -11.088   7.219  73.059  1.00  0.00    -0.317 C  
ENDROOT
BRANCH   2   4
HETATM    4  C   UNL     1     -10.671   5.699  71.087  1.00  0.00    -0.241 C  
HETATM    5  S   UNL     1      -9.671   4.490  70.460  1.00  0.00    -0.230 S  
BRANCH   4   6
HETATM    6  S   UNL     1     -11.627   6.667  69.968  1.00  0.00    -0.304 SA 
BRANCH   6   7
HETATM    7  C   UNL     1     -10.536   7.960  69.432  1.00  0.00    -0.220 C  
HETATM    8  S   UNL     1     -10.450   9.465  70.192  1.00  0.00    -0.260 S  
BRANCH   7   9
HETATM    9  N   UNL     1      -9.762   7.626  68.289  1.00  0.00    -0.154 N  
HETATM   10  C   UNL     1      -8.301   7.745  68.191  1.00  0.00    -0.124 C  
HETATM   11  C   UNL     1     -10.356   7.109  67.051  1.00  0.00    -0.298 C  
ENDBRANCH   7   9
ENDBRANCH   6   7
ENDBRANCH   4   6
ENDBRANCH   2   4
TORSDOF 4
ENDMDL
MODEL      217
REMARK 921   NORMALIZED FREE ENERGY PREDICTED BY IDOCK:   -2.20 KCAL/MOL
REMARK 922        TOTAL FREE ENERGY PREDICTED BY IDOCK:   -2.94 KCAL/MOL
REMARK 923 INTER-LIGAND FREE ENERGY PREDICTED BY IDOCK:   -2.76 KCAL/MOL
REMARK 924 INTRA-LIGAND FREE ENERGY PREDICTED BY IDOCK:   -0.18 KCAL/MOL
REMARK 927      BINDING AFFINITY PREDICTED BY RF-SCORE:    0.00 PKD
ROOT
HETATM    1  C   UNL     1      -7.675  10.269  69.658  1.00  0.00    -0.160 C  
HETATM    2  N   UNL     1      -8.775   9.956  68.744  1.00  0.00    -0.126 N  
HETATM    3  C   UNL     1      -8.698   8.665  68.064  1.00  0.00    -0.141 C  
ENDROOT
BRANCH   2   4
HETATM    4  C   UNL     1      -9.762  10.921  68.451  1.00  0.00    -0.176 C  
HETATM    5  S   UNL     1     -11.322  10.929  69.102  1.00  0.00    -0.310 S  
BRANCH   4   6
HETATM    6  S   UNL     1      -9.239  12.307  67.499  1.00  0.00    -0.189 SA 
BRANCH   6   7
HETATM    7  C   UNL     1     -10.308  12.321  66.083  1.00  0.00    -0.242 C  
HETATM    8  S   UNL     1     -10.127  11.257  64.783  1.00  0.00    -0.306 S  
BRANCH   7   9
HETATM    9  N   UNL     1     -11.312  13.324  66.126  1.00  0.00    -0.301 N  
HETATM   10  C   UNL     1     -11.244  14.556  66.923  1.00  0.00    -0.336 C  
HETATM   11  C   UNL     1     -12.558  13.235  65.355  1.00  0.00    -0.468 C  
ENDBRANCH   7   9
ENDBRANCH   6   7
ENDBRANCH   4   6
ENDBRANCH   2   4
TORSDOF 4
ENDMDL
MODEL      218
REMARK 921   NORMALIZED FREE ENERGY PREDICTED BY IDOCK:   -2.20 KCAL/MOL
REMARK 922        TOTAL FREE ENERGY PREDICTED BY IDOCK:   -2.93 KCAL/MOL
REMARK 923 INTER-LIGAND FREE ENERGY PREDICTED BY IDOCK:   -2.73 KCAL/MOL
REMARK 924 INTRA-LIGAND FREE ENERGY PREDICTED BY IDOCK:   -0.20 KCAL/MOL
REMARK 927      BINDING AFFINITY PREDICTED BY RF-SCORE:    0.00 PKD
ROOT
HETATM    1  C   UNL     1      -6.693  20.281  66.022  1.00  0.00    -0.244 C  
HETATM    2  N   UNL     1      -6.119  19.210  66.839  1.00  0.00    -0.167 N  
HETATM    3  C   UNL     1      -5.433  18.144  66.112  1.00  0.00    -0.175 C  
ENDROOT
BRANCH   2   4
HETATM    4  C   UNL     1      -6.352  19.164  68.230  1.00  0.00    -0.229 C  
HETATM    5  S   UNL     1      -5.154  19.329  69.411  1.00  0.00    -0.177 S  
BRANCH   4   6
HETATM    6  S   UNL     1      -8.038  19.133  68.738  1.00  0.00    -0.314 SA 
BRANCH   6   7
HETATM    7  C   UNL     1      -8.505  17.422  68.674  1.00  0.00    -0.257 C  
HETATM    8  S   UNL     1      -7.481  16.170  69.161  1.00  0.00    -0.218 S  
BRANCH   7   9
HETATM    9  N   UNL     1      -9.805  17.197  68.151  1.00  0.00    -0.269 N  
HETATM   10  C   UNL     1     -10.857  16.406  68.804  1.00  0.00    -0.338 C  
HETATM   11  C   UNL     1     -10.251  17.749  66.866  1.00  0.00    -0.346 C  
ENDBRANCH   7   9
ENDBRANCH   6   7
ENDBRANCH   4   6
ENDBRANCH   2   4
TORSDOF 4
ENDMDL
MODEL      219
REMARK 921   NORMALIZED FREE ENERGY PREDICTED BY IDOCK:   -2.20 KCAL/MOL
REMARK 922        TOTAL FREE ENERGY PREDICTED BY IDOCK:   -2.93 KCAL/MOL
REMARK 923 INTER-LIGAND FREE ENERGY PREDICTED BY IDOCK:   -2.75 KCAL/MOL
REMARK 924 INTRA-LIGAND FREE ENERGY PREDICTED BY IDOCK:   -0.18 KCAL/MOL
REMARK 927      BINDING AFFINITY PREDICTED BY RF-SCORE:    0.00 PKD
ROOT
HETATM    1  C   UNL     1     -11.562   8.715  71.596  1.00  0.00    -0.310 C  
HETATM    2  N   UNL     1     -11.058   8.013  70.414  1.00  0.00    -0.250 N  
HETATM    3  C   UNL     1     -11.429   6.605  70.296  1.00  0.00    -0.391 C  
ENDROOT
BRANCH   2   4
HETATM    4  C   UNL     1     -10.155   8.646  69.535  1.00  0.00    -0.203 C  
HETATM    5  S   UNL     1      -8.683   9.336  70.000  1.00  0.00    -0.215 S  
BRANCH   4   6
HETATM    6  S   UNL     1     -10.518   8.515  67.817  1.00  0.00    -0.191 SA 
BRANCH   6   7
HETATM    7  C   UNL     1     -10.585  10.189  67.232  1.00  0.00    -0.261 C  
HETATM    8  S   UNL     1     -11.489  11.394  67.996  1.00  0.00    -0.298 S  
BRANCH   7   9
HETATM    9  N   UNL     1      -9.834  10.419  66.050  1.00  0.00    -0.219 N  
HETATM   10  C   UNL     1      -8.369  10.369  65.953  1.00  0.00    -0.152 C  
HETATM   11  C   UNL     1     -10.460  10.738  64.761  1.00  0.00    -0.265 C  
ENDBRANCH   7   9
ENDBRANCH   6   7
ENDBRANCH   4   6
ENDBRANCH   2   4
TORSDOF 4
ENDMDL
MODEL      220
REMARK 921   NORMALIZED FREE ENERGY PREDICTED BY IDOCK:   -2.19 KCAL/MOL
REMARK 922        TOTAL FREE ENERGY PREDICTED BY IDOCK:   -2.92 KCAL/MOL
REMARK 923 INTER-LIGAND FREE ENERGY PREDICTED BY IDOCK:   -2.96 KCAL/MOL
REMARK 924 INTRA-LIGAND FREE ENERGY PREDICTED BY IDOCK:    0.04 KCAL/MOL
REMARK 927      BINDING AFFINITY PREDICTED BY RF-SCORE:    0.00 PKD
ROOT
HETATM    1  C   UNL     1      -8.122  10.130  69.036  1.00  0.00    -0.125 C  
HETATM    2  N   UNL     1      -9.160  11.119  68.741  1.00  0.00    -0.167 N  
HETATM    3  C   UNL     1      -8.693  12.408  68.233  1.00  0.00    -0.175 C  
ENDROOT
BRANCH   2   4
HETATM    4  C   UNL     1     -10.508  10.866  69.070  1.00  0.00    -0.219 C  
HETATM    5  S   UNL     1     -11.021  10.037  70.451  1.00  0.00    -0.331 S  
BRANCH   4   6
HETATM    6  S   UNL     1     -11.718  11.654  68.062  1.00  0.00    -0.237 SA 
BRANCH   6   7
HETATM    7  C   UNL     1     -11.864  13.297  68.718  1.00  0.00    -0.334 C  
HETATM    8  S   UNL     1     -12.059  13.615  70.365  1.00  0.00    -0.325 S  
BRANCH   7   9
HETATM    9  N   UNL     1     -11.830  14.318  67.732  1.00  0.00    -0.377 N  
HETATM   10  C   UNL     1     -11.585  15.742  67.995  1.00  0.00    -0.210 C  
HETATM   11  C   UNL     1     -12.041  14.051  66.304  1.00  0.00    -0.456 C  
ENDBRANCH   7   9
ENDBRANCH   6   7
ENDBRANCH   4   6
ENDBRANCH   2   4
TORSDOF 4
ENDMDL
MODEL      221
REMARK 921   NORMALIZED FREE ENERGY PREDICTED BY IDOCK:   -2.18 KCAL/MOL
REMARK 922        TOTAL FREE ENERGY PREDICTED BY IDOCK:   -2.91 KCAL/MOL
REMARK 923 INTER-LIGAND FREE ENERGY PREDICTED BY IDOCK:   -3.02 KCAL/MOL
REMARK 924 INTRA-LIGAND FREE ENERGY PREDICTED BY IDOCK:    0.11 KCAL/MOL
REMARK 927      BINDING AFFINITY PREDICTED BY RF-SCORE:    0.00 PKD
ROOT
HETATM    1  C   UNL     1     -11.868  10.976  69.444  1.00  0.00    -0.335 C  
HETATM    2  N   UNL     1     -11.294  12.054  68.637  1.00  0.00    -0.251 N  
HETATM    3  C   UNL     1     -12.102  13.266  68.514  1.00  0.00    -0.221 C  
ENDROOT
BRANCH   2   4
HETATM    4  C   UNL     1     -10.098  11.853  67.917  1.00  0.00    -0.192 C  
HETATM    5  S   UNL     1      -8.759  10.999  68.496  1.00  0.00    -0.161 S  
BRANCH   4   6
HETATM    6  S   UNL     1     -10.106  12.363  66.231  1.00  0.00    -0.245 SA 
BRANCH   6   7
HETATM    7  C   UNL     1     -10.016  14.135  66.288  1.00  0.00    -0.303 C  
HETATM    8  S   UNL     1      -8.954  14.970  67.300  1.00  0.00    -0.211 S  
BRANCH   7   9
HETATM    9  N   UNL     1     -10.937  14.788  65.427  1.00  0.00    -0.338 N  
HETATM   10  C   UNL     1     -12.015  14.126  64.680  1.00  0.00    -0.445 C  
HETATM   11  C   UNL     1     -10.910  16.236  65.187  1.00  0.00    -0.318 C  
ENDBRANCH   7   9
ENDBRANCH   6   7
ENDBRANCH   4   6
ENDBRANCH   2   4
TORSDOF 4
ENDMDL
MODEL      222
REMARK 921   NORMALIZED FREE ENERGY PREDICTED BY IDOCK:   -2.18 KCAL/MOL
REMARK 922        TOTAL FREE ENERGY PREDICTED BY IDOCK:   -2.91 KCAL/MOL
REMARK 923 INTER-LIGAND FREE ENERGY PREDICTED BY IDOCK:   -2.69 KCAL/MOL
REMARK 924 INTRA-LIGAND FREE ENERGY PREDICTED BY IDOCK:   -0.21 KCAL/MOL
REMARK 927      BINDING AFFINITY PREDICTED BY RF-SCORE:    0.00 PKD
ROOT
HETATM    1  C   UNL     1      -9.620  15.111  68.390  1.00  0.00    -0.212 C  
HETATM    2  N   UNL     1     -10.161  14.073  67.511  1.00  0.00    -0.235 N  
HETATM    3  C   UNL     1     -10.001  14.298  66.076  1.00  0.00    -0.319 C  
ENDROOT
BRANCH   2   4
HETATM    4  C   UNL     1     -10.911  13.002  68.041  1.00  0.00    -0.242 C  
HETATM    5  S   UNL     1     -11.708  13.031  69.532  1.00  0.00    -0.295 S  
BRANCH   4   6
HETATM    6  S   UNL     1     -11.182  11.633  66.967  1.00  0.00    -0.301 SA 
BRANCH   6   7
HETATM    7  C   UNL     1      -9.831  10.526  67.283  1.00  0.00    -0.177 C  
HETATM    8  S   UNL     1      -8.223  10.918  66.944  1.00  0.00    -0.140 S  
BRANCH   7   9
HETATM    9  N   UNL     1     -10.224   9.273  67.820  1.00  0.00    -0.205 N  
HETATM   10  C   UNL     1     -10.486   8.059  67.034  1.00  0.00    -0.340 C  
HETATM   11  C   UNL     1     -10.413   9.048  69.258  1.00  0.00    -0.228 C  
ENDBRANCH   7   9
ENDBRANCH   6   7
ENDBRANCH   4   6
ENDBRANCH   2   4
TORSDOF 4
ENDMDL
MODEL      223
REMARK 921   NORMALIZED FREE ENERGY PREDICTED BY IDOCK:   -2.17 KCAL/MOL
REMARK 922        TOTAL FREE ENERGY PREDICTED BY IDOCK:   -2.90 KCAL/MOL
REMARK 923 INTER-LIGAND FREE ENERGY PREDICTED BY IDOCK:   -2.67 KCAL/MOL
REMARK 924 INTRA-LIGAND FREE ENERGY PREDICTED BY IDOCK:   -0.23 KCAL/MOL
REMARK 927      BINDING AFFINITY PREDICTED BY RF-SCORE:    0.00 PKD
ROOT
HETATM    1  C   UNL     1      -8.404  10.539  69.010  1.00  0.00    -0.154 C  
HETATM    2  N   UNL     1      -8.998  11.725  68.391  1.00  0.00    -0.181 N  
HETATM    3  C   UNL     1      -8.090  12.843  68.142  1.00  0.00    -0.158 C  
ENDROOT
BRANCH   2   4
HETATM    4  C   UNL     1     -10.391  11.808  68.187  1.00  0.00    -0.200 C  
HETATM    5  S   UNL     1     -11.440  12.770  69.100  1.00  0.00    -0.306 S  
BRANCH   4   6
HETATM    6  S   UNL     1     -11.020  11.001  66.754  1.00  0.00    -0.162 SA 
BRANCH   6   7
HETATM    7  C   UNL     1     -10.409  11.953  65.386  1.00  0.00    -0.267 C  
HETATM    8  S   UNL     1     -10.567  13.632  65.291  1.00  0.00    -0.366 S  
BRANCH   7   9
HETATM    9  N   UNL     1      -9.802  11.175  64.366  1.00  0.00    -0.263 N  
HETATM   10  C   UNL     1      -9.676  11.575  62.958  1.00  0.00    -0.359 C  
HETATM   11  C   UNL     1      -9.217   9.853  64.617  1.00  0.00    -0.258 C  
ENDBRANCH   7   9
ENDBRANCH   6   7
ENDBRANCH   4   6
ENDBRANCH   2   4
TORSDOF 4
ENDMDL
MODEL      224
REMARK 921   NORMALIZED FREE ENERGY PREDICTED BY IDOCK:   -2.17 KCAL/MOL
REMARK 922        TOTAL FREE ENERGY PREDICTED BY IDOCK:   -2.90 KCAL/MOL
REMARK 923 INTER-LIGAND FREE ENERGY PREDICTED BY IDOCK:   -2.66 KCAL/MOL
REMARK 924 INTRA-LIGAND FREE ENERGY PREDICTED BY IDOCK:   -0.24 KCAL/MOL
REMARK 927      BINDING AFFINITY PREDICTED BY RF-SCORE:    0.00 PKD
ROOT
HETATM    1  C   UNL     1     -10.651  17.930  65.729  1.00  0.00    -0.174 C  
HETATM    2  N   UNL     1      -9.915  18.300  66.939  1.00  0.00    -0.330 N  
HETATM    3  C   UNL     1     -10.347  19.528  67.604  1.00  0.00    -0.451 C  
ENDROOT
BRANCH   2   4
HETATM    4  C   UNL     1      -8.774  17.572  67.337  1.00  0.00    -0.228 C  
HETATM    5  S   UNL     1      -7.699  18.056  68.548  1.00  0.00    -0.301 S  
BRANCH   4   6
HETATM    6  S   UNL     1      -8.597  15.961  66.648  1.00  0.00    -0.310 SA 
BRANCH   6   7
HETATM    7  C   UNL     1      -9.176  14.855  67.910  1.00  0.00    -0.183 C  
HETATM    8  S   UNL     1     -10.672  15.034  68.673  1.00  0.00    -0.253 S  
BRANCH   7   9
HETATM    9  N   UNL     1      -8.258  13.825  68.242  1.00  0.00    -0.150 N  
HETATM   10  C   UNL     1      -8.413  12.406  67.892  1.00  0.00    -0.166 C  
HETATM   11  C   UNL     1      -7.019  14.075  68.988  1.00  0.00    -0.112 C  
ENDBRANCH   7   9
ENDBRANCH   6   7
ENDBRANCH   4   6
ENDBRANCH   2   4
TORSDOF 4
ENDMDL
MODEL      225
REMARK 921   NORMALIZED FREE ENERGY PREDICTED BY IDOCK:   -2.17 KCAL/MOL
REMARK 922        TOTAL FREE ENERGY PREDICTED BY IDOCK:   -2.90 KCAL/MOL
REMARK 923 INTER-LIGAND FREE ENERGY PREDICTED BY IDOCK:   -2.62 KCAL/MOL
REMARK 924 INTRA-LIGAND FREE ENERGY PREDICTED BY IDOCK:   -0.28 KCAL/MOL
REMARK 927      BINDING AFFINITY PREDICTED BY RF-SCORE:    0.00 PKD
ROOT
HETATM    1  C   UNL     1     -10.616   9.374  67.147  1.00  0.00    -0.224 C  
HETATM    2  N   UNL     1      -9.753  10.242  66.345  1.00  0.00    -0.191 N  
HETATM    3  C   UNL     1     -10.090  10.352  64.927  1.00  0.00    -0.312 C  
ENDROOT
BRANCH   2   4
HETATM    4  C   UNL     1      -8.590  10.813  66.904  1.00  0.00    -0.132 C  
HETATM    5  S   UNL     1      -7.038  10.670  66.248  1.00  0.00    -0.138 S  
BRANCH   4   6
HETATM    6  S   UNL     1      -8.833  11.908  68.261  1.00  0.00    -0.159 SA 
BRANCH   6   7
HETATM    7  C   UNL     1     -10.070  13.055  67.710  1.00  0.00    -0.229 C  
HETATM    8  S   UNL     1      -9.946  13.913  66.261  1.00  0.00    -0.312 S  
BRANCH   7   9
HETATM    9  N   UNL     1     -11.157  13.209  68.609  1.00  0.00    -0.257 N  
HETATM   10  C   UNL     1     -11.855  14.472  68.887  1.00  0.00    -0.324 C  
HETATM   11  C   UNL     1     -11.718  12.090  69.376  1.00  0.00    -0.340 C  
ENDBRANCH   7   9
ENDBRANCH   6   7
ENDBRANCH   4   6
ENDBRANCH   2   4
TORSDOF 4
ENDMDL
MODEL      226
REMARK 921   NORMALIZED FREE ENERGY PREDICTED BY IDOCK:   -2.17 KCAL/MOL
REMARK 922        TOTAL FREE ENERGY PREDICTED BY IDOCK:   -2.90 KCAL/MOL
REMARK 923 INTER-LIGAND FREE ENERGY PREDICTED BY IDOCK:   -3.08 KCAL/MOL
REMARK 924 INTRA-LIGAND FREE ENERGY PREDICTED BY IDOCK:    0.18 KCAL/MOL
REMARK 927      BINDING AFFINITY PREDICTED BY RF-SCORE:    0.00 PKD
ROOT
HETATM    1  C   UNL     1      -8.495  16.076  67.578  1.00  0.00    -0.163 C  
HETATM    2  N   UNL     1      -9.600  15.335  68.188  1.00  0.00    -0.202 N  
HETATM    3  C   UNL     1     -10.177  15.920  69.397  1.00  0.00    -0.262 C  
ENDROOT
BRANCH   2   4
HETATM    4  C   UNL     1      -9.971  14.065  67.697  1.00  0.00    -0.237 C  
HETATM    5  S   UNL     1      -8.884  12.894  67.145  1.00  0.00    -0.208 S  
BRANCH   4   6
HETATM    6  S   UNL     1     -11.667  13.625  67.873  1.00  0.00    -0.372 SA 
BRANCH   6   7
HETATM    7  C   UNL     1     -11.654  12.100  68.781  1.00  0.00    -0.327 C  
HETATM    8  S   UNL     1     -11.212  10.623  68.092  1.00  0.00    -0.281 S  
BRANCH   7   9
HETATM    9  N   UNL     1     -12.076  12.228  70.130  1.00  0.00    -0.321 N  
HETATM   10  C   UNL     1     -12.423  13.492  70.794  1.00  0.00    -0.353 C  
HETATM   11  C   UNL     1     -12.217  11.077  71.030  1.00  0.00    -0.351 C  
ENDBRANCH   7   9
ENDBRANCH   6   7
ENDBRANCH   4   6
ENDBRANCH   2   4
TORSDOF 4
ENDMDL
MODEL      227
REMARK 921   NORMALIZED FREE ENERGY PREDICTED BY IDOCK:   -2.17 KCAL/MOL
REMARK 922        TOTAL FREE ENERGY PREDICTED BY IDOCK:   -2.89 KCAL/MOL
REMARK 923 INTER-LIGAND FREE ENERGY PREDICTED BY IDOCK:   -2.56 KCAL/MOL
REMARK 924 INTRA-LIGAND FREE ENERGY PREDICTED BY IDOCK:   -0.33 KCAL/MOL
REMARK 927      BINDING AFFINITY PREDICTED BY RF-SCORE:    0.00 PKD
ROOT
HETATM    1  C   UNL     1      -8.487   8.661  70.937  1.00  0.00    -0.166 C  
HETATM    2  N   UNL     1      -8.851   7.578  70.023  1.00  0.00    -0.143 N  
HETATM    3  C   UNL     1      -9.342   7.984  68.708  1.00  0.00    -0.147 C  
ENDROOT
BRANCH   2   4
HETATM    4  C   UNL     1      -8.850   6.237  70.461  1.00  0.00    -0.144 C  
HETATM    5  S   UNL     1      -7.546   5.474  71.220  1.00  0.00    -0.101 S  
BRANCH   4   6
HETATM    6  S   UNL     1     -10.391   5.389  70.379  1.00  0.00    -0.277 SA 
BRANCH   6   7
HETATM    7  C   UNL     1     -11.380   6.108  71.666  1.00  0.00    -0.284 C  
HETATM    8  S   UNL     1     -12.644   7.185  71.360  1.00  0.00    -0.382 S  
BRANCH   7   9
HETATM    9  N   UNL     1     -10.995   5.721  72.976  1.00  0.00    -0.267 N  
HETATM   10  C   UNL     1     -11.216   4.393  73.566  1.00  0.00    -0.288 C  
HETATM   11  C   UNL     1     -10.313   6.630  73.905  1.00  0.00    -0.360 C  
ENDBRANCH   7   9
ENDBRANCH   6   7
ENDBRANCH   4   6
ENDBRANCH   2   4
TORSDOF 4
ENDMDL
MODEL      228
REMARK 921   NORMALIZED FREE ENERGY PREDICTED BY IDOCK:   -2.16 KCAL/MOL
REMARK 922        TOTAL FREE ENERGY PREDICTED BY IDOCK:   -2.88 KCAL/MOL
REMARK 923 INTER-LIGAND FREE ENERGY PREDICTED BY IDOCK:   -2.92 KCAL/MOL
REMARK 924 INTRA-LIGAND FREE ENERGY PREDICTED BY IDOCK:    0.04 KCAL/MOL
REMARK 927      BINDING AFFINITY PREDICTED BY RF-SCORE:    0.00 PKD
ROOT
HETATM    1  C   UNL     1     -10.546   8.369  67.488  1.00  0.00    -0.215 C  
HETATM    2  N   UNL     1      -9.830   8.878  66.317  1.00  0.00    -0.282 N  
HETATM    3  C   UNL     1      -8.853   7.972  65.717  1.00  0.00    -0.132 C  
ENDROOT
BRANCH   2   4
HETATM    4  C   UNL     1      -9.992  10.217  65.902  1.00  0.00    -0.256 C  
HETATM    5  S   UNL     1      -9.178  10.925  64.600  1.00  0.00    -0.174 S  
BRANCH   4   6
HETATM    6  S   UNL     1     -11.281  11.126  66.685  1.00  0.00     0.003 SA 
BRANCH   6   7
HETATM    7  C   UNL     1     -11.679  12.430  65.548  1.00  0.00    -0.407 C  
HETATM    8  S   UNL     1     -12.442  12.156  64.067  1.00  0.00    -0.389 S  
BRANCH   7   9
HETATM    9  N   UNL     1     -11.274  13.719  65.982  1.00  0.00    -0.302 N  
HETATM   10  C   UNL     1     -10.566  14.707  65.158  1.00  0.00    -0.421 C  
HETATM   11  C   UNL     1     -11.528  14.216  67.340  1.00  0.00    -0.345 C  
ENDBRANCH   7   9
ENDBRANCH   6   7
ENDBRANCH   4   6
ENDBRANCH   2   4
TORSDOF 4
ENDMDL
MODEL      229
REMARK 921   NORMALIZED FREE ENERGY PREDICTED BY IDOCK:   -2.16 KCAL/MOL
REMARK 922        TOTAL FREE ENERGY PREDICTED BY IDOCK:   -2.88 KCAL/MOL
REMARK 923 INTER-LIGAND FREE ENERGY PREDICTED BY IDOCK:   -2.68 KCAL/MOL
REMARK 924 INTRA-LIGAND FREE ENERGY PREDICTED BY IDOCK:   -0.20 KCAL/MOL
REMARK 927      BINDING AFFINITY PREDICTED BY RF-SCORE:    0.00 PKD
ROOT
HETATM    1  C   UNL     1     -10.104  13.757  66.683  1.00  0.00    -0.277 C  
HETATM    2  N   UNL     1      -9.799  15.179  66.846  1.00  0.00    -0.232 N  
HETATM    3  C   UNL     1     -10.131  16.042  65.714  1.00  0.00    -0.366 C  
ENDROOT
BRANCH   2   4
HETATM    4  C   UNL     1      -9.099  15.638  67.982  1.00  0.00    -0.183 C  
HETATM    5  S   UNL     1      -9.635  15.467  69.576  1.00  0.00    -0.224 S  
BRANCH   4   6
HETATM    6  S   UNL     1      -7.470  16.244  67.701  1.00  0.00    -0.151 SA 
BRANCH   6   7
HETATM    7  C   UNL     1      -7.508  17.933  68.247  1.00  0.00    -0.260 C  
HETATM    8  S   UNL     1      -8.807  18.968  67.944  1.00  0.00    -0.309 S  
BRANCH   7   9
HETATM    9  N   UNL     1      -6.338  18.344  68.937  1.00  0.00    -0.223 N  
HETATM   10  C   UNL     1      -5.721  19.674  68.842  1.00  0.00    -0.220 C  
HETATM   11  C   UNL     1      -5.599  17.459  69.846  1.00  0.00    -0.234 C  
ENDBRANCH   7   9
ENDBRANCH   6   7
ENDBRANCH   4   6
ENDBRANCH   2   4
TORSDOF 4
ENDMDL
MODEL      230
REMARK 921   NORMALIZED FREE ENERGY PREDICTED BY IDOCK:   -2.16 KCAL/MOL
REMARK 922        TOTAL FREE ENERGY PREDICTED BY IDOCK:   -2.88 KCAL/MOL
REMARK 923 INTER-LIGAND FREE ENERGY PREDICTED BY IDOCK:   -2.63 KCAL/MOL
REMARK 924 INTRA-LIGAND FREE ENERGY PREDICTED BY IDOCK:   -0.26 KCAL/MOL
REMARK 927      BINDING AFFINITY PREDICTED BY RF-SCORE:    0.00 PKD
ROOT
HETATM    1  C   UNL     1      -8.391   8.685  67.845  1.00  0.00    -0.123 C  
HETATM    2  N   UNL     1      -8.662   9.673  66.799  1.00  0.00    -0.134 N  
HETATM    3  C   UNL     1      -7.575   9.923  65.854  1.00  0.00    -0.108 C  
ENDROOT
BRANCH   2   4
HETATM    4  C   UNL     1      -9.856  10.424  66.812  1.00  0.00    -0.195 C  
HETATM    5  S   UNL     1     -11.029  10.344  68.027  1.00  0.00    -0.289 S  
BRANCH   4   6
HETATM    6  S   UNL     1     -10.011  11.664  65.571  1.00  0.00    -0.249 SA 
BRANCH   6   7
HETATM    7  C   UNL     1      -9.782  13.201  66.427  1.00  0.00    -0.269 C  
HETATM    8  S   UNL     1      -8.430  13.528  67.385  1.00  0.00    -0.201 S  
BRANCH   7   9
HETATM    9  N   UNL     1     -10.850  14.121  66.259  1.00  0.00    -0.297 N  
HETATM   10  C   UNL     1     -10.745  15.579  66.409  1.00  0.00    -0.303 C  
HETATM   11  C   UNL     1     -12.211  13.702  65.904  1.00  0.00    -0.461 C  
ENDBRANCH   7   9
ENDBRANCH   6   7
ENDBRANCH   4   6
ENDBRANCH   2   4
TORSDOF 4
ENDMDL
MODEL      231
REMARK 921   NORMALIZED FREE ENERGY PREDICTED BY IDOCK:   -2.16 KCAL/MOL
REMARK 922        TOTAL FREE ENERGY PREDICTED BY IDOCK:   -2.88 KCAL/MOL
REMARK 923 INTER-LIGAND FREE ENERGY PREDICTED BY IDOCK:   -2.88 KCAL/MOL
REMARK 924 INTRA-LIGAND FREE ENERGY PREDICTED BY IDOCK:   -0.00 KCAL/MOL
REMARK 927      BINDING AFFINITY PREDICTED BY RF-SCORE:    0.00 PKD
ROOT
HETATM    1  C   UNL     1      -7.456   9.866  65.698  1.00  0.00    -0.116 C  
HETATM    2  N   UNL     1      -8.900  10.090  65.782  1.00  0.00    -0.144 N  
HETATM    3  C   UNL     1      -9.719   8.912  66.062  1.00  0.00    -0.238 C  
ENDROOT
BRANCH   2   4
HETATM    4  C   UNL     1      -9.452  11.350  65.468  1.00  0.00    -0.227 C  
HETATM    5  S   UNL     1     -10.433  11.664  64.129  1.00  0.00    -0.389 S  
BRANCH   4   6
HETATM    6  S   UNL     1      -9.251  12.613  66.680  1.00  0.00    -0.189 SA 
BRANCH   6   7
HETATM    7  C   UNL     1     -10.396  13.885  66.210  1.00  0.00    -0.293 C  
HETATM    8  S   UNL     1      -9.915  15.331  65.482  1.00  0.00    -0.329 S  
BRANCH   7   9
HETATM    9  N   UNL     1     -11.748  13.592  66.527  1.00  0.00    -0.362 N  
HETATM   10  C   UNL     1     -12.909  13.949  65.701  1.00  0.00    -0.424 C  
HETATM   11  C   UNL     1     -12.141  12.879  67.749  1.00  0.00    -0.163 C  
ENDBRANCH   7   9
ENDBRANCH   6   7
ENDBRANCH   4   6
ENDBRANCH   2   4
TORSDOF 4
ENDMDL
MODEL      232
REMARK 921   NORMALIZED FREE ENERGY PREDICTED BY IDOCK:   -2.15 KCAL/MOL
REMARK 922        TOTAL FREE ENERGY PREDICTED BY IDOCK:   -2.87 KCAL/MOL
REMARK 923 INTER-LIGAND FREE ENERGY PREDICTED BY IDOCK:   -2.65 KCAL/MOL
REMARK 924 INTRA-LIGAND FREE ENERGY PREDICTED BY IDOCK:   -0.22 KCAL/MOL
REMARK 927      BINDING AFFINITY PREDICTED BY RF-SCORE:    0.00 PKD
ROOT
HETATM    1  C   UNL     1      -7.557  10.650  69.112  1.00  0.00    -0.131 C  
HETATM    2  N   UNL     1      -8.268  10.037  67.990  1.00  0.00    -0.115 N  
HETATM    3  C   UNL     1      -8.018  10.620  66.674  1.00  0.00    -0.134 C  
ENDROOT
BRANCH   2   4
HETATM    4  C   UNL     1      -9.238   9.036  68.214  1.00  0.00    -0.136 C  
HETATM    5  S   UNL     1     -10.277   8.422  67.031  1.00  0.00    -0.316 S  
BRANCH   4   6
HETATM    6  S   UNL     1      -9.200   8.254  69.792  1.00  0.00    -0.155 SA 
BRANCH   6   7
HETATM    7  C   UNL     1     -10.824   8.501  70.465  1.00  0.00    -0.228 C  
HETATM    8  S   UNL     1     -11.412  10.018  70.915  1.00  0.00    -0.374 S  
BRANCH   7   9
HETATM    9  N   UNL     1     -11.574   7.305  70.618  1.00  0.00    -0.300 N  
HETATM   10  C   UNL     1     -12.722   7.134  71.519  1.00  0.00    -0.393 C  
HETATM   11  C   UNL     1     -11.275   6.079  69.869  1.00  0.00    -0.368 C  
ENDBRANCH   7   9
ENDBRANCH   6   7
ENDBRANCH   4   6
ENDBRANCH   2   4
TORSDOF 4
ENDMDL
MODEL      233
REMARK 921   NORMALIZED FREE ENERGY PREDICTED BY IDOCK:   -2.14 KCAL/MOL
REMARK 922        TOTAL FREE ENERGY PREDICTED BY IDOCK:   -2.85 KCAL/MOL
REMARK 923 INTER-LIGAND FREE ENERGY PREDICTED BY IDOCK:   -2.63 KCAL/MOL
REMARK 924 INTRA-LIGAND FREE ENERGY PREDICTED BY IDOCK:   -0.22 KCAL/MOL
REMARK 927      BINDING AFFINITY PREDICTED BY RF-SCORE:    0.00 PKD
ROOT
HETATM    1  C   UNL     1     -11.126  10.838  67.589  1.00  0.00    -0.319 C  
HETATM    2  N   UNL     1      -9.763  10.322  67.728  1.00  0.00    -0.155 N  
HETATM    3  C   UNL     1      -8.844  10.633  66.635  1.00  0.00    -0.141 C  
ENDROOT
BRANCH   2   4
HETATM    4  C   UNL     1      -9.426   9.462  68.794  1.00  0.00    -0.150 C  
HETATM    5  S   UNL     1      -8.183   9.748  69.904  1.00  0.00    -0.185 S  
BRANCH   4   6
HETATM    6  S   UNL     1     -10.519   8.112  69.083  1.00  0.00    -0.174 SA 
BRANCH   6   7
HETATM    7  C   UNL     1     -11.134   8.362  70.729  1.00  0.00    -0.258 C  
HETATM    8  S   UNL     1     -11.993   9.741  71.189  1.00  0.00    -0.403 S  
BRANCH   7   9
HETATM    9  N   UNL     1     -10.815   7.314  71.631  1.00  0.00    -0.220 N  
HETATM   10  C   UNL     1     -10.464   5.940  71.244  1.00  0.00    -0.233 C  
HETATM   11  C   UNL     1     -10.799   7.496  73.087  1.00  0.00    -0.395 C  
ENDBRANCH   7   9
ENDBRANCH   6   7
ENDBRANCH   4   6
ENDBRANCH   2   4
TORSDOF 4
ENDMDL
MODEL      234
REMARK 921   NORMALIZED FREE ENERGY PREDICTED BY IDOCK:   -2.13 KCAL/MOL
REMARK 922        TOTAL FREE ENERGY PREDICTED BY IDOCK:   -2.85 KCAL/MOL
REMARK 923 INTER-LIGAND FREE ENERGY PREDICTED BY IDOCK:   -2.86 KCAL/MOL
REMARK 924 INTRA-LIGAND FREE ENERGY PREDICTED BY IDOCK:    0.01 KCAL/MOL
REMARK 927      BINDING AFFINITY PREDICTED BY RF-SCORE:    0.00 PKD
ROOT
HETATM    1  C   UNL     1     -10.722  15.346  65.231  1.00  0.00    -0.421 C  
HETATM    2  N   UNL     1     -10.386  15.565  66.639  1.00  0.00    -0.279 N  
HETATM    3  C   UNL     1     -11.458  15.316  67.601  1.00  0.00    -0.280 C  
ENDROOT
BRANCH   2   4
HETATM    4  C   UNL     1      -9.140  16.118  67.003  1.00  0.00    -0.209 C  
HETATM    5  S   UNL     1      -7.740  15.219  67.302  1.00  0.00    -0.206 S  
BRANCH   4   6
HETATM    6  S   UNL     1      -9.016  17.873  66.936  1.00  0.00    -0.264 SA 
BRANCH   6   7
HETATM    7  C   UNL     1      -7.279  18.215  67.053  1.00  0.00    -0.201 C  
HETATM    8  S   UNL     1      -6.238  18.153  65.724  1.00  0.00    -0.249 S  
BRANCH   7   9
HETATM    9  N   UNL     1      -6.837  18.519  68.367  1.00  0.00    -0.244 N  
HETATM   10  C   UNL     1      -5.782  17.799  69.094  1.00  0.00    -0.201 C  
HETATM   11  C   UNL     1      -7.401  19.617  69.161  1.00  0.00    -0.304 C  
ENDBRANCH   7   9
ENDBRANCH   6   7
ENDBRANCH   4   6
ENDBRANCH   2   4
TORSDOF 4
ENDMDL
MODEL      235
REMARK 921   NORMALIZED FREE ENERGY PREDICTED BY IDOCK:   -2.12 KCAL/MOL
REMARK 922        TOTAL FREE ENERGY PREDICTED BY IDOCK:   -2.84 KCAL/MOL
REMARK 923 INTER-LIGAND FREE ENERGY PREDICTED BY IDOCK:   -2.71 KCAL/MOL
REMARK 924 INTRA-LIGAND FREE ENERGY PREDICTED BY IDOCK:   -0.13 KCAL/MOL
REMARK 927      BINDING AFFINITY PREDICTED BY RF-SCORE:    0.00 PKD
ROOT
HETATM    1  C   UNL     1     -10.098  15.945  66.589  1.00  0.00    -0.279 C  
HETATM    2  N   UNL     1     -10.890  14.851  66.025  1.00  0.00    -0.320 N  
HETATM    3  C   UNL     1     -11.516  15.111  64.730  1.00  0.00    -0.383 C  
ENDROOT
BRANCH   2   4
HETATM    4  C   UNL     1     -11.133  13.680  66.774  1.00  0.00    -0.307 C  
HETATM    5  S   UNL     1     -12.022  13.625  68.211  1.00  0.00    -0.291 S  
BRANCH   4   6
HETATM    6  S   UNL     1     -10.638  12.163  66.031  1.00  0.00    -0.267 SA 
BRANCH   6   7
HETATM    7  C   UNL     1      -9.006  11.856  66.658  1.00  0.00    -0.198 C  
HETATM    8  S   UNL     1      -8.395  12.612  68.039  1.00  0.00    -0.184 S  
BRANCH   7   9
HETATM    9  N   UNL     1      -8.251  10.940  65.881  1.00  0.00    -0.156 N  
HETATM   10  C   UNL     1      -6.813  10.680  66.036  1.00  0.00    -0.129 C  
HETATM   11  C   UNL     1      -8.844  10.130  64.809  1.00  0.00    -0.195 C  
ENDBRANCH   7   9
ENDBRANCH   6   7
ENDBRANCH   4   6
ENDBRANCH   2   4
TORSDOF 4
ENDMDL
MODEL      236
REMARK 921   NORMALIZED FREE ENERGY PREDICTED BY IDOCK:   -2.12 KCAL/MOL
REMARK 922        TOTAL FREE ENERGY PREDICTED BY IDOCK:   -2.84 KCAL/MOL
REMARK 923 INTER-LIGAND FREE ENERGY PREDICTED BY IDOCK:   -2.66 KCAL/MOL
REMARK 924 INTRA-LIGAND FREE ENERGY PREDICTED BY IDOCK:   -0.18 KCAL/MOL
REMARK 927      BINDING AFFINITY PREDICTED BY RF-SCORE:    0.00 PKD
ROOT
HETATM    1  C   UNL     1      -9.852   9.730  65.455  1.00  0.00    -0.308 C  
HETATM    2  N   UNL     1      -9.606   8.799  66.558  1.00  0.00    -0.216 N  
HETATM    3  C   UNL     1      -8.809   7.617  66.236  1.00  0.00    -0.156 C  
ENDROOT
BRANCH   2   4
HETATM    4  C   UNL     1     -10.231   8.986  67.809  1.00  0.00    -0.230 C  
HETATM    5  S   UNL     1     -11.036  10.396  68.281  1.00  0.00    -0.271 S  
BRANCH   4   6
HETATM    6  S   UNL     1     -10.336   7.568  68.848  1.00  0.00    -0.206 SA 
BRANCH   6   7
HETATM    7  C   UNL     1      -9.870   8.145  70.461  1.00  0.00    -0.186 C  
HETATM    8  S   UNL     1      -8.395   8.906  70.774  1.00  0.00    -0.190 S  
BRANCH   7   9
HETATM    9  N   UNL     1     -10.834   7.885  71.469  1.00  0.00    -0.226 N  
HETATM   10  C   UNL     1     -10.579   7.919  72.915  1.00  0.00    -0.368 C  
HETATM   11  C   UNL     1     -12.230   7.546  71.164  1.00  0.00    -0.301 C  
ENDBRANCH   7   9
ENDBRANCH   6   7
ENDBRANCH   4   6
ENDBRANCH   2   4
TORSDOF 4
ENDMDL
MODEL      237
REMARK 921   NORMALIZED FREE ENERGY PREDICTED BY IDOCK:   -2.12 KCAL/MOL
REMARK 922        TOTAL FREE ENERGY PREDICTED BY IDOCK:   -2.84 KCAL/MOL
REMARK 923 INTER-LIGAND FREE ENERGY PREDICTED BY IDOCK:   -2.64 KCAL/MOL
REMARK 924 INTRA-LIGAND FREE ENERGY PREDICTED BY IDOCK:   -0.20 KCAL/MOL
REMARK 927      BINDING AFFINITY PREDICTED BY RF-SCORE:    0.00 PKD
ROOT
HETATM    1  C   UNL     1     -10.579  13.392  65.022  1.00  0.00    -0.358 C  
HETATM    2  N   UNL     1     -10.972  12.169  64.321  1.00  0.00    -0.314 N  
HETATM    3  C   UNL     1     -12.341  12.132  63.810  1.00  0.00    -0.532 C  
ENDROOT
BRANCH   2   4
HETATM    4  C   UNL     1     -10.107  11.055  64.280  1.00  0.00    -0.339 C  
HETATM    5  S   UNL     1      -9.223  10.574  62.922  1.00  0.00    -0.337 S  
BRANCH   4   6
HETATM    6  S   UNL     1      -9.795  10.253  65.816  1.00  0.00    -0.272 SA 
BRANCH   6   7
HETATM    7  C   UNL     1      -8.093  10.603  66.180  1.00  0.00    -0.154 C  
HETATM    8  S   UNL     1      -7.598  11.985  67.015  1.00  0.00    -0.067 S  
BRANCH   7   9
HETATM    9  N   UNL     1      -7.184   9.634  65.681  1.00  0.00    -0.094 N  
HETATM   10  C   UNL     1      -5.974   9.929  64.902  1.00  0.00    -0.097 C  
HETATM   11  C   UNL     1      -7.360   8.193  65.900  1.00  0.00    -0.076 C  
ENDBRANCH   7   9
ENDBRANCH   6   7
ENDBRANCH   4   6
ENDBRANCH   2   4
TORSDOF 4
ENDMDL
MODEL      238
REMARK 921   NORMALIZED FREE ENERGY PREDICTED BY IDOCK:   -2.11 KCAL/MOL
REMARK 922        TOTAL FREE ENERGY PREDICTED BY IDOCK:   -2.83 KCAL/MOL
REMARK 923 INTER-LIGAND FREE ENERGY PREDICTED BY IDOCK:   -2.88 KCAL/MOL
REMARK 924 INTRA-LIGAND FREE ENERGY PREDICTED BY IDOCK:    0.05 KCAL/MOL
REMARK 927      BINDING AFFINITY PREDICTED BY RF-SCORE:    0.00 PKD
ROOT
HETATM    1  C   UNL     1     -12.961  14.008  65.498  1.00  0.00    -0.316 C  
HETATM    2  N   UNL     1     -11.877  13.293  64.823  1.00  0.00    -0.354 N  
HETATM    3  C   UNL     1     -12.129  12.903  63.437  1.00  0.00    -0.530 C  
ENDROOT
BRANCH   2   4
HETATM    4  C   UNL     1     -10.727  12.894  65.535  1.00  0.00    -0.279 C  
HETATM    5  S   UNL     1      -9.571  13.953  66.166  1.00  0.00    -0.177 S  
BRANCH   4   6
HETATM    6  S   UNL     1     -10.620  11.186  65.951  1.00  0.00    -0.200 SA 
BRANCH   6   7
HETATM    7  C   UNL     1      -9.451  10.505  64.802  1.00  0.00    -0.259 C  
HETATM    8  S   UNL     1      -9.409  10.935  63.170  1.00  0.00    -0.357 S  
BRANCH   7   9
HETATM    9  N   UNL     1      -8.573   9.546  65.371  1.00  0.00    -0.146 N  
HETATM   10  C   UNL     1      -8.152   8.295  64.726  1.00  0.00    -0.151 C  
HETATM   11  C   UNL     1      -7.975   9.707  66.702  1.00  0.00    -0.109 C  
ENDBRANCH   7   9
ENDBRANCH   6   7
ENDBRANCH   4   6
ENDBRANCH   2   4
TORSDOF 4
ENDMDL
MODEL      239
REMARK 921   NORMALIZED FREE ENERGY PREDICTED BY IDOCK:   -2.11 KCAL/MOL
REMARK 922        TOTAL FREE ENERGY PREDICTED BY IDOCK:   -2.83 KCAL/MOL
REMARK 923 INTER-LIGAND FREE ENERGY PREDICTED BY IDOCK:   -2.51 KCAL/MOL
REMARK 924 INTRA-LIGAND FREE ENERGY PREDICTED BY IDOCK:   -0.32 KCAL/MOL
REMARK 927      BINDING AFFINITY PREDICTED BY RF-SCORE:    0.00 PKD
ROOT
HETATM    1  C   UNL     1     -10.694   7.971  72.743  1.00  0.00    -0.362 C  
HETATM    2  N   UNL     1     -11.348   6.907  71.980  1.00  0.00    -0.256 N  
HETATM    3  C   UNL     1     -12.622   7.256  71.352  1.00  0.00    -0.388 C  
ENDROOT
BRANCH   2   4
HETATM    4  C   UNL     1     -10.829   5.595  71.984  1.00  0.00    -0.242 C  
HETATM    5  S   UNL     1     -10.927   4.527  73.291  1.00  0.00    -0.298 S  
BRANCH   4   6
HETATM    6  S   UNL     1     -10.223   4.991  70.445  1.00  0.00    -0.224 SA 
BRANCH   6   7
HETATM    7  C   UNL     1      -9.016   6.185  69.927  1.00  0.00    -0.139 C  
HETATM    8  S   UNL     1      -7.504   6.343  70.661  1.00  0.00    -0.089 S  
BRANCH   7   9
HETATM    9  N   UNL     1      -9.446   7.014  68.858  1.00  0.00    -0.138 N  
HETATM   10  C   UNL     1      -8.711   8.176  68.338  1.00  0.00    -0.134 C  
HETATM   11  C   UNL     1     -10.705   6.791  68.136  1.00  0.00    -0.236 C  
ENDBRANCH   7   9
ENDBRANCH   6   7
ENDBRANCH   4   6
ENDBRANCH   2   4
TORSDOF 4
ENDMDL
MODEL      240
REMARK 921   NORMALIZED FREE ENERGY PREDICTED BY IDOCK:   -2.11 KCAL/MOL
REMARK 922        TOTAL FREE ENERGY PREDICTED BY IDOCK:   -2.83 KCAL/MOL
REMARK 923 INTER-LIGAND FREE ENERGY PREDICTED BY IDOCK:   -2.71 KCAL/MOL
REMARK 924 INTRA-LIGAND FREE ENERGY PREDICTED BY IDOCK:   -0.12 KCAL/MOL
REMARK 927      BINDING AFFINITY PREDICTED BY RF-SCORE:    0.00 PKD
ROOT
HETATM    1  C   UNL     1     -10.060  10.687  69.551  1.00  0.00    -0.132 C  
HETATM    2  N   UNL     1     -10.449  11.154  68.220  1.00  0.00    -0.182 N  
HETATM    3  C   UNL     1     -10.565  10.126  67.187  1.00  0.00    -0.246 C  
ENDROOT
BRANCH   2   4
HETATM    4  C   UNL     1     -10.561  12.533  67.947  1.00  0.00    -0.218 C  
HETATM    5  S   UNL     1     -11.875  13.498  68.392  1.00  0.00    -0.361 S  
BRANCH   4   6
HETATM    6  S   UNL     1      -9.132  13.313  67.275  1.00  0.00    -0.230 SA 
BRANCH   6   7
HETATM    7  C   UNL     1      -9.727  14.828  66.565  1.00  0.00    -0.278 C  
HETATM    8  S   UNL     1     -10.348  14.927  64.998  1.00  0.00    -0.308 S  
BRANCH   7   9
HETATM    9  N   UNL     1      -9.608  15.953  67.422  1.00  0.00    -0.220 N  
HETATM   10  C   UNL     1      -8.838  15.988  68.673  1.00  0.00    -0.210 C  
HETATM   11  C   UNL     1     -10.257  17.239  67.139  1.00  0.00    -0.319 C  
ENDBRANCH   7   9
ENDBRANCH   6   7
ENDBRANCH   4   6
ENDBRANCH   2   4
TORSDOF 4
ENDMDL
MODEL      241
REMARK 921   NORMALIZED FREE ENERGY PREDICTED BY IDOCK:   -2.11 KCAL/MOL
REMARK 922        TOTAL FREE ENERGY PREDICTED BY IDOCK:   -2.82 KCAL/MOL
REMARK 923 INTER-LIGAND FREE ENERGY PREDICTED BY IDOCK:   -2.55 KCAL/MOL
REMARK 924 INTRA-LIGAND FREE ENERGY PREDICTED BY IDOCK:   -0.28 KCAL/MOL
REMARK 927      BINDING AFFINITY PREDICTED BY RF-SCORE:    0.00 PKD
ROOT
HETATM    1  C   UNL     1      -7.972   5.860  72.802  1.00  0.00    -0.104 C  
HETATM    2  N   UNL     1      -9.264   6.480  73.100  1.00  0.00    -0.128 N  
HETATM    3  C   UNL     1      -9.215   7.753  73.818  1.00  0.00    -0.256 C  
ENDROOT
BRANCH   2   4
HETATM    4  C   UNL     1     -10.469   5.800  72.825  1.00  0.00    -0.210 C  
HETATM    5  S   UNL     1     -10.924   4.330  73.524  1.00  0.00    -0.291 S  
BRANCH   4   6
HETATM    6  S   UNL     1     -11.644   6.664  71.838  1.00  0.00    -0.317 SA 
BRANCH   6   7
HETATM    7  C   UNL     1     -10.741   7.189  70.403  1.00  0.00    -0.235 C  
HETATM    8  S   UNL     1      -9.820   6.134  69.459  1.00  0.00    -0.165 S  
BRANCH   7   9
HETATM    9  N   UNL     1     -10.838   8.580  70.136  1.00  0.00    -0.236 N  
HETATM   10  C   UNL     1     -11.297   9.596  71.093  1.00  0.00    -0.386 C  
HETATM   11  C   UNL     1     -10.477   9.167  68.840  1.00  0.00    -0.218 C  
ENDBRANCH   7   9
ENDBRANCH   6   7
ENDBRANCH   4   6
ENDBRANCH   2   4
TORSDOF 4
ENDMDL
MODEL      242
REMARK 921   NORMALIZED FREE ENERGY PREDICTED BY IDOCK:   -2.11 KCAL/MOL
REMARK 922        TOTAL FREE ENERGY PREDICTED BY IDOCK:   -2.82 KCAL/MOL
REMARK 923 INTER-LIGAND FREE ENERGY PREDICTED BY IDOCK:   -2.57 KCAL/MOL
REMARK 924 INTRA-LIGAND FREE ENERGY PREDICTED BY IDOCK:   -0.25 KCAL/MOL
REMARK 927      BINDING AFFINITY PREDICTED BY RF-SCORE:    0.00 PKD
ROOT
HETATM    1  C   UNL     1     -11.742  12.387  66.468  1.00  0.00    -0.379 C  
HETATM    2  N   UNL     1     -11.382  12.361  67.886  1.00  0.00    -0.268 N  
HETATM    3  C   UNL     1     -10.925  13.626  68.458  1.00  0.00    -0.267 C  
ENDROOT
BRANCH   2   4
HETATM    4  C   UNL     1     -11.354  11.142  68.597  1.00  0.00    -0.277 C  
HETATM    5  S   UNL     1     -12.070  10.895  70.109  1.00  0.00    -0.373 S  
BRANCH   4   6
HETATM    6  S   UNL     1     -10.698   9.753  67.738  1.00  0.00    -0.243 SA 
BRANCH   6   7
HETATM    7  C   UNL     1      -8.978  10.126  67.507  1.00  0.00    -0.131 C  
HETATM    8  S   UNL     1      -7.947  10.536  68.780  1.00  0.00    -0.136 S  
BRANCH   7   9
HETATM    9  N   UNL     1      -8.553  10.078  66.154  1.00  0.00    -0.131 N  
HETATM   10  C   UNL     1      -9.341   9.539  65.037  1.00  0.00    -0.229 C  
HETATM   11  C   UNL     1      -7.246  10.580  65.713  1.00  0.00    -0.135 C  
ENDBRANCH   7   9
ENDBRANCH   6   7
ENDBRANCH   4   6
ENDBRANCH   2   4
TORSDOF 4
ENDMDL
MODEL      243
REMARK 921   NORMALIZED FREE ENERGY PREDICTED BY IDOCK:   -2.11 KCAL/MOL
REMARK 922        TOTAL FREE ENERGY PREDICTED BY IDOCK:   -2.82 KCAL/MOL
REMARK 923 INTER-LIGAND FREE ENERGY PREDICTED BY IDOCK:   -2.53 KCAL/MOL
REMARK 924 INTRA-LIGAND FREE ENERGY PREDICTED BY IDOCK:   -0.29 KCAL/MOL
REMARK 927      BINDING AFFINITY PREDICTED BY RF-SCORE:    0.00 PKD
ROOT
HETATM    1  C   UNL     1     -10.010  14.497  66.277  1.00  0.00    -0.305 C  
HETATM    2  N   UNL     1      -9.158  13.523  66.961  1.00  0.00    -0.237 N  
HETATM    3  C   UNL     1      -9.445  12.116  66.690  1.00  0.00    -0.223 C  
ENDROOT
BRANCH   2   4
HETATM    4  C   UNL     1      -8.217  13.943  67.925  1.00  0.00    -0.164 C  
HETATM    5  S   UNL     1      -6.594  13.472  67.953  1.00  0.00    -0.165 S  
BRANCH   4   6
HETATM    6  S   UNL     1      -8.750  15.198  69.040  1.00  0.00    -0.215 SA 
BRANCH   6   7
HETATM    7  C   UNL     1      -7.754  16.613  68.648  1.00  0.00    -0.224 C  
HETATM    8  S   UNL     1      -6.384  17.047  69.536  1.00  0.00    -0.210 S  
BRANCH   7   9
HETATM    9  N   UNL     1      -8.227  17.364  67.541  1.00  0.00    -0.199 N  
HETATM   10  C   UNL     1      -9.368  18.290  67.569  1.00  0.00    -0.261 C  
HETATM   11  C   UNL     1      -7.607  17.296  66.212  1.00  0.00    -0.325 C  
ENDBRANCH   7   9
ENDBRANCH   6   7
ENDBRANCH   4   6
ENDBRANCH   2   4
TORSDOF 4
ENDMDL
MODEL      244
REMARK 921   NORMALIZED FREE ENERGY PREDICTED BY IDOCK:   -2.09 KCAL/MOL
REMARK 922        TOTAL FREE ENERGY PREDICTED BY IDOCK:   -2.80 KCAL/MOL
REMARK 923 INTER-LIGAND FREE ENERGY PREDICTED BY IDOCK:   -2.47 KCAL/MOL
REMARK 924 INTRA-LIGAND FREE ENERGY PREDICTED BY IDOCK:   -0.34 KCAL/MOL
REMARK 927      BINDING AFFINITY PREDICTED BY RF-SCORE:    0.00 PKD
ROOT
HETATM    1  C   UNL     1     -10.970   6.553  68.485  1.00  0.00    -0.286 C  
HETATM    2  N   UNL     1     -10.519   7.647  69.346  1.00  0.00    -0.218 N  
HETATM    3  C   UNL     1      -9.276   8.307  68.949  1.00  0.00    -0.147 C  
ENDROOT
BRANCH   2   4
HETATM    4  C   UNL     1     -11.186   7.931  70.556  1.00  0.00    -0.253 C  
HETATM    5  S   UNL     1     -11.692   9.470  71.036  1.00  0.00    -0.369 S  
BRANCH   4   6
HETATM    6  S   UNL     1     -11.689   6.542  71.514  1.00  0.00    -0.322 SA 
BRANCH   6   7
HETATM    7  C   UNL     1     -10.177   5.748  72.000  1.00  0.00    -0.201 C  
HETATM    8  S   UNL     1      -9.926   4.084  71.857  1.00  0.00    -0.151 S  
BRANCH   7   9
HETATM    9  N   UNL     1      -9.210   6.631  72.546  1.00  0.00    -0.138 N  
HETATM   10  C   UNL     1      -9.425   7.515  73.701  1.00  0.00    -0.284 C  
HETATM   11  C   UNL     1      -7.853   6.758  72.002  1.00  0.00    -0.096 C  
ENDBRANCH   7   9
ENDBRANCH   6   7
ENDBRANCH   4   6
ENDBRANCH   2   4
TORSDOF 4
ENDMDL
MODEL      245
REMARK 921   NORMALIZED FREE ENERGY PREDICTED BY IDOCK:   -2.09 KCAL/MOL
REMARK 922        TOTAL FREE ENERGY PREDICTED BY IDOCK:   -2.80 KCAL/MOL
REMARK 923 INTER-LIGAND FREE ENERGY PREDICTED BY IDOCK:   -2.61 KCAL/MOL
REMARK 924 INTRA-LIGAND FREE ENERGY PREDICTED BY IDOCK:   -0.19 KCAL/MOL
REMARK 927      BINDING AFFINITY PREDICTED BY RF-SCORE:    0.00 PKD
ROOT
HETATM    1  C   UNL     1     -10.804   6.486  67.115  1.00  0.00    -0.401 C  
HETATM    2  N   UNL     1     -10.570   7.754  67.807  1.00  0.00    -0.212 N  
HETATM    3  C   UNL     1     -10.382   8.927  66.955  1.00  0.00    -0.262 C  
ENDROOT
BRANCH   2   4
HETATM    4  C   UNL     1     -10.400   7.788  69.207  1.00  0.00    -0.219 C  
HETATM    5  S   UNL     1      -9.364   8.845  70.025  1.00  0.00    -0.185 S  
BRANCH   4   6
HETATM    6  S   UNL     1     -11.502   6.790  70.151  1.00  0.00    -0.330 SA 
BRANCH   6   7
HETATM    7  C   UNL     1     -10.471   5.960  71.334  1.00  0.00    -0.236 C  
HETATM    8  S   UNL     1      -9.097   5.080  70.898  1.00  0.00    -0.147 S  
BRANCH   7   9
HETATM    9  N   UNL     1     -10.920   6.077  72.675  1.00  0.00    -0.249 N  
HETATM   10  C   UNL     1     -11.453   4.977  73.490  1.00  0.00    -0.056 C  
HETATM   11  C   UNL     1     -10.896   7.347  73.412  1.00  0.00    -0.313 C  
ENDBRANCH   7   9
ENDBRANCH   6   7
ENDBRANCH   4   6
ENDBRANCH   2   4
TORSDOF 4
ENDMDL
MODEL      246
REMARK 921   NORMALIZED FREE ENERGY PREDICTED BY IDOCK:   -2.08 KCAL/MOL
REMARK 922        TOTAL FREE ENERGY PREDICTED BY IDOCK:   -2.78 KCAL/MOL
REMARK 923 INTER-LIGAND FREE ENERGY PREDICTED BY IDOCK:   -2.54 KCAL/MOL
REMARK 924 INTRA-LIGAND FREE ENERGY PREDICTED BY IDOCK:   -0.24 KCAL/MOL
REMARK 927      BINDING AFFINITY PREDICTED BY RF-SCORE:    0.00 PKD
ROOT
HETATM    1  C   UNL     1     -11.712  12.363  67.085  1.00  0.00    -0.345 C  
HETATM    2  N   UNL     1     -10.975  11.174  67.515  1.00  0.00    -0.256 N  
HETATM    3  C   UNL     1     -10.093  10.569  66.518  1.00  0.00    -0.225 C  
ENDROOT
BRANCH   2   4
HETATM    4  C   UNL     1     -11.228  10.587  68.773  1.00  0.00    -0.262 C  
HETATM    5  S   UNL     1     -12.314  11.197  69.916  1.00  0.00    -0.217 S  
BRANCH   4   6
HETATM    6  S   UNL     1     -10.501   9.009  69.058  1.00  0.00    -0.196 SA 
BRANCH   6   7
HETATM    7  C   UNL     1      -9.084   9.333  70.076  1.00  0.00    -0.210 C  
HETATM    8  S   UNL     1      -7.730  10.179  69.525  1.00  0.00    -0.167 S  
BRANCH   7   9
HETATM    9  N   UNL     1      -9.178   8.794  71.386  1.00  0.00    -0.233 N  
HETATM   10  C   UNL     1     -10.431   8.488  72.089  1.00  0.00    -0.342 C  
HETATM   11  C   UNL     1      -7.998   8.473  72.199  1.00  0.00    -0.088 C  
ENDBRANCH   7   9
ENDBRANCH   6   7
ENDBRANCH   4   6
ENDBRANCH   2   4
TORSDOF 4
ENDMDL
MODEL      247
REMARK 921   NORMALIZED FREE ENERGY PREDICTED BY IDOCK:   -2.08 KCAL/MOL
REMARK 922        TOTAL FREE ENERGY PREDICTED BY IDOCK:   -2.78 KCAL/MOL
REMARK 923 INTER-LIGAND FREE ENERGY PREDICTED BY IDOCK:   -2.58 KCAL/MOL
REMARK 924 INTRA-LIGAND FREE ENERGY PREDICTED BY IDOCK:   -0.20 KCAL/MOL
REMARK 927      BINDING AFFINITY PREDICTED BY RF-SCORE:    0.00 PKD
ROOT
HETATM    1  C   UNL     1     -11.063   7.496  72.969  1.00  0.00    -0.362 C  
HETATM    2  N   UNL     1     -11.572   7.026  71.680  1.00  0.00    -0.270 N  
HETATM    3  C   UNL     1     -13.022   7.076  71.504  1.00  0.00    -0.359 C  
ENDROOT
BRANCH   2   4
HETATM    4  C   UNL     1     -10.704   6.433  70.738  1.00  0.00    -0.250 C  
HETATM    5  S   UNL     1      -9.887   4.972  70.970  1.00  0.00    -0.209 S  
BRANCH   4   6
HETATM    6  S   UNL     1     -10.648   7.187  69.148  1.00  0.00    -0.199 SA 
BRANCH   6   7
HETATM    7  C   UNL     1     -10.040   8.829  69.439  1.00  0.00    -0.203 C  
HETATM    8  S   UNL     1     -11.041  10.112  69.893  1.00  0.00    -0.311 S  
BRANCH   7   9
HETATM    9  N   UNL     1      -8.644   8.975  69.229  1.00  0.00    -0.133 N  
HETATM   10  C   UNL     1      -7.918   8.542  68.028  1.00  0.00    -0.111 C  
HETATM   11  C   UNL     1      -7.753   9.594  70.218  1.00  0.00    -0.172 C  
ENDBRANCH   7   9
ENDBRANCH   6   7
ENDBRANCH   4   6
ENDBRANCH   2   4
TORSDOF 4
ENDMDL
MODEL      248
REMARK 921   NORMALIZED FREE ENERGY PREDICTED BY IDOCK:   -2.07 KCAL/MOL
REMARK 922        TOTAL FREE ENERGY PREDICTED BY IDOCK:   -2.77 KCAL/MOL
REMARK 923 INTER-LIGAND FREE ENERGY PREDICTED BY IDOCK:   -2.52 KCAL/MOL
REMARK 924 INTRA-LIGAND FREE ENERGY PREDICTED BY IDOCK:   -0.25 KCAL/MOL
REMARK 927      BINDING AFFINITY PREDICTED BY RF-SCORE:    0.00 PKD
ROOT
HETATM    1  C   UNL     1      -6.424  11.786  67.885  1.00  0.00    -0.068 C  
HETATM    2  N   UNL     1      -7.816  11.694  68.330  1.00  0.00    -0.129 N  
HETATM    3  C   UNL     1      -8.204  10.440  68.971  1.00  0.00    -0.141 C  
ENDROOT
BRANCH   2   4
HETATM    4  C   UNL     1      -8.738  12.714  68.017  1.00  0.00    -0.190 C  
HETATM    5  S   UNL     1      -8.322  14.321  67.696  1.00  0.00    -0.195 S  
BRANCH   4   6
HETATM    6  S   UNL     1     -10.404  12.206  67.753  1.00  0.00    -0.211 SA 
BRANCH   6   7
HETATM    7  C   UNL     1     -10.474  11.734  66.044  1.00  0.00    -0.246 C  
HETATM    8  S   UNL     1      -9.787  10.309  65.455  1.00  0.00    -0.307 S  
BRANCH   7   9
HETATM    9  N   UNL     1     -11.135  12.675  65.211  1.00  0.00    -0.288 N  
HETATM   10  C   UNL     1     -10.467  13.676  64.368  1.00  0.00    -0.300 C  
HETATM   11  C   UNL     1     -12.597  12.748  65.099  1.00  0.00    -0.444 C  
ENDBRANCH   7   9
ENDBRANCH   6   7
ENDBRANCH   4   6
ENDBRANCH   2   4
TORSDOF 4
ENDMDL
MODEL      249
REMARK 921   NORMALIZED FREE ENERGY PREDICTED BY IDOCK:   -2.06 KCAL/MOL
REMARK 922        TOTAL FREE ENERGY PREDICTED BY IDOCK:   -2.77 KCAL/MOL
REMARK 923 INTER-LIGAND FREE ENERGY PREDICTED BY IDOCK:   -2.83 KCAL/MOL
REMARK 924 INTRA-LIGAND FREE ENERGY PREDICTED BY IDOCK:    0.06 KCAL/MOL
REMARK 927      BINDING AFFINITY PREDICTED BY RF-SCORE:    0.00 PKD
ROOT
HETATM    1  C   UNL     1     -10.119  19.491  68.561  1.00  0.00    -0.445 C  
HETATM    2  N   UNL     1      -9.612  18.997  67.279  1.00  0.00    -0.308 N  
HETATM    3  C   UNL     1     -10.417  19.319  66.102  1.00  0.00    -0.488 C  
ENDROOT
BRANCH   2   4
HETATM    4  C   UNL     1      -8.488  18.145  67.232  1.00  0.00    -0.242 C  
HETATM    5  S   UNL     1      -8.169  17.044  65.989  1.00  0.00     0.004 S  
BRANCH   4   6
HETATM    6  S   UNL     1      -7.254  18.412  68.458  1.00  0.00    -0.290 SA 
BRANCH   6   7
HETATM    7  C   UNL     1      -7.126  16.869  69.325  1.00  0.00    -0.192 C  
HETATM    8  S   UNL     1      -8.279  15.642  69.194  1.00  0.00    -0.259 S  
BRANCH   7   9
HETATM    9  N   UNL     1      -5.983  16.768  70.161  1.00  0.00    -0.190 N  
HETATM   10  C   UNL     1      -5.356  15.512  70.593  1.00  0.00    -0.140 C  
HETATM   11  C   UNL     1      -5.284  17.944  70.696  1.00  0.00    -0.279 C  
ENDBRANCH   7   9
ENDBRANCH   6   7
ENDBRANCH   4   6
ENDBRANCH   2   4
TORSDOF 4
ENDMDL
MODEL      250
REMARK 921   NORMALIZED FREE ENERGY PREDICTED BY IDOCK:   -2.05 KCAL/MOL
REMARK 922        TOTAL FREE ENERGY PREDICTED BY IDOCK:   -2.75 KCAL/MOL
REMARK 923 INTER-LIGAND FREE ENERGY PREDICTED BY IDOCK:   -2.47 KCAL/MOL
REMARK 924 INTRA-LIGAND FREE ENERGY PREDICTED BY IDOCK:   -0.27 KCAL/MOL
REMARK 927      BINDING AFFINITY PREDICTED BY RF-SCORE:    0.00 PKD
ROOT
HETATM    1  C   UNL     1      -7.338  18.456  65.946  1.00  0.00    -0.203 C  
HETATM    2  N   UNL     1      -6.942  17.415  66.897  1.00  0.00    -0.174 N  
HETATM    3  C   UNL     1      -5.528  17.386  67.266  1.00  0.00    -0.131 C  
ENDROOT
BRANCH   2   4
HETATM    4  C   UNL     1      -7.862  16.427  67.306  1.00  0.00    -0.166 C  
HETATM    5  S   UNL     1      -7.490  14.791  67.505  1.00  0.00    -0.198 S  
BRANCH   4   6
HETATM    6  S   UNL     1      -9.442  17.002  67.829  1.00  0.00    -0.248 SA 
BRANCH   6   7
HETATM    7  C   UNL     1     -10.595  15.803  67.209  1.00  0.00    -0.313 C  
HETATM    8  S   UNL     1     -11.517  14.808  68.216  1.00  0.00    -0.330 S  
BRANCH   7   9
HETATM    9  N   UNL     1     -10.653  15.736  65.793  1.00  0.00    -0.341 N  
HETATM   10  C   UNL     1     -10.743  16.893  64.892  1.00  0.00     0.063 C  
HETATM   11  C   UNL     1     -10.627  14.466  65.056  1.00  0.00    -0.432 C  
ENDBRANCH   7   9
ENDBRANCH   6   7
ENDBRANCH   4   6
ENDBRANCH   2   4
TORSDOF 4
ENDMDL
MODEL      251
REMARK 921   NORMALIZED FREE ENERGY PREDICTED BY IDOCK:   -2.04 KCAL/MOL
REMARK 922        TOTAL FREE ENERGY PREDICTED BY IDOCK:   -2.73 KCAL/MOL
REMARK 923 INTER-LIGAND FREE ENERGY PREDICTED BY IDOCK:   -2.55 KCAL/MOL
REMARK 924 INTRA-LIGAND FREE ENERGY PREDICTED BY IDOCK:   -0.19 KCAL/MOL
REMARK 927      BINDING AFFINITY PREDICTED BY RF-SCORE:    0.00 PKD
ROOT
HETATM    1  C   UNL     1      -9.372   3.971  67.117  1.00  0.00    -0.184 C  
HETATM    2  N   UNL     1      -9.793   4.518  68.408  1.00  0.00    -0.121 N  
HETATM    3  C   UNL     1      -9.502   3.695  69.581  1.00  0.00    -0.175 C  
ENDROOT
BRANCH   2   4
HETATM    4  C   UNL     1     -10.555   5.704  68.472  1.00  0.00    -0.189 C  
HETATM    5  S   UNL     1     -11.015   6.624  67.132  1.00  0.00    -0.350 S  
BRANCH   4   6
HETATM    6  S   UNL     1     -11.226   6.115  70.047  1.00  0.00    -0.362 SA 
BRANCH   6   7
HETATM    7  C   UNL     1     -10.194   7.423  70.659  1.00  0.00    -0.199 C  
HETATM    8  S   UNL     1      -8.545   7.226  70.966  1.00  0.00    -0.128 S  
BRANCH   7   9
HETATM    9  N   UNL     1     -10.884   8.641  70.895  1.00  0.00    -0.229 N  
HETATM   10  C   UNL     1     -10.446   9.965  70.433  1.00  0.00    -0.285 C  
HETATM   11  C   UNL     1     -12.144   8.708  71.644  1.00  0.00    -0.326 C  
ENDBRANCH   7   9
ENDBRANCH   6   7
ENDBRANCH   4   6
ENDBRANCH   2   4
TORSDOF 4
ENDMDL
MODEL      252
REMARK 921   NORMALIZED FREE ENERGY PREDICTED BY IDOCK:   -2.02 KCAL/MOL
REMARK 922        TOTAL FREE ENERGY PREDICTED BY IDOCK:   -2.72 KCAL/MOL
REMARK 923 INTER-LIGAND FREE ENERGY PREDICTED BY IDOCK:   -2.55 KCAL/MOL
REMARK 924 INTRA-LIGAND FREE ENERGY PREDICTED BY IDOCK:   -0.17 KCAL/MOL
REMARK 927      BINDING AFFINITY PREDICTED BY RF-SCORE:    0.00 PKD
ROOT
HETATM    1  C   UNL     1     -11.350   7.337  70.543  1.00  0.00    -0.280 C  
HETATM    2  N   UNL     1     -10.311   7.435  69.517  1.00  0.00    -0.211 N  
HETATM    3  C   UNL     1      -9.207   6.483  69.626  1.00  0.00    -0.143 C  
ENDROOT
BRANCH   2   4
HETATM    4  C   UNL     1     -10.329   8.484  68.574  1.00  0.00    -0.198 C  
HETATM    5  S   UNL     1     -10.259   8.273  66.898  1.00  0.00    -0.312 S  
BRANCH   4   6
HETATM    6  S   UNL     1     -10.648  10.096  69.207  1.00  0.00    -0.246 SA 
BRANCH   6   7
HETATM    7  C   UNL     1      -9.640  11.181  68.230  1.00  0.00    -0.185 C  
HETATM    8  S   UNL     1      -7.967  11.307  68.427  1.00  0.00    -0.146 S  
BRANCH   7   9
HETATM    9  N   UNL     1     -10.367  11.955  67.289  1.00  0.00    -0.203 N  
HETATM   10  C   UNL     1     -11.675  12.578  67.533  1.00  0.00    -0.374 C  
HETATM   11  C   UNL     1      -9.875  12.224  65.932  1.00  0.00    -0.251 C  
ENDBRANCH   7   9
ENDBRANCH   6   7
ENDBRANCH   4   6
ENDBRANCH   2   4
TORSDOF 4
ENDMDL
MODEL      253
REMARK 921   NORMALIZED FREE ENERGY PREDICTED BY IDOCK:   -2.02 KCAL/MOL
REMARK 922        TOTAL FREE ENERGY PREDICTED BY IDOCK:   -2.71 KCAL/MOL
REMARK 923 INTER-LIGAND FREE ENERGY PREDICTED BY IDOCK:   -2.69 KCAL/MOL
REMARK 924 INTRA-LIGAND FREE ENERGY PREDICTED BY IDOCK:   -0.03 KCAL/MOL
REMARK 927      BINDING AFFINITY PREDICTED BY RF-SCORE:    0.00 PKD
ROOT
HETATM    1  C   UNL     1     -10.745  13.326  64.352  1.00  0.00    -0.415 C  
HETATM    2  N   UNL     1     -11.211  13.760  65.671  1.00  0.00    -0.300 N  
HETATM    3  C   UNL     1     -12.655  13.717  65.889  1.00  0.00    -0.447 C  
ENDROOT
BRANCH   2   4
HETATM    4  C   UNL     1     -10.310  14.315  66.604  1.00  0.00    -0.279 C  
HETATM    5  S   UNL     1      -9.484  15.774  66.393  1.00  0.00    -0.326 S  
BRANCH   4   6
HETATM    6  S   UNL     1     -10.215  13.512  68.168  1.00  0.00    -0.253 SA 
BRANCH   6   7
HETATM    7  C   UNL     1      -8.565  12.863  68.252  1.00  0.00    -0.170 C  
HETATM    8  S   UNL     1      -7.209  13.831  68.526  1.00  0.00    -0.115 S  
BRANCH   7   9
HETATM    9  N   UNL     1      -8.484  11.462  68.039  1.00  0.00    -0.139 N  
HETATM   10  C   UNL     1      -7.257  10.723  67.711  1.00  0.00    -0.088 C  
HETATM   11  C   UNL     1      -9.651  10.575  68.130  1.00  0.00    -0.154 C  
ENDBRANCH   7   9
ENDBRANCH   6   7
ENDBRANCH   4   6
ENDBRANCH   2   4
TORSDOF 4
ENDMDL
MODEL      254
REMARK 921   NORMALIZED FREE ENERGY PREDICTED BY IDOCK:   -2.02 KCAL/MOL
REMARK 922        TOTAL FREE ENERGY PREDICTED BY IDOCK:   -2.71 KCAL/MOL
REMARK 923 INTER-LIGAND FREE ENERGY PREDICTED BY IDOCK:   -2.52 KCAL/MOL
REMARK 924 INTRA-LIGAND FREE ENERGY PREDICTED BY IDOCK:   -0.20 KCAL/MOL
REMARK 927      BINDING AFFINITY PREDICTED BY RF-SCORE:    0.00 PKD
ROOT
HETATM    1  C   UNL     1      -9.474   8.601  66.060  1.00  0.00    -0.208 C  
HETATM    2  N   UNL     1      -8.690   9.822  65.868  1.00  0.00    -0.135 N  
HETATM    3  C   UNL     1      -7.253   9.709  66.114  1.00  0.00    -0.098 C  
ENDROOT
BRANCH   2   4
HETATM    4  C   UNL     1      -9.328  11.051  65.599  1.00  0.00    -0.214 C  
HETATM    5  S   UNL     1     -10.458  11.298  64.366  1.00  0.00    -0.358 S  
BRANCH   4   6
HETATM    6  S   UNL     1      -9.061  12.341  66.767  1.00  0.00    -0.206 SA 
BRANCH   6   7
HETATM    7  C   UNL     1     -10.609  12.519  67.617  1.00  0.00    -0.217 C  
HETATM    8  S   UNL     1     -11.732  13.722  67.239  1.00  0.00    -0.403 S  
BRANCH   7   9
HETATM    9  N   UNL     1     -10.807  11.578  68.661  1.00  0.00    -0.200 N  
HETATM   10  C   UNL     1     -12.066  11.371  69.388  1.00  0.00    -0.291 C  
HETATM   11  C   UNL     1      -9.744  10.684  69.137  1.00  0.00    -0.189 C  
ENDBRANCH   7   9
ENDBRANCH   6   7
ENDBRANCH   4   6
ENDBRANCH   2   4
TORSDOF 4
ENDMDL
MODEL      255
REMARK 921   NORMALIZED FREE ENERGY PREDICTED BY IDOCK:   -2.02 KCAL/MOL
REMARK 922        TOTAL FREE ENERGY PREDICTED BY IDOCK:   -2.71 KCAL/MOL
REMARK 923 INTER-LIGAND FREE ENERGY PREDICTED BY IDOCK:   -2.46 KCAL/MOL
REMARK 924 INTRA-LIGAND FREE ENERGY PREDICTED BY IDOCK:   -0.25 KCAL/MOL
REMARK 927      BINDING AFFINITY PREDICTED BY RF-SCORE:    0.00 PKD
ROOT
HETATM    1  C   UNL     1      -9.369   9.069  71.205  1.00  0.00    -0.254 C  
HETATM    2  N   UNL     1     -10.165   8.207  72.081  1.00  0.00    -0.237 N  
HETATM    3  C   UNL     1     -11.551   8.616  72.298  1.00  0.00    -0.354 C  
ENDROOT
BRANCH   2   4
HETATM    4  C   UNL     1      -9.564   7.134  72.772  1.00  0.00    -0.152 C  
HETATM    5  S   UNL     1     -10.002   6.623  74.323  1.00  0.00    -0.322 S  
BRANCH   4   6
HETATM    6  S   UNL     1      -8.425   6.155  71.853  1.00  0.00    -0.129 SA 
BRANCH   6   7
HETATM    7  C   UNL     1      -9.428   4.971  70.991  1.00  0.00    -0.162 C  
HETATM    8  S   UNL     1      -9.759   3.431  71.598  1.00  0.00    -0.150 S  
BRANCH   7   9
HETATM    9  N   UNL     1      -9.903   5.424  69.732  1.00  0.00    -0.182 N  
HETATM   10  C   UNL     1     -11.171   6.132  69.510  1.00  0.00    -0.411 C  
HETATM   11  C   UNL     1      -9.155   5.230  68.484  1.00  0.00    -0.110 C  
ENDBRANCH   7   9
ENDBRANCH   6   7
ENDBRANCH   4   6
ENDBRANCH   2   4
TORSDOF 4
ENDMDL
MODEL      256
REMARK 921   NORMALIZED FREE ENERGY PREDICTED BY IDOCK:   -2.01 KCAL/MOL
REMARK 922        TOTAL FREE ENERGY PREDICTED BY IDOCK:   -2.70 KCAL/MOL
REMARK 923 INTER-LIGAND FREE ENERGY PREDICTED BY IDOCK:   -2.47 KCAL/MOL
REMARK 924 INTRA-LIGAND FREE ENERGY PREDICTED BY IDOCK:   -0.24 KCAL/MOL
REMARK 927      BINDING AFFINITY PREDICTED BY RF-SCORE:    0.00 PKD
ROOT
HETATM    1  C   UNL     1      -8.996  12.225  68.034  1.00  0.00    -0.190 C  
HETATM    2  N   UNL     1      -8.625  10.842  68.337  1.00  0.00    -0.139 N  
HETATM    3  C   UNL     1      -7.451  10.323  67.638  1.00  0.00    -0.089 C  
ENDROOT
BRANCH   2   4
HETATM    4  C   UNL     1      -9.451  10.039  69.151  1.00  0.00    -0.207 C  
HETATM    5  S   UNL     1     -11.008  10.462  69.654  1.00  0.00    -0.295 S  
BRANCH   4   6
HETATM    6  S   UNL     1      -8.873   8.409  69.481  1.00  0.00    -0.146 SA 
BRANCH   6   7
HETATM    7  C   UNL     1     -10.077   7.336  68.740  1.00  0.00    -0.176 C  
HETATM    8  S   UNL     1     -10.474   7.394  67.100  1.00  0.00    -0.346 S  
BRANCH   7   9
HETATM    9  N   UNL     1     -10.697   6.444  69.655  1.00  0.00    -0.250 N  
HETATM   10  C   UNL     1     -11.906   6.736  70.435  1.00  0.00    -0.338 C  
HETATM   11  C   UNL     1     -10.181   5.096  69.923  1.00  0.00    -0.291 C  
ENDBRANCH   7   9
ENDBRANCH   6   7
ENDBRANCH   4   6
ENDBRANCH   2   4
TORSDOF 4
ENDMDL
MODEL      257
REMARK 921   NORMALIZED FREE ENERGY PREDICTED BY IDOCK:   -2.01 KCAL/MOL
REMARK 922        TOTAL FREE ENERGY PREDICTED BY IDOCK:   -2.70 KCAL/MOL
REMARK 923 INTER-LIGAND FREE ENERGY PREDICTED BY IDOCK:   -2.77 KCAL/MOL
REMARK 924 INTRA-LIGAND FREE ENERGY PREDICTED BY IDOCK:    0.07 KCAL/MOL
REMARK 927      BINDING AFFINITY PREDICTED BY RF-SCORE:    0.00 PKD
ROOT
HETATM    1  C   UNL     1      -9.038  10.497  69.075  1.00  0.00    -0.181 C  
HETATM    2  N   UNL     1     -10.094  10.712  68.085  1.00  0.00    -0.155 N  
HETATM    3  C   UNL     1     -10.653   9.510  67.469  1.00  0.00    -0.275 C  
ENDROOT
BRANCH   2   4
HETATM    4  C   UNL     1     -10.432  12.016  67.667  1.00  0.00    -0.205 C  
HETATM    5  S   UNL     1     -11.738  12.396  66.664  1.00  0.00    -0.330 S  
BRANCH   4   6
HETATM    6  S   UNL     1      -9.537  13.333  68.420  1.00  0.00    -0.140 SA 
BRANCH   6   7
HETATM    7  C   UNL     1     -10.685  14.684  68.496  1.00  0.00    -0.247 C  
HETATM    8  S   UNL     1     -10.821  15.846  67.278  1.00  0.00    -0.233 S  
BRANCH   7   9
HETATM    9  N   UNL     1     -11.459  14.718  69.686  1.00  0.00    -0.276 N  
HETATM   10  C   UNL     1     -11.541  15.856  70.612  1.00  0.00    -0.400 C  
HETATM   11  C   UNL     1     -12.285  13.588  70.129  1.00  0.00    -0.330 C  
ENDBRANCH   7   9
ENDBRANCH   6   7
ENDBRANCH   4   6
ENDBRANCH   2   4
TORSDOF 4
ENDMDL
MODEL      258
REMARK 921   NORMALIZED FREE ENERGY PREDICTED BY IDOCK:   -2.01 KCAL/MOL
REMARK 922        TOTAL FREE ENERGY PREDICTED BY IDOCK:   -2.70 KCAL/MOL
REMARK 923 INTER-LIGAND FREE ENERGY PREDICTED BY IDOCK:   -2.44 KCAL/MOL
REMARK 924 INTRA-LIGAND FREE ENERGY PREDICTED BY IDOCK:   -0.26 KCAL/MOL
REMARK 927      BINDING AFFINITY PREDICTED BY RF-SCORE:    0.00 PKD
ROOT
HETATM    1  C   UNL     1      -7.768   8.255  72.097  1.00  0.00    -0.124 C  
HETATM    2  N   UNL     1      -9.217   8.398  72.250  1.00  0.00    -0.238 N  
HETATM    3  C   UNL     1      -9.817   7.690  73.379  1.00  0.00    -0.303 C  
ENDROOT
BRANCH   2   4
HETATM    4  C   UNL     1      -9.980   9.068  71.270  1.00  0.00    -0.311 C  
HETATM    5  S   UNL     1     -11.577   9.581  71.481  1.00  0.00    -0.382 S  
BRANCH   4   6
HETATM    6  S   UNL     1      -9.119   9.568  69.818  1.00  0.00    -0.220 SA 
BRANCH   6   7
HETATM    7  C   UNL     1      -9.670   8.453  68.551  1.00  0.00    -0.160 C  
HETATM    8  S   UNL     1     -10.486   8.968  67.165  1.00  0.00    -0.227 S  
BRANCH   7   9
HETATM    9  N   UNL     1      -9.388   7.089  68.820  1.00  0.00    -0.135 N  
HETATM   10  C   UNL     1      -8.087   6.436  68.621  1.00  0.00    -0.113 C  
HETATM   11  C   UNL     1     -10.396   6.158  69.344  1.00  0.00    -0.227 C  
ENDBRANCH   7   9
ENDBRANCH   6   7
ENDBRANCH   4   6
ENDBRANCH   2   4
TORSDOF 4
ENDMDL
MODEL      259
REMARK 921   NORMALIZED FREE ENERGY PREDICTED BY IDOCK:   -2.00 KCAL/MOL
REMARK 922        TOTAL FREE ENERGY PREDICTED BY IDOCK:   -2.68 KCAL/MOL
REMARK 923 INTER-LIGAND FREE ENERGY PREDICTED BY IDOCK:   -2.60 KCAL/MOL
REMARK 924 INTRA-LIGAND FREE ENERGY PREDICTED BY IDOCK:   -0.08 KCAL/MOL
REMARK 927      BINDING AFFINITY PREDICTED BY RF-SCORE:    0.00 PKD
ROOT
HETATM    1  C   UNL     1      -7.777   8.823  68.687  1.00  0.00    -0.098 C  
HETATM    2  N   UNL     1      -9.161   9.199  68.983  1.00  0.00    -0.142 N  
HETATM    3  C   UNL     1      -9.461   9.498  70.381  1.00  0.00    -0.262 C  
ENDROOT
BRANCH   2   4
HETATM    4  C   UNL     1     -10.154   9.129  67.982  1.00  0.00    -0.196 C  
HETATM    5  S   UNL     1     -10.502   7.751  67.068  1.00  0.00    -0.312 S  
BRANCH   4   6
HETATM    6  S   UNL     1     -11.217  10.526  67.841  1.00  0.00    -0.215 SA 
BRANCH   6   7
HETATM    7  C   UNL     1     -10.468  11.548  66.598  1.00  0.00    -0.238 C  
HETATM    8  S   UNL     1      -9.931  10.947  65.114  1.00  0.00    -0.306 S  
BRANCH   7   9
HETATM    9  N   UNL     1     -10.336  12.910  66.973  1.00  0.00    -0.241 N  
HETATM   10  C   UNL     1      -9.073  13.661  67.011  1.00  0.00    -0.248 C  
HETATM   11  C   UNL     1     -11.480  13.739  67.374  1.00  0.00    -0.345 C  
ENDBRANCH   7   9
ENDBRANCH   6   7
ENDBRANCH   4   6
ENDBRANCH   2   4
TORSDOF 4
ENDMDL
MODEL      260
REMARK 921   NORMALIZED FREE ENERGY PREDICTED BY IDOCK:   -1.98 KCAL/MOL
REMARK 922        TOTAL FREE ENERGY PREDICTED BY IDOCK:   -2.66 KCAL/MOL
REMARK 923 INTER-LIGAND FREE ENERGY PREDICTED BY IDOCK:   -2.66 KCAL/MOL
REMARK 924 INTRA-LIGAND FREE ENERGY PREDICTED BY IDOCK:    0.00 KCAL/MOL
REMARK 927      BINDING AFFINITY PREDICTED BY RF-SCORE:    0.00 PKD
ROOT
HETATM    1  C   UNL     1     -11.853  11.271  67.669  1.00  0.00    -0.019 C  
HETATM    2  N   UNL     1     -10.896  10.164  67.662  1.00  0.00    -0.284 N  
HETATM    3  C   UNL     1     -10.235   9.893  66.387  1.00  0.00    -0.222 C  
ENDROOT
BRANCH   2   4
HETATM    4  C   UNL     1     -10.746   9.336  68.795  1.00  0.00    -0.154 C  
HETATM    5  S   UNL     1     -10.402   7.682  68.739  1.00  0.00    -0.190 S  
BRANCH   4   6
HETATM    6  S   UNL     1     -10.720  10.149  70.357  1.00  0.00    -0.200 SA 
BRANCH   6   7
HETATM    7  C   UNL     1     -10.072   8.946  71.490  1.00  0.00    -0.324 C  
HETATM    8  S   UNL     1      -8.433   8.549  71.571  1.00  0.00    -0.179 S  
BRANCH   7   9
HETATM    9  N   UNL     1     -11.058   8.327  72.301  1.00  0.00    -0.333 N  
HETATM   10  C   UNL     1     -10.799   7.284  73.303  1.00  0.00    -0.358 C  
HETATM   11  C   UNL     1     -12.482   8.675  72.226  1.00  0.00    -0.395 C  
ENDBRANCH   7   9
ENDBRANCH   6   7
ENDBRANCH   4   6
ENDBRANCH   2   4
TORSDOF 4
ENDMDL
MODEL      261
REMARK 921   NORMALIZED FREE ENERGY PREDICTED BY IDOCK:   -1.97 KCAL/MOL
REMARK 922        TOTAL FREE ENERGY PREDICTED BY IDOCK:   -2.65 KCAL/MOL
REMARK 923 INTER-LIGAND FREE ENERGY PREDICTED BY IDOCK:   -2.41 KCAL/MOL
REMARK 924 INTRA-LIGAND FREE ENERGY PREDICTED BY IDOCK:   -0.24 KCAL/MOL
REMARK 927      BINDING AFFINITY PREDICTED BY RF-SCORE:    0.00 PKD
ROOT
HETATM    1  C   UNL     1     -10.345  11.048  69.209  1.00  0.00    -0.154 C  
HETATM    2  N   UNL     1     -11.201  12.201  68.925  1.00  0.00    -0.251 N  
HETATM    3  C   UNL     1     -12.481  12.240  69.629  1.00  0.00     0.179 C  
ENDROOT
BRANCH   2   4
HETATM    4  C   UNL     1     -10.847  13.128  67.923  1.00  0.00    -0.242 C  
HETATM    5  S   UNL     1      -9.840  12.786  66.608  1.00  0.00    -0.255 S  
BRANCH   4   6
HETATM    6  S   UNL     1     -11.686  14.676  67.961  1.00  0.00    -0.321 SA 
BRANCH   6   7
HETATM    7  C   UNL     1     -10.813  15.641  69.167  1.00  0.00    -0.246 C  
HETATM    8  S   UNL     1     -11.249  15.688  70.798  1.00  0.00    -0.379 S  
BRANCH   7   9
HETATM    9  N   UNL     1      -9.733  16.393  68.635  1.00  0.00    -0.230 N  
HETATM   10  C   UNL     1      -8.343  15.927  68.537  1.00  0.00    -0.182 C  
HETATM   11  C   UNL     1      -9.896  17.753  68.108  1.00  0.00    -0.326 C  
ENDBRANCH   7   9
ENDBRANCH   6   7
ENDBRANCH   4   6
ENDBRANCH   2   4
TORSDOF 4
ENDMDL
MODEL      262
REMARK 921   NORMALIZED FREE ENERGY PREDICTED BY IDOCK:   -1.97 KCAL/MOL
REMARK 922        TOTAL FREE ENERGY PREDICTED BY IDOCK:   -2.65 KCAL/MOL
REMARK 923 INTER-LIGAND FREE ENERGY PREDICTED BY IDOCK:   -2.46 KCAL/MOL
REMARK 924 INTRA-LIGAND FREE ENERGY PREDICTED BY IDOCK:   -0.19 KCAL/MOL
REMARK 927      BINDING AFFINITY PREDICTED BY RF-SCORE:    0.00 PKD
ROOT
HETATM    1  C   UNL     1     -10.274   9.130  66.347  1.00  0.00    -0.230 C  
HETATM    2  N   UNL     1      -9.838  10.205  65.454  1.00  0.00    -0.289 N  
HETATM    3  C   UNL     1      -8.881   9.829  64.414  1.00  0.00    -0.227 C  
ENDROOT
BRANCH   2   4
HETATM    4  C   UNL     1     -10.225  11.540  65.694  1.00  0.00    -0.248 C  
HETATM    5  S   UNL     1     -11.729  12.193  65.285  1.00  0.00    -0.253 S  
BRANCH   4   6
HETATM    6  S   UNL     1      -9.122  12.509  66.666  1.00  0.00    -0.167 SA 
BRANCH   6   7
HETATM    7  C   UNL     1      -9.123  11.741  68.266  1.00  0.00    -0.187 C  
HETATM    8  S   UNL     1      -7.753  11.020  68.941  1.00  0.00    -0.132 S  
BRANCH   7   9
HETATM    9  N   UNL     1     -10.385  11.760  68.915  1.00  0.00    -0.173 N  
HETATM   10  C   UNL     1     -10.972  10.638  69.662  1.00  0.00    -0.278 C  
HETATM   11  C   UNL     1     -11.262  12.937  68.912  1.00  0.00    -0.279 C  
ENDBRANCH   7   9
ENDBRANCH   6   7
ENDBRANCH   4   6
ENDBRANCH   2   4
TORSDOF 4
ENDMDL
MODEL      263
REMARK 921   NORMALIZED FREE ENERGY PREDICTED BY IDOCK:   -1.97 KCAL/MOL
REMARK 922        TOTAL FREE ENERGY PREDICTED BY IDOCK:   -2.65 KCAL/MOL
REMARK 923 INTER-LIGAND FREE ENERGY PREDICTED BY IDOCK:   -2.45 KCAL/MOL
REMARK 924 INTRA-LIGAND FREE ENERGY PREDICTED BY IDOCK:   -0.21 KCAL/MOL
REMARK 927      BINDING AFFINITY PREDICTED BY RF-SCORE:    0.00 PKD
ROOT
HETATM    1  C   UNL     1      -7.312  10.965  66.264  1.00  0.00    -0.127 C  
HETATM    2  N   UNL     1      -8.754  11.052  66.030  1.00  0.00    -0.186 N  
HETATM    3  C   UNL     1      -9.197  10.827  64.656  1.00  0.00    -0.219 C  
ENDROOT
BRANCH   2   4
HETATM    4  C   UNL     1      -9.625  11.470  67.059  1.00  0.00    -0.185 C  
HETATM    5  S   UNL     1     -10.959  10.588  67.605  1.00  0.00    -0.305 S  
BRANCH   4   6
HETATM    6  S   UNL     1      -9.146  12.912  67.948  1.00  0.00    -0.208 SA 
BRANCH   6   7
HETATM    7  C   UNL     1      -9.625  14.271  66.912  1.00  0.00    -0.262 C  
HETATM    8  S   UNL     1     -10.847  14.157  65.753  1.00  0.00    -0.307 S  
BRANCH   7   9
HETATM    9  N   UNL     1      -8.869  15.454  67.124  1.00  0.00    -0.199 N  
HETATM   10  C   UNL     1      -8.055  15.738  68.313  1.00  0.00    -0.142 C  
HETATM   11  C   UNL     1      -8.818  16.549  66.148  1.00  0.00    -0.306 C  
ENDBRANCH   7   9
ENDBRANCH   6   7
ENDBRANCH   4   6
ENDBRANCH   2   4
TORSDOF 4
ENDMDL
MODEL      264
REMARK 921   NORMALIZED FREE ENERGY PREDICTED BY IDOCK:   -1.96 KCAL/MOL
REMARK 922        TOTAL FREE ENERGY PREDICTED BY IDOCK:   -2.64 KCAL/MOL
REMARK 923 INTER-LIGAND FREE ENERGY PREDICTED BY IDOCK:   -2.44 KCAL/MOL
REMARK 924 INTRA-LIGAND FREE ENERGY PREDICTED BY IDOCK:   -0.20 KCAL/MOL
REMARK 927      BINDING AFFINITY PREDICTED BY RF-SCORE:    0.00 PKD
ROOT
HETATM    1  C   UNL     1     -10.311  15.591  67.123  1.00  0.00    -0.272 C  
HETATM    2  N   UNL     1     -10.855  14.266  66.818  1.00  0.00    -0.295 N  
HETATM    3  C   UNL     1     -12.311  14.145  66.851  1.00  0.00    -0.258 C  
ENDROOT
BRANCH   2   4
HETATM    4  C   UNL     1      -9.996  13.160  66.645  1.00  0.00    -0.270 C  
HETATM    5  S   UNL     1      -8.420  13.062  67.248  1.00  0.00    -0.185 S  
BRANCH   4   6
HETATM    6  S   UNL     1     -10.713  11.722  65.923  1.00  0.00    -0.290 SA 
BRANCH   6   7
HETATM    7  C   UNL     1     -10.312  10.400  67.037  1.00  0.00    -0.240 C  
HETATM    8  S   UNL     1     -11.092  10.178  68.518  1.00  0.00    -0.174 S  
BRANCH   7   9
HETATM    9  N   UNL     1      -9.258   9.564  66.586  1.00  0.00    -0.147 N  
HETATM   10  C   UNL     1      -8.476   8.653  67.433  1.00  0.00    -0.123 C  
HETATM   11  C   UNL     1      -8.826   9.517  65.183  1.00  0.00    -0.186 C  
ENDBRANCH   7   9
ENDBRANCH   6   7
ENDBRANCH   4   6
ENDBRANCH   2   4
TORSDOF 4
ENDMDL
MODEL      265
REMARK 921   NORMALIZED FREE ENERGY PREDICTED BY IDOCK:   -1.96 KCAL/MOL
REMARK 922        TOTAL FREE ENERGY PREDICTED BY IDOCK:   -2.64 KCAL/MOL
REMARK 923 INTER-LIGAND FREE ENERGY PREDICTED BY IDOCK:   -2.43 KCAL/MOL
REMARK 924 INTRA-LIGAND FREE ENERGY PREDICTED BY IDOCK:   -0.21 KCAL/MOL
REMARK 927      BINDING AFFINITY PREDICTED BY RF-SCORE:    0.00 PKD
ROOT
HETATM    1  C   UNL     1     -12.065   9.782  71.386  1.00  0.00    -0.400 C  
HETATM    2  N   UNL     1     -11.509   8.447  71.159  1.00  0.00    -0.269 N  
HETATM    3  C   UNL     1     -12.196   7.343  71.827  1.00  0.00    -0.326 C  
ENDROOT
BRANCH   2   4
HETATM    4  C   UNL     1     -10.301   8.283  70.450  1.00  0.00    -0.205 C  
HETATM    5  S   UNL     1      -8.776   8.715  71.036  1.00  0.00    -0.204 S  
BRANCH   4   6
HETATM    6  S   UNL     1     -10.399   7.381  68.941  1.00  0.00    -0.205 SA 
BRANCH   6   7
HETATM    7  C   UNL     1      -9.791   8.494  67.700  1.00  0.00    -0.174 C  
HETATM    8  S   UNL     1     -10.539   9.964  67.338  1.00  0.00    -0.265 S  
BRANCH   7   9
HETATM    9  N   UNL     1      -8.636   8.027  67.019  1.00  0.00    -0.125 N  
HETATM   10  C   UNL     1      -7.493   7.355  67.652  1.00  0.00    -0.097 C  
HETATM   11  C   UNL     1      -8.458   8.166  65.569  1.00  0.00    -0.159 C  
ENDBRANCH   7   9
ENDBRANCH   6   7
ENDBRANCH   4   6
ENDBRANCH   2   4
TORSDOF 4
ENDMDL
MODEL      266
REMARK 921   NORMALIZED FREE ENERGY PREDICTED BY IDOCK:   -1.96 KCAL/MOL
REMARK 922        TOTAL FREE ENERGY PREDICTED BY IDOCK:   -2.63 KCAL/MOL
REMARK 923 INTER-LIGAND FREE ENERGY PREDICTED BY IDOCK:   -2.39 KCAL/MOL
REMARK 924 INTRA-LIGAND FREE ENERGY PREDICTED BY IDOCK:   -0.24 KCAL/MOL
REMARK 927      BINDING AFFINITY PREDICTED BY RF-SCORE:    0.00 PKD
ROOT
HETATM    1  C   UNL     1      -9.703   9.140  65.836  1.00  0.00    -0.266 C  
HETATM    2  N   UNL     1      -9.144  10.388  65.317  1.00  0.00    -0.181 N  
HETATM    3  C   UNL     1      -7.689  10.436  65.186  1.00  0.00    -0.110 C  
ENDROOT
BRANCH   2   4
HETATM    4  C   UNL     1      -9.971  11.510  65.098  1.00  0.00    -0.262 C  
HETATM    5  S   UNL     1     -11.110  11.637  63.856  1.00  0.00    -0.395 S  
BRANCH   4   6
HETATM    6  S   UNL     1      -9.933  12.761  66.338  1.00  0.00    -0.269 SA 
BRANCH   6   7
HETATM    7  C   UNL     1      -9.850  11.880  67.876  1.00  0.00    -0.190 C  
HETATM    8  S   UNL     1     -11.210  11.237  68.643  1.00  0.00    -0.279 S  
BRANCH   7   9
HETATM    9  N   UNL     1      -8.542  11.788  68.419  1.00  0.00    -0.164 N  
HETATM   10  C   UNL     1      -7.993  10.617  69.117  1.00  0.00    -0.139 C  
HETATM   11  C   UNL     1      -7.569  12.885  68.338  1.00  0.00    -0.133 C  
ENDBRANCH   7   9
ENDBRANCH   6   7
ENDBRANCH   4   6
ENDBRANCH   2   4
TORSDOF 4
ENDMDL
MODEL      267
REMARK 921   NORMALIZED FREE ENERGY PREDICTED BY IDOCK:   -1.95 KCAL/MOL
REMARK 922        TOTAL FREE ENERGY PREDICTED BY IDOCK:   -2.62 KCAL/MOL
REMARK 923 INTER-LIGAND FREE ENERGY PREDICTED BY IDOCK:   -2.54 KCAL/MOL
REMARK 924 INTRA-LIGAND FREE ENERGY PREDICTED BY IDOCK:   -0.08 KCAL/MOL
REMARK 927      BINDING AFFINITY PREDICTED BY RF-SCORE:    0.00 PKD
ROOT
HETATM    1  C   UNL     1     -10.374   4.751  73.434  1.00  0.00    -0.190 C  
HETATM    2  N   UNL     1      -9.874   4.891  72.065  1.00  0.00    -0.170 N  
HETATM    3  C   UNL     1      -9.376   3.670  71.434  1.00  0.00    -0.141 C  
ENDROOT
BRANCH   2   4
HETATM    4  C   UNL     1      -9.762   6.165  71.468  1.00  0.00    -0.162 C  
HETATM    5  S   UNL     1      -8.501   7.253  71.756  1.00  0.00    -0.111 S  
BRANCH   4   6
HETATM    6  S   UNL     1     -10.918   6.533  70.192  1.00  0.00    -0.350 SA 
BRANCH   6   7
HETATM    7  C   UNL     1     -11.377   8.226  70.464  1.00  0.00    -0.219 C  
HETATM    8  S   UNL     1     -10.577   9.523  69.736  1.00  0.00    -0.249 S  
BRANCH   7   9
HETATM    9  N   UNL     1     -12.458   8.394  71.368  1.00  0.00    -0.303 N  
HETATM   10  C   UNL     1     -13.311   7.313  71.879  1.00  0.00    -0.223 C  
HETATM   11  C   UNL     1     -12.847   9.704  71.906  1.00  0.00    -0.425 C  
ENDBRANCH   7   9
ENDBRANCH   6   7
ENDBRANCH   4   6
ENDBRANCH   2   4
TORSDOF 4
ENDMDL
MODEL      268
REMARK 921   NORMALIZED FREE ENERGY PREDICTED BY IDOCK:   -1.94 KCAL/MOL
REMARK 922        TOTAL FREE ENERGY PREDICTED BY IDOCK:   -2.61 KCAL/MOL
REMARK 923 INTER-LIGAND FREE ENERGY PREDICTED BY IDOCK:   -2.38 KCAL/MOL
REMARK 924 INTRA-LIGAND FREE ENERGY PREDICTED BY IDOCK:   -0.24 KCAL/MOL
REMARK 927      BINDING AFFINITY PREDICTED BY RF-SCORE:    0.00 PKD
ROOT
HETATM    1  C   UNL     1      -9.773   3.553  71.464  1.00  0.00    -0.167 C  
HETATM    2  N   UNL     1      -9.472   4.940  71.108  1.00  0.00    -0.149 N  
HETATM    3  C   UNL     1      -8.864   5.756  72.157  1.00  0.00    -0.137 C  
ENDROOT
BRANCH   2   4
HETATM    4  C   UNL     1      -9.885   5.469  69.867  1.00  0.00    -0.194 C  
HETATM    5  S   UNL     1      -9.266   4.996  68.367  1.00  0.00    -0.126 S  
BRANCH   4   6
HETATM    6  S   UNL     1     -11.279   6.545  69.902  1.00  0.00    -0.407 SA 
BRANCH   6   7
HETATM    7  C   UNL     1     -10.594   8.182  69.931  1.00  0.00    -0.239 C  
HETATM    8  S   UNL     1     -10.751   9.221  71.254  1.00  0.00    -0.361 S  
BRANCH   7   9
HETATM    9  N   UNL     1      -9.928   8.552  68.734  1.00  0.00    -0.181 N  
HETATM   10  C   UNL     1     -10.490   8.439  67.381  1.00  0.00    -0.283 C  
HETATM   11  C   UNL     1      -8.567   9.104  68.719  1.00  0.00    -0.131 C  
ENDBRANCH   7   9
ENDBRANCH   6   7
ENDBRANCH   4   6
ENDBRANCH   2   4
TORSDOF 4
ENDMDL
MODEL      269
REMARK 921   NORMALIZED FREE ENERGY PREDICTED BY IDOCK:   -1.93 KCAL/MOL
REMARK 922        TOTAL FREE ENERGY PREDICTED BY IDOCK:   -2.60 KCAL/MOL
REMARK 923 INTER-LIGAND FREE ENERGY PREDICTED BY IDOCK:   -2.61 KCAL/MOL
REMARK 924 INTRA-LIGAND FREE ENERGY PREDICTED BY IDOCK:    0.01 KCAL/MOL
REMARK 927      BINDING AFFINITY PREDICTED BY RF-SCORE:    0.00 PKD
ROOT
HETATM    1  C   UNL     1     -10.278   9.556  66.918  1.00  0.00    -0.249 C  
HETATM    2  N   UNL     1     -10.812  10.186  68.126  1.00  0.00    -0.251 N  
HETATM    3  C   UNL     1     -11.296  11.557  67.976  1.00  0.00    -0.298 C  
ENDROOT
BRANCH   2   4
HETATM    4  C   UNL     1     -10.722   9.536  69.375  1.00  0.00    -0.225 C  
HETATM    5  S   UNL     1     -11.371  10.132  70.818  1.00  0.00    -0.336 S  
BRANCH   4   6
HETATM    6  S   UNL     1     -10.060   7.904  69.360  1.00  0.00    -0.200 SA 
BRANCH   6   7
HETATM    7  C   UNL     1     -10.369   7.268  70.988  1.00  0.00    -0.199 C  
HETATM    8  S   UNL     1     -11.851   6.604  71.449  1.00  0.00    -0.340 S  
BRANCH   7   9
HETATM    9  N   UNL     1      -9.268   7.393  71.875  1.00  0.00    -0.133 N  
HETATM   10  C   UNL     1      -9.302   8.075  73.176  1.00  0.00    -0.277 C  
HETATM   11  C   UNL     1      -7.942   6.836  71.581  1.00  0.00    -0.102 C  
ENDBRANCH   7   9
ENDBRANCH   6   7
ENDBRANCH   4   6
ENDBRANCH   2   4
TORSDOF 4
ENDMDL
MODEL      270
REMARK 921   NORMALIZED FREE ENERGY PREDICTED BY IDOCK:   -1.92 KCAL/MOL
REMARK 922        TOTAL FREE ENERGY PREDICTED BY IDOCK:   -2.59 KCAL/MOL
REMARK 923 INTER-LIGAND FREE ENERGY PREDICTED BY IDOCK:   -2.36 KCAL/MOL
REMARK 924 INTRA-LIGAND FREE ENERGY PREDICTED BY IDOCK:   -0.24 KCAL/MOL
REMARK 927      BINDING AFFINITY PREDICTED BY RF-SCORE:    0.00 PKD
ROOT
HETATM    1  C   UNL     1      -9.592   9.508  65.464  1.00  0.00    -0.279 C  
HETATM    2  N   UNL     1     -10.168   9.107  66.749  1.00  0.00    -0.262 N  
HETATM    3  C   UNL     1     -10.872  10.151  67.491  1.00  0.00    -0.290 C  
ENDROOT
BRANCH   2   4
HETATM    4  C   UNL     1      -9.921   7.823  67.277  1.00  0.00    -0.212 C  
HETATM    5  S   UNL     1     -10.888   6.465  66.995  1.00  0.00    -0.371 S  
BRANCH   4   6
HETATM    6  S   UNL     1      -8.388   7.606  68.116  1.00  0.00    -0.124 SA 
BRANCH   6   7
HETATM    7  C   UNL     1      -8.552   8.535  69.620  1.00  0.00    -0.131 C  
HETATM    8  S   UNL     1      -7.743   9.991  69.893  1.00  0.00    -0.162 S  
BRANCH   7   9
HETATM    9  N   UNL     1      -9.402   7.930  70.583  1.00  0.00    -0.158 N  
HETATM   10  C   UNL     1     -10.802   8.302  70.831  1.00  0.00    -0.230 C  
HETATM   11  C   UNL     1      -8.960   6.837  71.457  1.00  0.00    -0.137 C  
ENDBRANCH   7   9
ENDBRANCH   6   7
ENDBRANCH   4   6
ENDBRANCH   2   4
TORSDOF 4
ENDMDL
MODEL      271
REMARK 921   NORMALIZED FREE ENERGY PREDICTED BY IDOCK:   -1.91 KCAL/MOL
REMARK 922        TOTAL FREE ENERGY PREDICTED BY IDOCK:   -2.57 KCAL/MOL
REMARK 923 INTER-LIGAND FREE ENERGY PREDICTED BY IDOCK:   -2.62 KCAL/MOL
REMARK 924 INTRA-LIGAND FREE ENERGY PREDICTED BY IDOCK:    0.05 KCAL/MOL
REMARK 927      BINDING AFFINITY PREDICTED BY RF-SCORE:    0.00 PKD
ROOT
HETATM    1  C   UNL     1      -8.656  19.825  66.325  1.00  0.00    -0.364 C  
HETATM    2  N   UNL     1      -9.836  18.969  66.455  1.00  0.00    -0.348 N  
HETATM    3  C   UNL     1     -11.030  19.405  65.734  1.00  0.00    -0.141 C  
ENDROOT
BRANCH   2   4
HETATM    4  C   UNL     1      -9.834  17.873  67.343  1.00  0.00    -0.305 C  
HETATM    5  S   UNL     1     -10.404  16.327  66.964  1.00  0.00    -0.289 S  
BRANCH   4   6
HETATM    6  S   UNL     1      -8.991  18.109  68.871  1.00  0.00    -0.041 SA 
BRANCH   6   7
HETATM    7  C   UNL     1      -7.299  17.696  68.531  1.00  0.00    -0.256 C  
HETATM    8  S   UNL     1      -6.810  16.160  68.030  1.00  0.00    -0.135 S  
BRANCH   7   9
HETATM    9  N   UNL     1      -6.390  18.765  68.745  1.00  0.00    -0.228 N  
HETATM   10  C   UNL     1      -6.492  19.763  69.818  1.00  0.00    -0.347 C  
HETATM   11  C   UNL     1      -5.215  18.991  67.894  1.00  0.00    -0.168 C  
ENDBRANCH   7   9
ENDBRANCH   6   7
ENDBRANCH   4   6
ENDBRANCH   2   4
TORSDOF 4
ENDMDL
MODEL      272
REMARK 921   NORMALIZED FREE ENERGY PREDICTED BY IDOCK:   -1.91 KCAL/MOL
REMARK 922        TOTAL FREE ENERGY PREDICTED BY IDOCK:   -2.57 KCAL/MOL
REMARK 923 INTER-LIGAND FREE ENERGY PREDICTED BY IDOCK:   -2.37 KCAL/MOL
REMARK 924 INTRA-LIGAND FREE ENERGY PREDICTED BY IDOCK:   -0.20 KCAL/MOL
REMARK 927      BINDING AFFINITY PREDICTED BY RF-SCORE:    0.00 PKD
ROOT
HETATM    1  C   UNL     1      -8.786   5.234  66.656  1.00  0.00    -0.113 C  
HETATM    2  N   UNL     1      -8.725   6.295  67.663  1.00  0.00    -0.114 N  
HETATM    3  C   UNL     1      -7.973   7.492  67.291  1.00  0.00    -0.118 C  
ENDROOT
BRANCH   2   4
HETATM    4  C   UNL     1      -9.248   6.088  68.956  1.00  0.00    -0.121 C  
HETATM    5  S   UNL     1      -8.316   5.927  70.357  1.00  0.00    -0.124 S  
BRANCH   4   6
HETATM    6  S   UNL     1     -10.997   6.213  69.119  1.00  0.00    -0.373 SA 
BRANCH   6   7
HETATM    7  C   UNL     1     -11.256   7.448  70.366  1.00  0.00    -0.262 C  
HETATM    8  S   UNL     1     -10.639   9.016  70.250  1.00  0.00    -0.229 S  
BRANCH   7   9
HETATM    9  N   UNL     1     -12.003   6.993  71.484  1.00  0.00    -0.313 N  
HETATM   10  C   UNL     1     -11.518   6.052  72.502  1.00  0.00    -0.290 C  
HETATM   11  C   UNL     1     -13.380   7.429  71.750  1.00  0.00    -0.312 C  
ENDBRANCH   7   9
ENDBRANCH   6   7
ENDBRANCH   4   6
ENDBRANCH   2   4
TORSDOF 4
ENDMDL
MODEL      273
REMARK 921   NORMALIZED FREE ENERGY PREDICTED BY IDOCK:   -1.91 KCAL/MOL
REMARK 922        TOTAL FREE ENERGY PREDICTED BY IDOCK:   -2.57 KCAL/MOL
REMARK 923 INTER-LIGAND FREE ENERGY PREDICTED BY IDOCK:   -2.37 KCAL/MOL
REMARK 924 INTRA-LIGAND FREE ENERGY PREDICTED BY IDOCK:   -0.20 KCAL/MOL
REMARK 927      BINDING AFFINITY PREDICTED BY RF-SCORE:    0.00 PKD
ROOT
HETATM    1  C   UNL     1     -10.635  10.930  69.195  1.00  0.00    -0.220 C  
HETATM    2  N   UNL     1     -10.164   9.897  70.120  1.00  0.00    -0.268 N  
HETATM    3  C   UNL     1     -11.069   9.554  71.215  1.00  0.00    -0.379 C  
ENDROOT
BRANCH   2   4
HETATM    4  C   UNL     1      -8.854   9.384  70.017  1.00  0.00    -0.211 C  
HETATM    5  S   UNL     1      -7.463  10.328  69.835  1.00  0.00    -0.123 S  
BRANCH   4   6
HETATM    6  S   UNL     1      -8.668   7.657  70.304  1.00  0.00    -0.145 SA 
BRANCH   6   7
HETATM    7  C   UNL     1      -9.797   6.880  69.175  1.00  0.00    -0.156 C  
HETATM    8  S   UNL     1     -11.276   6.224  69.659  1.00  0.00    -0.417 S  
BRANCH   7   9
HETATM    9  N   UNL     1      -9.333   6.834  67.834  1.00  0.00    -0.115 N  
HETATM   10  C   UNL     1      -9.760   7.739  66.758  1.00  0.00    -0.227 C  
HETATM   11  C   UNL     1      -8.348   5.851  67.368  1.00  0.00    -0.105 C  
ENDBRANCH   7   9
ENDBRANCH   6   7
ENDBRANCH   4   6
ENDBRANCH   2   4
TORSDOF 4
ENDMDL
MODEL      274
REMARK 921   NORMALIZED FREE ENERGY PREDICTED BY IDOCK:   -1.90 KCAL/MOL
REMARK 922        TOTAL FREE ENERGY PREDICTED BY IDOCK:   -2.57 KCAL/MOL
REMARK 923 INTER-LIGAND FREE ENERGY PREDICTED BY IDOCK:   -2.29 KCAL/MOL
REMARK 924 INTRA-LIGAND FREE ENERGY PREDICTED BY IDOCK:   -0.28 KCAL/MOL
REMARK 927      BINDING AFFINITY PREDICTED BY RF-SCORE:    0.00 PKD
ROOT
HETATM    1  C   UNL     1      -8.986  10.267  69.082  1.00  0.00    -0.180 C  
HETATM    2  N   UNL     1      -9.590   9.452  68.027  1.00  0.00    -0.137 N  
HETATM    3  C   UNL     1     -10.367  10.175  67.021  1.00  0.00    -0.244 C  
ENDROOT
BRANCH   2   4
HETATM    4  C   UNL     1      -9.528   8.044  68.082  1.00  0.00    -0.143 C  
HETATM    5  S   UNL     1     -10.092   7.008  66.871  1.00  0.00    -0.221 S  
BRANCH   4   6
HETATM    6  S   UNL     1      -8.615   7.355  69.422  1.00  0.00    -0.133 SA 
BRANCH   6   7
HETATM    7  C   UNL     1      -9.839   6.655  70.500  1.00  0.00    -0.176 C  
HETATM    8  S   UNL     1     -10.124   4.994  70.612  1.00  0.00    -0.233 S  
BRANCH   7   9
HETATM    9  N   UNL     1     -10.577   7.617  71.238  1.00  0.00    -0.218 N  
HETATM   10  C   UNL     1     -12.026   7.836  71.134  1.00  0.00    -0.291 C  
HETATM   11  C   UNL     1      -9.953   8.520  72.213  1.00  0.00    -0.315 C  
ENDBRANCH   7   9
ENDBRANCH   6   7
ENDBRANCH   4   6
ENDBRANCH   2   4
TORSDOF 4
ENDMDL
MODEL      275
REMARK 921   NORMALIZED FREE ENERGY PREDICTED BY IDOCK:   -1.90 KCAL/MOL
REMARK 922        TOTAL FREE ENERGY PREDICTED BY IDOCK:   -2.57 KCAL/MOL
REMARK 923 INTER-LIGAND FREE ENERGY PREDICTED BY IDOCK:   -2.43 KCAL/MOL
REMARK 924 INTRA-LIGAND FREE ENERGY PREDICTED BY IDOCK:   -0.14 KCAL/MOL
REMARK 927      BINDING AFFINITY PREDICTED BY RF-SCORE:    0.00 PKD
ROOT
HETATM    1  C   UNL     1      -7.449  10.560  68.212  1.00  0.00    -0.090 C  
HETATM    2  N   UNL     1      -8.732  10.583  67.508  1.00  0.00    -0.125 N  
HETATM    3  C   UNL     1      -9.494   9.336  67.521  1.00  0.00    -0.132 C  
ENDROOT
BRANCH   2   4
HETATM    4  C   UNL     1      -9.118  11.711  66.754  1.00  0.00    -0.186 C  
HETATM    5  S   UNL     1     -10.207  11.676  65.461  1.00  0.00    -0.271 S  
BRANCH   4   6
HETATM    6  S   UNL     1      -8.567  13.274  67.350  1.00  0.00    -0.213 SA 
BRANCH   6   7
HETATM    7  C   UNL     1     -10.049  14.139  67.804  1.00  0.00    -0.239 C  
HETATM    8  S   UNL     1     -11.308  13.417  68.668  1.00  0.00    -0.308 S  
BRANCH   7   9
HETATM    9  N   UNL     1     -10.094  15.484  67.352  1.00  0.00    -0.243 N  
HETATM   10  C   UNL     1     -10.992  16.524  67.874  1.00  0.00    -0.288 C  
HETATM   11  C   UNL     1      -9.222  15.994  66.287  1.00  0.00    -0.333 C  
ENDBRANCH   7   9
ENDBRANCH   6   7
ENDBRANCH   4   6
ENDBRANCH   2   4
TORSDOF 4
ENDMDL
MODEL      276
REMARK 921   NORMALIZED FREE ENERGY PREDICTED BY IDOCK:   -1.90 KCAL/MOL
REMARK 922        TOTAL FREE ENERGY PREDICTED BY IDOCK:   -2.56 KCAL/MOL
REMARK 923 INTER-LIGAND FREE ENERGY PREDICTED BY IDOCK:   -2.80 KCAL/MOL
REMARK 924 INTRA-LIGAND FREE ENERGY PREDICTED BY IDOCK:    0.23 KCAL/MOL
REMARK 927      BINDING AFFINITY PREDICTED BY RF-SCORE:    0.00 PKD
ROOT
HETATM    1  C   UNL     1     -11.767  12.483  66.754  1.00  0.00    -0.384 C  
HETATM    2  N   UNL     1     -10.851  11.454  67.249  1.00  0.00    -0.247 N  
HETATM    3  C   UNL     1     -10.049  10.768  66.238  1.00  0.00    -0.232 C  
ENDROOT
BRANCH   2   4
HETATM    4  C   UNL     1     -10.865  11.072  68.607  1.00  0.00    -0.215 C  
HETATM    5  S   UNL     1     -12.086  11.473  69.706  1.00  0.00    -0.284 S  
BRANCH   4   6
HETATM    6  S   UNL     1      -9.618   9.936  69.111  1.00  0.00    -0.211 SA 
BRANCH   6   7
HETATM    7  C   UNL     1     -10.494   8.452  69.535  1.00  0.00    -0.224 C  
HETATM    8  S   UNL     1     -11.310   8.253  71.000  1.00  0.00    -0.271 S  
BRANCH   7   9
HETATM    9  N   UNL     1     -10.424   7.436  68.546  1.00  0.00    -0.197 N  
HETATM   10  C   UNL     1     -10.396   7.666  67.095  1.00  0.00    -0.315 C  
HETATM   11  C   UNL     1     -10.367   6.007  68.878  1.00  0.00    -0.218 C  
ENDBRANCH   7   9
ENDBRANCH   6   7
ENDBRANCH   4   6
ENDBRANCH   2   4
TORSDOF 4
ENDMDL
MODEL      277
REMARK 921   NORMALIZED FREE ENERGY PREDICTED BY IDOCK:   -1.90 KCAL/MOL
REMARK 922        TOTAL FREE ENERGY PREDICTED BY IDOCK:   -2.56 KCAL/MOL
REMARK 923 INTER-LIGAND FREE ENERGY PREDICTED BY IDOCK:   -2.36 KCAL/MOL
REMARK 924 INTRA-LIGAND FREE ENERGY PREDICTED BY IDOCK:   -0.19 KCAL/MOL
REMARK 927      BINDING AFFINITY PREDICTED BY RF-SCORE:    0.00 PKD
ROOT
HETATM    1  C   UNL     1      -7.063   8.811  66.985  1.00  0.00    -0.078 C  
HETATM    2  N   UNL     1      -7.623   9.678  68.023  1.00  0.00    -0.083 N  
HETATM    3  C   UNL     1      -6.759  10.761  68.491  1.00  0.00    -0.057 C  
ENDROOT
BRANCH   2   4
HETATM    4  C   UNL     1      -8.867   9.378  68.616  1.00  0.00    -0.132 C  
HETATM    5  S   UNL     1      -9.164   9.379  70.280  1.00  0.00    -0.256 S  
BRANCH   4   6
HETATM    6  S   UNL     1     -10.230   9.190  67.517  1.00  0.00    -0.262 SA 
BRANCH   6   7
HETATM    7  C   UNL     1     -10.815  10.840  67.225  1.00  0.00    -0.288 C  
HETATM    8  S   UNL     1     -11.604  11.757  68.403  1.00  0.00    -0.324 S  
BRANCH   7   9
HETATM    9  N   UNL     1     -10.587  11.309  65.905  1.00  0.00    -0.262 N  
HETATM   10  C   UNL     1     -10.028  10.510  64.807  1.00  0.00    -0.345 C  
HETATM   11  C   UNL     1     -10.897  12.681  65.485  1.00  0.00    -0.279 C  
ENDBRANCH   7   9
ENDBRANCH   6   7
ENDBRANCH   4   6
ENDBRANCH   2   4
TORSDOF 4
ENDMDL
MODEL      278
REMARK 921   NORMALIZED FREE ENERGY PREDICTED BY IDOCK:   -1.89 KCAL/MOL
REMARK 922        TOTAL FREE ENERGY PREDICTED BY IDOCK:   -2.55 KCAL/MOL
REMARK 923 INTER-LIGAND FREE ENERGY PREDICTED BY IDOCK:   -2.35 KCAL/MOL
REMARK 924 INTRA-LIGAND FREE ENERGY PREDICTED BY IDOCK:   -0.20 KCAL/MOL
REMARK 927      BINDING AFFINITY PREDICTED BY RF-SCORE:    0.00 PKD
ROOT
HETATM    1  C   UNL     1     -11.879  12.615  66.161  1.00  0.00    -0.418 C  
HETATM    2  N   UNL     1     -10.989  11.532  65.737  1.00  0.00    -0.277 N  
HETATM    3  C   UNL     1     -10.775  11.404  64.297  1.00  0.00    -0.356 C  
ENDROOT
BRANCH   2   4
HETATM    4  C   UNL     1     -10.496  10.599  66.673  1.00  0.00    -0.237 C  
HETATM    5  S   UNL     1     -10.956  10.532  68.298  1.00  0.00    -0.278 S  
BRANCH   4   6
HETATM    6  S   UNL     1      -9.490   9.305  66.028  1.00  0.00    -0.264 SA 
BRANCH   6   7
HETATM    7  C   UNL     1      -7.946   9.452  66.890  1.00  0.00    -0.109 C  
HETATM    8  S   UNL     1      -6.875  10.736  66.645  1.00  0.00    -0.133 S  
BRANCH   7   9
HETATM    9  N   UNL     1      -7.677   8.381  67.781  1.00  0.00    -0.102 N  
HETATM   10  C   UNL     1      -6.395   8.144  68.460  1.00  0.00    -0.053 C  
HETATM   11  C   UNL     1      -8.680   7.368  68.132  1.00  0.00    -0.122 C  
ENDBRANCH   7   9
ENDBRANCH   6   7
ENDBRANCH   4   6
ENDBRANCH   2   4
TORSDOF 4
ENDMDL
MODEL      279
REMARK 921   NORMALIZED FREE ENERGY PREDICTED BY IDOCK:   -1.89 KCAL/MOL
REMARK 922        TOTAL FREE ENERGY PREDICTED BY IDOCK:   -2.55 KCAL/MOL
REMARK 923 INTER-LIGAND FREE ENERGY PREDICTED BY IDOCK:   -2.35 KCAL/MOL
REMARK 924 INTRA-LIGAND FREE ENERGY PREDICTED BY IDOCK:   -0.20 KCAL/MOL
REMARK 927      BINDING AFFINITY PREDICTED BY RF-SCORE:    0.00 PKD
ROOT
HETATM    1  C   UNL     1     -10.692   5.761  70.248  1.00  0.00    -0.309 C  
HETATM    2  N   UNL     1     -10.129   7.037  70.693  1.00  0.00    -0.191 N  
HETATM    3  C   UNL     1      -9.203   6.973  71.822  1.00  0.00    -0.141 C  
ENDROOT
BRANCH   2   4
HETATM    4  C   UNL     1     -10.580   8.254  70.139  1.00  0.00    -0.233 C  
HETATM    5  S   UNL     1     -11.200   9.547  71.034  1.00  0.00    -0.392 S  
BRANCH   4   6
HETATM    6  S   UNL     1     -10.277   8.487  68.420  1.00  0.00    -0.199 SA 
BRANCH   6   7
HETATM    7  C   UNL     1      -9.237   9.923  68.328  1.00  0.00    -0.129 C  
HETATM    8  S   UNL     1      -7.690   9.981  69.001  1.00  0.00    -0.103 S  
BRANCH   7   9
HETATM    9  N   UNL     1      -9.833  11.026  67.663  1.00  0.00    -0.171 N  
HETATM   10  C   UNL     1     -11.232  11.450  67.810  1.00  0.00    -0.283 C  
HETATM   11  C   UNL     1      -9.092  11.887  66.732  1.00  0.00    -0.197 C  
ENDBRANCH   7   9
ENDBRANCH   6   7
ENDBRANCH   4   6
ENDBRANCH   2   4
TORSDOF 4
ENDMDL
MODEL      280
REMARK 921   NORMALIZED FREE ENERGY PREDICTED BY IDOCK:   -1.89 KCAL/MOL
REMARK 922        TOTAL FREE ENERGY PREDICTED BY IDOCK:   -2.55 KCAL/MOL
REMARK 923 INTER-LIGAND FREE ENERGY PREDICTED BY IDOCK:   -2.22 KCAL/MOL
REMARK 924 INTRA-LIGAND FREE ENERGY PREDICTED BY IDOCK:   -0.33 KCAL/MOL
REMARK 927      BINDING AFFINITY PREDICTED BY RF-SCORE:    0.00 PKD
ROOT
HETATM    1  C   UNL     1      -9.069  12.186  68.105  1.00  0.00    -0.196 C  
HETATM    2  N   UNL     1      -8.770  10.915  68.766  1.00  0.00    -0.160 N  
HETATM    3  C   UNL     1      -7.474  10.316  68.452  1.00  0.00    -0.090 C  
ENDROOT
BRANCH   2   4
HETATM    4  C   UNL     1      -9.750  10.261  69.542  1.00  0.00    -0.211 C  
HETATM    5  S   UNL     1     -11.384  10.692  69.590  1.00  0.00    -0.317 S  
BRANCH   4   6
HETATM    6  S   UNL     1      -9.246   8.778  70.347  1.00  0.00    -0.195 SA 
BRANCH   6   7
HETATM    7  C   UNL     1      -9.971   7.468  69.393  1.00  0.00    -0.178 C  
HETATM    8  S   UNL     1     -11.302   6.574  69.921  1.00  0.00    -0.396 S  
BRANCH   7   9
HETATM    9  N   UNL     1      -9.314   7.221  68.159  1.00  0.00    -0.132 N  
HETATM   10  C   UNL     1      -8.032   6.519  68.007  1.00  0.00    -0.109 C  
HETATM   11  C   UNL     1      -9.863   7.650  66.867  1.00  0.00    -0.234 C  
ENDBRANCH   7   9
ENDBRANCH   6   7
ENDBRANCH   4   6
ENDBRANCH   2   4
TORSDOF 4
ENDMDL
MODEL      281
REMARK 921   NORMALIZED FREE ENERGY PREDICTED BY IDOCK:   -1.88 KCAL/MOL
REMARK 922        TOTAL FREE ENERGY PREDICTED BY IDOCK:   -2.54 KCAL/MOL
REMARK 923 INTER-LIGAND FREE ENERGY PREDICTED BY IDOCK:   -2.30 KCAL/MOL
REMARK 924 INTRA-LIGAND FREE ENERGY PREDICTED BY IDOCK:   -0.23 KCAL/MOL
REMARK 927      BINDING AFFINITY PREDICTED BY RF-SCORE:    0.00 PKD
ROOT
HETATM    1  C   UNL     1     -10.076  16.434  68.682  1.00  0.00    -0.244 C  
HETATM    2  N   UNL     1      -9.214  15.622  67.822  1.00  0.00    -0.193 N  
HETATM    3  C   UNL     1      -7.869  16.142  67.584  1.00  0.00    -0.147 C  
ENDROOT
BRANCH   2   4
HETATM    4  C   UNL     1      -9.724  14.482  67.164  1.00  0.00    -0.240 C  
HETATM    5  S   UNL     1     -10.180  14.435  65.537  1.00  0.00    -0.373 S  
BRANCH   4   6
HETATM    6  S   UNL     1      -9.681  12.974  68.071  1.00  0.00    -0.228 SA 
BRANCH   6   7
HETATM    7  C   UNL     1      -8.397  12.015  67.308  1.00  0.00    -0.176 C  
HETATM    8  S   UNL     1      -6.757  12.249  67.637  1.00  0.00    -0.142 S  
BRANCH   7   9
HETATM    9  N   UNL     1      -8.869  11.055  66.376  1.00  0.00    -0.171 N  
HETATM   10  C   UNL     1     -10.266  10.619  66.242  1.00  0.00    -0.245 C  
HETATM   11  C   UNL     1      -7.987  10.378  65.417  1.00  0.00    -0.147 C  
ENDBRANCH   7   9
ENDBRANCH   6   7
ENDBRANCH   4   6
ENDBRANCH   2   4
TORSDOF 4
ENDMDL
MODEL      282
REMARK 921   NORMALIZED FREE ENERGY PREDICTED BY IDOCK:   -1.88 KCAL/MOL
REMARK 922        TOTAL FREE ENERGY PREDICTED BY IDOCK:   -2.54 KCAL/MOL
REMARK 923 INTER-LIGAND FREE ENERGY PREDICTED BY IDOCK:   -2.25 KCAL/MOL
REMARK 924 INTRA-LIGAND FREE ENERGY PREDICTED BY IDOCK:   -0.29 KCAL/MOL
REMARK 927      BINDING AFFINITY PREDICTED BY RF-SCORE:    0.00 PKD
ROOT
HETATM    1  C   UNL     1     -10.784   7.084  67.427  1.00  0.00    -0.313 C  
HETATM    2  N   UNL     1      -9.565   7.252  68.220  1.00  0.00    -0.147 N  
HETATM    3  C   UNL     1      -8.827   8.496  68.008  1.00  0.00    -0.142 C  
ENDROOT
BRANCH   2   4
HETATM    4  C   UNL     1      -9.081   6.200  69.026  1.00  0.00    -0.124 C  
HETATM    5  S   UNL     1      -7.446   5.886  69.317  1.00  0.00    -0.086 S  
BRANCH   4   6
HETATM    6  S   UNL     1     -10.288   5.296  69.936  1.00  0.00    -0.275 SA 
BRANCH   6   7
HETATM    7  C   UNL     1     -10.824   6.405  71.214  1.00  0.00    -0.257 C  
HETATM    8  S   UNL     1     -12.372   7.079  71.256  1.00  0.00    -0.374 S  
BRANCH   7   9
HETATM    9  N   UNL     1      -9.828   6.697  72.182  1.00  0.00    -0.158 N  
HETATM   10  C   UNL     1      -9.498   8.039  72.681  1.00  0.00    -0.250 C  
HETATM   11  C   UNL     1      -8.999   5.659  72.806  1.00  0.00    -0.124 C  
ENDBRANCH   7   9
ENDBRANCH   6   7
ENDBRANCH   4   6
ENDBRANCH   2   4
TORSDOF 4
ENDMDL
MODEL      283
REMARK 921   NORMALIZED FREE ENERGY PREDICTED BY IDOCK:   -1.88 KCAL/MOL
REMARK 922        TOTAL FREE ENERGY PREDICTED BY IDOCK:   -2.54 KCAL/MOL
REMARK 923 INTER-LIGAND FREE ENERGY PREDICTED BY IDOCK:   -2.44 KCAL/MOL
REMARK 924 INTRA-LIGAND FREE ENERGY PREDICTED BY IDOCK:   -0.10 KCAL/MOL
REMARK 927      BINDING AFFINITY PREDICTED BY RF-SCORE:    0.00 PKD
ROOT
HETATM    1  C   UNL     1     -11.063   5.049  73.473  1.00  0.00    -0.317 C  
HETATM    2  N   UNL     1     -10.531   4.817  72.129  1.00  0.00    -0.199 N  
HETATM    3  C   UNL     1      -9.724   3.610  71.957  1.00  0.00    -0.168 C  
ENDROOT
BRANCH   2   4
HETATM    4  C   UNL     1     -10.685   5.788  71.118  1.00  0.00    -0.261 C  
HETATM    5  S   UNL     1     -12.005   6.836  70.984  1.00  0.00    -0.362 S  
BRANCH   4   6
HETATM    6  S   UNL     1      -9.301   6.037  70.058  1.00  0.00    -0.154 SA 
BRANCH   6   7
HETATM    7  C   UNL     1      -9.422   7.729  69.535  1.00  0.00    -0.160 C  
HETATM    8  S   UNL     1      -8.977   9.029  70.518  1.00  0.00    -0.232 S  
BRANCH   7   9
HETATM    9  N   UNL     1      -9.951   7.894  68.229  1.00  0.00    -0.174 N  
HETATM   10  C   UNL     1      -9.944   6.870  67.176  1.00  0.00    -0.183 C  
HETATM   11  C   UNL     1     -10.583   9.141  67.779  1.00  0.00    -0.227 C  
ENDBRANCH   7   9
ENDBRANCH   6   7
ENDBRANCH   4   6
ENDBRANCH   2   4
TORSDOF 4
ENDMDL
MODEL      284
REMARK 921   NORMALIZED FREE ENERGY PREDICTED BY IDOCK:   -1.87 KCAL/MOL
REMARK 922        TOTAL FREE ENERGY PREDICTED BY IDOCK:   -2.53 KCAL/MOL
REMARK 923 INTER-LIGAND FREE ENERGY PREDICTED BY IDOCK:   -2.22 KCAL/MOL
REMARK 924 INTRA-LIGAND FREE ENERGY PREDICTED BY IDOCK:   -0.30 KCAL/MOL
REMARK 927      BINDING AFFINITY PREDICTED BY RF-SCORE:    0.00 PKD
ROOT
HETATM    1  C   UNL     1      -9.037   3.942  66.832  1.00  0.00    -0.151 C  
HETATM    2  N   UNL     1      -9.289   4.675  68.073  1.00  0.00    -0.128 N  
HETATM    3  C   UNL     1      -9.404   3.867  69.285  1.00  0.00    -0.172 C  
ENDROOT
BRANCH   2   4
HETATM    4  C   UNL     1      -9.542   6.063  68.049  1.00  0.00    -0.117 C  
HETATM    5  S   UNL     1     -10.840   6.790  67.247  1.00  0.00    -0.373 S  
BRANCH   4   6
HETATM    6  S   UNL     1      -8.537   7.057  69.099  1.00  0.00    -0.132 SA 
BRANCH   6   7
HETATM    7  C   UNL     1      -9.683   7.994  70.079  1.00  0.00    -0.173 C  
HETATM    8  S   UNL     1      -9.886   9.662  69.912  1.00  0.00    -0.252 S  
BRANCH   7   9
HETATM    9  N   UNL     1     -10.393   7.221  71.034  1.00  0.00    -0.200 N  
HETATM   10  C   UNL     1     -11.814   6.858  70.944  1.00  0.00    -0.376 C  
HETATM   11  C   UNL     1      -9.764   6.685  72.248  1.00  0.00    -0.148 C  
ENDBRANCH   7   9
ENDBRANCH   6   7
ENDBRANCH   4   6
ENDBRANCH   2   4
TORSDOF 4
ENDMDL
MODEL      285
REMARK 921   NORMALIZED FREE ENERGY PREDICTED BY IDOCK:   -1.87 KCAL/MOL
REMARK 922        TOTAL FREE ENERGY PREDICTED BY IDOCK:   -2.52 KCAL/MOL
REMARK 923 INTER-LIGAND FREE ENERGY PREDICTED BY IDOCK:   -2.30 KCAL/MOL
REMARK 924 INTRA-LIGAND FREE ENERGY PREDICTED BY IDOCK:   -0.22 KCAL/MOL
REMARK 927      BINDING AFFINITY PREDICTED BY RF-SCORE:    0.00 PKD
ROOT
HETATM    1  C   UNL     1     -11.265  12.110  65.130  1.00  0.00    -0.329 C  
HETATM    2  N   UNL     1     -10.202  11.131  64.893  1.00  0.00    -0.283 N  
HETATM    3  C   UNL     1      -9.911  10.824  63.494  1.00  0.00    -0.347 C  
ENDROOT
BRANCH   2   4
HETATM    4  C   UNL     1      -9.611  10.438  65.971  1.00  0.00    -0.201 C  
HETATM    5  S   UNL     1     -10.268   9.065  66.707  1.00  0.00    -0.252 S  
BRANCH   4   6
HETATM    6  S   UNL     1      -7.985  10.941  66.423  1.00  0.00    -0.156 SA 
BRANCH   6   7
HETATM    7  C   UNL     1      -8.195  11.890  67.908  1.00  0.00    -0.150 C  
HETATM    8  S   UNL     1      -8.988  13.380  67.943  1.00  0.00    -0.211 S  
BRANCH   7   9
HETATM    9  N   UNL     1      -7.612  11.298  69.059  1.00  0.00    -0.126 N  
HETATM   10  C   UNL     1      -8.028  10.023  69.660  1.00  0.00    -0.170 C  
HETATM   11  C   UNL     1      -6.498  11.914  69.791  1.00  0.00    -0.077 C  
ENDBRANCH   7   9
ENDBRANCH   6   7
ENDBRANCH   4   6
ENDBRANCH   2   4
TORSDOF 4
ENDMDL
MODEL      286
REMARK 921   NORMALIZED FREE ENERGY PREDICTED BY IDOCK:   -1.86 KCAL/MOL
REMARK 922        TOTAL FREE ENERGY PREDICTED BY IDOCK:   -2.52 KCAL/MOL
REMARK 923 INTER-LIGAND FREE ENERGY PREDICTED BY IDOCK:   -2.32 KCAL/MOL
REMARK 924 INTRA-LIGAND FREE ENERGY PREDICTED BY IDOCK:   -0.19 KCAL/MOL
REMARK 927      BINDING AFFINITY PREDICTED BY RF-SCORE:    0.00 PKD
ROOT
HETATM    1  C   UNL     1     -10.509  13.299  67.640  1.00  0.00    -0.229 C  
HETATM    2  N   UNL     1     -10.527  14.631  68.248  1.00  0.00    -0.232 N  
HETATM    3  C   UNL     1     -11.292  14.762  69.486  1.00  0.00    -0.283 C  
ENDROOT
BRANCH   2   4
HETATM    4  C   UNL     1      -9.949  15.732  67.582  1.00  0.00    -0.239 C  
HETATM    5  S   UNL     1     -10.630  17.278  67.511  1.00  0.00    -0.289 S  
BRANCH   4   6
HETATM    6  S   UNL     1      -8.315  15.502  66.967  1.00  0.00    -0.252 SA 
BRANCH   6   7
HETATM    7  C   UNL     1      -7.252  15.862  68.341  1.00  0.00    -0.121 C  
HETATM    8  S   UNL     1      -7.065  14.819  69.657  1.00  0.00    -0.125 S  
BRANCH   7   9
HETATM    9  N   UNL     1      -6.594  17.116  68.251  1.00  0.00    -0.154 N  
HETATM   10  C   UNL     1      -5.174  17.307  67.926  1.00  0.00    -0.118 C  
HETATM   11  C   UNL     1      -7.283  18.393  68.477  1.00  0.00    -0.284 C  
ENDBRANCH   7   9
ENDBRANCH   6   7
ENDBRANCH   4   6
ENDBRANCH   2   4
TORSDOF 4
ENDMDL
MODEL      287
REMARK 921   NORMALIZED FREE ENERGY PREDICTED BY IDOCK:   -1.85 KCAL/MOL
REMARK 922        TOTAL FREE ENERGY PREDICTED BY IDOCK:   -2.51 KCAL/MOL
REMARK 923 INTER-LIGAND FREE ENERGY PREDICTED BY IDOCK:   -2.56 KCAL/MOL
REMARK 924 INTRA-LIGAND FREE ENERGY PREDICTED BY IDOCK:    0.06 KCAL/MOL
REMARK 927      BINDING AFFINITY PREDICTED BY RF-SCORE:    0.00 PKD
ROOT
HETATM    1  C   UNL     1      -7.825   9.536  68.454  1.00  0.00    -0.086 C  
HETATM    2  N   UNL     1      -7.891   8.769  67.208  1.00  0.00    -0.097 N  
HETATM    3  C   UNL     1      -6.609   8.366  66.633  1.00  0.00    -0.056 C  
ENDROOT
BRANCH   2   4
HETATM    4  C   UNL     1      -9.124   8.569  66.552  1.00  0.00    -0.176 C  
HETATM    5  S   UNL     1     -10.401   7.648  67.166  1.00  0.00    -0.338 S  
BRANCH   4   6
HETATM    6  S   UNL     1      -9.394   9.519  65.094  1.00  0.00    -0.216 SA 
BRANCH   6   7
HETATM    7  C   UNL     1     -10.215  10.991  65.650  1.00  0.00    -0.260 C  
HETATM    8  S   UNL     1     -10.870  11.149  67.198  1.00  0.00    -0.282 S  
BRANCH   7   9
HETATM    9  N   UNL     1     -10.296  12.013  64.669  1.00  0.00    -0.276 N  
HETATM   10  C   UNL     1     -10.151  11.811  63.220  1.00  0.00    -0.420 C  
HETATM   11  C   UNL     1     -10.544  13.420  65.005  1.00  0.00    -0.358 C  
ENDBRANCH   7   9
ENDBRANCH   6   7
ENDBRANCH   4   6
ENDBRANCH   2   4
TORSDOF 4
ENDMDL
MODEL      288
REMARK 921   NORMALIZED FREE ENERGY PREDICTED BY IDOCK:   -1.85 KCAL/MOL
REMARK 922        TOTAL FREE ENERGY PREDICTED BY IDOCK:   -2.51 KCAL/MOL
REMARK 923 INTER-LIGAND FREE ENERGY PREDICTED BY IDOCK:   -2.47 KCAL/MOL
REMARK 924 INTRA-LIGAND FREE ENERGY PREDICTED BY IDOCK:   -0.04 KCAL/MOL
REMARK 927      BINDING AFFINITY PREDICTED BY RF-SCORE:    0.00 PKD
ROOT
HETATM    1  C   UNL     1      -8.908   9.239  70.230  1.00  0.00    -0.224 C  
HETATM    2  N   UNL     1      -9.113   9.484  68.802  1.00  0.00    -0.131 N  
HETATM    3  C   UNL     1      -9.135   8.302  67.943  1.00  0.00    -0.133 C  
ENDROOT
BRANCH   2   4
HETATM    4  C   UNL     1      -9.142  10.801  68.296  1.00  0.00    -0.157 C  
HETATM    5  S   UNL     1      -7.773  11.742  67.985  1.00  0.00    -0.133 S  
BRANCH   4   6
HETATM    6  S   UNL     1     -10.713  11.401  67.774  1.00  0.00    -0.226 SA 
BRANCH   6   7
HETATM    7  C   UNL     1     -10.360  12.498  66.424  1.00  0.00    -0.243 C  
HETATM    8  S   UNL     1     -10.148  14.161  66.621  1.00  0.00    -0.282 S  
BRANCH   7   9
HETATM    9  N   UNL     1     -10.300  11.856  65.159  1.00  0.00    -0.267 N  
HETATM   10  C   UNL     1     -10.300  12.542  63.859  1.00  0.00    -0.409 C  
HETATM   11  C   UNL     1     -10.228  10.397  65.011  1.00  0.00    -0.264 C  
ENDBRANCH   7   9
ENDBRANCH   6   7
ENDBRANCH   4   6
ENDBRANCH   2   4
TORSDOF 4
ENDMDL
MODEL      289
REMARK 921   NORMALIZED FREE ENERGY PREDICTED BY IDOCK:   -1.85 KCAL/MOL
REMARK 922        TOTAL FREE ENERGY PREDICTED BY IDOCK:   -2.50 KCAL/MOL
REMARK 923 INTER-LIGAND FREE ENERGY PREDICTED BY IDOCK:   -2.59 KCAL/MOL
REMARK 924 INTRA-LIGAND FREE ENERGY PREDICTED BY IDOCK:    0.09 KCAL/MOL
REMARK 927      BINDING AFFINITY PREDICTED BY RF-SCORE:    0.00 PKD
ROOT
HETATM    1  C   UNL     1     -10.981  15.340  65.723  1.00  0.00    -0.338 C  
HETATM    2  N   UNL     1     -10.218  15.889  66.844  1.00  0.00    -0.270 N  
HETATM    3  C   UNL     1     -10.461  15.276  68.149  1.00  0.00    -0.246 C  
ENDROOT
BRANCH   2   4
HETATM    4  C   UNL     1      -9.410  17.032  66.672  1.00  0.00    -0.255 C  
HETATM    5  S   UNL     1      -9.966  18.626  66.766  1.00  0.00    -0.377 S  
BRANCH   4   6
HETATM    6  S   UNL     1      -7.675  16.751  66.555  1.00  0.00    -0.309 SA 
BRANCH   6   7
HETATM    7  C   UNL     1      -7.057  17.002  68.199  1.00  0.00    -0.177 C  
HETATM    8  S   UNL     1      -6.691  18.529  68.821  1.00  0.00    -0.273 S  
BRANCH   7   9
HETATM    9  N   UNL     1      -6.870  15.804  68.935  1.00  0.00    -0.123 N  
HETATM   10  C   UNL     1      -7.395  14.485  68.556  1.00  0.00    -0.120 C  
HETATM   11  C   UNL     1      -6.108  15.752  70.189  1.00  0.00    -0.106 C  
ENDBRANCH   7   9
ENDBRANCH   6   7
ENDBRANCH   4   6
ENDBRANCH   2   4
TORSDOF 4
ENDMDL
MODEL      290
REMARK 921   NORMALIZED FREE ENERGY PREDICTED BY IDOCK:   -1.84 KCAL/MOL
REMARK 922        TOTAL FREE ENERGY PREDICTED BY IDOCK:   -2.49 KCAL/MOL
REMARK 923 INTER-LIGAND FREE ENERGY PREDICTED BY IDOCK:   -2.43 KCAL/MOL
REMARK 924 INTRA-LIGAND FREE ENERGY PREDICTED BY IDOCK:   -0.05 KCAL/MOL
REMARK 927      BINDING AFFINITY PREDICTED BY RF-SCORE:    0.00 PKD
ROOT
HETATM    1  C   UNL     1      -7.007  10.729  69.645  1.00  0.00    -0.134 C  
HETATM    2  N   UNL     1      -8.055  10.980  68.654  1.00  0.00    -0.142 N  
HETATM    3  C   UNL     1      -8.607   9.801  67.989  1.00  0.00    -0.122 C  
ENDROOT
BRANCH   2   4
HETATM    4  C   UNL     1      -8.391  12.298  68.282  1.00  0.00    -0.174 C  
HETATM    5  S   UNL     1      -7.300  13.430  67.660  1.00  0.00    -0.165 S  
BRANCH   4   6
HETATM    6  S   UNL     1     -10.106  12.698  68.289  1.00  0.00    -0.226 SA 
BRANCH   6   7
HETATM    7  C   UNL     1     -10.213  14.277  67.486  1.00  0.00    -0.240 C  
HETATM    8  S   UNL     1     -10.049  15.741  68.311  1.00  0.00    -0.225 S  
BRANCH   7   9
HETATM    9  N   UNL     1     -10.477  14.200  66.093  1.00  0.00    -0.289 N  
HETATM   10  C   UNL     1     -10.658  12.957  65.332  1.00  0.00    -0.289 C  
HETATM   11  C   UNL     1     -10.605  15.390  65.242  1.00  0.00    -0.428 C  
ENDBRANCH   7   9
ENDBRANCH   6   7
ENDBRANCH   4   6
ENDBRANCH   2   4
TORSDOF 4
ENDMDL
MODEL      291
REMARK 921   NORMALIZED FREE ENERGY PREDICTED BY IDOCK:   -1.84 KCAL/MOL
REMARK 922        TOTAL FREE ENERGY PREDICTED BY IDOCK:   -2.48 KCAL/MOL
REMARK 923 INTER-LIGAND FREE ENERGY PREDICTED BY IDOCK:   -2.38 KCAL/MOL
REMARK 924 INTRA-LIGAND FREE ENERGY PREDICTED BY IDOCK:   -0.10 KCAL/MOL
REMARK 927      BINDING AFFINITY PREDICTED BY RF-SCORE:    0.00 PKD
ROOT
HETATM    1  C   UNL     1     -10.601  17.241  67.943  1.00  0.00    -0.384 C  
HETATM    2  N   UNL     1      -9.370  16.946  67.208  1.00  0.00    -0.233 N  
HETATM    3  C   UNL     1      -8.464  18.073  66.992  1.00  0.00    -0.237 C  
ENDROOT
BRANCH   2   4
HETATM    4  C   UNL     1      -9.164  15.674  66.633  1.00  0.00    -0.266 C  
HETATM    5  S   UNL     1      -9.912  15.126  65.219  1.00  0.00    -0.215 S  
BRANCH   4   6
HETATM    6  S   UNL     1      -7.886  14.694  67.345  1.00  0.00    -0.192 SA 
BRANCH   6   7
HETATM    7  C   UNL     1      -8.692  13.203  67.874  1.00  0.00    -0.192 C  
HETATM    8  S   UNL     1     -10.304  13.158  68.376  1.00  0.00    -0.243 S  
BRANCH   7   9
HETATM    9  N   UNL     1      -7.854  12.058  67.864  1.00  0.00    -0.133 N  
HETATM   10  C   UNL     1      -6.574  11.951  67.150  1.00  0.00    -0.148 C  
HETATM   11  C   UNL     1      -8.184  10.825  68.589  1.00  0.00    -0.139 C  
ENDBRANCH   7   9
ENDBRANCH   6   7
ENDBRANCH   4   6
ENDBRANCH   2   4
TORSDOF 4
ENDMDL
MODEL      292
REMARK 921   NORMALIZED FREE ENERGY PREDICTED BY IDOCK:   -1.82 KCAL/MOL
REMARK 922        TOTAL FREE ENERGY PREDICTED BY IDOCK:   -2.47 KCAL/MOL
REMARK 923 INTER-LIGAND FREE ENERGY PREDICTED BY IDOCK:   -2.18 KCAL/MOL
REMARK 924 INTRA-LIGAND FREE ENERGY PREDICTED BY IDOCK:   -0.29 KCAL/MOL
REMARK 927      BINDING AFFINITY PREDICTED BY RF-SCORE:    0.00 PKD
ROOT
HETATM    1  C   UNL     1      -9.393   9.401  69.693  1.00  0.00    -0.189 C  
HETATM    2  N   UNL     1     -10.170   8.752  68.635  1.00  0.00    -0.191 N  
HETATM    3  C   UNL     1     -10.557   9.600  67.509  1.00  0.00    -0.277 C  
ENDROOT
BRANCH   2   4
HETATM    4  C   UNL     1     -10.623   7.425  68.788  1.00  0.00    -0.168 C  
HETATM    5  S   UNL     1     -11.072   6.726  70.260  1.00  0.00    -0.335 S  
BRANCH   4   6
HETATM    6  S   UNL     1     -10.921   6.527  67.302  1.00  0.00    -0.361 SA 
BRANCH   6   7
HETATM    7  C   UNL     1      -9.431   5.605  67.017  1.00  0.00    -0.127 C  
HETATM    8  S   UNL     1      -9.358   3.921  67.121  1.00  0.00    -0.201 S  
BRANCH   7   9
HETATM    9  N   UNL     1      -8.301   6.411  66.722  1.00  0.00    -0.110 N  
HETATM   10  C   UNL     1      -8.217   7.385  65.625  1.00  0.00    -0.137 C  
HETATM   11  C   UNL     1      -7.060   6.357  67.505  1.00  0.00    -0.080 C  
ENDBRANCH   7   9
ENDBRANCH   6   7
ENDBRANCH   4   6
ENDBRANCH   2   4
TORSDOF 4
ENDMDL
MODEL      293
REMARK 921   NORMALIZED FREE ENERGY PREDICTED BY IDOCK:   -1.82 KCAL/MOL
REMARK 922        TOTAL FREE ENERGY PREDICTED BY IDOCK:   -2.46 KCAL/MOL
REMARK 923 INTER-LIGAND FREE ENERGY PREDICTED BY IDOCK:   -2.16 KCAL/MOL
REMARK 924 INTRA-LIGAND FREE ENERGY PREDICTED BY IDOCK:   -0.30 KCAL/MOL
REMARK 927      BINDING AFFINITY PREDICTED BY RF-SCORE:    0.00 PKD
ROOT
HETATM    1  C   UNL     1      -7.466   8.562  68.962  1.00  0.00    -0.089 C  
HETATM    2  N   UNL     1      -8.898   8.633  69.256  1.00  0.00    -0.136 N  
HETATM    3  C   UNL     1      -9.272   8.509  70.664  1.00  0.00    -0.163 C  
ENDROOT
BRANCH   2   4
HETATM    4  C   UNL     1      -9.845   8.676  68.211  1.00  0.00    -0.165 C  
HETATM    5  S   UNL     1     -10.304   7.347  67.274  1.00  0.00    -0.316 S  
BRANCH   4   6
HETATM    6  S   UNL     1     -10.736  10.184  68.029  1.00  0.00    -0.273 SA 
BRANCH   6   7
HETATM    7  C   UNL     1      -9.671  11.236  67.076  1.00  0.00    -0.186 C  
HETATM    8  S   UNL     1      -9.245  12.796  67.562  1.00  0.00    -0.201 S  
BRANCH   7   9
HETATM    9  N   UNL     1      -9.232  10.660  65.856  1.00  0.00    -0.175 N  
HETATM   10  C   UNL     1     -10.078  10.421  64.678  1.00  0.00    -0.308 C  
HETATM   11  C   UNL     1      -7.845  10.232  65.633  1.00  0.00    -0.151 C  
ENDBRANCH   7   9
ENDBRANCH   6   7
ENDBRANCH   4   6
ENDBRANCH   2   4
TORSDOF 4
ENDMDL
MODEL      294
REMARK 921   NORMALIZED FREE ENERGY PREDICTED BY IDOCK:   -1.82 KCAL/MOL
REMARK 922        TOTAL FREE ENERGY PREDICTED BY IDOCK:   -2.46 KCAL/MOL
REMARK 923 INTER-LIGAND FREE ENERGY PREDICTED BY IDOCK:   -2.22 KCAL/MOL
REMARK 924 INTRA-LIGAND FREE ENERGY PREDICTED BY IDOCK:   -0.24 KCAL/MOL
REMARK 927      BINDING AFFINITY PREDICTED BY RF-SCORE:    0.00 PKD
ROOT
HETATM    1  C   UNL     1      -8.417   6.744  65.932  1.00  0.00    -0.144 C  
HETATM    2  N   UNL     1      -9.262   6.094  66.935  1.00  0.00    -0.125 N  
HETATM    3  C   UNL     1     -10.632   5.793  66.524  1.00  0.00    -0.229 C  
ENDROOT
BRANCH   2   4
HETATM    4  C   UNL     1      -8.799   5.911  68.254  1.00  0.00    -0.110 C  
HETATM    5  S   UNL     1      -8.302   4.430  68.902  1.00  0.00    -0.079 S  
BRANCH   4   6
HETATM    6  S   UNL     1      -8.542   7.373  69.202  1.00  0.00    -0.136 SA 
BRANCH   6   7
HETATM    7  C   UNL     1     -10.080   8.254  69.113  1.00  0.00    -0.202 C  
HETATM    8  S   UNL     1     -10.402   9.426  67.941  1.00  0.00    -0.236 S  
BRANCH   7   9
HETATM    9  N   UNL     1     -11.005   7.905  70.132  1.00  0.00    -0.251 N  
HETATM   10  C   UNL     1     -11.598   6.574  70.320  1.00  0.00    -0.409 C  
HETATM   11  C   UNL     1     -11.479   8.865  71.137  1.00  0.00    -0.301 C  
ENDBRANCH   7   9
ENDBRANCH   6   7
ENDBRANCH   4   6
ENDBRANCH   2   4
TORSDOF 4
ENDMDL
MODEL      295
REMARK 921   NORMALIZED FREE ENERGY PREDICTED BY IDOCK:   -1.81 KCAL/MOL
REMARK 922        TOTAL FREE ENERGY PREDICTED BY IDOCK:   -2.45 KCAL/MOL
REMARK 923 INTER-LIGAND FREE ENERGY PREDICTED BY IDOCK:   -2.16 KCAL/MOL
REMARK 924 INTRA-LIGAND FREE ENERGY PREDICTED BY IDOCK:   -0.29 KCAL/MOL
REMARK 927      BINDING AFFINITY PREDICTED BY RF-SCORE:    0.00 PKD
ROOT
HETATM    1  C   UNL     1     -10.287  15.204  70.212  1.00  0.00    -0.066 C  
HETATM    2  N   UNL     1     -10.055  16.052  69.042  1.00  0.00    -0.225 N  
HETATM    3  C   UNL     1     -11.242  16.437  68.281  1.00  0.00    -0.300 C  
ENDROOT
BRANCH   2   4
HETATM    4  C   UNL     1      -8.742  16.347  68.618  1.00  0.00    -0.234 C  
HETATM    5  S   UNL     1      -7.879  15.455  67.470  1.00  0.00    -0.188 S  
BRANCH   4   6
HETATM    6  S   UNL     1      -8.061  17.867  69.190  1.00  0.00     0.197 SA 
BRANCH   6   7
HETATM    7  C   UNL     1      -8.388  19.034  67.893  1.00  0.00    -0.288 C  
HETATM    8  S   UNL     1      -7.294  19.354  66.647  1.00  0.00    -0.239 S  
BRANCH   7   9
HETATM    9  N   UNL     1      -9.639  19.694  68.012  1.00  0.00    -0.353 N  
HETATM   10  C   UNL     1     -10.511  20.066  66.890  1.00  0.00    -0.394 C  
HETATM   11  C   UNL     1     -10.211  20.085  69.306  1.00  0.00    -0.072 C  
ENDBRANCH   7   9
ENDBRANCH   6   7
ENDBRANCH   4   6
ENDBRANCH   2   4
TORSDOF 4
ENDMDL
MODEL      296
REMARK 921   NORMALIZED FREE ENERGY PREDICTED BY IDOCK:   -1.80 KCAL/MOL
REMARK 922        TOTAL FREE ENERGY PREDICTED BY IDOCK:   -2.45 KCAL/MOL
REMARK 923 INTER-LIGAND FREE ENERGY PREDICTED BY IDOCK:   -2.16 KCAL/MOL
REMARK 924 INTRA-LIGAND FREE ENERGY PREDICTED BY IDOCK:   -0.28 KCAL/MOL
REMARK 927      BINDING AFFINITY PREDICTED BY RF-SCORE:    0.00 PKD
ROOT
HETATM    1  C   UNL     1      -8.031   7.388  67.845  1.00  0.00    -0.119 C  
HETATM    2  N   UNL     1      -9.453   7.509  68.171  1.00  0.00    -0.143 N  
HETATM    3  C   UNL     1     -10.384   7.333  67.058  1.00  0.00    -0.306 C  
ENDROOT
BRANCH   2   4
HETATM    4  C   UNL     1      -9.863   7.910  69.460  1.00  0.00    -0.176 C  
HETATM    5  S   UNL     1     -10.735   6.942  70.536  1.00  0.00    -0.246 S  
BRANCH   4   6
HETATM    6  S   UNL     1      -9.237   9.453  70.032  1.00  0.00    -0.235 SA 
BRANCH   6   7
HETATM    7  C   UNL     1      -9.702  10.628  68.785  1.00  0.00    -0.189 C  
HETATM    8  S   UNL     1     -11.310  10.987  68.414  1.00  0.00    -0.311 S  
BRANCH   7   9
HETATM    9  N   UNL     1      -8.602  11.218  68.109  1.00  0.00    -0.143 N  
HETATM   10  C   UNL     1      -8.607  11.658  66.707  1.00  0.00    -0.180 C  
HETATM   11  C   UNL     1      -7.308  11.462  68.757  1.00  0.00    -0.114 C  
ENDBRANCH   7   9
ENDBRANCH   6   7
ENDBRANCH   4   6
ENDBRANCH   2   4
TORSDOF 4
ENDMDL
MODEL      297
REMARK 921   NORMALIZED FREE ENERGY PREDICTED BY IDOCK:   -1.80 KCAL/MOL
REMARK 922        TOTAL FREE ENERGY PREDICTED BY IDOCK:   -2.44 KCAL/MOL
REMARK 923 INTER-LIGAND FREE ENERGY PREDICTED BY IDOCK:   -2.21 KCAL/MOL
REMARK 924 INTRA-LIGAND FREE ENERGY PREDICTED BY IDOCK:   -0.24 KCAL/MOL
REMARK 927      BINDING AFFINITY PREDICTED BY RF-SCORE:    0.00 PKD
ROOT
HETATM    1  C   UNL     1      -6.066  11.865  68.423  1.00  0.00    -0.050 C  
HETATM    2  N   UNL     1      -7.091  11.060  69.090  1.00  0.00    -0.106 N  
HETATM    3  C   UNL     1      -6.623  10.180  70.159  1.00  0.00    -0.128 C  
ENDROOT
BRANCH   2   4
HETATM    4  C   UNL     1      -8.419  11.051  68.614  1.00  0.00    -0.157 C  
HETATM    5  S   UNL     1      -9.686  10.180  69.316  1.00  0.00    -0.233 S  
BRANCH   4   6
HETATM    6  S   UNL     1      -8.793  12.189  67.323  1.00  0.00    -0.194 SA 
BRANCH   6   7
HETATM    7  C   UNL     1      -9.627  13.535  68.125  1.00  0.00    -0.215 C  
HETATM    8  S   UNL     1      -8.812  14.860  68.783  1.00  0.00    -0.180 S  
BRANCH   7   9
HETATM    9  N   UNL     1     -11.037  13.385  68.189  1.00  0.00    -0.247 N  
HETATM   10  C   UNL     1     -11.867  12.728  67.170  1.00  0.00    -0.350 C  
HETATM   11  C   UNL     1     -11.838  13.882  69.314  1.00  0.00    -0.348 C  
ENDBRANCH   7   9
ENDBRANCH   6   7
ENDBRANCH   4   6
ENDBRANCH   2   4
TORSDOF 4
ENDMDL
MODEL      298
REMARK 921   NORMALIZED FREE ENERGY PREDICTED BY IDOCK:   -1.80 KCAL/MOL
REMARK 922        TOTAL FREE ENERGY PREDICTED BY IDOCK:   -2.44 KCAL/MOL
REMARK 923 INTER-LIGAND FREE ENERGY PREDICTED BY IDOCK:   -2.09 KCAL/MOL
REMARK 924 INTRA-LIGAND FREE ENERGY PREDICTED BY IDOCK:   -0.34 KCAL/MOL
REMARK 927      BINDING AFFINITY PREDICTED BY RF-SCORE:    0.00 PKD
ROOT
HETATM    1  C   UNL     1      -8.623   7.074  66.654  1.00  0.00    -0.124 C  
HETATM    2  N   UNL     1      -9.628   6.539  67.575  1.00  0.00    -0.123 N  
HETATM    3  C   UNL     1     -11.014   6.586  67.111  1.00  0.00    -0.408 C  
ENDROOT
BRANCH   2   4
HETATM    4  C   UNL     1      -9.268   6.139  68.879  1.00  0.00    -0.125 C  
HETATM    5  S   UNL     1      -9.840   4.748  69.650  1.00  0.00    -0.223 S  
BRANCH   4   6
HETATM    6  S   UNL     1      -7.981   7.062  69.650  1.00  0.00    -0.126 SA 
BRANCH   6   7
HETATM    7  C   UNL     1      -8.802   8.070  70.859  1.00  0.00    -0.139 C  
HETATM    8  S   UNL     1      -8.345   8.111  72.484  1.00  0.00    -0.178 S  
BRANCH   7   9
HETATM    9  N   UNL     1      -9.893   8.817  70.344  1.00  0.00    -0.175 N  
HETATM   10  C   UNL     1     -11.295   8.662  70.756  1.00  0.00    -0.263 C  
HETATM   11  C   UNL     1      -9.733   9.855  69.319  1.00  0.00    -0.208 C  
ENDBRANCH   7   9
ENDBRANCH   6   7
ENDBRANCH   4   6
ENDBRANCH   2   4
TORSDOF 4
ENDMDL
MODEL      299
REMARK 921   NORMALIZED FREE ENERGY PREDICTED BY IDOCK:   -1.79 KCAL/MOL
REMARK 922        TOTAL FREE ENERGY PREDICTED BY IDOCK:   -2.43 KCAL/MOL
REMARK 923 INTER-LIGAND FREE ENERGY PREDICTED BY IDOCK:   -2.26 KCAL/MOL
REMARK 924 INTRA-LIGAND FREE ENERGY PREDICTED BY IDOCK:   -0.17 KCAL/MOL
REMARK 927      BINDING AFFINITY PREDICTED BY RF-SCORE:    0.00 PKD
ROOT
HETATM    1  C   UNL     1      -9.799   9.774  65.585  1.00  0.00    -0.301 C  
HETATM    2  N   UNL     1      -9.478   8.648  66.463  1.00  0.00    -0.197 N  
HETATM    3  C   UNL     1      -8.560   7.649  65.920  1.00  0.00    -0.148 C  
ENDROOT
BRANCH   2   4
HETATM    4  C   UNL     1     -10.141   8.490  67.699  1.00  0.00    -0.213 C  
HETATM    5  S   UNL     1     -10.651   9.764  68.686  1.00  0.00    -0.216 S  
BRANCH   4   6
HETATM    6  S   UNL     1     -10.632   6.851  68.116  1.00  0.00    -0.213 SA 
BRANCH   6   7
HETATM    7  C   UNL     1     -10.532   6.778  69.887  1.00  0.00    -0.211 C  
HETATM    8  S   UNL     1     -11.881   6.926  70.891  1.00  0.00    -0.380 S  
BRANCH   7   9
HETATM    9  N   UNL     1      -9.213   6.614  70.384  1.00  0.00    -0.156 N  
HETATM   10  C   UNL     1      -8.135   5.882  69.704  1.00  0.00    -0.106 C  
HETATM   11  C   UNL     1      -8.771   7.175  71.667  1.00  0.00    -0.118 C  
ENDBRANCH   7   9
ENDBRANCH   6   7
ENDBRANCH   4   6
ENDBRANCH   2   4
TORSDOF 4
ENDMDL
MODEL      300
REMARK 921   NORMALIZED FREE ENERGY PREDICTED BY IDOCK:   -1.78 KCAL/MOL
REMARK 922        TOTAL FREE ENERGY PREDICTED BY IDOCK:   -2.41 KCAL/MOL
REMARK 923 INTER-LIGAND FREE ENERGY PREDICTED BY IDOCK:   -2.19 KCAL/MOL
REMARK 924 INTRA-LIGAND FREE ENERGY PREDICTED BY IDOCK:   -0.22 KCAL/MOL
REMARK 927      BINDING AFFINITY PREDICTED BY RF-SCORE:    0.00 PKD
ROOT
HETATM    1  C   UNL     1      -9.413   8.500  72.435  1.00  0.00    -0.280 C  
HETATM    2  N   UNL     1     -10.341   8.179  71.350  1.00  0.00    -0.202 N  
HETATM    3  C   UNL     1     -11.382   9.169  71.080  1.00  0.00    -0.322 C  
ENDROOT
BRANCH   2   4
HETATM    4  C   UNL     1     -10.297   6.920  70.715  1.00  0.00    -0.203 C  
HETATM    5  S   UNL     1     -11.304   6.449  69.443  1.00  0.00    -0.292 S  
BRANCH   4   6
HETATM    6  S   UNL     1      -8.959   5.866  71.165  1.00  0.00    -0.139 SA 
BRANCH   6   7
HETATM    7  C   UNL     1      -9.725   4.433  71.879  1.00  0.00    -0.170 C  
HETATM    8  S   UNL     1     -10.883   4.523  73.105  1.00  0.00    -0.262 S  
BRANCH   7   9
HETATM    9  N   UNL     1      -9.255   3.203  71.349  1.00  0.00    -0.107 N  
HETATM   10  C   UNL     1      -8.808   2.051  72.145  1.00  0.00    -0.069 C  
HETATM   11  C   UNL     1      -9.167   2.941  69.907  1.00  0.00    -0.145 C  
ENDBRANCH   7   9
ENDBRANCH   6   7
ENDBRANCH   4   6
ENDBRANCH   2   4
TORSDOF 4
ENDMDL
MODEL      301
REMARK 921   NORMALIZED FREE ENERGY PREDICTED BY IDOCK:   -1.77 KCAL/MOL
REMARK 922        TOTAL FREE ENERGY PREDICTED BY IDOCK:   -2.40 KCAL/MOL
REMARK 923 INTER-LIGAND FREE ENERGY PREDICTED BY IDOCK:   -2.21 KCAL/MOL
REMARK 924 INTRA-LIGAND FREE ENERGY PREDICTED BY IDOCK:   -0.20 KCAL/MOL
REMARK 927      BINDING AFFINITY PREDICTED BY RF-SCORE:    0.00 PKD
ROOT
HETATM    1  C   UNL     1      -9.827   4.987  66.690  1.00  0.00    -0.196 C  
HETATM    2  N   UNL     1      -9.113   6.258  66.821  1.00  0.00    -0.130 N  
HETATM    3  C   UNL     1      -8.318   6.671  65.666  1.00  0.00    -0.144 C  
ENDROOT
BRANCH   2   4
HETATM    4  C   UNL     1      -9.099   6.951  68.050  1.00  0.00    -0.120 C  
HETATM    5  S   UNL     1      -7.745   7.724  68.702  1.00  0.00    -0.120 S  
BRANCH   4   6
HETATM    6  S   UNL     1     -10.659   7.180  68.834  1.00  0.00    -0.178 SA 
BRANCH   6   7
HETATM    7  C   UNL     1     -10.364   6.837  70.551  1.00  0.00    -0.201 C  
HETATM    8  S   UNL     1      -9.764   5.359  71.104  1.00  0.00    -0.181 S  
BRANCH   7   9
HETATM    9  N   UNL     1     -10.705   7.906  71.420  1.00  0.00    -0.222 N  
HETATM   10  C   UNL     1     -10.815   9.317  71.026  1.00  0.00    -0.314 C  
HETATM   11  C   UNL     1     -10.994   7.710  72.846  1.00  0.00    -0.400 C  
ENDBRANCH   7   9
ENDBRANCH   6   7
ENDBRANCH   4   6
ENDBRANCH   2   4
TORSDOF 4
ENDMDL
MODEL      302
REMARK 921   NORMALIZED FREE ENERGY PREDICTED BY IDOCK:   -1.76 KCAL/MOL
REMARK 922        TOTAL FREE ENERGY PREDICTED BY IDOCK:   -2.40 KCAL/MOL
REMARK 923 INTER-LIGAND FREE ENERGY PREDICTED BY IDOCK:   -2.09 KCAL/MOL
REMARK 924 INTRA-LIGAND FREE ENERGY PREDICTED BY IDOCK:   -0.30 KCAL/MOL
REMARK 927      BINDING AFFINITY PREDICTED BY RF-SCORE:    0.00 PKD
ROOT
HETATM    1  C   UNL     1      -7.733  12.006  67.147  1.00  0.00    -0.161 C  
HETATM    2  N   UNL     1      -8.107  10.942  66.214  1.00  0.00    -0.162 N  
HETATM    3  C   UNL     1      -7.002  10.218  65.588  1.00  0.00    -0.133 C  
ENDROOT
BRANCH   2   4
HETATM    4  C   UNL     1      -9.456  10.745  65.853  1.00  0.00    -0.197 C  
HETATM    5  S   UNL     1     -10.064  10.903  64.284  1.00  0.00    -0.370 S  
BRANCH   4   6
HETATM    6  S   UNL     1     -10.511  10.095  67.104  1.00  0.00    -0.239 SA 
BRANCH   6   7
HETATM    7  C   UNL     1      -9.732   8.588  67.625  1.00  0.00    -0.160 C  
HETATM    8  S   UNL     1      -9.543   7.252  66.610  1.00  0.00    -0.157 S  
BRANCH   7   9
HETATM    9  N   UNL     1      -9.307   8.595  68.979  1.00  0.00    -0.146 N  
HETATM   10  C   UNL     1      -9.477   9.715  69.915  1.00  0.00    -0.231 C  
HETATM   11  C   UNL     1      -8.636   7.451  69.608  1.00  0.00    -0.137 C  
ENDBRANCH   7   9
ENDBRANCH   6   7
ENDBRANCH   4   6
ENDBRANCH   2   4
TORSDOF 4
ENDMDL
MODEL      303
REMARK 921   NORMALIZED FREE ENERGY PREDICTED BY IDOCK:   -1.76 KCAL/MOL
REMARK 922        TOTAL FREE ENERGY PREDICTED BY IDOCK:   -2.39 KCAL/MOL
REMARK 923 INTER-LIGAND FREE ENERGY PREDICTED BY IDOCK:   -2.27 KCAL/MOL
REMARK 924 INTRA-LIGAND FREE ENERGY PREDICTED BY IDOCK:   -0.11 KCAL/MOL
REMARK 927      BINDING AFFINITY PREDICTED BY RF-SCORE:    0.00 PKD
ROOT
HETATM    1  C   UNL     1     -11.082  14.202  64.822  1.00  0.00    -0.387 C  
HETATM    2  N   UNL     1     -10.236  13.460  65.757  1.00  0.00    -0.290 N  
HETATM    3  C   UNL     1     -10.416  12.009  65.774  1.00  0.00    -0.254 C  
ENDROOT
BRANCH   2   4
HETATM    4  C   UNL     1      -9.407  14.141  66.673  1.00  0.00    -0.282 C  
HETATM    5  S   UNL     1      -8.934  15.757  66.524  1.00  0.00    -0.333 S  
BRANCH   4   6
HETATM    6  S   UNL     1      -9.022  13.285  68.163  1.00  0.00    -0.187 SA 
BRANCH   6   7
HETATM    7  C   UNL     1      -7.259  13.410  68.321  1.00  0.00    -0.111 C  
HETATM    8  S   UNL     1      -6.184  12.656  67.259  1.00  0.00     0.018 S  
BRANCH   7   9
HETATM    9  N   UNL     1      -6.831  14.176  69.437  1.00  0.00    -0.120 N  
HETATM   10  C   UNL     1      -5.870  13.729  70.454  1.00  0.00    -0.162 C  
HETATM   11  C   UNL     1      -7.318  15.536  69.700  1.00  0.00    -0.163 C  
ENDBRANCH   7   9
ENDBRANCH   6   7
ENDBRANCH   4   6
ENDBRANCH   2   4
TORSDOF 4
ENDMDL
MODEL      304
REMARK 921   NORMALIZED FREE ENERGY PREDICTED BY IDOCK:   -1.75 KCAL/MOL
REMARK 922        TOTAL FREE ENERGY PREDICTED BY IDOCK:   -2.38 KCAL/MOL
REMARK 923 INTER-LIGAND FREE ENERGY PREDICTED BY IDOCK:   -2.26 KCAL/MOL
REMARK 924 INTRA-LIGAND FREE ENERGY PREDICTED BY IDOCK:   -0.12 KCAL/MOL
REMARK 927      BINDING AFFINITY PREDICTED BY RF-SCORE:    0.00 PKD
ROOT
HETATM    1  C   UNL     1      -7.533  12.349  68.013  1.00  0.00    -0.114 C  
HETATM    2  N   UNL     1      -8.365  11.231  67.564  1.00  0.00    -0.128 N  
HETATM    3  C   UNL     1      -9.348  11.538  66.526  1.00  0.00    -0.197 C  
ENDROOT
BRANCH   2   4
HETATM    4  C   UNL     1      -8.297   9.980  68.212  1.00  0.00    -0.110 C  
HETATM    5  S   UNL     1      -7.012   8.891  68.066  1.00  0.00    -0.078 S  
BRANCH   4   6
HETATM    6  S   UNL     1      -9.553   9.647  69.400  1.00  0.00    -0.204 SA 
BRANCH   6   7
HETATM    7  C   UNL     1     -10.357   8.175  68.818  1.00  0.00    -0.202 C  
HETATM    8  S   UNL     1     -10.474   7.778  67.181  1.00  0.00    -0.331 S  
BRANCH   7   9
HETATM    9  N   UNL     1     -10.918   7.377  69.849  1.00  0.00    -0.245 N  
HETATM   10  C   UNL     1     -10.892   5.909  69.893  1.00  0.00    -0.369 C  
HETATM   11  C   UNL     1     -11.600   7.950  71.016  1.00  0.00    -0.282 C  
ENDBRANCH   7   9
ENDBRANCH   6   7
ENDBRANCH   4   6
ENDBRANCH   2   4
TORSDOF 4
ENDMDL
MODEL      305
REMARK 921   NORMALIZED FREE ENERGY PREDICTED BY IDOCK:   -1.74 KCAL/MOL
REMARK 922        TOTAL FREE ENERGY PREDICTED BY IDOCK:   -2.37 KCAL/MOL
REMARK 923 INTER-LIGAND FREE ENERGY PREDICTED BY IDOCK:   -2.00 KCAL/MOL
REMARK 924 INTRA-LIGAND FREE ENERGY PREDICTED BY IDOCK:   -0.37 KCAL/MOL
REMARK 927      BINDING AFFINITY PREDICTED BY RF-SCORE:    0.00 PKD
ROOT
HETATM    1  C   UNL     1      -8.268   4.049  66.805  1.00  0.00    -0.100 C  
HETATM    2  N   UNL     1      -9.626   4.530  67.064  1.00  0.00    -0.176 N  
HETATM    3  C   UNL     1     -10.460   4.763  65.887  1.00  0.00    -0.274 C  
ENDROOT
BRANCH   2   4
HETATM    4  C   UNL     1     -10.030   4.873  68.371  1.00  0.00    -0.115 C  
HETATM    5  S   UNL     1      -9.487   4.107  69.777  1.00  0.00    -0.207 S  
BRANCH   4   6
HETATM    6  S   UNL     1     -11.008   6.328  68.529  1.00  0.00    -0.298 SA 
BRANCH   6   7
HETATM    7  C   UNL     1      -9.903   7.667  68.158  1.00  0.00    -0.164 C  
HETATM    8  S   UNL     1     -10.131   8.711  66.851  1.00  0.00    -0.299 S  
BRANCH   7   9
HETATM    9  N   UNL     1      -8.796   7.763  69.040  1.00  0.00    -0.138 N  
HETATM   10  C   UNL     1      -8.881   8.040  70.480  1.00  0.00    -0.137 C  
HETATM   11  C   UNL     1      -7.408   7.590  68.595  1.00  0.00    -0.095 C  
ENDBRANCH   7   9
ENDBRANCH   6   7
ENDBRANCH   4   6
ENDBRANCH   2   4
TORSDOF 4
ENDMDL
MODEL      306
REMARK 921   NORMALIZED FREE ENERGY PREDICTED BY IDOCK:   -1.74 KCAL/MOL
REMARK 922        TOTAL FREE ENERGY PREDICTED BY IDOCK:   -2.37 KCAL/MOL
REMARK 923 INTER-LIGAND FREE ENERGY PREDICTED BY IDOCK:   -2.05 KCAL/MOL
REMARK 924 INTRA-LIGAND FREE ENERGY PREDICTED BY IDOCK:   -0.32 KCAL/MOL
REMARK 927      BINDING AFFINITY PREDICTED BY RF-SCORE:    0.00 PKD
ROOT
HETATM    1  C   UNL     1      -9.327   5.228  70.031  1.00  0.00    -0.152 C  
HETATM    2  N   UNL     1      -9.364   5.692  68.643  1.00  0.00    -0.121 N  
HETATM    3  C   UNL     1      -9.676   4.680  67.635  1.00  0.00    -0.161 C  
ENDROOT
BRANCH   2   4
HETATM    4  C   UNL     1      -8.980   7.009  68.315  1.00  0.00    -0.128 C  
HETATM    5  S   UNL     1      -7.381   7.542  68.194  1.00  0.00    -0.098 S  
BRANCH   4   6
HETATM    6  S   UNL     1     -10.271   8.094  67.807  1.00  0.00    -0.238 SA 
BRANCH   6   7
HETATM    7  C   UNL     1     -10.400   9.294  69.109  1.00  0.00    -0.211 C  
HETATM    8  S   UNL     1     -10.435  10.959  68.824  1.00  0.00    -0.211 S  
BRANCH   7   9
HETATM    9  N   UNL     1     -10.443   8.732  70.411  1.00  0.00    -0.202 N  
HETATM   10  C   UNL     1      -9.352   8.784  71.394  1.00  0.00    -0.258 C  
HETATM   11  C   UNL     1     -11.617   8.020  70.931  1.00  0.00    -0.269 C  
ENDBRANCH   7   9
ENDBRANCH   6   7
ENDBRANCH   4   6
ENDBRANCH   2   4
TORSDOF 4
ENDMDL
MODEL      307
REMARK 921   NORMALIZED FREE ENERGY PREDICTED BY IDOCK:   -1.74 KCAL/MOL
REMARK 922        TOTAL FREE ENERGY PREDICTED BY IDOCK:   -2.37 KCAL/MOL
REMARK 923 INTER-LIGAND FREE ENERGY PREDICTED BY IDOCK:   -2.26 KCAL/MOL
REMARK 924 INTRA-LIGAND FREE ENERGY PREDICTED BY IDOCK:   -0.11 KCAL/MOL
REMARK 927      BINDING AFFINITY PREDICTED BY RF-SCORE:    0.00 PKD
ROOT
HETATM    1  C   UNL     1     -11.066   6.155  69.315  1.00  0.00    -0.393 C  
HETATM    2  N   UNL     1     -10.368   7.218  68.589  1.00  0.00    -0.189 N  
HETATM    3  C   UNL     1     -10.875   7.524  67.253  1.00  0.00    -0.227 C  
ENDROOT
BRANCH   2   4
HETATM    4  C   UNL     1      -9.193   7.795  69.115  1.00  0.00    -0.144 C  
HETATM    5  S   UNL     1      -7.642   7.565  68.483  1.00  0.00    -0.116 S  
BRANCH   4   6
HETATM    6  S   UNL     1      -9.414   8.989  70.391  1.00  0.00    -0.229 SA 
BRANCH   6   7
HETATM    7  C   UNL     1      -9.724   8.041  71.859  1.00  0.00    -0.190 C  
HETATM    8  S   UNL     1     -11.257   7.891  72.550  1.00  0.00    -0.398 S  
BRANCH   7   9
HETATM    9  N   UNL     1      -8.564   7.442  72.416  1.00  0.00    -0.114 N  
HETATM   10  C   UNL     1      -8.179   6.033  72.260  1.00  0.00    -0.110 C  
HETATM   11  C   UNL     1      -7.596   8.190  73.228  1.00  0.00    -0.146 C  
ENDBRANCH   7   9
ENDBRANCH   6   7
ENDBRANCH   4   6
ENDBRANCH   2   4
TORSDOF 4
ENDMDL
MODEL      308
REMARK 921   NORMALIZED FREE ENERGY PREDICTED BY IDOCK:   -1.73 KCAL/MOL
REMARK 922        TOTAL FREE ENERGY PREDICTED BY IDOCK:   -2.36 KCAL/MOL
REMARK 923 INTER-LIGAND FREE ENERGY PREDICTED BY IDOCK:   -2.04 KCAL/MOL
REMARK 924 INTRA-LIGAND FREE ENERGY PREDICTED BY IDOCK:   -0.32 KCAL/MOL
REMARK 927      BINDING AFFINITY PREDICTED BY RF-SCORE:    0.00 PKD
ROOT
HETATM    1  C   UNL     1     -10.023  16.103  65.636  1.00  0.00    -0.297 C  
HETATM    2  N   UNL     1     -10.361  15.217  66.751  1.00  0.00    -0.267 N  
HETATM    3  C   UNL     1     -11.768  14.839  66.869  1.00  0.00    -0.302 C  
ENDROOT
BRANCH   2   4
HETATM    4  C   UNL     1      -9.392  14.879  67.719  1.00  0.00    -0.194 C  
HETATM    5  S   UNL     1      -9.570  15.119  69.383  1.00  0.00    -0.151 S  
BRANCH   4   6
HETATM    6  S   UNL     1      -8.001  13.964  67.144  1.00  0.00     0.048 SA 
BRANCH   6   7
HETATM    7  C   UNL     1      -8.281  12.303  67.705  1.00  0.00    -0.166 C  
HETATM    8  S   UNL     1      -7.243  11.507  68.773  1.00  0.00    -0.116 S  
BRANCH   7   9
HETATM    9  N   UNL     1      -9.438  11.694  67.153  1.00  0.00    -0.175 N  
HETATM   10  C   UNL     1      -9.590  11.278  65.752  1.00  0.00    -0.227 C  
HETATM   11  C   UNL     1     -10.638  11.405  67.946  1.00  0.00    -0.189 C  
ENDBRANCH   7   9
ENDBRANCH   6   7
ENDBRANCH   4   6
ENDBRANCH   2   4
TORSDOF 4
ENDMDL
MODEL      309
REMARK 921   NORMALIZED FREE ENERGY PREDICTED BY IDOCK:   -1.73 KCAL/MOL
REMARK 922        TOTAL FREE ENERGY PREDICTED BY IDOCK:   -2.36 KCAL/MOL
REMARK 923 INTER-LIGAND FREE ENERGY PREDICTED BY IDOCK:   -2.17 KCAL/MOL
REMARK 924 INTRA-LIGAND FREE ENERGY PREDICTED BY IDOCK:   -0.19 KCAL/MOL
REMARK 927      BINDING AFFINITY PREDICTED BY RF-SCORE:    0.00 PKD
ROOT
HETATM    1  C   UNL     1      -8.609   6.356  65.154  1.00  0.00    -0.002 C  
HETATM    2  N   UNL     1      -8.543   7.089  66.419  1.00  0.00    -0.129 N  
HETATM    3  C   UNL     1      -7.358   7.922  66.619  1.00  0.00    -0.088 C  
ENDROOT
BRANCH   2   4
HETATM    4  C   UNL     1      -9.510   6.876  67.425  1.00  0.00    -0.132 C  
HETATM    5  S   UNL     1     -10.991   6.099  67.185  1.00  0.00    -0.260 S  
BRANCH   4   6
HETATM    6  S   UNL     1      -9.026   7.279  69.069  1.00  0.00    -0.133 SA 
BRANCH   6   7
HETATM    7  C   UNL     1     -10.305   8.350  69.675  1.00  0.00    -0.218 C  
HETATM    8  S   UNL     1     -10.656   9.849  68.978  1.00  0.00    -0.228 S  
BRANCH   7   9
HETATM    9  N   UNL     1     -10.988   7.849  70.813  1.00  0.00    -0.247 N  
HETATM   10  C   UNL     1     -11.116   8.547  72.100  1.00  0.00    -0.366 C  
HETATM   11  C   UNL     1     -11.661   6.544  70.826  1.00  0.00    -0.366 C  
ENDBRANCH   7   9
ENDBRANCH   6   7
ENDBRANCH   4   6
ENDBRANCH   2   4
TORSDOF 4
ENDMDL
MODEL      310
REMARK 921   NORMALIZED FREE ENERGY PREDICTED BY IDOCK:   -1.70 KCAL/MOL
REMARK 922        TOTAL FREE ENERGY PREDICTED BY IDOCK:   -2.32 KCAL/MOL
REMARK 923 INTER-LIGAND FREE ENERGY PREDICTED BY IDOCK:   -2.09 KCAL/MOL
REMARK 924 INTRA-LIGAND FREE ENERGY PREDICTED BY IDOCK:   -0.23 KCAL/MOL
REMARK 927      BINDING AFFINITY PREDICTED BY RF-SCORE:    0.00 PKD
ROOT
HETATM    1  C   UNL     1      -6.016  13.696  67.773  1.00  0.00    -0.122 C  
HETATM    2  N   UNL     1      -6.475  12.386  67.309  1.00  0.00    -0.156 N  
HETATM    3  C   UNL     1      -5.469  11.545  66.661  1.00  0.00    -0.133 C  
ENDROOT
BRANCH   2   4
HETATM    4  C   UNL     1      -7.841  12.039  67.370  1.00  0.00    -0.162 C  
HETATM    5  S   UNL     1      -8.466  10.747  68.262  1.00  0.00    -0.137 S  
BRANCH   4   6
HETATM    6  S   UNL     1      -8.965  13.167  66.619  1.00  0.00    -0.057 SA 
BRANCH   6   7
HETATM    7  C   UNL     1      -9.924  13.822  67.961  1.00  0.00    -0.246 C  
HETATM    8  S   UNL     1      -9.347  15.018  69.005  1.00  0.00    -0.188 S  
BRANCH   7   9
HETATM    9  N   UNL     1     -11.207  13.232  68.097  1.00  0.00    -0.256 N  
HETATM   10  C   UNL     1     -11.907  13.008  69.369  1.00  0.00    -0.322 C  
HETATM   11  C   UNL     1     -11.996  12.771  66.947  1.00  0.00    -0.310 C  
ENDBRANCH   7   9
ENDBRANCH   6   7
ENDBRANCH   4   6
ENDBRANCH   2   4
TORSDOF 4
ENDMDL
MODEL      311
REMARK 921   NORMALIZED FREE ENERGY PREDICTED BY IDOCK:   -1.68 KCAL/MOL
REMARK 922        TOTAL FREE ENERGY PREDICTED BY IDOCK:   -2.30 KCAL/MOL
REMARK 923 INTER-LIGAND FREE ENERGY PREDICTED BY IDOCK:   -2.16 KCAL/MOL
REMARK 924 INTRA-LIGAND FREE ENERGY PREDICTED BY IDOCK:   -0.13 KCAL/MOL
REMARK 927      BINDING AFFINITY PREDICTED BY RF-SCORE:    0.00 PKD
ROOT
HETATM    1  C   UNL     1     -10.584  12.109  68.009  1.00  0.00    -0.210 C  
HETATM    2  N   UNL     1      -9.707  13.246  68.289  1.00  0.00    -0.226 N  
HETATM    3  C   UNL     1      -8.280  13.031  68.055  1.00  0.00    -0.161 C  
ENDROOT
BRANCH   2   4
HETATM    4  C   UNL     1     -10.218  14.420  68.882  1.00  0.00    -0.213 C  
HETATM    5  S   UNL     1     -11.804  14.603  69.438  1.00  0.00    -0.333 S  
BRANCH   4   6
HETATM    6  S   UNL     1      -9.050  15.689  69.235  1.00  0.00    -0.273 SA 
BRANCH   6   7
HETATM    7  C   UNL     1      -9.345  16.939  68.009  1.00  0.00    -0.238 C  
HETATM    8  S   UNL     1     -10.651  18.007  68.082  1.00  0.00    -0.257 S  
BRANCH   7   9
HETATM    9  N   UNL     1      -8.403  16.941  66.948  1.00  0.00    -0.197 N  
HETATM   10  C   UNL     1      -7.429  18.009  66.682  1.00  0.00    -0.224 C  
HETATM   11  C   UNL     1      -8.296  15.845  65.977  1.00  0.00     0.170 C  
ENDBRANCH   7   9
ENDBRANCH   6   7
ENDBRANCH   4   6
ENDBRANCH   2   4
TORSDOF 4
ENDMDL
MODEL      312
REMARK 921   NORMALIZED FREE ENERGY PREDICTED BY IDOCK:   -1.67 KCAL/MOL
REMARK 922        TOTAL FREE ENERGY PREDICTED BY IDOCK:   -2.28 KCAL/MOL
REMARK 923 INTER-LIGAND FREE ENERGY PREDICTED BY IDOCK:   -2.15 KCAL/MOL
REMARK 924 INTRA-LIGAND FREE ENERGY PREDICTED BY IDOCK:   -0.13 KCAL/MOL
REMARK 927      BINDING AFFINITY PREDICTED BY RF-SCORE:    0.00 PKD
ROOT
HETATM    1  C   UNL     1     -10.016  12.444  66.846  1.00  0.00    -0.215 C  
HETATM    2  N   UNL     1      -9.437  11.140  66.519  1.00  0.00    -0.188 N  
HETATM    3  C   UNL     1      -9.069  10.932  65.120  1.00  0.00    -0.196 C  
ENDROOT
BRANCH   2   4
HETATM    4  C   UNL     1      -9.381  10.116  67.488  1.00  0.00    -0.151 C  
HETATM    5  S   UNL     1      -8.363  10.124  68.837  1.00  0.00    -0.139 S  
BRANCH   4   6
HETATM    6  S   UNL     1     -10.606   8.857  67.365  1.00  0.00    -0.164 SA 
BRANCH   6   7
HETATM    7  C   UNL     1      -9.722   7.405  66.855  1.00  0.00    -0.205 C  
HETATM    8  S   UNL     1      -8.316   7.464  65.922  1.00  0.00    -0.144 S  
BRANCH   7   9
HETATM    9  N   UNL     1     -10.317   6.188  67.277  1.00  0.00    -0.187 N  
HETATM   10  C   UNL     1     -10.846   5.925  68.622  1.00  0.00    -0.261 C  
HETATM   11  C   UNL     1     -10.475   5.030  66.388  1.00  0.00    -0.300 C  
ENDBRANCH   7   9
ENDBRANCH   6   7
ENDBRANCH   4   6
ENDBRANCH   2   4
TORSDOF 4
ENDMDL
MODEL      313
REMARK 921   NORMALIZED FREE ENERGY PREDICTED BY IDOCK:   -1.66 KCAL/MOL
REMARK 922        TOTAL FREE ENERGY PREDICTED BY IDOCK:   -2.27 KCAL/MOL
REMARK 923 INTER-LIGAND FREE ENERGY PREDICTED BY IDOCK:   -1.98 KCAL/MOL
REMARK 924 INTRA-LIGAND FREE ENERGY PREDICTED BY IDOCK:   -0.30 KCAL/MOL
REMARK 927      BINDING AFFINITY PREDICTED BY RF-SCORE:    0.00 PKD
ROOT
HETATM    1  C   UNL     1      -7.353  10.962  66.471  1.00  0.00    -0.142 C  
HETATM    2  N   UNL     1      -8.491  11.237  67.349  1.00  0.00    -0.134 N  
HETATM    3  C   UNL     1      -8.605  12.608  67.844  1.00  0.00    -0.181 C  
ENDROOT
BRANCH   2   4
HETATM    4  C   UNL     1      -9.329  10.190  67.787  1.00  0.00    -0.141 C  
HETATM    5  S   UNL     1      -9.692   9.862  69.405  1.00  0.00    -0.226 S  
BRANCH   4   6
HETATM    6  S   UNL     1     -10.200   9.311  66.534  1.00  0.00    -0.208 SA 
BRANCH   6   7
HETATM    7  C   UNL     1      -9.730   7.614  66.753  1.00  0.00    -0.222 C  
HETATM    8  S   UNL     1     -10.807   6.420  67.268  1.00  0.00    -0.398 S  
BRANCH   7   9
HETATM    9  N   UNL     1      -8.360   7.354  66.484  1.00  0.00    -0.119 N  
HETATM   10  C   UNL     1      -7.694   7.572  65.192  1.00  0.00    -0.111 C  
HETATM   11  C   UNL     1      -7.437   6.829  67.497  1.00  0.00    -0.097 C  
ENDBRANCH   7   9
ENDBRANCH   6   7
ENDBRANCH   4   6
ENDBRANCH   2   4
TORSDOF 4
ENDMDL
MODEL      314
REMARK 921   NORMALIZED FREE ENERGY PREDICTED BY IDOCK:   -1.66 KCAL/MOL
REMARK 922        TOTAL FREE ENERGY PREDICTED BY IDOCK:   -2.27 KCAL/MOL
REMARK 923 INTER-LIGAND FREE ENERGY PREDICTED BY IDOCK:   -2.08 KCAL/MOL
REMARK 924 INTRA-LIGAND FREE ENERGY PREDICTED BY IDOCK:   -0.20 KCAL/MOL
REMARK 927      BINDING AFFINITY PREDICTED BY RF-SCORE:    0.00 PKD
ROOT
HETATM    1  C   UNL     1      -9.330   5.228  70.033  1.00  0.00    -0.152 C  
HETATM    2  N   UNL     1      -9.384   5.714  68.653  1.00  0.00    -0.121 N  
HETATM    3  C   UNL     1      -9.703   4.717  67.633  1.00  0.00    -0.160 C  
ENDROOT
BRANCH   2   4
HETATM    4  C   UNL     1      -9.009   7.038  68.342  1.00  0.00    -0.122 C  
HETATM    5  S   UNL     1      -7.412   7.576  68.199  1.00  0.00    -0.107 S  
BRANCH   4   6
HETATM    6  S   UNL     1     -10.310   8.130  67.880  1.00  0.00    -0.205 SA 
BRANCH   6   7
HETATM    7  C   UNL     1     -10.416   9.306  69.206  1.00  0.00    -0.218 C  
HETATM    8  S   UNL     1     -10.307   8.868  70.833  1.00  0.00    -0.263 S  
BRANCH   7   9
HETATM    9  N   UNL     1     -10.628  10.642  68.777  1.00  0.00    -0.193 N  
HETATM   10  C   UNL     1     -11.884  11.390  68.923  1.00  0.00    -0.347 C  
HETATM   11  C   UNL     1      -9.584  11.443  68.127  1.00  0.00    -0.190 C  
ENDBRANCH   7   9
ENDBRANCH   6   7
ENDBRANCH   4   6
ENDBRANCH   2   4
TORSDOF 4
ENDMDL
MODEL      315
REMARK 921   NORMALIZED FREE ENERGY PREDICTED BY IDOCK:   -1.64 KCAL/MOL
REMARK 922        TOTAL FREE ENERGY PREDICTED BY IDOCK:   -2.25 KCAL/MOL
REMARK 923 INTER-LIGAND FREE ENERGY PREDICTED BY IDOCK:   -2.05 KCAL/MOL
REMARK 924 INTRA-LIGAND FREE ENERGY PREDICTED BY IDOCK:   -0.20 KCAL/MOL
REMARK 927      BINDING AFFINITY PREDICTED BY RF-SCORE:    0.00 PKD
ROOT
HETATM    1  C   UNL     1      -7.056   8.322  72.110  1.00  0.00    -0.090 C  
HETATM    2  N   UNL     1      -8.387   8.047  72.653  1.00  0.00    -0.150 N  
HETATM    3  C   UNL     1      -8.457   7.811  74.094  1.00  0.00    -0.251 C  
ENDROOT
BRANCH   2   4
HETATM    4  C   UNL     1      -9.495   7.887  71.794  1.00  0.00    -0.158 C  
HETATM    5  S   UNL     1     -10.721   9.032  71.583  1.00  0.00    -0.372 S  
BRANCH   4   6
HETATM    6  S   UNL     1      -9.464   6.481  70.735  1.00  0.00    -0.172 SA 
BRANCH   6   7
HETATM    7  C   UNL     1     -10.063   5.141  71.734  1.00  0.00    -0.200 C  
HETATM    8  S   UNL     1     -11.195   5.350  72.969  1.00  0.00    -0.291 S  
BRANCH   7   9
HETATM    9  N   UNL     1      -9.484   3.884  71.421  1.00  0.00    -0.140 N  
HETATM   10  C   UNL     1      -8.427   3.661  70.425  1.00  0.00    -0.057 C  
HETATM   11  C   UNL     1      -9.890   2.636  72.081  1.00  0.00    -0.165 C  
ENDBRANCH   7   9
ENDBRANCH   6   7
ENDBRANCH   4   6
ENDBRANCH   2   4
TORSDOF 4
ENDMDL
MODEL      316
REMARK 921   NORMALIZED FREE ENERGY PREDICTED BY IDOCK:   -1.64 KCAL/MOL
REMARK 922        TOTAL FREE ENERGY PREDICTED BY IDOCK:   -2.24 KCAL/MOL
REMARK 923 INTER-LIGAND FREE ENERGY PREDICTED BY IDOCK:   -1.98 KCAL/MOL
REMARK 924 INTRA-LIGAND FREE ENERGY PREDICTED BY IDOCK:   -0.25 KCAL/MOL
REMARK 927      BINDING AFFINITY PREDICTED BY RF-SCORE:    0.00 PKD
ROOT
HETATM    1  C   UNL     1      -7.252   6.953  71.974  1.00  0.00    -0.082 C  
HETATM    2  N   UNL     1      -8.664   7.312  72.118  1.00  0.00    -0.120 N  
HETATM    3  C   UNL     1      -9.019   8.048  73.330  1.00  0.00    -0.272 C  
ENDROOT
BRANCH   2   4
HETATM    4  C   UNL     1      -9.623   6.841  71.197  1.00  0.00    -0.173 C  
HETATM    5  S   UNL     1     -11.116   7.577  70.903  1.00  0.00    -0.268 S  
BRANCH   4   6
HETATM    6  S   UNL     1      -9.118   5.513  70.156  1.00  0.00    -0.139 SA 
BRANCH   6   7
HETATM    7  C   UNL     1      -8.999   6.223  68.533  1.00  0.00    -0.123 C  
HETATM    8  S   UNL     1      -7.856   7.397  68.125  1.00  0.00    -0.124 S  
BRANCH   7   9
HETATM    9  N   UNL     1      -9.967   5.736  67.617  1.00  0.00    -0.130 N  
HETATM   10  C   UNL     1     -11.144   6.482  67.151  1.00  0.00    -0.360 C  
HETATM   11  C   UNL     1      -9.893   4.397  67.018  1.00  0.00    -0.194 C  
ENDBRANCH   7   9
ENDBRANCH   6   7
ENDBRANCH   4   6
ENDBRANCH   2   4
TORSDOF 4
ENDMDL
MODEL      317
REMARK 921   NORMALIZED FREE ENERGY PREDICTED BY IDOCK:   -1.63 KCAL/MOL
REMARK 922        TOTAL FREE ENERGY PREDICTED BY IDOCK:   -2.23 KCAL/MOL
REMARK 923 INTER-LIGAND FREE ENERGY PREDICTED BY IDOCK:   -2.25 KCAL/MOL
REMARK 924 INTRA-LIGAND FREE ENERGY PREDICTED BY IDOCK:    0.02 KCAL/MOL
REMARK 927      BINDING AFFINITY PREDICTED BY RF-SCORE:    0.00 PKD
ROOT
HETATM    1  C   UNL     1      -9.598  15.758  67.852  1.00  0.00    -0.214 C  
HETATM    2  N   UNL     1     -10.556  15.069  68.718  1.00  0.00    -0.232 N  
HETATM    3  C   UNL     1     -11.349  15.920  69.604  1.00  0.00    -0.342 C  
ENDROOT
BRANCH   2   4
HETATM    4  C   UNL     1     -10.590  13.660  68.774  1.00  0.00    -0.231 C  
HETATM    5  S   UNL     1     -11.810  12.757  69.518  1.00  0.00    -0.282 S  
BRANCH   4   6
HETATM    6  S   UNL     1      -9.374  12.812  67.824  1.00  0.00    -0.207 SA 
BRANCH   6   7
HETATM    7  C   UNL     1      -9.818  11.097  67.936  1.00  0.00    -0.174 C  
HETATM    8  S   UNL     1     -11.018  10.394  66.979  1.00  0.00    -0.071 S  
BRANCH   7   9
HETATM    9  N   UNL     1      -9.094  10.376  68.921  1.00  0.00    -0.164 N  
HETATM   10  C   UNL     1      -9.630   9.269  69.726  1.00  0.00    -0.190 C  
HETATM   11  C   UNL     1      -7.693  10.665  69.248  1.00  0.00    -0.142 C  
ENDBRANCH   7   9
ENDBRANCH   6   7
ENDBRANCH   4   6
ENDBRANCH   2   4
TORSDOF 4
ENDMDL
MODEL      318
REMARK 921   NORMALIZED FREE ENERGY PREDICTED BY IDOCK:   -1.59 KCAL/MOL
REMARK 922        TOTAL FREE ENERGY PREDICTED BY IDOCK:   -2.19 KCAL/MOL
REMARK 923 INTER-LIGAND FREE ENERGY PREDICTED BY IDOCK:   -1.98 KCAL/MOL
REMARK 924 INTRA-LIGAND FREE ENERGY PREDICTED BY IDOCK:   -0.20 KCAL/MOL
REMARK 927      BINDING AFFINITY PREDICTED BY RF-SCORE:    0.00 PKD
ROOT
HETATM    1  C   UNL     1      -9.650   9.225  69.829  1.00  0.00    -0.190 C  
HETATM    2  N   UNL     1     -10.402   8.696  68.691  1.00  0.00    -0.198 N  
HETATM    3  C   UNL     1     -10.938   9.686  67.758  1.00  0.00    -0.139 C  
ENDROOT
BRANCH   2   4
HETATM    4  C   UNL     1     -10.696   7.319  68.601  1.00  0.00    -0.138 C  
HETATM    5  S   UNL     1     -11.286   6.377  69.875  1.00  0.00    -0.437 S  
BRANCH   4   6
HETATM    6  S   UNL     1     -10.627   6.610  66.991  1.00  0.00    -0.347 SA 
BRANCH   6   7
HETATM    7  C   UNL     1      -8.896   6.499  66.612  1.00  0.00    -0.132 C  
HETATM    8  S   UNL     1      -7.949   7.846  66.237  1.00  0.00    -0.107 S  
BRANCH   7   9
HETATM    9  N   UNL     1      -8.386   5.175  66.625  1.00  0.00    -0.108 N  
HETATM   10  C   UNL     1      -8.385   4.278  67.789  1.00  0.00    -0.098 C  
HETATM   11  C   UNL     1      -7.790   4.542  65.442  1.00  0.00    -0.090 C  
ENDBRANCH   7   9
ENDBRANCH   6   7
ENDBRANCH   4   6
ENDBRANCH   2   4
TORSDOF 4
ENDMDL
MODEL      319
REMARK 921   NORMALIZED FREE ENERGY PREDICTED BY IDOCK:   -1.58 KCAL/MOL
REMARK 922        TOTAL FREE ENERGY PREDICTED BY IDOCK:   -2.17 KCAL/MOL
REMARK 923 INTER-LIGAND FREE ENERGY PREDICTED BY IDOCK:   -1.85 KCAL/MOL
REMARK 924 INTRA-LIGAND FREE ENERGY PREDICTED BY IDOCK:   -0.32 KCAL/MOL
REMARK 927      BINDING AFFINITY PREDICTED BY RF-SCORE:    0.00 PKD
ROOT
HETATM    1  C   UNL     1     -10.250   5.737  73.646  1.00  0.00    -0.222 C  
HETATM    2  N   UNL     1      -9.851   6.752  72.670  1.00  0.00    -0.167 N  
HETATM    3  C   UNL     1      -9.399   8.029  73.219  1.00  0.00    -0.275 C  
ENDROOT
BRANCH   2   4
HETATM    4  C   UNL     1     -10.035   6.532  71.289  1.00  0.00    -0.181 C  
HETATM    5  S   UNL     1     -11.531   6.559  70.502  1.00  0.00    -0.388 S  
BRANCH   4   6
HETATM    6  S   UNL     1      -8.572   6.425  70.314  1.00  0.00    -0.136 SA 
BRANCH   6   7
HETATM    7  C   UNL     1      -7.988   4.765  70.544  1.00  0.00    -0.072 C  
HETATM    8  S   UNL     1      -6.419   4.405  71.053  1.00  0.00    -0.030 S  
BRANCH   7   9
HETATM    9  N   UNL     1      -8.948   3.766  70.234  1.00  0.00    -0.093 N  
HETATM   10  C   UNL     1      -9.500   3.506  68.897  1.00  0.00    -0.140 C  
HETATM   11  C   UNL     1      -9.506   2.860  71.245  1.00  0.00    -0.149 C  
ENDBRANCH   7   9
ENDBRANCH   6   7
ENDBRANCH   4   6
ENDBRANCH   2   4
TORSDOF 4
ENDMDL
MODEL      320
REMARK 921   NORMALIZED FREE ENERGY PREDICTED BY IDOCK:   -1.58 KCAL/MOL
REMARK 922        TOTAL FREE ENERGY PREDICTED BY IDOCK:   -2.17 KCAL/MOL
REMARK 923 INTER-LIGAND FREE ENERGY PREDICTED BY IDOCK:   -1.88 KCAL/MOL
REMARK 924 INTRA-LIGAND FREE ENERGY PREDICTED BY IDOCK:   -0.29 KCAL/MOL
REMARK 927      BINDING AFFINITY PREDICTED BY RF-SCORE:    0.00 PKD
ROOT
HETATM    1  C   UNL     1      -7.936   6.799  64.842  1.00  0.00    -0.124 C  
HETATM    2  N   UNL     1      -7.912   7.000  66.292  1.00  0.00    -0.110 N  
HETATM    3  C   UNL     1      -6.630   6.764  66.953  1.00  0.00    -0.044 C  
ENDROOT
BRANCH   2   4
HETATM    4  C   UNL     1      -9.103   7.267  66.999  1.00  0.00    -0.135 C  
HETATM    5  S   UNL     1     -10.368   6.163  67.205  1.00  0.00    -0.267 S  
BRANCH   4   6
HETATM    6  S   UNL     1      -9.160   8.787  67.886  1.00  0.00    -0.139 SA 
BRANCH   6   7
HETATM    7  C   UNL     1      -8.662  10.022  66.711  1.00  0.00    -0.129 C  
HETATM    8  S   UNL     1      -7.072  10.573  66.575  1.00  0.00    -0.127 S  
BRANCH   7   9
HETATM    9  N   UNL     1      -9.725  10.525  65.917  1.00  0.00    -0.205 N  
HETATM   10  C   UNL     1      -9.852  10.353  64.463  1.00  0.00    -0.339 C  
HETATM   11  C   UNL     1     -10.844  11.291  66.480  1.00  0.00    -0.265 C  
ENDBRANCH   7   9
ENDBRANCH   6   7
ENDBRANCH   4   6
ENDBRANCH   2   4
TORSDOF 4
ENDMDL
MODEL      321
REMARK 921   NORMALIZED FREE ENERGY PREDICTED BY IDOCK:   -1.58 KCAL/MOL
REMARK 922        TOTAL FREE ENERGY PREDICTED BY IDOCK:   -2.17 KCAL/MOL
REMARK 923 INTER-LIGAND FREE ENERGY PREDICTED BY IDOCK:   -1.91 KCAL/MOL
REMARK 924 INTRA-LIGAND FREE ENERGY PREDICTED BY IDOCK:   -0.26 KCAL/MOL
REMARK 927      BINDING AFFINITY PREDICTED BY RF-SCORE:    0.00 PKD
ROOT
HETATM    1  C   UNL     1      -8.207   7.531  65.762  1.00  0.00    -0.137 C  
HETATM    2  N   UNL     1      -8.055   7.932  67.162  1.00  0.00    -0.116 N  
HETATM    3  C   UNL     1      -6.684   8.042  67.654  1.00  0.00    -0.069 C  
ENDROOT
BRANCH   2   4
HETATM    4  C   UNL     1      -9.184   8.058  67.999  1.00  0.00    -0.135 C  
HETATM    5  S   UNL     1     -10.505   7.005  67.998  1.00  0.00    -0.214 S  
BRANCH   4   6
HETATM    6  S   UNL     1      -9.088   9.288  69.256  1.00  0.00    -0.158 SA 
BRANCH   6   7
HETATM    7  C   UNL     1      -9.225  10.835  68.397  1.00  0.00    -0.164 C  
HETATM    8  S   UNL     1      -7.931  11.906  68.220  1.00  0.00    -0.153 S  
BRANCH   7   9
HETATM    9  N   UNL     1     -10.525  11.105  67.896  1.00  0.00    -0.182 N  
HETATM   10  C   UNL     1     -11.713  11.367  68.719  1.00  0.00    -0.339 C  
HETATM   11  C   UNL     1     -10.829  11.155  66.460  1.00  0.00    -0.245 C  
ENDBRANCH   7   9
ENDBRANCH   6   7
ENDBRANCH   4   6
ENDBRANCH   2   4
TORSDOF 4
ENDMDL
MODEL      322
REMARK 921   NORMALIZED FREE ENERGY PREDICTED BY IDOCK:   -1.58 KCAL/MOL
REMARK 922        TOTAL FREE ENERGY PREDICTED BY IDOCK:   -2.16 KCAL/MOL
REMARK 923 INTER-LIGAND FREE ENERGY PREDICTED BY IDOCK:   -2.07 KCAL/MOL
REMARK 924 INTRA-LIGAND FREE ENERGY PREDICTED BY IDOCK:   -0.10 KCAL/MOL
REMARK 927      BINDING AFFINITY PREDICTED BY RF-SCORE:    0.00 PKD
ROOT
HETATM    1  C   UNL     1      -9.939   9.637  69.015  1.00  0.00    -0.185 C  
HETATM    2  N   UNL     1     -10.395   9.832  67.638  1.00  0.00    -0.214 N  
HETATM    3  C   UNL     1     -10.750   8.621  66.900  1.00  0.00    -0.082 C  
ENDROOT
BRANCH   2   4
HETATM    4  C   UNL     1     -10.349  11.109  67.040  1.00  0.00    -0.224 C  
HETATM    5  S   UNL     1     -11.655  12.178  66.953  1.00  0.00    -0.306 S  
BRANCH   4   6
HETATM    6  S   UNL     1      -8.759  11.680  66.541  1.00  0.00    -0.159 SA 
BRANCH   6   7
HETATM    7  C   UNL     1      -8.090  10.367  65.551  1.00  0.00    -0.156 C  
HETATM    8  S   UNL     1      -6.763   9.438  66.031  1.00  0.00    -0.082 S  
BRANCH   7   9
HETATM    9  N   UNL     1      -8.751  10.186  64.309  1.00  0.00    -0.188 N  
HETATM   10  C   UNL     1      -9.716  11.123  63.717  1.00  0.00    -0.301 C  
HETATM   11  C   UNL     1      -8.532   9.011  63.456  1.00  0.00    -0.169 C  
ENDBRANCH   7   9
ENDBRANCH   6   7
ENDBRANCH   4   6
ENDBRANCH   2   4
TORSDOF 4
ENDMDL
MODEL      323
REMARK 921   NORMALIZED FREE ENERGY PREDICTED BY IDOCK:   -1.57 KCAL/MOL
REMARK 922        TOTAL FREE ENERGY PREDICTED BY IDOCK:   -2.16 KCAL/MOL
REMARK 923 INTER-LIGAND FREE ENERGY PREDICTED BY IDOCK:   -1.95 KCAL/MOL
REMARK 924 INTRA-LIGAND FREE ENERGY PREDICTED BY IDOCK:   -0.21 KCAL/MOL
REMARK 927      BINDING AFFINITY PREDICTED BY RF-SCORE:    0.00 PKD
ROOT
HETATM    1  C   UNL     1      -6.978   7.611  69.645  1.00  0.00    -0.052 C  
HETATM    2  N   UNL     1      -8.354   7.147  69.462  1.00  0.00    -0.131 N  
HETATM    3  C   UNL     1      -8.602   5.737  69.757  1.00  0.00    -0.127 C  
ENDROOT
BRANCH   2   4
HETATM    4  C   UNL     1      -9.330   7.996  68.899  1.00  0.00    -0.150 C  
HETATM    5  S   UNL     1     -10.583   8.727  69.766  1.00  0.00    -0.216 S  
BRANCH   4   6
HETATM    6  S   UNL     1      -9.079   8.467  67.221  1.00  0.00    -0.139 SA 
BRANCH   6   7
HETATM    7  C   UNL     1      -9.107  10.241  67.233  1.00  0.00    -0.138 C  
HETATM    8  S   UNL     1      -8.053  11.171  68.168  1.00  0.00    -0.135 S  
BRANCH   7   9
HETATM    9  N   UNL     1     -10.114  10.809  66.408  1.00  0.00    -0.220 N  
HETATM   10  C   UNL     1     -10.224  10.622  64.955  1.00  0.00    -0.324 C  
HETATM   11  C   UNL     1     -11.184  11.665  66.935  1.00  0.00    -0.313 C  
ENDBRANCH   7   9
ENDBRANCH   6   7
ENDBRANCH   4   6
ENDBRANCH   2   4
TORSDOF 4
ENDMDL
MODEL      324
REMARK 921   NORMALIZED FREE ENERGY PREDICTED BY IDOCK:   -1.57 KCAL/MOL
REMARK 922        TOTAL FREE ENERGY PREDICTED BY IDOCK:   -2.15 KCAL/MOL
REMARK 923 INTER-LIGAND FREE ENERGY PREDICTED BY IDOCK:   -2.17 KCAL/MOL
REMARK 924 INTRA-LIGAND FREE ENERGY PREDICTED BY IDOCK:    0.01 KCAL/MOL
REMARK 927      BINDING AFFINITY PREDICTED BY RF-SCORE:    0.00 PKD
ROOT
HETATM    1  C   UNL     1      -8.991   5.040  65.284  1.00  0.00    -0.151 C  
HETATM    2  N   UNL     1      -9.401   6.114  66.190  1.00  0.00    -0.139 N  
HETATM    3  C   UNL     1     -10.692   5.938  66.853  1.00  0.00    -0.321 C  
ENDROOT
BRANCH   2   4
HETATM    4  C   UNL     1      -8.642   7.299  66.289  1.00  0.00    -0.142 C  
HETATM    5  S   UNL     1      -8.245   8.298  64.985  1.00  0.00    -0.147 S  
BRANCH   4   6
HETATM    6  S   UNL     1      -8.270   7.853  67.919  1.00  0.00    -0.130 SA 
BRANCH   6   7
HETATM    7  C   UNL     1      -9.708   8.757  68.436  1.00  0.00    -0.162 C  
HETATM    8  S   UNL     1     -10.504   9.865  67.441  1.00  0.00    -0.272 S  
BRANCH   7   9
HETATM    9  N   UNL     1     -10.113   8.486  69.769  1.00  0.00    -0.192 N  
HETATM   10  C   UNL     1     -10.428   9.502  70.782  1.00  0.00    -0.314 C  
HETATM   11  C   UNL     1     -10.265   7.122  70.292  1.00  0.00    -0.198 C  
ENDBRANCH   7   9
ENDBRANCH   6   7
ENDBRANCH   4   6
ENDBRANCH   2   4
TORSDOF 4
ENDMDL
MODEL      325
REMARK 921   NORMALIZED FREE ENERGY PREDICTED BY IDOCK:   -1.56 KCAL/MOL
REMARK 922        TOTAL FREE ENERGY PREDICTED BY IDOCK:   -2.14 KCAL/MOL
REMARK 923 INTER-LIGAND FREE ENERGY PREDICTED BY IDOCK:   -2.02 KCAL/MOL
REMARK 924 INTRA-LIGAND FREE ENERGY PREDICTED BY IDOCK:   -0.12 KCAL/MOL
REMARK 927      BINDING AFFINITY PREDICTED BY RF-SCORE:    0.00 PKD
ROOT
HETATM    1  C   UNL     1      -9.171   8.548  72.377  1.00  0.00    -0.258 C  
HETATM    2  N   UNL     1     -10.065   8.261  71.254  1.00  0.00    -0.191 N  
HETATM    3  C   UNL     1     -11.108   9.253  70.993  1.00  0.00    -0.326 C  
ENDROOT
BRANCH   2   4
HETATM    4  C   UNL     1      -9.991   7.029  70.572  1.00  0.00    -0.183 C  
HETATM    5  S   UNL     1     -11.186   6.427  69.539  1.00  0.00    -0.394 S  
BRANCH   4   6
HETATM    6  S   UNL     1      -8.452   6.178  70.666  1.00  0.00    -0.135 SA 
BRANCH   6   7
HETATM    7  C   UNL     1      -8.639   5.037  72.013  1.00  0.00    -0.125 C  
HETATM    8  S   UNL     1      -9.894   3.910  72.096  1.00  0.00    -0.171 S  
BRANCH   7   9
HETATM    9  N   UNL     1      -7.657   5.176  73.028  1.00  0.00    -0.095 N  
HETATM   10  C   UNL     1      -7.936   5.389  74.455  1.00  0.00    -0.105 C  
HETATM   11  C   UNL     1      -6.216   5.116  72.753  1.00  0.00    -0.038 C  
ENDBRANCH   7   9
ENDBRANCH   6   7
ENDBRANCH   4   6
ENDBRANCH   2   4
TORSDOF 4
ENDMDL
MODEL      326
REMARK 921   NORMALIZED FREE ENERGY PREDICTED BY IDOCK:   -1.53 KCAL/MOL
REMARK 922        TOTAL FREE ENERGY PREDICTED BY IDOCK:   -2.11 KCAL/MOL
REMARK 923 INTER-LIGAND FREE ENERGY PREDICTED BY IDOCK:   -1.98 KCAL/MOL
REMARK 924 INTRA-LIGAND FREE ENERGY PREDICTED BY IDOCK:   -0.13 KCAL/MOL
REMARK 927      BINDING AFFINITY PREDICTED BY RF-SCORE:    0.00 PKD
ROOT
HETATM    1  C   UNL     1     -12.250  13.946  67.423  1.00  0.00    -0.256 C  
HETATM    2  N   UNL     1     -11.423  12.819  67.858  1.00  0.00    -0.295 N  
HETATM    3  C   UNL     1     -11.638  12.355  69.228  1.00  0.00    -0.319 C  
ENDROOT
BRANCH   2   4
HETATM    4  C   UNL     1     -10.391  12.324  67.033  1.00  0.00    -0.219 C  
HETATM    5  S   UNL     1     -10.405  10.811  66.279  1.00  0.00    -0.225 S  
BRANCH   4   6
HETATM    6  S   UNL     1      -9.111  13.460  66.618  1.00  0.00    -0.109 SA 
BRANCH   6   7
HETATM    7  C   UNL     1      -7.839  13.180  67.824  1.00  0.00    -0.152 C  
HETATM    8  S   UNL     1      -7.719  11.753  68.719  1.00  0.00    -0.046 S  
BRANCH   7   9
HETATM    9  N   UNL     1      -6.949  14.273  67.989  1.00  0.00    -0.126 N  
HETATM   10  C   UNL     1      -7.351  15.675  68.166  1.00  0.00    -0.118 C  
HETATM   11  C   UNL     1      -5.490  14.113  68.004  1.00  0.00    -0.119 C  
ENDBRANCH   7   9
ENDBRANCH   6   7
ENDBRANCH   4   6
ENDBRANCH   2   4
TORSDOF 4
ENDMDL
MODEL      327
REMARK 921   NORMALIZED FREE ENERGY PREDICTED BY IDOCK:   -1.53 KCAL/MOL
REMARK 922        TOTAL FREE ENERGY PREDICTED BY IDOCK:   -2.10 KCAL/MOL
REMARK 923 INTER-LIGAND FREE ENERGY PREDICTED BY IDOCK:   -1.87 KCAL/MOL
REMARK 924 INTRA-LIGAND FREE ENERGY PREDICTED BY IDOCK:   -0.23 KCAL/MOL
REMARK 927      BINDING AFFINITY PREDICTED BY RF-SCORE:    0.00 PKD
ROOT
HETATM    1  C   UNL     1      -8.325  10.955  66.891  1.00  0.00    -0.133 C  
HETATM    2  N   UNL     1      -8.930   9.625  66.982  1.00  0.00    -0.134 N  
HETATM    3  C   UNL     1     -10.391   9.581  66.978  1.00  0.00    -0.250 C  
ENDROOT
BRANCH   2   4
HETATM    4  C   UNL     1      -8.128   8.485  67.202  1.00  0.00    -0.104 C  
HETATM    5  S   UNL     1      -7.536   7.477  65.981  1.00  0.00    -0.085 S  
BRANCH   4   6
HETATM    6  S   UNL     1      -7.556   8.239  68.849  1.00  0.00    -0.095 SA 
BRANCH   6   7
HETATM    7  C   UNL     1      -9.026   7.987  69.812  1.00  0.00    -0.145 C  
HETATM    8  S   UNL     1      -9.655   9.157  70.854  1.00  0.00    -0.276 S  
BRANCH   7   9
HETATM    9  N   UNL     1      -9.609   6.703  69.650  1.00  0.00    -0.151 N  
HETATM   10  C   UNL     1     -11.040   6.398  69.786  1.00  0.00    -0.396 C  
HETATM   11  C   UNL     1      -8.822   5.509  69.317  1.00  0.00    -0.106 C  
ENDBRANCH   7   9
ENDBRANCH   6   7
ENDBRANCH   4   6
ENDBRANCH   2   4
TORSDOF 4
ENDMDL
MODEL      328
REMARK 921   NORMALIZED FREE ENERGY PREDICTED BY IDOCK:   -1.52 KCAL/MOL
REMARK 922        TOTAL FREE ENERGY PREDICTED BY IDOCK:   -2.10 KCAL/MOL
REMARK 923 INTER-LIGAND FREE ENERGY PREDICTED BY IDOCK:   -1.84 KCAL/MOL
REMARK 924 INTRA-LIGAND FREE ENERGY PREDICTED BY IDOCK:   -0.25 KCAL/MOL
REMARK 927      BINDING AFFINITY PREDICTED BY RF-SCORE:    0.00 PKD
ROOT
HETATM    1  C   UNL     1      -8.608   5.270  65.119  1.00  0.00    -0.151 C  
HETATM    2  N   UNL     1      -8.542   5.221  66.581  1.00  0.00    -0.111 N  
HETATM    3  C   UNL     1      -8.704   3.901  67.188  1.00  0.00    -0.111 C  
ENDROOT
BRANCH   2   4
HETATM    4  C   UNL     1      -8.468   6.410  67.337  1.00  0.00    -0.108 C  
HETATM    5  S   UNL     1      -8.987   7.926  66.798  1.00  0.00    -0.153 S  
BRANCH   4   6
HETATM    6  S   UNL     1      -7.985   6.235  69.021  1.00  0.00    -0.111 SA 
BRANCH   6   7
HETATM    7  C   UNL     1      -9.406   6.734  69.960  1.00  0.00    -0.158 C  
HETATM    8  S   UNL     1     -10.919   6.001  69.799  1.00  0.00    -0.401 S  
BRANCH   7   9
HETATM    9  N   UNL     1      -9.165   7.823  70.838  1.00  0.00    -0.152 N  
HETATM   10  C   UNL     1      -9.300   9.243  70.485  1.00  0.00    -0.264 C  
HETATM   11  C   UNL     1      -8.745   7.641  72.233  1.00  0.00    -0.124 C  
ENDBRANCH   7   9
ENDBRANCH   6   7
ENDBRANCH   4   6
ENDBRANCH   2   4
TORSDOF 4
ENDMDL
MODEL      329
REMARK 921   NORMALIZED FREE ENERGY PREDICTED BY IDOCK:   -1.50 KCAL/MOL
REMARK 922        TOTAL FREE ENERGY PREDICTED BY IDOCK:   -2.07 KCAL/MOL
REMARK 923 INTER-LIGAND FREE ENERGY PREDICTED BY IDOCK:   -1.72 KCAL/MOL
REMARK 924 INTRA-LIGAND FREE ENERGY PREDICTED BY IDOCK:   -0.35 KCAL/MOL
REMARK 927      BINDING AFFINITY PREDICTED BY RF-SCORE:    0.00 PKD
ROOT
HETATM    1  C   UNL     1      -8.280   9.003  68.106  1.00  0.00    -0.113 C  
HETATM    2  N   UNL     1      -9.373   8.041  67.959  1.00  0.00    -0.138 N  
HETATM    3  C   UNL     1     -10.322   8.307  66.879  1.00  0.00    -0.320 C  
ENDROOT
BRANCH   2   4
HETATM    4  C   UNL     1      -9.554   7.009  68.903  1.00  0.00    -0.140 C  
HETATM    5  S   UNL     1     -11.056   6.427  69.414  1.00  0.00    -0.390 S  
BRANCH   4   6
HETATM    6  S   UNL     1      -8.101   6.156  69.415  1.00  0.00    -0.113 SA 
BRANCH   6   7
HETATM    7  C   UNL     1      -8.155   4.603  68.557  1.00  0.00    -0.083 C  
HETATM    8  S   UNL     1      -8.002   3.114  69.340  1.00  0.00    -0.048 S  
BRANCH   7   9
HETATM    9  N   UNL     1      -8.310   4.724  67.152  1.00  0.00    -0.106 N  
HETATM   10  C   UNL     1      -9.422   4.167  66.370  1.00  0.00    -0.189 C  
HETATM   11  C   UNL     1      -7.348   5.441  66.306  1.00  0.00    -0.082 C  
ENDBRANCH   7   9
ENDBRANCH   6   7
ENDBRANCH   4   6
ENDBRANCH   2   4
TORSDOF 4
ENDMDL
MODEL      330
REMARK 921   NORMALIZED FREE ENERGY PREDICTED BY IDOCK:   -1.50 KCAL/MOL
REMARK 922        TOTAL FREE ENERGY PREDICTED BY IDOCK:   -2.07 KCAL/MOL
REMARK 923 INTER-LIGAND FREE ENERGY PREDICTED BY IDOCK:   -1.75 KCAL/MOL
REMARK 924 INTRA-LIGAND FREE ENERGY PREDICTED BY IDOCK:   -0.32 KCAL/MOL
REMARK 927      BINDING AFFINITY PREDICTED BY RF-SCORE:    0.00 PKD
ROOT
HETATM    1  C   UNL     1      -9.940   9.567  67.739  1.00  0.00    -0.174 C  
HETATM    2  N   UNL     1      -8.479   9.488  67.691  1.00  0.00    -0.122 N  
HETATM    3  C   UNL     1      -7.826  10.269  66.642  1.00  0.00    -0.116 C  
ENDROOT
BRANCH   2   4
HETATM    4  C   UNL     1      -7.780   8.594  68.530  1.00  0.00    -0.100 C  
HETATM    5  S   UNL     1      -6.693   9.059  69.738  1.00  0.00    -0.051 S  
BRANCH   4   6
HETATM    6  S   UNL     1      -8.245   6.898  68.421  1.00  0.00    -0.120 SA 
BRANCH   6   7
HETATM    7  C   UNL     1      -8.785   6.465  70.056  1.00  0.00    -0.142 C  
HETATM    8  S   UNL     1      -7.845   5.554  71.123  1.00  0.00    -0.111 S  
BRANCH   7   9
HETATM    9  N   UNL     1     -10.088   6.928  70.375  1.00  0.00    -0.187 N  
HETATM   10  C   UNL     1     -11.333   6.442  69.766  1.00  0.00    -0.427 C  
HETATM   11  C   UNL     1     -10.337   7.969  71.380  1.00  0.00    -0.200 C  
ENDBRANCH   7   9
ENDBRANCH   6   7
ENDBRANCH   4   6
ENDBRANCH   2   4
TORSDOF 4
ENDMDL
MODEL      331
REMARK 921   NORMALIZED FREE ENERGY PREDICTED BY IDOCK:   -1.49 KCAL/MOL
REMARK 922        TOTAL FREE ENERGY PREDICTED BY IDOCK:   -2.06 KCAL/MOL
REMARK 923 INTER-LIGAND FREE ENERGY PREDICTED BY IDOCK:   -1.87 KCAL/MOL
REMARK 924 INTRA-LIGAND FREE ENERGY PREDICTED BY IDOCK:   -0.19 KCAL/MOL
REMARK 927      BINDING AFFINITY PREDICTED BY RF-SCORE:    0.00 PKD
ROOT
HETATM    1  C   UNL     1      -9.868   5.265  70.567  1.00  0.00    -0.207 C  
HETATM    2  N   UNL     1     -10.066   6.417  69.686  1.00  0.00    -0.170 N  
HETATM    3  C   UNL     1     -11.132   6.293  68.694  1.00  0.00    -0.325 C  
ENDROOT
BRANCH   2   4
HETATM    4  C   UNL     1      -9.175   7.511  69.722  1.00  0.00    -0.147 C  
HETATM    5  S   UNL     1      -8.356   8.039  71.104  1.00  0.00    -0.122 S  
BRANCH   4   6
HETATM    6  S   UNL     1      -8.754   8.226  68.169  1.00  0.00    -0.136 SA 
BRANCH   6   7
HETATM    7  C   UNL     1      -9.283   9.916  68.283  1.00  0.00    -0.129 C  
HETATM    8  S   UNL     1     -10.828  10.363  68.798  1.00  0.00    -0.249 S  
BRANCH   7   9
HETATM    9  N   UNL     1      -8.303  10.857  67.875  1.00  0.00    -0.117 N  
HETATM   10  C   UNL     1      -7.041  10.528  67.197  1.00  0.00    -0.091 C  
HETATM   11  C   UNL     1      -8.449  12.302  68.092  1.00  0.00    -0.176 C  
ENDBRANCH   7   9
ENDBRANCH   6   7
ENDBRANCH   4   6
ENDBRANCH   2   4
TORSDOF 4
ENDMDL
MODEL      332
REMARK 921   NORMALIZED FREE ENERGY PREDICTED BY IDOCK:   -1.47 KCAL/MOL
REMARK 922        TOTAL FREE ENERGY PREDICTED BY IDOCK:   -2.03 KCAL/MOL
REMARK 923 INTER-LIGAND FREE ENERGY PREDICTED BY IDOCK:   -1.72 KCAL/MOL
REMARK 924 INTRA-LIGAND FREE ENERGY PREDICTED BY IDOCK:   -0.31 KCAL/MOL
REMARK 927      BINDING AFFINITY PREDICTED BY RF-SCORE:    0.00 PKD
ROOT
HETATM    1  C   UNL     1      -7.615   8.065  71.042  1.00  0.00    -0.083 C  
HETATM    2  N   UNL     1      -9.079   8.041  71.029  1.00  0.00    -0.145 N  
HETATM    3  C   UNL     1      -9.741   8.616  72.198  1.00  0.00    -0.313 C  
ENDROOT
BRANCH   2   4
HETATM    4  C   UNL     1      -9.778   7.371  70.003  1.00  0.00    -0.175 C  
HETATM    5  S   UNL     1     -11.175   6.448  70.236  1.00  0.00    -0.403 S  
BRANCH   4   6
HETATM    6  S   UNL     1      -9.251   7.701  68.356  1.00  0.00    -0.139 SA 
BRANCH   6   7
HETATM    7  C   UNL     1      -8.823   6.115  67.684  1.00  0.00    -0.103 C  
HETATM    8  S   UNL     1      -9.671   5.396  66.413  1.00  0.00    -0.173 S  
BRANCH   7   9
HETATM    9  N   UNL     1      -7.723   5.492  68.328  1.00  0.00    -0.084 N  
HETATM   10  C   UNL     1      -7.819   4.386  69.291  1.00  0.00    -0.058 C  
HETATM   11  C   UNL     1      -6.331   5.896  68.093  1.00  0.00    -0.044 C  
ENDBRANCH   7   9
ENDBRANCH   6   7
ENDBRANCH   4   6
ENDBRANCH   2   4
TORSDOF 4
ENDMDL
MODEL      333
REMARK 921   NORMALIZED FREE ENERGY PREDICTED BY IDOCK:   -1.45 KCAL/MOL
REMARK 922        TOTAL FREE ENERGY PREDICTED BY IDOCK:   -2.01 KCAL/MOL
REMARK 923 INTER-LIGAND FREE ENERGY PREDICTED BY IDOCK:   -1.79 KCAL/MOL
REMARK 924 INTRA-LIGAND FREE ENERGY PREDICTED BY IDOCK:   -0.22 KCAL/MOL
REMARK 927      BINDING AFFINITY PREDICTED BY RF-SCORE:    0.00 PKD
ROOT
HETATM    1  C   UNL     1      -8.170   5.832  72.844  1.00  0.00    -0.119 C  
HETATM    2  N   UNL     1      -9.196   6.660  72.208  1.00  0.00    -0.138 N  
HETATM    3  C   UNL     1      -8.955   8.101  72.215  1.00  0.00    -0.189 C  
ENDROOT
BRANCH   2   4
HETATM    4  C   UNL     1     -10.400   6.085  71.749  1.00  0.00    -0.215 C  
HETATM    5  S   UNL     1     -11.470   5.198  72.712  1.00  0.00    -0.138 S  
BRANCH   4   6
HETATM    6  S   UNL     1     -10.892   6.507  70.112  1.00  0.00    -0.312 SA 
BRANCH   6   7
HETATM    7  C   UNL     1      -9.668   5.770  69.060  1.00  0.00    -0.140 C  
HETATM    8  S   UNL     1      -9.382   4.106  69.007  1.00  0.00    -0.175 S  
BRANCH   7   9
HETATM    9  N   UNL     1      -8.930   6.705  68.288  1.00  0.00    -0.123 N  
HETATM   10  C   UNL     1      -9.513   7.703  67.382  1.00  0.00    -0.143 C  
HETATM   11  C   UNL     1      -7.464   6.778  68.317  1.00  0.00    -0.099 C  
ENDBRANCH   7   9
ENDBRANCH   6   7
ENDBRANCH   4   6
ENDBRANCH   2   4
TORSDOF 4
ENDMDL
MODEL      334
REMARK 921   NORMALIZED FREE ENERGY PREDICTED BY IDOCK:   -1.45 KCAL/MOL
REMARK 922        TOTAL FREE ENERGY PREDICTED BY IDOCK:   -2.01 KCAL/MOL
REMARK 923 INTER-LIGAND FREE ENERGY PREDICTED BY IDOCK:   -1.77 KCAL/MOL
REMARK 924 INTRA-LIGAND FREE ENERGY PREDICTED BY IDOCK:   -0.24 KCAL/MOL
REMARK 927      BINDING AFFINITY PREDICTED BY RF-SCORE:    0.00 PKD
ROOT
HETATM    1  C   UNL     1      -7.152   8.365  69.925  1.00  0.00    -0.051 C  
HETATM    2  N   UNL     1      -8.429   7.861  69.416  1.00  0.00    -0.132 N  
HETATM    3  C   UNL     1      -8.488   7.594  67.981  1.00  0.00    -0.123 C  
ENDROOT
BRANCH   2   4
HETATM    4  C   UNL     1      -9.557   7.781  70.259  1.00  0.00    -0.175 C  
HETATM    5  S   UNL     1     -10.186   9.074  71.148  1.00  0.00    -0.318 S  
BRANCH   4   6
HETATM    6  S   UNL     1     -10.468   6.275  70.204  1.00  0.00    -0.244 SA 
BRANCH   6   7
HETATM    7  C   UNL     1      -9.421   5.077  70.990  1.00  0.00    -0.162 C  
HETATM    8  S   UNL     1      -8.111   4.348  70.211  1.00  0.00    -0.062 S  
BRANCH   7   9
HETATM    9  N   UNL     1      -9.799   4.764  72.322  1.00  0.00    -0.162 N  
HETATM   10  C   UNL     1      -9.939   5.738  73.414  1.00  0.00    -0.177 C  
HETATM   11  C   UNL     1     -10.101   3.397  72.762  1.00  0.00    -0.161 C  
ENDBRANCH   7   9
ENDBRANCH   6   7
ENDBRANCH   4   6
ENDBRANCH   2   4
TORSDOF 4
ENDMDL
MODEL      335
REMARK 921   NORMALIZED FREE ENERGY PREDICTED BY IDOCK:   -1.45 KCAL/MOL
REMARK 922        TOTAL FREE ENERGY PREDICTED BY IDOCK:   -2.00 KCAL/MOL
REMARK 923 INTER-LIGAND FREE ENERGY PREDICTED BY IDOCK:   -1.83 KCAL/MOL
REMARK 924 INTRA-LIGAND FREE ENERGY PREDICTED BY IDOCK:   -0.18 KCAL/MOL
REMARK 927      BINDING AFFINITY PREDICTED BY RF-SCORE:    0.00 PKD
ROOT
HETATM    1  C   UNL     1      -7.494   3.730  72.094  1.00  0.00    -0.057 C  
HETATM    2  N   UNL     1      -8.808   4.134  71.591  1.00  0.00    -0.111 N  
HETATM    3  C   UNL     1      -9.938   3.906  72.489  1.00  0.00    -0.162 C  
ENDROOT
BRANCH   2   4
HETATM    4  C   UNL     1      -8.961   4.582  70.262  1.00  0.00    -0.090 C  
HETATM    5  S   UNL     1      -8.085   3.994  68.942  1.00  0.00    -0.070 S  
BRANCH   4   6
HETATM    6  S   UNL     1     -10.303   5.682  69.960  1.00  0.00    -0.299 SA 
BRANCH   6   7
HETATM    7  C   UNL     1      -9.680   7.291  70.376  1.00  0.00    -0.172 C  
HETATM    8  S   UNL     1      -8.496   8.082  69.468  1.00  0.00    -0.132 S  
BRANCH   7   9
HETATM    9  N   UNL     1     -10.244   7.842  71.556  1.00  0.00    -0.181 N  
HETATM   10  C   UNL     1      -9.481   8.422  72.670  1.00  0.00    -0.265 C  
HETATM   11  C   UNL     1     -11.692   7.893  71.796  1.00  0.00    -0.287 C  
ENDBRANCH   7   9
ENDBRANCH   6   7
ENDBRANCH   4   6
ENDBRANCH   2   4
TORSDOF 4
ENDMDL
MODEL      336
REMARK 921   NORMALIZED FREE ENERGY PREDICTED BY IDOCK:   -1.44 KCAL/MOL
REMARK 922        TOTAL FREE ENERGY PREDICTED BY IDOCK:   -2.00 KCAL/MOL
REMARK 923 INTER-LIGAND FREE ENERGY PREDICTED BY IDOCK:   -1.69 KCAL/MOL
REMARK 924 INTRA-LIGAND FREE ENERGY PREDICTED BY IDOCK:   -0.31 KCAL/MOL
REMARK 927      BINDING AFFINITY PREDICTED BY RF-SCORE:    0.00 PKD
ROOT
HETATM    1  C   UNL     1      -6.643   7.701  72.543  1.00  0.00    -0.061 C  
HETATM    2  N   UNL     1      -8.081   7.947  72.659  1.00  0.00    -0.118 N  
HETATM    3  C   UNL     1      -8.658   7.767  73.990  1.00  0.00    -0.265 C  
ENDROOT
BRANCH   2   4
HETATM    4  C   UNL     1      -8.861   8.202  71.512  1.00  0.00    -0.154 C  
HETATM    5  S   UNL     1     -10.359   8.986  71.523  1.00  0.00    -0.342 S  
BRANCH   4   6
HETATM    6  S   UNL     1      -8.107   7.848  69.961  1.00  0.00    -0.119 SA 
BRANCH   6   7
HETATM    7  C   UNL     1      -8.915   6.378  69.381  1.00  0.00    -0.131 C  
HETATM    8  S   UNL     1      -9.532   6.224  67.817  1.00  0.00    -0.118 S  
BRANCH   7   9
HETATM    9  N   UNL     1      -9.022   5.354  70.358  1.00  0.00    -0.131 N  
HETATM   10  C   UNL     1      -7.904   4.548  70.867  1.00  0.00    -0.068 C  
HETATM   11  C   UNL     1     -10.297   4.983  70.984  1.00  0.00    -0.184 C  
ENDBRANCH   7   9
ENDBRANCH   6   7
ENDBRANCH   4   6
ENDBRANCH   2   4
TORSDOF 4
ENDMDL
MODEL      337
REMARK 921   NORMALIZED FREE ENERGY PREDICTED BY IDOCK:   -1.44 KCAL/MOL
REMARK 922        TOTAL FREE ENERGY PREDICTED BY IDOCK:   -2.00 KCAL/MOL
REMARK 923 INTER-LIGAND FREE ENERGY PREDICTED BY IDOCK:   -1.70 KCAL/MOL
REMARK 924 INTRA-LIGAND FREE ENERGY PREDICTED BY IDOCK:   -0.30 KCAL/MOL
REMARK 927      BINDING AFFINITY PREDICTED BY RF-SCORE:    0.00 PKD
ROOT
HETATM    1  C   UNL     1      -8.101   9.772  67.763  1.00  0.00    -0.113 C  
HETATM    2  N   UNL     1      -8.836   8.904  66.842  1.00  0.00    -0.125 N  
HETATM    3  C   UNL     1     -10.269   9.163  66.719  1.00  0.00    -0.261 C  
ENDROOT
BRANCH   2   4
HETATM    4  C   UNL     1      -8.200   7.803  66.231  1.00  0.00    -0.122 C  
HETATM    5  S   UNL     1      -7.802   7.712  64.590  1.00  0.00    -0.125 S  
BRANCH   4   6
HETATM    6  S   UNL     1      -7.614   6.542  67.311  1.00  0.00    -0.098 SA 
BRANCH   6   7
HETATM    7  C   UNL     1      -9.060   5.621  67.769  1.00  0.00    -0.106 C  
HETATM    8  S   UNL     1      -9.974   4.733  66.661  1.00  0.00    -0.247 S  
BRANCH   7   9
HETATM    9  N   UNL     1      -9.397   5.721  69.144  1.00  0.00    -0.122 N  
HETATM   10  C   UNL     1      -9.953   4.634  69.962  1.00  0.00    -0.232 C  
HETATM   11  C   UNL     1      -9.219   6.955  69.919  1.00  0.00    -0.147 C  
ENDBRANCH   7   9
ENDBRANCH   6   7
ENDBRANCH   4   6
ENDBRANCH   2   4
TORSDOF 4
ENDMDL
MODEL      338
REMARK 921   NORMALIZED FREE ENERGY PREDICTED BY IDOCK:   -1.41 KCAL/MOL
REMARK 922        TOTAL FREE ENERGY PREDICTED BY IDOCK:   -1.97 KCAL/MOL
REMARK 923 INTER-LIGAND FREE ENERGY PREDICTED BY IDOCK:   -1.87 KCAL/MOL
REMARK 924 INTRA-LIGAND FREE ENERGY PREDICTED BY IDOCK:   -0.10 KCAL/MOL
REMARK 927      BINDING AFFINITY PREDICTED BY RF-SCORE:    0.00 PKD
ROOT
HETATM    1  C   UNL     1      -6.993   4.507  72.948  1.00  0.00    -0.067 C  
HETATM    2  N   UNL     1      -7.985   5.474  72.476  1.00  0.00    -0.103 N  
HETATM    3  C   UNL     1      -8.989   5.893  73.453  1.00  0.00    -0.129 C  
ENDROOT
BRANCH   2   4
HETATM    4  C   UNL     1      -8.030   5.853  71.118  1.00  0.00    -0.113 C  
HETATM    5  S   UNL     1      -7.670   4.829  69.822  1.00  0.00    -0.059 S  
BRANCH   4   6
HETATM    6  S   UNL     1      -8.705   7.443  70.774  1.00  0.00    -0.146 SA 
BRANCH   6   7
HETATM    7  C   UNL     1      -9.197   7.373  69.070  1.00  0.00    -0.146 C  
HETATM    8  S   UNL     1      -8.247   7.982  67.813  1.00  0.00    -0.129 S  
BRANCH   7   9
HETATM    9  N   UNL     1     -10.472   6.787  68.860  1.00  0.00    -0.195 N  
HETATM   10  C   UNL     1     -11.437   6.455  69.917  1.00  0.00    -0.415 C  
HETATM   11  C   UNL     1     -10.978   6.441  67.526  1.00  0.00    -0.364 C  
ENDBRANCH   7   9
ENDBRANCH   6   7
ENDBRANCH   4   6
ENDBRANCH   2   4
TORSDOF 4
ENDMDL
MODEL      339
REMARK 921   NORMALIZED FREE ENERGY PREDICTED BY IDOCK:   -1.41 KCAL/MOL
REMARK 922        TOTAL FREE ENERGY PREDICTED BY IDOCK:   -1.96 KCAL/MOL
REMARK 923 INTER-LIGAND FREE ENERGY PREDICTED BY IDOCK:   -1.94 KCAL/MOL
REMARK 924 INTRA-LIGAND FREE ENERGY PREDICTED BY IDOCK:   -0.02 KCAL/MOL
REMARK 927      BINDING AFFINITY PREDICTED BY RF-SCORE:    0.00 PKD
ROOT
HETATM    1  C   UNL     1      -7.311   6.380  65.074  1.00  0.00    -0.078 C  
HETATM    2  N   UNL     1      -7.843   7.077  66.246  1.00  0.00    -0.101 N  
HETATM    3  C   UNL     1      -7.322   8.422  66.486  1.00  0.00    -0.081 C  
ENDROOT
BRANCH   2   4
HETATM    4  C   UNL     1      -8.699   6.413  67.150  1.00  0.00    -0.110 C  
HETATM    5  S   UNL     1      -9.780   5.185  66.725  1.00  0.00    -0.184 S  
BRANCH   4   6
HETATM    6  S   UNL     1      -8.457   6.768  68.858  1.00  0.00    -0.120 SA 
BRANCH   6   7
HETATM    7  C   UNL     1     -10.029   7.358  69.432  1.00  0.00    -0.176 C  
HETATM    8  S   UNL     1     -11.258   6.329  69.965  1.00  0.00    -0.411 S  
BRANCH   7   9
HETATM    9  N   UNL     1     -10.173   8.768  69.375  1.00  0.00    -0.204 N  
HETATM   10  C   UNL     1     -10.104   9.580  68.152  1.00  0.00    -0.182 C  
HETATM   11  C   UNL     1     -10.416   9.591  70.567  1.00  0.00    -0.296 C  
ENDBRANCH   7   9
ENDBRANCH   6   7
ENDBRANCH   4   6
ENDBRANCH   2   4
TORSDOF 4
ENDMDL
MODEL      340
REMARK 921   NORMALIZED FREE ENERGY PREDICTED BY IDOCK:   -1.41 KCAL/MOL
REMARK 922        TOTAL FREE ENERGY PREDICTED BY IDOCK:   -1.96 KCAL/MOL
REMARK 923 INTER-LIGAND FREE ENERGY PREDICTED BY IDOCK:   -1.95 KCAL/MOL
REMARK 924 INTRA-LIGAND FREE ENERGY PREDICTED BY IDOCK:   -0.00 KCAL/MOL
REMARK 927      BINDING AFFINITY PREDICTED BY RF-SCORE:    0.00 PKD
ROOT
HETATM    1  C   UNL     1     -10.291  10.661  69.850  1.00  0.00    -0.026 C  
HETATM    2  N   UNL     1     -10.848  11.381  68.703  1.00  0.00    -0.195 N  
HETATM    3  C   UNL     1     -11.548  10.567  67.712  1.00  0.00     0.131 C  
ENDROOT
BRANCH   2   4
HETATM    4  C   UNL     1     -10.587  12.755  68.522  1.00  0.00    -0.252 C  
HETATM    5  S   UNL     1     -11.515  14.005  69.181  1.00  0.00    -0.315 S  
BRANCH   4   6
HETATM    6  S   UNL     1      -9.073  13.163  67.720  1.00  0.00    -0.210 SA 
BRANCH   6   7
HETATM    7  C   UNL     1      -8.827  11.877  66.522  1.00  0.00    -0.178 C  
HETATM    8  S   UNL     1      -7.773  10.581  66.768  1.00  0.00    -0.123 S  
BRANCH   7   9
HETATM    9  N   UNL     1      -9.574  12.050  65.328  1.00  0.00    -0.161 N  
HETATM   10  C   UNL     1     -10.326  13.259  64.965  1.00  0.00    -0.340 C  
HETATM   11  C   UNL     1      -9.676  11.010  64.296  1.00  0.00    -0.284 C  
ENDBRANCH   7   9
ENDBRANCH   6   7
ENDBRANCH   4   6
ENDBRANCH   2   4
TORSDOF 4
ENDMDL
MODEL      341
REMARK 921   NORMALIZED FREE ENERGY PREDICTED BY IDOCK:   -1.38 KCAL/MOL
REMARK 922        TOTAL FREE ENERGY PREDICTED BY IDOCK:   -1.93 KCAL/MOL
REMARK 923 INTER-LIGAND FREE ENERGY PREDICTED BY IDOCK:   -1.75 KCAL/MOL
REMARK 924 INTRA-LIGAND FREE ENERGY PREDICTED BY IDOCK:   -0.18 KCAL/MOL
REMARK 927      BINDING AFFINITY PREDICTED BY RF-SCORE:    0.00 PKD
ROOT
HETATM    1  C   UNL     1      -7.236   8.360  67.174  1.00  0.00    -0.084 C  
HETATM    2  N   UNL     1      -8.577   7.909  66.799  1.00  0.00    -0.127 N  
HETATM    3  C   UNL     1      -9.380   8.855  66.026  1.00  0.00    -0.242 C  
ENDROOT
BRANCH   2   4
HETATM    4  C   UNL     1      -9.087   6.688  67.287  1.00  0.00    -0.118 C  
HETATM    5  S   UNL     1     -10.612   6.064  66.909  1.00  0.00    -0.318 S  
BRANCH   4   6
HETATM    6  S   UNL     1      -7.961   5.675  68.185  1.00  0.00    -0.097 SA 
BRANCH   6   7
HETATM    7  C   UNL     1      -8.092   6.223  69.868  1.00  0.00    -0.120 C  
HETATM    8  S   UNL     1      -6.747   6.558  70.833  1.00  0.00    -0.056 S  
BRANCH   7   9
HETATM    9  N   UNL     1      -9.426   6.327  70.340  1.00  0.00    -0.161 N  
HETATM   10  C   UNL     1     -10.304   5.192  70.658  1.00  0.00    -0.235 C  
HETATM   11  C   UNL     1     -10.090   7.617  70.568  1.00  0.00    -0.189 C  
ENDBRANCH   7   9
ENDBRANCH   6   7
ENDBRANCH   4   6
ENDBRANCH   2   4
TORSDOF 4
ENDMDL
MODEL      342
REMARK 921   NORMALIZED FREE ENERGY PREDICTED BY IDOCK:   -1.38 KCAL/MOL
REMARK 922        TOTAL FREE ENERGY PREDICTED BY IDOCK:   -1.92 KCAL/MOL
REMARK 923 INTER-LIGAND FREE ENERGY PREDICTED BY IDOCK:   -1.74 KCAL/MOL
REMARK 924 INTRA-LIGAND FREE ENERGY PREDICTED BY IDOCK:   -0.18 KCAL/MOL
REMARK 927      BINDING AFFINITY PREDICTED BY RF-SCORE:    0.00 PKD
ROOT
HETATM    1  C   UNL     1      -8.242   9.036  68.037  1.00  0.00    -0.110 C  
HETATM    2  N   UNL     1      -9.432   8.238  67.740  1.00  0.00    -0.147 N  
HETATM    3  C   UNL     1     -10.517   8.933  67.049  1.00  0.00    -0.256 C  
ENDROOT
BRANCH   2   4
HETATM    4  C   UNL     1      -9.553   6.919  68.228  1.00  0.00    -0.128 C  
HETATM    5  S   UNL     1     -10.930   6.297  68.984  1.00  0.00    -0.374 S  
BRANCH   4   6
HETATM    6  S   UNL     1      -8.240   5.816  67.827  1.00  0.00    -0.100 SA 
BRANCH   6   7
HETATM    7  C   UNL     1      -9.008   4.500  66.917  1.00  0.00    -0.115 C  
HETATM    8  S   UNL     1     -10.016   4.766  65.589  1.00  0.00    -0.149 S  
BRANCH   7   9
HETATM    9  N   UNL     1      -8.723   3.205  67.423  1.00  0.00    -0.111 N  
HETATM   10  C   UNL     1      -7.812   2.234  66.802  1.00  0.00    -0.071 C  
HETATM   11  C   UNL     1      -9.324   2.683  68.657  1.00  0.00    -0.181 C  
ENDBRANCH   7   9
ENDBRANCH   6   7
ENDBRANCH   4   6
ENDBRANCH   2   4
TORSDOF 4
ENDMDL
MODEL      343
REMARK 921   NORMALIZED FREE ENERGY PREDICTED BY IDOCK:   -1.33 KCAL/MOL
REMARK 922        TOTAL FREE ENERGY PREDICTED BY IDOCK:   -1.85 KCAL/MOL
REMARK 923 INTER-LIGAND FREE ENERGY PREDICTED BY IDOCK:   -1.65 KCAL/MOL
REMARK 924 INTRA-LIGAND FREE ENERGY PREDICTED BY IDOCK:   -0.20 KCAL/MOL
REMARK 927      BINDING AFFINITY PREDICTED BY RF-SCORE:    0.00 PKD
ROOT
HETATM    1  C   UNL     1      -6.538   6.740  64.420  1.00  0.00    -0.042 C  
HETATM    2  N   UNL     1      -7.583   6.705  65.444  1.00  0.00    -0.081 N  
HETATM    3  C   UNL     1      -8.494   5.563  65.394  1.00  0.00    -0.146 C  
ENDROOT
BRANCH   2   4
HETATM    4  C   UNL     1      -7.763   7.792  66.325  1.00  0.00    -0.089 C  
HETATM    5  S   UNL     1      -6.528   8.518  67.222  1.00  0.00    -0.058 S  
BRANCH   4   6
HETATM    6  S   UNL     1      -9.353   8.548  66.316  1.00  0.00    -0.224 SA 
BRANCH   6   7
HETATM    7  C   UNL     1     -10.121   8.022  67.827  1.00  0.00    -0.195 C  
HETATM    8  S   UNL     1     -10.974   6.571  67.968  1.00  0.00    -0.245 S  
BRANCH   7   9
HETATM    9  N   UNL     1      -9.980   8.942  68.898  1.00  0.00    -0.185 N  
HETATM   10  C   UNL     1      -9.111   8.753  70.069  1.00  0.00    -0.160 C  
HETATM   11  C   UNL     1     -10.704  10.218  68.951  1.00  0.00    -0.227 C  
ENDBRANCH   7   9
ENDBRANCH   6   7
ENDBRANCH   4   6
ENDBRANCH   2   4
TORSDOF 4
ENDMDL
MODEL      344
REMARK 921   NORMALIZED FREE ENERGY PREDICTED BY IDOCK:   -1.30 KCAL/MOL
REMARK 922        TOTAL FREE ENERGY PREDICTED BY IDOCK:   -1.82 KCAL/MOL
REMARK 923 INTER-LIGAND FREE ENERGY PREDICTED BY IDOCK:   -1.64 KCAL/MOL
REMARK 924 INTRA-LIGAND FREE ENERGY PREDICTED BY IDOCK:   -0.18 KCAL/MOL
REMARK 927      BINDING AFFINITY PREDICTED BY RF-SCORE:    0.00 PKD
ROOT
HETATM    1  C   UNL     1      -8.865   7.025  66.115  1.00  0.00    -0.147 C  
HETATM    2  N   UNL     1      -9.703   6.655  67.257  1.00  0.00    -0.129 N  
HETATM    3  C   UNL     1     -11.125   6.468  66.976  1.00  0.00    -0.339 C  
ENDROOT
BRANCH   2   4
HETATM    4  C   UNL     1      -9.168   6.627  68.562  1.00  0.00    -0.127 C  
HETATM    5  S   UNL     1      -7.820   7.511  69.067  1.00  0.00    -0.122 S  
BRANCH   4   6
HETATM    6  S   UNL     1     -10.109   5.759  69.771  1.00  0.00    -0.231 SA 
BRANCH   6   7
HETATM    7  C   UNL     1      -8.922   4.794  70.671  1.00  0.00    -0.121 C  
HETATM    8  S   UNL     1      -7.885   3.687  69.928  1.00  0.00    -0.050 S  
BRANCH   7   9
HETATM    9  N   UNL     1      -8.941   5.013  72.073  1.00  0.00    -0.131 N  
HETATM   10  C   UNL     1      -9.711   4.224  73.044  1.00  0.00    -0.128 C  
HETATM   11  C   UNL     1      -8.170   6.081  72.721  1.00  0.00    -0.118 C  
ENDBRANCH   7   9
ENDBRANCH   6   7
ENDBRANCH   4   6
ENDBRANCH   2   4
TORSDOF 4
ENDMDL
MODEL      345
REMARK 921   NORMALIZED FREE ENERGY PREDICTED BY IDOCK:   -1.29 KCAL/MOL
REMARK 922        TOTAL FREE ENERGY PREDICTED BY IDOCK:   -1.81 KCAL/MOL
REMARK 923 INTER-LIGAND FREE ENERGY PREDICTED BY IDOCK:   -1.82 KCAL/MOL
REMARK 924 INTRA-LIGAND FREE ENERGY PREDICTED BY IDOCK:    0.01 KCAL/MOL
REMARK 927      BINDING AFFINITY PREDICTED BY RF-SCORE:    0.00 PKD
ROOT
HETATM    1  C   UNL     1      -7.809   8.866  67.820  1.00  0.00    -0.102 C  
HETATM    2  N   UNL     1      -8.786   8.270  66.908  1.00  0.00    -0.136 N  
HETATM    3  C   UNL     1      -9.389   9.175  65.931  1.00  0.00    -0.243 C  
ENDROOT
BRANCH   2   4
HETATM    4  C   UNL     1      -9.206   6.934  67.078  1.00  0.00    -0.142 C  
HETATM    5  S   UNL     1     -10.810   6.451  67.303  1.00  0.00    -0.398 S  
BRANCH   4   6
HETATM    6  S   UNL     1      -7.979   5.694  66.833  1.00  0.00    -0.102 SA 
BRANCH   6   7
HETATM    7  C   UNL     1      -8.890   4.190  66.588  1.00  0.00    -0.119 C  
HETATM    8  S   UNL     1      -9.355   3.180  67.858  1.00  0.00    -0.171 S  
BRANCH   7   9
HETATM    9  N   UNL     1      -9.166   3.897  65.227  1.00  0.00    -0.141 N  
HETATM   10  C   UNL     1      -8.164   3.523  64.220  1.00  0.00    -0.090 C  
HETATM   11  C   UNL     1     -10.522   3.936  64.665  1.00  0.00    -0.182 C  
ENDBRANCH   7   9
ENDBRANCH   6   7
ENDBRANCH   4   6
ENDBRANCH   2   4
TORSDOF 4
ENDMDL
MODEL      346
REMARK 921   NORMALIZED FREE ENERGY PREDICTED BY IDOCK:   -1.26 KCAL/MOL
REMARK 922        TOTAL FREE ENERGY PREDICTED BY IDOCK:   -1.78 KCAL/MOL
REMARK 923 INTER-LIGAND FREE ENERGY PREDICTED BY IDOCK:   -1.59 KCAL/MOL
REMARK 924 INTRA-LIGAND FREE ENERGY PREDICTED BY IDOCK:   -0.19 KCAL/MOL
REMARK 927      BINDING AFFINITY PREDICTED BY RF-SCORE:    0.00 PKD
ROOT
HETATM    1  C   UNL     1      -6.227   5.770  67.674  1.00  0.00    -0.030 C  
HETATM    2  N   UNL     1      -7.186   6.217  68.686  1.00  0.00    -0.082 N  
HETATM    3  C   UNL     1      -7.218   5.444  69.926  1.00  0.00    -0.064 C  
ENDROOT
BRANCH   2   4
HETATM    4  C   UNL     1      -8.107   7.245  68.397  1.00  0.00    -0.125 C  
HETATM    5  S   UNL     1      -9.433   7.085  67.360  1.00  0.00    -0.138 S  
BRANCH   4   6
HETATM    6  S   UNL     1      -7.956   8.718  69.351  1.00  0.00    -0.102 SA 
BRANCH   6   7
HETATM    7  C   UNL     1      -8.958   8.438  70.789  1.00  0.00    -0.155 C  
HETATM    8  S   UNL     1      -8.308   8.165  72.324  1.00  0.00    -0.171 S  
BRANCH   7   9
HETATM    9  N   UNL     1     -10.354   8.435  70.530  1.00  0.00    -0.196 N  
HETATM   10  C   UNL     1     -11.256   7.298  70.757  1.00  0.00    -0.274 C  
HETATM   11  C   UNL     1     -11.064   9.602  69.993  1.00  0.00    -0.255 C  
ENDBRANCH   7   9
ENDBRANCH   6   7
ENDBRANCH   4   6
ENDBRANCH   2   4
TORSDOF 4
ENDMDL
MODEL      347
REMARK 921   NORMALIZED FREE ENERGY PREDICTED BY IDOCK:   -1.24 KCAL/MOL
REMARK 922        TOTAL FREE ENERGY PREDICTED BY IDOCK:   -1.74 KCAL/MOL
REMARK 923 INTER-LIGAND FREE ENERGY PREDICTED BY IDOCK:   -1.49 KCAL/MOL
REMARK 924 INTRA-LIGAND FREE ENERGY PREDICTED BY IDOCK:   -0.25 KCAL/MOL
REMARK 927      BINDING AFFINITY PREDICTED BY RF-SCORE:    0.00 PKD
ROOT
HETATM    1  C   UNL     1      -8.281   7.574  70.785  1.00  0.00    -0.110 C  
HETATM    2  N   UNL     1      -9.346   6.745  70.219  1.00  0.00    -0.159 N  
HETATM    3  C   UNL     1      -9.532   6.837  68.772  1.00  0.00    -0.130 C  
ENDROOT
BRANCH   2   4
HETATM    4  C   UNL     1     -10.216   6.020  71.060  1.00  0.00    -0.201 C  
HETATM    5  S   UNL     1     -11.598   6.659  71.794  1.00  0.00    -0.318 S  
BRANCH   4   6
HETATM    6  S   UNL     1      -9.928   4.286  71.172  1.00  0.00    -0.111 SA 
BRANCH   6   7
HETATM    7  C   UNL     1      -8.476   4.126  72.179  1.00  0.00    -0.106 C  
HETATM    8  S   UNL     1      -6.950   3.779  71.543  1.00  0.00    -0.032 S  
BRANCH   7   9
HETATM    9  N   UNL     1      -8.716   4.286  73.568  1.00  0.00    -0.092 N  
HETATM   10  C   UNL     1      -9.924   3.843  74.277  1.00  0.00    -0.144 C  
HETATM   11  C   UNL     1      -7.753   4.928  74.472  1.00  0.00    -0.089 C  
ENDBRANCH   7   9
ENDBRANCH   6   7
ENDBRANCH   4   6
ENDBRANCH   2   4
TORSDOF 4
ENDMDL
MODEL      348
REMARK 921   NORMALIZED FREE ENERGY PREDICTED BY IDOCK:   -1.20 KCAL/MOL
REMARK 922        TOTAL FREE ENERGY PREDICTED BY IDOCK:   -1.71 KCAL/MOL
REMARK 923 INTER-LIGAND FREE ENERGY PREDICTED BY IDOCK:   -1.76 KCAL/MOL
REMARK 924 INTRA-LIGAND FREE ENERGY PREDICTED BY IDOCK:    0.06 KCAL/MOL
REMARK 927      BINDING AFFINITY PREDICTED BY RF-SCORE:    0.00 PKD
ROOT
HETATM    1  C   UNL     1     -12.839  14.037  65.438  1.00  0.00    -0.410 C  
HETATM    2  N   UNL     1     -11.709  13.476  64.696  1.00  0.00    -0.365 N  
HETATM    3  C   UNL     1     -11.904  13.311  63.256  1.00  0.00    -0.229 C  
ENDROOT
BRANCH   2   4
HETATM    4  C   UNL     1     -10.568  13.001  65.375  1.00  0.00    -0.292 C  
HETATM    5  S   UNL     1      -9.420  13.986  66.130  1.00  0.00    -0.121 S  
BRANCH   4   6
HETATM    6  S   UNL     1     -10.467  11.259  65.609  1.00  0.00    -0.248 SA 
BRANCH   6   7
HETATM    7  C   UNL     1      -8.933  10.782  64.853  1.00  0.00    -0.184 C  
HETATM    8  S   UNL     1      -7.605  10.230  65.738  1.00  0.00    -0.147 S  
BRANCH   7   9
HETATM    9  N   UNL     1      -8.913  10.933  63.442  1.00  0.00    -0.188 N  
HETATM   10  C   UNL     1      -7.734  11.301  62.646  1.00  0.00     0.321 C  
HETATM   11  C   UNL     1     -10.100  10.729  62.604  1.00  0.00     0.100 C  
ENDBRANCH   7   9
ENDBRANCH   6   7
ENDBRANCH   4   6
ENDBRANCH   2   4
TORSDOF 4
ENDMDL
MODEL      349
REMARK 921   NORMALIZED FREE ENERGY PREDICTED BY IDOCK:   -1.15 KCAL/MOL
REMARK 922        TOTAL FREE ENERGY PREDICTED BY IDOCK:   -1.63 KCAL/MOL
REMARK 923 INTER-LIGAND FREE ENERGY PREDICTED BY IDOCK:   -1.58 KCAL/MOL
REMARK 924 INTRA-LIGAND FREE ENERGY PREDICTED BY IDOCK:   -0.05 KCAL/MOL
REMARK 927      BINDING AFFINITY PREDICTED BY RF-SCORE:    0.00 PKD
ROOT
HETATM    1  C   UNL     1      -9.008  11.320  68.064  1.00  0.00    -0.156 C  
HETATM    2  N   UNL     1      -8.378  10.009  67.899  1.00  0.00    -0.117 N  
HETATM    3  C   UNL     1      -7.154   9.980  67.100  1.00  0.00    -0.089 C  
ENDROOT
BRANCH   2   4
HETATM    4  C   UNL     1      -9.012   8.842  68.375  1.00  0.00    -0.134 C  
HETATM    5  S   UNL     1     -10.237   8.013  67.557  1.00  0.00    -0.267 S  
BRANCH   4   6
HETATM    6  S   UNL     1      -8.322   8.114  69.822  1.00  0.00    -0.125 SA 
BRANCH   6   7
HETATM    7  C   UNL     1      -9.164   6.562  70.001  1.00  0.00    -0.157 C  
HETATM    8  S   UNL     1     -10.622   6.398  70.837  1.00  0.00    -0.247 S  
BRANCH   7   9
HETATM    9  N   UNL     1      -8.489   5.466  69.403  1.00  0.00    -0.099 N  
HETATM   10  C   UNL     1      -7.031   5.297  69.347  1.00  0.00    -0.055 C  
HETATM   11  C   UNL     1      -9.197   4.350  68.762  1.00  0.00    -0.136 C  
ENDBRANCH   7   9
ENDBRANCH   6   7
ENDBRANCH   4   6
ENDBRANCH   2   4
TORSDOF 4
ENDMDL
MODEL      350
REMARK 921   NORMALIZED FREE ENERGY PREDICTED BY IDOCK:   -1.13 KCAL/MOL
REMARK 922        TOTAL FREE ENERGY PREDICTED BY IDOCK:   -1.61 KCAL/MOL
REMARK 923 INTER-LIGAND FREE ENERGY PREDICTED BY IDOCK:   -1.28 KCAL/MOL
REMARK 924 INTRA-LIGAND FREE ENERGY PREDICTED BY IDOCK:   -0.33 KCAL/MOL
REMARK 927      BINDING AFFINITY PREDICTED BY RF-SCORE:    0.00 PKD
ROOT
HETATM    1  C   UNL     1      -7.076  10.115  68.425  1.00  0.00    -0.071 C  
HETATM    2  N   UNL     1      -8.476   9.828  68.742  1.00  0.00    -0.117 N  
HETATM    3  C   UNL     1      -9.445  10.853  68.360  1.00  0.00    -0.178 C  
ENDROOT
BRANCH   2   4
HETATM    4  C   UNL     1      -8.822   8.688  69.498  1.00  0.00    -0.144 C  
HETATM    5  S   UNL     1      -8.117   8.262  70.974  1.00  0.00    -0.121 S  
BRANCH   4   6
HETATM    6  S   UNL     1     -10.224   7.780  68.940  1.00  0.00    -0.213 SA 
BRANCH   6   7
HETATM    7  C   UNL     1      -9.552   6.343  68.142  1.00  0.00    -0.115 C  
HETATM    8  S   UNL     1     -10.118   4.780  68.435  1.00  0.00     0.021 S  
BRANCH   7   9
HETATM    9  N   UNL     1      -8.479   6.623  67.257  1.00  0.00    -0.119 N  
HETATM   10  C   UNL     1      -7.085   6.201  67.455  1.00  0.00    -0.070 C  
HETATM   11  C   UNL     1      -8.651   7.384  66.014  1.00  0.00    -0.151 C  
ENDBRANCH   7   9
ENDBRANCH   6   7
ENDBRANCH   4   6
ENDBRANCH   2   4
TORSDOF 4
ENDMDL
MODEL      351
REMARK 921   NORMALIZED FREE ENERGY PREDICTED BY IDOCK:   -1.12 KCAL/MOL
REMARK 922        TOTAL FREE ENERGY PREDICTED BY IDOCK:   -1.60 KCAL/MOL
REMARK 923 INTER-LIGAND FREE ENERGY PREDICTED BY IDOCK:   -1.52 KCAL/MOL
REMARK 924 INTRA-LIGAND FREE ENERGY PREDICTED BY IDOCK:   -0.08 KCAL/MOL
REMARK 927      BINDING AFFINITY PREDICTED BY RF-SCORE:    0.00 PKD
ROOT
HETATM    1  C   UNL     1      -6.941   4.840  72.648  1.00  0.00    -0.075 C  
HETATM    2  N   UNL     1      -7.732   6.038  72.934  1.00  0.00    -0.102 N  
HETATM    3  C   UNL     1      -8.196   6.188  74.312  1.00  0.00    -0.112 C  
ENDROOT
BRANCH   2   4
HETATM    4  C   UNL     1      -8.126   6.904  71.893  1.00  0.00    -0.100 C  
HETATM    5  S   UNL     1      -7.072   7.888  71.010  1.00  0.00    -0.051 S  
BRANCH   4   6
HETATM    6  S   UNL     1      -9.802   6.781  71.367  1.00  0.00    -0.177 SA 
BRANCH   6   7
HETATM    7  C   UNL     1      -9.806   7.393  69.701  1.00  0.00    -0.175 C  
HETATM    8  S   UNL     1      -9.395   6.438  68.370  1.00  0.00    -0.120 S  
BRANCH   7   9
HETATM    9  N   UNL     1     -10.158   8.763  69.589  1.00  0.00    -0.198 N  
HETATM   10  C   UNL     1      -9.562   9.717  68.645  1.00  0.00    -0.151 C  
HETATM   11  C   UNL     1     -11.188   9.390  70.427  1.00  0.00    -0.262 C  
ENDBRANCH   7   9
ENDBRANCH   6   7
ENDBRANCH   4   6
ENDBRANCH   2   4
TORSDOF 4
ENDMDL
MODEL      352
REMARK 921   NORMALIZED FREE ENERGY PREDICTED BY IDOCK:   -1.12 KCAL/MOL
REMARK 922        TOTAL FREE ENERGY PREDICTED BY IDOCK:   -1.60 KCAL/MOL
REMARK 923 INTER-LIGAND FREE ENERGY PREDICTED BY IDOCK:   -1.31 KCAL/MOL
REMARK 924 INTRA-LIGAND FREE ENERGY PREDICTED BY IDOCK:   -0.28 KCAL/MOL
REMARK 927      BINDING AFFINITY PREDICTED BY RF-SCORE:    0.00 PKD
ROOT
HETATM    1  C   UNL     1      -6.210   4.807  70.718  1.00  0.00    -0.019 C  
HETATM    2  N   UNL     1      -6.486   6.240  70.838  1.00  0.00    -0.047 N  
HETATM    3  C   UNL     1      -6.533   6.773  72.199  1.00  0.00    -0.053 C  
ENDROOT
BRANCH   2   4
HETATM    4  C   UNL     1      -6.820   7.006  69.702  1.00  0.00    -0.050 C  
HETATM    5  S   UNL     1      -5.873   7.119  68.306  1.00  0.00    -0.023 S  
BRANCH   4   6
HETATM    6  S   UNL     1      -8.431   7.717  69.687  1.00  0.00    -0.135 SA 
BRANCH   6   7
HETATM    7  C   UNL     1      -9.518   6.381  69.260  1.00  0.00    -0.135 C  
HETATM    8  S   UNL     1     -10.200   5.347  70.408  1.00  0.00    -0.274 S  
BRANCH   7   9
HETATM    9  N   UNL     1      -9.741   6.240  67.865  1.00  0.00    -0.120 N  
HETATM   10  C   UNL     1     -10.572   7.133  67.045  1.00  0.00    -0.343 C  
HETATM   11  C   UNL     1      -9.147   5.158  67.070  1.00  0.00    -0.112 C  
ENDBRANCH   7   9
ENDBRANCH   6   7
ENDBRANCH   4   6
ENDBRANCH   2   4
TORSDOF 4
ENDMDL
MODEL      353
REMARK 921   NORMALIZED FREE ENERGY PREDICTED BY IDOCK:   -1.08 KCAL/MOL
REMARK 922        TOTAL FREE ENERGY PREDICTED BY IDOCK:   -1.55 KCAL/MOL
REMARK 923 INTER-LIGAND FREE ENERGY PREDICTED BY IDOCK:   -1.40 KCAL/MOL
REMARK 924 INTRA-LIGAND FREE ENERGY PREDICTED BY IDOCK:   -0.15 KCAL/MOL
REMARK 927      BINDING AFFINITY PREDICTED BY RF-SCORE:    0.00 PKD
ROOT
HETATM    1  C   UNL     1     -10.320   6.166  69.621  1.00  0.00    -0.218 C  
HETATM    2  N   UNL     1      -9.690   6.878  68.507  1.00  0.00    -0.138 N  
HETATM    3  C   UNL     1     -10.591   7.369  67.466  1.00  0.00    -0.269 C  
ENDROOT
BRANCH   2   4
HETATM    4  C   UNL     1      -8.285   6.947  68.402  1.00  0.00    -0.120 C  
HETATM    5  S   UNL     1      -7.373   6.192  67.195  1.00  0.00    -0.077 S  
BRANCH   4   6
HETATM    6  S   UNL     1      -7.474   8.064  69.496  1.00  0.00    -0.094 SA 
BRANCH   6   7
HETATM    7  C   UNL     1      -7.209   7.136  70.986  1.00  0.00    -0.074 C  
HETATM    8  S   UNL     1      -6.773   5.505  70.987  1.00  0.00    -0.046 S  
BRANCH   7   9
HETATM    9  N   UNL     1      -7.424   7.880  72.175  1.00  0.00    -0.078 N  
HETATM   10  C   UNL     1      -6.380   8.576  72.940  1.00  0.00    -0.084 C  
HETATM   11  C   UNL     1      -8.750   8.039  72.784  1.00  0.00    -0.202 C  
ENDBRANCH   7   9
ENDBRANCH   6   7
ENDBRANCH   4   6
ENDBRANCH   2   4
TORSDOF 4
ENDMDL
MODEL      354
REMARK 921   NORMALIZED FREE ENERGY PREDICTED BY IDOCK:   -1.08 KCAL/MOL
REMARK 922        TOTAL FREE ENERGY PREDICTED BY IDOCK:   -1.55 KCAL/MOL
REMARK 923 INTER-LIGAND FREE ENERGY PREDICTED BY IDOCK:   -1.29 KCAL/MOL
REMARK 924 INTRA-LIGAND FREE ENERGY PREDICTED BY IDOCK:   -0.26 KCAL/MOL
REMARK 927      BINDING AFFINITY PREDICTED BY RF-SCORE:    0.00 PKD
ROOT
HETATM    1  C   UNL     1      -9.976   6.253  69.805  1.00  0.00    -0.168 C  
HETATM    2  N   UNL     1      -9.465   6.936  68.616  1.00  0.00    -0.135 N  
HETATM    3  C   UNL     1     -10.468   7.398  67.659  1.00  0.00    -0.241 C  
ENDROOT
BRANCH   2   4
HETATM    4  C   UNL     1      -8.078   7.006  68.368  1.00  0.00    -0.124 C  
HETATM    5  S   UNL     1      -7.132   8.392  68.575  1.00  0.00    -0.078 S  
BRANCH   4   6
HETATM    6  S   UNL     1      -7.271   5.481  68.013  1.00  0.00    -0.073 SA 
BRANCH   6   7
HETATM    7  C   UNL     1      -7.725   5.100  66.340  1.00  0.00    -0.092 C  
HETATM    8  S   UNL     1      -7.569   6.203  65.071  1.00  0.00    -0.099 S  
BRANCH   7   9
HETATM    9  N   UNL     1      -8.258   3.796  66.169  1.00  0.00    -0.100 N  
HETATM   10  C   UNL     1      -9.506   3.304  66.770  1.00  0.00    -0.105 C  
HETATM   11  C   UNL     1      -7.602   2.770  65.348  1.00  0.00    -0.076 C  
ENDBRANCH   7   9
ENDBRANCH   6   7
ENDBRANCH   4   6
ENDBRANCH   2   4
TORSDOF 4
ENDMDL
MODEL      355
REMARK 921   NORMALIZED FREE ENERGY PREDICTED BY IDOCK:   -1.07 KCAL/MOL
REMARK 922        TOTAL FREE ENERGY PREDICTED BY IDOCK:   -1.54 KCAL/MOL
REMARK 923 INTER-LIGAND FREE ENERGY PREDICTED BY IDOCK:   -1.34 KCAL/MOL
REMARK 924 INTRA-LIGAND FREE ENERGY PREDICTED BY IDOCK:   -0.21 KCAL/MOL
REMARK 927      BINDING AFFINITY PREDICTED BY RF-SCORE:    0.00 PKD
ROOT
HETATM    1  C   UNL     1      -5.837   7.219  64.386  1.00  0.00    -0.037 C  
HETATM    2  N   UNL     1      -6.834   6.626  65.279  1.00  0.00    -0.053 N  
HETATM    3  C   UNL     1      -7.612   5.517  64.729  1.00  0.00    -0.079 C  
ENDROOT
BRANCH   2   4
HETATM    4  C   UNL     1      -7.103   7.201  66.539  1.00  0.00    -0.078 C  
HETATM    5  S   UNL     1      -5.953   7.971  67.510  1.00  0.00    -0.047 S  
BRANCH   4   6
HETATM    6  S   UNL     1      -8.797   7.285  67.013  1.00  0.00    -0.132 SA 
BRANCH   6   7
HETATM    7  C   UNL     1      -8.949   6.157  68.375  1.00  0.00    -0.115 C  
HETATM    8  S   UNL     1      -8.202   4.643  68.402  1.00  0.00    -0.082 S  
BRANCH   7   9
HETATM    9  N   UNL     1      -9.777   6.629  69.426  1.00  0.00    -0.148 N  
HETATM   10  C   UNL     1      -9.492   7.797  70.271  1.00  0.00    -0.160 C  
HETATM   11  C   UNL     1     -11.045   5.984  69.790  1.00  0.00    -0.406 C  
ENDBRANCH   7   9
ENDBRANCH   6   7
ENDBRANCH   4   6
ENDBRANCH   2   4
TORSDOF 4
ENDMDL
MODEL      356
REMARK 921   NORMALIZED FREE ENERGY PREDICTED BY IDOCK:   -0.95 KCAL/MOL
REMARK 922        TOTAL FREE ENERGY PREDICTED BY IDOCK:   -1.40 KCAL/MOL
REMARK 923 INTER-LIGAND FREE ENERGY PREDICTED BY IDOCK:   -1.22 KCAL/MOL
REMARK 924 INTRA-LIGAND FREE ENERGY PREDICTED BY IDOCK:   -0.17 KCAL/MOL
REMARK 927      BINDING AFFINITY PREDICTED BY RF-SCORE:    0.00 PKD
ROOT
HETATM    1  C   UNL     1      -7.497   6.161  64.526  1.00  0.00    -0.083 C  
HETATM    2  N   UNL     1      -7.848   4.825  65.013  1.00  0.00    -0.092 N  
HETATM    3  C   UNL     1      -9.083   4.251  64.481  1.00  0.00    -0.150 C  
ENDROOT
BRANCH   2   4
HETATM    4  C   UNL     1      -7.097   4.214  66.039  1.00  0.00    -0.067 C  
HETATM    5  S   UNL     1      -5.424   3.975  65.993  1.00  0.00    -0.014 S  
BRANCH   4   6
HETATM    6  S   UNL     1      -7.957   3.871  67.537  1.00  0.00    -0.090 SA 
BRANCH   6   7
HETATM    7  C   UNL     1      -8.094   5.439  68.357  1.00  0.00    -0.091 C  
HETATM    8  S   UNL     1      -6.868   6.600  68.331  1.00  0.00    -0.077 S  
BRANCH   7   9
HETATM    9  N   UNL     1      -9.313   5.618  69.061  1.00  0.00    -0.121 N  
HETATM   10  C   UNL     1     -10.542   6.190  68.495  1.00  0.00    -0.271 C  
HETATM   11  C   UNL     1      -9.481   5.239  70.469  1.00  0.00    -0.167 C  
ENDBRANCH   7   9
ENDBRANCH   6   7
ENDBRANCH   4   6
ENDBRANCH   2   4
TORSDOF 4
ENDMDL
MODEL      357
REMARK 921   NORMALIZED FREE ENERGY PREDICTED BY IDOCK:   -0.95 KCAL/MOL
REMARK 922        TOTAL FREE ENERGY PREDICTED BY IDOCK:   -1.39 KCAL/MOL
REMARK 923 INTER-LIGAND FREE ENERGY PREDICTED BY IDOCK:   -1.40 KCAL/MOL
REMARK 924 INTRA-LIGAND FREE ENERGY PREDICTED BY IDOCK:    0.02 KCAL/MOL
REMARK 927      BINDING AFFINITY PREDICTED BY RF-SCORE:    0.00 PKD
ROOT
HETATM    1  C   UNL     1      -6.148   7.306  69.930  1.00  0.00    -0.027 C  
HETATM    2  N   UNL     1      -7.422   6.783  69.434  1.00  0.00    -0.092 N  
HETATM    3  C   UNL     1      -7.503   5.332  69.274  1.00  0.00    -0.062 C  
ENDROOT
BRANCH   2   4
HETATM    4  C   UNL     1      -8.442   7.660  69.011  1.00  0.00    -0.132 C  
HETATM    5  S   UNL     1      -9.848   7.995  69.888  1.00  0.00    -0.188 S  
BRANCH   4   6
HETATM    6  S   UNL     1      -8.106   8.607  67.564  1.00  0.00    -0.106 SA 
BRANCH   6   7
HETATM    7  C   UNL     1      -9.073  10.084  67.748  1.00  0.00    -0.131 C  
HETATM    8  S   UNL     1     -10.667  10.213  67.205  1.00  0.00    -0.224 S  
BRANCH   7   9
HETATM    9  N   UNL     1      -8.378  11.157  68.365  1.00  0.00    -0.142 N  
HETATM   10  C   UNL     1      -8.573  12.581  68.060  1.00  0.00    -0.185 C  
HETATM   11  C   UNL     1      -7.364  10.951  69.406  1.00  0.00    -0.116 C  
ENDBRANCH   7   9
ENDBRANCH   6   7
ENDBRANCH   4   6
ENDBRANCH   2   4
TORSDOF 4
ENDMDL
MODEL      358
REMARK 921   NORMALIZED FREE ENERGY PREDICTED BY IDOCK:   -0.91 KCAL/MOL
REMARK 922        TOTAL FREE ENERGY PREDICTED BY IDOCK:   -1.34 KCAL/MOL
REMARK 923 INTER-LIGAND FREE ENERGY PREDICTED BY IDOCK:   -1.15 KCAL/MOL
REMARK 924 INTRA-LIGAND FREE ENERGY PREDICTED BY IDOCK:   -0.19 KCAL/MOL
REMARK 927      BINDING AFFINITY PREDICTED BY RF-SCORE:    0.00 PKD
ROOT
HETATM    1  C   UNL     1      -5.810   7.207  64.378  1.00  0.00    -0.037 C  
HETATM    2  N   UNL     1      -6.712   6.534  65.314  1.00  0.00    -0.042 N  
HETATM    3  C   UNL     1      -7.471   5.406  64.777  1.00  0.00    -0.070 C  
ENDROOT
BRANCH   2   4
HETATM    4  C   UNL     1      -6.921   7.052  66.609  1.00  0.00    -0.073 C  
HETATM    5  S   UNL     1      -7.253   6.117  67.977  1.00  0.00    -0.085 S  
BRANCH   4   6
HETATM    6  S   UNL     1      -6.610   8.773  66.820  1.00  0.00    -0.061 SA 
BRANCH   6   7
HETATM    7  C   UNL     1      -8.216   9.527  66.867  1.00  0.00    -0.113 C  
HETATM    8  S   UNL     1      -9.466   9.096  65.816  1.00  0.00    -0.231 S  
BRANCH   7   9
HETATM    9  N   UNL     1      -8.348  10.546  67.847  1.00  0.00    -0.114 N  
HETATM   10  C   UNL     1      -8.265  10.340  69.300  1.00  0.00    -0.162 C  
HETATM   11  C   UNL     1      -8.585  11.953  67.503  1.00  0.00    -0.160 C  
ENDBRANCH   7   9
ENDBRANCH   6   7
ENDBRANCH   4   6
ENDBRANCH   2   4
TORSDOF 4
ENDMDL
MODEL      359
REMARK 921   NORMALIZED FREE ENERGY PREDICTED BY IDOCK:   -0.90 KCAL/MOL
REMARK 922        TOTAL FREE ENERGY PREDICTED BY IDOCK:   -1.33 KCAL/MOL
REMARK 923 INTER-LIGAND FREE ENERGY PREDICTED BY IDOCK:   -1.12 KCAL/MOL
REMARK 924 INTRA-LIGAND FREE ENERGY PREDICTED BY IDOCK:   -0.21 KCAL/MOL
REMARK 927      BINDING AFFINITY PREDICTED BY RF-SCORE:    0.00 PKD
ROOT
HETATM    1  C   UNL     1      -5.642   7.043  64.189  1.00  0.00    -0.032 C  
HETATM    2  N   UNL     1      -6.398   5.928  64.762  1.00  0.00    -0.036 N  
HETATM    3  C   UNL     1      -6.783   4.867  63.832  1.00  0.00    -0.042 C  
ENDROOT
BRANCH   2   4
HETATM    4  C   UNL     1      -6.835   5.969  66.102  1.00  0.00    -0.061 C  
HETATM    5  S   UNL     1      -6.911   4.630  67.131  1.00  0.00    -0.061 S  
BRANCH   4   6
HETATM    6  S   UNL     1      -7.121   7.569  66.780  1.00  0.00    -0.085 SA 
BRANCH   6   7
HETATM    7  C   UNL     1      -8.861   7.852  66.572  1.00  0.00    -0.152 C  
HETATM    8  S   UNL     1     -10.042   6.927  67.349  1.00  0.00    -0.207 S  
BRANCH   7   9
HETATM    9  N   UNL     1      -9.172   8.905  65.673  1.00  0.00    -0.221 N  
HETATM   10  C   UNL     1      -8.884   8.901  64.232  1.00  0.00     0.019 C  
HETATM   11  C   UNL     1      -9.835  10.144  66.098  1.00  0.00    -0.237 C  
ENDBRANCH   7   9
ENDBRANCH   6   7
ENDBRANCH   4   6
ENDBRANCH   2   4
TORSDOF 4
ENDMDL
MODEL      360
REMARK 921   NORMALIZED FREE ENERGY PREDICTED BY IDOCK:   -0.12 KCAL/MOL
REMARK 922        TOTAL FREE ENERGY PREDICTED BY IDOCK:   -0.37 KCAL/MOL
REMARK 923 INTER-LIGAND FREE ENERGY PREDICTED BY IDOCK:   -2.08 KCAL/MOL
REMARK 924 INTRA-LIGAND FREE ENERGY PREDICTED BY IDOCK:    1.72 KCAL/MOL
REMARK 927      BINDING AFFINITY PREDICTED BY RF-SCORE:    0.00 PKD
ROOT
HETATM    1  C   UNL     1      -8.098   7.229  70.608  1.00  0.00    -0.108 C  
HETATM    2  N   UNL     1      -9.363   7.965  70.646  1.00  0.00    -0.158 N  
HETATM    3  C   UNL     1      -9.341   9.312  70.080  1.00  0.00    -0.209 C  
ENDROOT
BRANCH   2   4
HETATM    4  C   UNL     1     -10.483   7.434  71.320  1.00  0.00    -0.208 C  
HETATM    5  S   UNL     1     -11.254   8.171  72.631  1.00  0.00    -0.326 S  
BRANCH   4   6
HETATM    6  S   UNL     1     -11.225   6.010  70.598  1.00  0.00    -0.215 SA 
BRANCH   6   7
HETATM    7  C   UNL     1     -10.041   5.425  69.412  1.00  0.00    -0.234 C  
HETATM    8  S   UNL     1      -9.522   6.351  68.098  1.00  0.00    -0.112 S  
BRANCH   7   9
HETATM    9  N   UNL     1      -9.589   4.101  69.650  1.00  0.00    -0.196 N  
HETATM   10  C   UNL     1      -9.345   3.089  68.613  1.00  0.00    -0.173 C  
HETATM   11  C   UNL     1      -9.308   3.588  70.997  1.00  0.00    -0.143 C  
ENDBRANCH   7   9
ENDBRANCH   6   7
ENDBRANCH   4   6
ENDBRANCH   2   4
TORSDOF 4
ENDMDL
