MODEL        1
REMARK 921   NORMALIZED FREE ENERGY PREDICTED BY IDOCK:   -6.06 KCAL/MOL
REMARK 922        TOTAL FREE ENERGY PREDICTED BY IDOCK:   -8.95 KCAL/MOL
REMARK 923 INTER-LIGAND FREE ENERGY PREDICTED BY IDOCK:   -8.19 KCAL/MOL
REMARK 924 INTRA-LIGAND FREE ENERGY PREDICTED BY IDOCK:   -0.76 KCAL/MOL
REMARK 927      BINDING AFFINITY PREDICTED BY RF-SCORE:    0.00 PKD
ROOT
HETATM    1  C   UNL     1     -11.949  10.408  70.631  1.00  0.00    -0.448 C  
HETATM    2  C   UNL     1     -13.033  10.830  71.610  1.00  0.00    -0.581 C  
ENDROOT
BRANCH   2   3
HETATM    3  C   UNL     1     -13.113  12.355  71.712  1.00  0.00    -0.446 C  
BRANCH   3   4
HETATM    4  C   UNL     1     -12.186  13.035  70.703  1.00  0.00    -0.390 C  
HETATM    5  C   UNL     1     -12.724  14.377  70.144  1.00  0.00    -0.259 C  
HETATM    6  C   UNL     1     -13.080  15.407  71.239  1.00  0.00    -0.564 C  
HETATM    7  C   UNL     1     -11.742  14.997  69.120  1.00  0.00    -0.345 C  
HETATM    8  C   UNL     1     -11.894  15.931  72.040  1.00  0.00    -0.609 C  
BRANCH   7   9
HETATM    9  C   UNL     1     -11.546  14.105  67.894  1.00  0.00    -0.370 C  
BRANCH   9  10
HETATM   10  C   UNL     1     -11.043  14.799  66.614  1.00  0.00    -0.333 C  
BRANCH  10  11
HETATM   11  C   UNL     1      -9.637  15.407  66.816  1.00  0.00    -0.257 C  
HETATM   12  C   UNL     1     -10.310  17.878  66.886  1.00  0.00    -0.358 C  
HETATM   13  C   UNL     1      -9.422  16.820  66.229  1.00  0.00    -0.314 C  
HETATM   14  C   UNL     1      -7.952  17.231  66.407  1.00  0.00    -0.338 C  
ENDBRANCH  10  11
BRANCH  10  15
HETATM   15  O   UNL     1     -10.937  13.815  65.576  1.00  0.00    -0.291 OA 
HETATM   16  O   UNL     1     -13.227  12.892  65.166  1.00  0.00    -0.702 OA 
HETATM   17  O   UNL     1     -12.383  14.872  63.830  1.00  0.00    -0.711 OA 
HETATM   18  S   UNL     1     -12.157  13.628  64.518  1.00  0.00    -0.419 S  
HETATM   19  O   UNL     1     -11.537  12.575  63.468  1.00  0.00    -0.456 OA 
ENDBRANCH  10  15
ENDBRANCH   9  10
ENDBRANCH   7   9
ENDBRANCH   3   4
ENDBRANCH   2   3
TORSDOF 6
ENDMDL
MODEL        2
REMARK 921   NORMALIZED FREE ENERGY PREDICTED BY IDOCK:   -5.98 KCAL/MOL
REMARK 922        TOTAL FREE ENERGY PREDICTED BY IDOCK:   -8.84 KCAL/MOL
REMARK 923 INTER-LIGAND FREE ENERGY PREDICTED BY IDOCK:   -7.74 KCAL/MOL
REMARK 924 INTRA-LIGAND FREE ENERGY PREDICTED BY IDOCK:   -1.10 KCAL/MOL
REMARK 927      BINDING AFFINITY PREDICTED BY RF-SCORE:    0.00 PKD
ROOT
HETATM    1  C   UNL     1     -13.253  14.087  71.501  1.00  0.00    -0.431 C  
HETATM    2  C   UNL     1     -12.899  15.566  71.468  1.00  0.00    -0.519 C  
ENDROOT
BRANCH   2   3
HETATM    3  C   UNL     1     -11.452  15.771  71.016  1.00  0.00    -0.451 C  
BRANCH   3   4
HETATM    4  C   UNL     1     -11.188  15.112  69.660  1.00  0.00    -0.288 C  
HETATM    5  C   UNL     1     -11.318  16.071  68.448  1.00  0.00    -0.355 C  
HETATM    6  C   UNL     1     -10.425  17.327  68.553  1.00  0.00    -0.375 C  
HETATM    7  C   UNL     1     -11.054  15.332  67.113  1.00  0.00    -0.323 C  
HETATM    8  C   UNL     1      -8.926  17.059  68.496  1.00  0.00    -0.263 C  
BRANCH   7   9
HETATM    9  C   UNL     1     -12.074  14.222  66.854  1.00  0.00    -0.440 C  
BRANCH   9  10
HETATM   10  C   UNL     1     -11.513  12.878  66.352  1.00  0.00    -0.341 C  
BRANCH  10  11
HETATM   11  C   UNL     1     -11.419  11.843  67.495  1.00  0.00    -0.396 C  
HETATM   12  C   UNL     1      -9.021  12.339  68.247  1.00  0.00    -0.182 C  
HETATM   13  C   UNL     1     -10.010  11.273  67.775  1.00  0.00    -0.193 C  
HETATM   14  C   UNL     1     -10.104  10.178  68.849  1.00  0.00    -0.211 C  
ENDBRANCH  10  11
BRANCH  10  15
HETATM   15  O   UNL     1     -12.414  12.350  65.370  1.00  0.00    -0.637 OA 
HETATM   16  O   UNL     1     -12.601  14.031  63.525  1.00  0.00    -0.842 OA 
HETATM   17  O   UNL     1     -10.869  12.186  63.410  1.00  0.00    -0.431 OA 
HETATM   18  S   UNL     1     -12.167  12.672  63.795  1.00  0.00    -0.525 S  
HETATM   19  O   UNL     1     -13.283  11.756  63.082  1.00  0.00    -0.538 OA 
ENDBRANCH  10  15
ENDBRANCH   9  10
ENDBRANCH   7   9
ENDBRANCH   3   4
ENDBRANCH   2   3
TORSDOF 6
ENDMDL
MODEL        3
REMARK 921   NORMALIZED FREE ENERGY PREDICTED BY IDOCK:   -5.80 KCAL/MOL
REMARK 922        TOTAL FREE ENERGY PREDICTED BY IDOCK:   -8.59 KCAL/MOL
REMARK 923 INTER-LIGAND FREE ENERGY PREDICTED BY IDOCK:   -7.76 KCAL/MOL
REMARK 924 INTRA-LIGAND FREE ENERGY PREDICTED BY IDOCK:   -0.83 KCAL/MOL
REMARK 927      BINDING AFFINITY PREDICTED BY RF-SCORE:    0.00 PKD
ROOT
HETATM    1  C   UNL     1     -12.129  10.880  70.679  1.00  0.00    -0.468 C  
HETATM    2  C   UNL     1     -13.130  10.966  71.820  1.00  0.00    -0.564 C  
ENDROOT
BRANCH   2   3
HETATM    3  C   UNL     1     -13.527  12.419  72.091  1.00  0.00    -0.481 C  
BRANCH   3   4
HETATM    4  C   UNL     1     -12.677  13.394  71.274  1.00  0.00    -0.424 C  
HETATM    5  C   UNL     1     -13.228  14.843  71.236  1.00  0.00    -0.476 C  
HETATM    6  C   UNL     1     -13.455  15.458  72.634  1.00  0.00    -0.630 C  
HETATM    7  C   UNL     1     -12.327  15.767  70.380  1.00  0.00    -0.367 C  
HETATM    8  C   UNL     1     -12.188  15.698  73.446  1.00  0.00    -0.629 C  
BRANCH   7   9
HETATM    9  C   UNL     1     -12.267  15.324  68.918  1.00  0.00    -0.132 C  
BRANCH   9  10
HETATM   10  C   UNL     1     -10.865  15.234  68.286  1.00  0.00    -0.262 C  
BRANCH  10  11
HETATM   11  C   UNL     1     -10.512  13.780  67.898  1.00  0.00    -0.247 C  
HETATM   12  C   UNL     1     -12.285  13.443  66.078  1.00  0.00    -0.491 C  
HETATM   13  C   UNL     1     -11.685  12.916  67.383  1.00  0.00    -0.428 C  
HETATM   14  C   UNL     1     -11.200  11.476  67.155  1.00  0.00    -0.365 C  
ENDBRANCH  10  11
BRANCH  10  15
HETATM   15  O   UNL     1     -10.860  16.010  67.080  1.00  0.00    -0.310 OA 
HETATM   16  O   UNL     1     -10.869  18.427  67.733  1.00  0.00    -0.384 OA 
HETATM   17  O   UNL     1      -8.681  17.209  67.348  1.00  0.00    -0.201 OA 
HETATM   18  S   UNL     1     -10.070  17.431  67.042  1.00  0.00    -0.324 S  
HETATM   19  O   UNL     1     -10.187  17.842  65.490  1.00  0.00    -0.576 OA 
ENDBRANCH  10  15
ENDBRANCH   9  10
ENDBRANCH   7   9
ENDBRANCH   3   4
ENDBRANCH   2   3
TORSDOF 6
ENDMDL
MODEL        4
REMARK 921   NORMALIZED FREE ENERGY PREDICTED BY IDOCK:   -5.79 KCAL/MOL
REMARK 922        TOTAL FREE ENERGY PREDICTED BY IDOCK:   -8.58 KCAL/MOL
REMARK 923 INTER-LIGAND FREE ENERGY PREDICTED BY IDOCK:   -7.51 KCAL/MOL
REMARK 924 INTRA-LIGAND FREE ENERGY PREDICTED BY IDOCK:   -1.07 KCAL/MOL
REMARK 927      BINDING AFFINITY PREDICTED BY RF-SCORE:    0.00 PKD
ROOT
HETATM    1  C   UNL     1      -6.468  19.910  66.674  1.00  0.00    -0.210 C  
HETATM    2  C   UNL     1      -6.451  20.362  68.127  1.00  0.00    -0.339 C  
ENDROOT
BRANCH   2   3
HETATM    3  C   UNL     1      -7.304  19.436  68.997  1.00  0.00    -0.395 C  
BRANCH   3   4
HETATM    4  C   UNL     1      -8.006  18.366  68.157  1.00  0.00    -0.303 C  
HETATM    5  C   UNL     1      -9.548  18.341  68.316  1.00  0.00    -0.332 C  
HETATM    6  C   UNL     1     -10.225  19.699  68.027  1.00  0.00    -0.579 C  
HETATM    7  C   UNL     1     -10.187  17.225  67.452  1.00  0.00    -0.325 C  
HETATM    8  C   UNL     1     -10.135  20.169  66.581  1.00  0.00    -0.584 C  
BRANCH   7   9
HETATM    9  C   UNL     1      -9.719  15.831  67.869  1.00  0.00    -0.216 C  
BRANCH   9  10
HETATM   10  C   UNL     1     -10.815  14.846  68.318  1.00  0.00    -0.257 C  
BRANCH  10  11
HETATM   11  C   UNL     1     -11.486  15.307  69.631  1.00  0.00    -0.321 C  
HETATM   12  C   UNL     1     -12.180  13.007  70.520  1.00  0.00    -0.392 C  
HETATM   13  C   UNL     1     -12.638  14.418  70.149  1.00  0.00    -0.340 C  
HETATM   14  C   UNL     1     -13.274  15.071  71.386  1.00  0.00    -0.497 C  
ENDBRANCH  10  11
BRANCH  10  15
HETATM   15  O   UNL     1     -11.833  14.809  67.308  1.00  0.00    -0.378 OA 
HETATM   16  O   UNL     1     -10.833  13.779  65.258  1.00  0.00    -0.299 OA 
HETATM   17  O   UNL     1     -12.018  12.337  66.972  1.00  0.00    -0.576 OA 
HETATM   18  S   UNL     1     -11.872  13.574  66.251  1.00  0.00    -0.415 S  
HETATM   19  O   UNL     1     -13.241  13.857  65.451  1.00  0.00    -0.750 OA 
ENDBRANCH  10  15
ENDBRANCH   9  10
ENDBRANCH   7   9
ENDBRANCH   3   4
ENDBRANCH   2   3
TORSDOF 6
ENDMDL
MODEL        5
REMARK 921   NORMALIZED FREE ENERGY PREDICTED BY IDOCK:   -5.77 KCAL/MOL
REMARK 922        TOTAL FREE ENERGY PREDICTED BY IDOCK:   -8.56 KCAL/MOL
REMARK 923 INTER-LIGAND FREE ENERGY PREDICTED BY IDOCK:   -7.69 KCAL/MOL
REMARK 924 INTRA-LIGAND FREE ENERGY PREDICTED BY IDOCK:   -0.87 KCAL/MOL
REMARK 927      BINDING AFFINITY PREDICTED BY RF-SCORE:    0.00 PKD
ROOT
HETATM    1  C   UNL     1     -10.819  11.719  63.445  1.00  0.00    -0.460 C  
HETATM    2  C   UNL     1     -11.658  12.932  63.812  1.00  0.00    -0.538 C  
ENDROOT
BRANCH   2   3
HETATM    3  C   UNL     1     -12.526  12.645  65.039  1.00  0.00    -0.556 C  
BRANCH   3   4
HETATM    4  C   UNL     1     -11.987  13.351  66.286  1.00  0.00    -0.460 C  
HETATM    5  C   UNL     1     -11.755  12.415  67.500  1.00  0.00    -0.425 C  
HETATM    6  C   UNL     1     -10.832  11.216  67.191  1.00  0.00    -0.326 C  
HETATM    7  C   UNL     1     -11.226  13.201  68.725  1.00  0.00    -0.323 C  
HETATM    8  C   UNL     1      -9.386  11.579  66.879  1.00  0.00    -0.189 C  
BRANCH   7   9
HETATM    9  C   UNL     1     -12.226  14.249  69.215  1.00  0.00    -0.289 C  
BRANCH   9  10
HETATM   10  C   UNL     1     -11.645  15.424  70.026  1.00  0.00    -0.321 C  
BRANCH  10  11
HETATM   11  C   UNL     1     -11.672  15.131  71.543  1.00  0.00    -0.447 C  
HETATM   12  C   UNL     1     -14.205  15.275  71.903  1.00  0.00    -0.681 C  
HETATM   13  C   UNL     1     -12.828  15.781  72.335  1.00  0.00    -0.539 C  
HETATM   14  C   UNL     1     -12.647  15.495  73.834  1.00  0.00    -0.767 C  
ENDBRANCH  10  11
BRANCH  10  15
HETATM   15  O   UNL     1     -10.273  15.599  69.649  1.00  0.00    -0.256 OA 
HETATM   16  O   UNL     1     -10.225  16.261  67.236  1.00  0.00    -0.267 OA 
HETATM   17  O   UNL     1     -10.297  18.028  69.050  1.00  0.00    -0.350 OA 
HETATM   18  S   UNL     1      -9.877  16.741  68.561  1.00  0.00    -0.270 S  
HETATM   19  O   UNL     1      -8.268  16.691  68.587  1.00  0.00    -0.222 OA 
ENDBRANCH  10  15
ENDBRANCH   9  10
ENDBRANCH   7   9
ENDBRANCH   3   4
ENDBRANCH   2   3
TORSDOF 6
ENDMDL
MODEL        6
REMARK 921   NORMALIZED FREE ENERGY PREDICTED BY IDOCK:   -5.71 KCAL/MOL
REMARK 922        TOTAL FREE ENERGY PREDICTED BY IDOCK:   -8.47 KCAL/MOL
REMARK 923 INTER-LIGAND FREE ENERGY PREDICTED BY IDOCK:   -7.43 KCAL/MOL
REMARK 924 INTRA-LIGAND FREE ENERGY PREDICTED BY IDOCK:   -1.04 KCAL/MOL
REMARK 927      BINDING AFFINITY PREDICTED BY RF-SCORE:    0.00 PKD
ROOT
HETATM    1  C   UNL     1     -10.998  15.471  65.108  1.00  0.00    -0.422 C  
HETATM    2  C   UNL     1     -12.137  14.678  64.487  1.00  0.00    -0.490 C  
ENDROOT
BRANCH   2   3
HETATM    3  C   UNL     1     -12.681  13.640  65.470  1.00  0.00    -0.514 C  
BRANCH   3   4
HETATM    4  C   UNL     1     -12.103  13.840  66.874  1.00  0.00    -0.454 C  
HETATM    5  C   UNL     1     -11.886  12.526  67.667  1.00  0.00    -0.381 C  
HETATM    6  C   UNL     1     -11.006  11.493  66.929  1.00  0.00    -0.350 C  
HETATM    7  C   UNL     1     -11.316  12.807  69.080  1.00  0.00    -0.346 C  
HETATM    8  C   UNL     1      -9.553  11.907  66.733  1.00  0.00    -0.214 C  
BRANCH   7   9
HETATM    9  C   UNL     1     -12.274  13.637  69.935  1.00  0.00    -0.367 C  
BRANCH   9  10
HETATM   10  C   UNL     1     -11.736  14.982  70.460  1.00  0.00    -0.297 C  
BRANCH  10  11
HETATM   11  C   UNL     1     -11.387  15.941  69.300  1.00  0.00    -0.355 C  
HETATM   12  C   UNL     1      -8.962  15.205  68.927  1.00  0.00    -0.206 C  
HETATM   13  C   UNL     1      -9.907  16.374  69.204  1.00  0.00    -0.272 C  
HETATM   14  C   UNL     1      -9.748  17.412  68.082  1.00  0.00    -0.291 C  
ENDBRANCH  10  11
BRANCH  10  15
HETATM   15  O   UNL     1     -12.765  15.609  71.238  1.00  0.00    -0.430 OA 
HETATM   16  O   UNL     1     -13.806  13.849  72.681  1.00  0.00    -0.666 OA 
HETATM   17  O   UNL     1     -11.859  15.225  73.538  1.00  0.00    -0.435 OA 
HETATM   18  S   UNL     1     -13.056  15.090  72.751  1.00  0.00    -0.497 S  
HETATM   19  O   UNL     1     -14.132  16.168  73.277  1.00  0.00    -0.442 OA 
ENDBRANCH  10  15
ENDBRANCH   9  10
ENDBRANCH   7   9
ENDBRANCH   3   4
ENDBRANCH   2   3
TORSDOF 6
ENDMDL
MODEL        7
REMARK 921   NORMALIZED FREE ENERGY PREDICTED BY IDOCK:   -5.68 KCAL/MOL
REMARK 922        TOTAL FREE ENERGY PREDICTED BY IDOCK:   -8.43 KCAL/MOL
REMARK 923 INTER-LIGAND FREE ENERGY PREDICTED BY IDOCK:   -7.55 KCAL/MOL
REMARK 924 INTRA-LIGAND FREE ENERGY PREDICTED BY IDOCK:   -0.88 KCAL/MOL
REMARK 927      BINDING AFFINITY PREDICTED BY RF-SCORE:    0.00 PKD
ROOT
HETATM    1  C   UNL     1      -8.609  20.200  67.467  1.00  0.00    -0.404 C  
HETATM    2  C   UNL     1      -9.625  20.089  66.340  1.00  0.00    -0.536 C  
ENDROOT
BRANCH   2   3
HETATM    3  C   UNL     1     -10.765  19.143  66.722  1.00  0.00    -0.488 C  
BRANCH   3   4
HETATM    4  C   UNL     1     -10.333  18.154  67.808  1.00  0.00    -0.413 C  
HETATM    5  C   UNL     1     -10.198  16.689  67.319  1.00  0.00    -0.290 C  
HETATM    6  C   UNL     1      -9.247  16.523  66.112  1.00  0.00    -0.338 C  
HETATM    7  C   UNL     1      -9.775  15.746  68.472  1.00  0.00    -0.206 C  
HETATM    8  C   UNL     1      -7.782  16.823  66.400  1.00  0.00    -0.345 C  
BRANCH   7   9
HETATM    9  C   UNL     1     -10.815  15.699  69.592  1.00  0.00    -0.287 C  
BRANCH   9  10
HETATM   10  C   UNL     1     -11.804  14.518  69.559  1.00  0.00    -0.329 C  
BRANCH  10  11
HETATM   11  C   UNL     1     -11.154  13.253  68.953  1.00  0.00    -0.304 C  
HETATM   12  C   UNL     1     -11.978  13.532  66.544  1.00  0.00    -0.460 C  
HETATM   13  C   UNL     1     -11.904  12.613  67.764  1.00  0.00    -0.381 C  
HETATM   14  C   UNL     1     -11.200  11.310  67.356  1.00  0.00    -0.370 C  
ENDBRANCH  10  11
BRANCH  10  15
HETATM   15  O   UNL     1     -12.177  14.202  70.907  1.00  0.00    -0.325 OA 
HETATM   16  O   UNL     1     -12.049  16.313  72.246  1.00  0.00    -0.504 OA 
HETATM   17  O   UNL     1     -14.220  15.627  71.134  1.00  0.00    -0.514 OA 
HETATM   18  S   UNL     1     -12.984  15.299  71.796  1.00  0.00    -0.433 S  
HETATM   19  O   UNL     1     -13.331  14.465  73.130  1.00  0.00    -0.626 OA 
ENDBRANCH  10  15
ENDBRANCH   9  10
ENDBRANCH   7   9
ENDBRANCH   3   4
ENDBRANCH   2   3
TORSDOF 6
ENDMDL
MODEL        8
REMARK 921   NORMALIZED FREE ENERGY PREDICTED BY IDOCK:   -5.62 KCAL/MOL
REMARK 922        TOTAL FREE ENERGY PREDICTED BY IDOCK:   -8.36 KCAL/MOL
REMARK 923 INTER-LIGAND FREE ENERGY PREDICTED BY IDOCK:   -7.21 KCAL/MOL
REMARK 924 INTRA-LIGAND FREE ENERGY PREDICTED BY IDOCK:   -1.15 KCAL/MOL
REMARK 927      BINDING AFFINITY PREDICTED BY RF-SCORE:    0.00 PKD
ROOT
HETATM    1  C   UNL     1     -10.598  19.816  66.147  1.00  0.00    -0.569 C  
HETATM    2  C   UNL     1      -9.782  20.542  67.205  1.00  0.00    -0.581 C  
ENDROOT
BRANCH   2   3
HETATM    3  C   UNL     1      -8.639  19.661  67.714  1.00  0.00    -0.366 C  
BRANCH   3   4
HETATM    4  C   UNL     1      -8.948  18.175  67.521  1.00  0.00    -0.257 C  
HETATM    5  C   UNL     1      -8.107  17.487  66.414  1.00  0.00    -0.309 C  
HETATM    6  C   UNL     1      -6.582  17.639  66.608  1.00  0.00    -0.243 C  
HETATM    7  C   UNL     1      -8.485  15.992  66.266  1.00  0.00    -0.337 C  
HETATM    8  C   UNL     1      -6.013  16.927  67.828  1.00  0.00    -0.147 C  
BRANCH   7   9
HETATM    9  C   UNL     1      -9.940  15.803  65.838  1.00  0.00    -0.380 C  
BRANCH   9  10
HETATM   10  C   UNL     1     -10.772  14.799  66.659  1.00  0.00    -0.309 C  
BRANCH  10  11
HETATM   11  C   UNL     1     -11.464  15.485  67.858  1.00  0.00    -0.276 C  
HETATM   12  C   UNL     1      -9.577  15.226  69.571  1.00  0.00    -0.219 C  
HETATM   13  C   UNL     1     -11.052  14.975  69.257  1.00  0.00    -0.280 C  
HETATM   14  C   UNL     1     -11.909  15.668  70.328  1.00  0.00    -0.386 C  
ENDBRANCH  10  11
BRANCH  10  15
HETATM   15  O   UNL     1     -11.804  14.269  65.816  1.00  0.00    -0.355 OA 
HETATM   16  O   UNL     1     -10.834  12.345  64.542  1.00  0.00    -0.289 OA 
HETATM   17  O   UNL     1     -11.992  11.962  66.762  1.00  0.00    -0.613 OA 
HETATM   18  S   UNL     1     -11.858  12.671  65.518  1.00  0.00    -0.447 S  
HETATM   19  O   UNL     1     -13.238  12.525  64.701  1.00  0.00    -0.848 OA 
ENDBRANCH  10  15
ENDBRANCH   9  10
ENDBRANCH   7   9
ENDBRANCH   3   4
ENDBRANCH   2   3
TORSDOF 6
ENDMDL
MODEL        9
REMARK 921   NORMALIZED FREE ENERGY PREDICTED BY IDOCK:   -5.61 KCAL/MOL
REMARK 922        TOTAL FREE ENERGY PREDICTED BY IDOCK:   -8.34 KCAL/MOL
REMARK 923 INTER-LIGAND FREE ENERGY PREDICTED BY IDOCK:   -7.43 KCAL/MOL
REMARK 924 INTRA-LIGAND FREE ENERGY PREDICTED BY IDOCK:   -0.91 KCAL/MOL
REMARK 927      BINDING AFFINITY PREDICTED BY RF-SCORE:    0.00 PKD
ROOT
HETATM    1  C   UNL     1     -12.717   8.022  71.698  1.00  0.00    -0.347 C  
HETATM    2  C   UNL     1     -13.351   9.399  71.573  1.00  0.00    -0.458 C  
ENDROOT
BRANCH   2   3
HETATM    3  C   UNL     1     -12.288  10.467  71.307  1.00  0.00    -0.507 C  
BRANCH   3   4
HETATM    4  C   UNL     1     -12.366  10.991  69.871  1.00  0.00    -0.356 C  
HETATM    5  C   UNL     1     -10.988  11.269  69.217  1.00  0.00    -0.297 C  
HETATM    6  C   UNL     1     -10.038  10.051  69.232  1.00  0.00    -0.226 C  
HETATM    7  C   UNL     1     -11.147  11.811  67.775  1.00  0.00    -0.302 C  
HETATM    8  C   UNL     1     -10.484   8.874  68.375  1.00  0.00    -0.230 C  
BRANCH   7   9
HETATM    9  C   UNL     1     -11.883  13.150  67.738  1.00  0.00    -0.392 C  
BRANCH   9  10
HETATM   10  C   UNL     1     -11.433  14.151  66.656  1.00  0.00    -0.366 C  
BRANCH  10  11
HETATM   11  C   UNL     1     -10.142  14.890  67.074  1.00  0.00    -0.244 C  
HETATM   12  C   UNL     1     -10.527  17.067  65.778  1.00  0.00    -0.261 C  
HETATM   13  C   UNL     1      -9.579  15.897  66.046  1.00  0.00    -0.385 C  
HETATM   14  C   UNL     1      -8.240  16.455  66.554  1.00  0.00    -0.341 C  
ENDBRANCH  10  11
BRANCH  10  15
HETATM   15  O   UNL     1     -11.138  13.420  65.458  1.00  0.00    -0.282 OA 
HETATM   16  O   UNL     1     -13.275  12.400  64.645  1.00  0.00    -0.822 OA 
HETATM   17  O   UNL     1     -12.549  14.685  63.825  1.00  0.00    -0.820 OA 
HETATM   18  S   UNL     1     -12.244  13.350  64.267  1.00  0.00    -0.372 S  
HETATM   19  O   UNL     1     -11.432  12.602  63.095  1.00  0.00    -0.424 OA 
ENDBRANCH  10  15
ENDBRANCH   9  10
ENDBRANCH   7   9
ENDBRANCH   3   4
ENDBRANCH   2   3
TORSDOF 6
ENDMDL
MODEL       10
REMARK 921   NORMALIZED FREE ENERGY PREDICTED BY IDOCK:   -5.58 KCAL/MOL
REMARK 922        TOTAL FREE ENERGY PREDICTED BY IDOCK:   -8.29 KCAL/MOL
REMARK 923 INTER-LIGAND FREE ENERGY PREDICTED BY IDOCK:   -7.31 KCAL/MOL
REMARK 924 INTRA-LIGAND FREE ENERGY PREDICTED BY IDOCK:   -0.99 KCAL/MOL
REMARK 927      BINDING AFFINITY PREDICTED BY RF-SCORE:    0.00 PKD
ROOT
HETATM    1  C   UNL     1     -11.966  15.422  73.091  1.00  0.00    -0.559 C  
HETATM    2  C   UNL     1     -13.423  15.325  72.668  1.00  0.00    -0.610 C  
ENDROOT
BRANCH   2   3
HETATM    3  C   UNL     1     -13.541  14.852  71.218  1.00  0.00    -0.504 C  
BRANCH   3   4
HETATM    4  C   UNL     1     -12.262  14.152  70.750  1.00  0.00    -0.435 C  
HETATM    5  C   UNL     1     -11.852  14.481  69.291  1.00  0.00    -0.361 C  
HETATM    6  C   UNL     1     -11.701  15.993  69.014  1.00  0.00    -0.322 C  
HETATM    7  C   UNL     1     -10.562  13.727  68.884  1.00  0.00    -0.224 C  
HETATM    8  C   UNL     1     -10.553  16.671  69.752  1.00  0.00    -0.227 C  
BRANCH   7   9
HETATM    9  C   UNL     1     -10.746  12.209  68.915  1.00  0.00    -0.212 C  
BRANCH   9  10
HETATM   10  C   UNL     1     -10.803  11.497  67.550  1.00  0.00    -0.237 C  
BRANCH  10  11
HETATM   11  C   UNL     1     -10.984   9.971  67.716  1.00  0.00    -0.310 C  
HETATM   12  C   UNL     1      -8.574   9.256  67.220  1.00  0.00    -0.125 C  
HETATM   13  C   UNL     1     -10.051   9.084  66.862  1.00  0.00    -0.338 C  
HETATM   14  C   UNL     1     -10.434   7.608  67.049  1.00  0.00    -0.419 C  
ENDBRANCH  10  11
BRANCH  10  15
HETATM   15  O   UNL     1     -11.943  11.987  66.831  1.00  0.00    -0.612 OA 
HETATM   16  O   UNL     1     -11.173  13.879  65.385  1.00  0.00    -0.298 OA 
HETATM   17  O   UNL     1     -11.211  11.510  64.487  1.00  0.00    -0.305 OA 
HETATM   18  S   UNL     1     -11.756  12.551  65.317  1.00  0.00    -0.400 S  
HETATM   19  O   UNL     1     -13.279  12.814  64.864  1.00  0.00    -0.808 OA 
ENDBRANCH  10  15
ENDBRANCH   9  10
ENDBRANCH   7   9
ENDBRANCH   3   4
ENDBRANCH   2   3
TORSDOF 6
ENDMDL
MODEL       11
REMARK 921   NORMALIZED FREE ENERGY PREDICTED BY IDOCK:   -5.55 KCAL/MOL
REMARK 922        TOTAL FREE ENERGY PREDICTED BY IDOCK:   -8.25 KCAL/MOL
REMARK 923 INTER-LIGAND FREE ENERGY PREDICTED BY IDOCK:   -7.54 KCAL/MOL
REMARK 924 INTRA-LIGAND FREE ENERGY PREDICTED BY IDOCK:   -0.72 KCAL/MOL
REMARK 927      BINDING AFFINITY PREDICTED BY RF-SCORE:    0.00 PKD
ROOT
HETATM    1  C   UNL     1      -6.427  21.103  67.573  1.00  0.00    -0.427 C  
HETATM    2  C   UNL     1      -6.648  19.599  67.583  1.00  0.00    -0.254 C  
ENDROOT
BRANCH   2   3
HETATM    3  C   UNL     1      -7.451  19.173  68.814  1.00  0.00    -0.379 C  
BRANCH   3   4
HETATM    4  C   UNL     1      -8.417  18.032  68.487  1.00  0.00    -0.314 C  
HETATM    5  C   UNL     1      -9.912  18.377  68.715  1.00  0.00    -0.404 C  
HETATM    6  C   UNL     1     -10.381  19.637  67.955  1.00  0.00    -0.579 C  
HETATM    7  C   UNL     1     -10.826  17.174  68.379  1.00  0.00    -0.309 C  
HETATM    8  C   UNL     1     -10.386  19.510  66.437  1.00  0.00    -0.594 C  
BRANCH   7   9
HETATM    9  C   UNL     1     -10.552  15.970  69.281  1.00  0.00    -0.265 C  
BRANCH   9  10
HETATM   10  C   UNL     1     -11.636  14.875  69.312  1.00  0.00    -0.306 C  
BRANCH  10  11
HETATM   11  C   UNL     1     -11.206  13.631  68.504  1.00  0.00    -0.310 C  
HETATM   12  C   UNL     1     -11.765  14.501  66.160  1.00  0.00    -0.355 C  
HETATM   13  C   UNL     1     -11.972  13.385  67.185  1.00  0.00    -0.415 C  
HETATM   14  C   UNL     1     -11.513  12.056  66.565  1.00  0.00    -0.413 C  
ENDBRANCH  10  11
BRANCH  10  15
HETATM   15  O   UNL     1     -11.821  14.458  70.672  1.00  0.00    -0.293 OA 
HETATM   16  O   UNL     1     -11.947  16.518  72.088  1.00  0.00    -0.471 OA 
HETATM   17  O   UNL     1     -14.055  15.483  71.137  1.00  0.00    -0.537 OA 
HETATM   18  S   UNL     1     -12.725  15.364  71.675  1.00  0.00    -0.447 S  
HETATM   19  O   UNL     1     -12.792  14.444  72.995  1.00  0.00    -0.464 OA 
ENDBRANCH  10  15
ENDBRANCH   9  10
ENDBRANCH   7   9
ENDBRANCH   3   4
ENDBRANCH   2   3
TORSDOF 6
ENDMDL
MODEL       12
REMARK 921   NORMALIZED FREE ENERGY PREDICTED BY IDOCK:   -5.51 KCAL/MOL
REMARK 922        TOTAL FREE ENERGY PREDICTED BY IDOCK:   -8.21 KCAL/MOL
REMARK 923 INTER-LIGAND FREE ENERGY PREDICTED BY IDOCK:   -7.33 KCAL/MOL
REMARK 924 INTRA-LIGAND FREE ENERGY PREDICTED BY IDOCK:   -0.88 KCAL/MOL
REMARK 927      BINDING AFFINITY PREDICTED BY RF-SCORE:    0.00 PKD
ROOT
HETATM    1  C   UNL     1     -13.006  15.430  71.309  1.00  0.00    -0.541 C  
HETATM    2  C   UNL     1     -13.074  14.692  72.637  1.00  0.00    -0.549 C  
ENDROOT
BRANCH   2   3
HETATM    3  C   UNL     1     -13.423  13.217  72.426  1.00  0.00    -0.670 C  
BRANCH   3   4
HETATM    4  C   UNL     1     -13.246  12.803  70.963  1.00  0.00     0.074 C  
HETATM    5  C   UNL     1     -12.133  11.748  70.730  1.00  0.00    -0.352 C  
HETATM    6  C   UNL     1     -12.305  10.467  71.574  1.00  0.00    -0.468 C  
HETATM    7  C   UNL     1     -12.001  11.390  69.228  1.00  0.00    -0.400 C  
HETATM    8  C   UNL     1     -13.523   9.622  71.223  1.00  0.00    -0.359 C  
BRANCH   7   9
HETATM    9  C   UNL     1     -11.594  12.596  68.380  1.00  0.00    -0.370 C  
BRANCH   9  10
HETATM   10  C   UNL     1     -10.996  12.288  66.994  1.00  0.00    -0.268 C  
BRANCH  10  11
HETATM   11  C   UNL     1     -10.029  11.084  67.051  1.00  0.00    -0.223 C  
HETATM   12  C   UNL     1      -7.909  12.345  67.744  1.00  0.00    -0.154 C  
HETATM   13  C   UNL     1      -8.549  11.393  66.733  1.00  0.00    -0.166 C  
HETATM   14  C   UNL     1      -7.745  10.083  66.714  1.00  0.00    -0.103 C  
ENDBRANCH  10  11
BRANCH  10  15
HETATM   15  O   UNL     1     -12.067  11.934  66.108  1.00  0.00    -0.519 OA 
HETATM   16  O   UNL     1     -13.000  14.054  65.159  1.00  0.00    -0.744 OA 
HETATM   17  O   UNL     1     -11.150  12.813  63.953  1.00  0.00    -0.383 OA 
HETATM   18  S   UNL     1     -12.332  12.824  64.773  1.00  0.00    -0.475 S  
HETATM   19  O   UNL     1     -13.477  11.976  64.022  1.00  0.00    -0.655 OA 
ENDBRANCH  10  15
ENDBRANCH   9  10
ENDBRANCH   7   9
ENDBRANCH   3   4
ENDBRANCH   2   3
TORSDOF 6
ENDMDL
MODEL       13
REMARK 921   NORMALIZED FREE ENERGY PREDICTED BY IDOCK:   -5.51 KCAL/MOL
REMARK 922        TOTAL FREE ENERGY PREDICTED BY IDOCK:   -8.20 KCAL/MOL
REMARK 923 INTER-LIGAND FREE ENERGY PREDICTED BY IDOCK:   -7.74 KCAL/MOL
REMARK 924 INTRA-LIGAND FREE ENERGY PREDICTED BY IDOCK:   -0.46 KCAL/MOL
REMARK 927      BINDING AFFINITY PREDICTED BY RF-SCORE:    0.00 PKD
ROOT
HETATM    1  C   UNL     1     -10.106  20.046  66.327  1.00  0.00    -0.603 C  
HETATM    2  C   UNL     1     -10.858  19.140  67.290  1.00  0.00    -0.529 C  
ENDROOT
BRANCH   2   3
HETATM    3  C   UNL     1      -9.887  18.398  68.211  1.00  0.00    -0.383 C  
BRANCH   3   4
HETATM    4  C   UNL     1      -9.943  16.885  67.983  1.00  0.00    -0.279 C  
HETATM    5  C   UNL     1      -9.465  16.434  66.579  1.00  0.00    -0.296 C  
HETATM    6  C   UNL     1      -8.044  16.922  66.220  1.00  0.00    -0.351 C  
HETATM    7  C   UNL     1      -9.564  14.897  66.415  1.00  0.00    -0.317 C  
HETATM    8  C   UNL     1      -6.925  16.326  67.064  1.00  0.00    -0.250 C  
BRANCH   7   9
HETATM    9  C   UNL     1     -11.004  14.396  66.528  1.00  0.00    -0.316 C  
BRANCH   9  10
HETATM   10  C   UNL     1     -11.190  12.874  66.678  1.00  0.00    -0.304 C  
BRANCH  10  11
HETATM   11  C   UNL     1     -11.756  12.509  68.069  1.00  0.00    -0.410 C  
HETATM   12  C   UNL     1     -10.124  10.620  68.648  1.00  0.00    -0.194 C  
HETATM   13  C   UNL     1     -11.589  11.034  68.500  1.00  0.00    -0.380 C  
HETATM   14  C   UNL     1     -12.302  10.808  69.842  1.00  0.00    -0.340 C  
ENDBRANCH  10  11
BRANCH  10  15
HETATM   15  O   UNL     1     -12.143  12.435  65.701  1.00  0.00    -0.529 OA 
HETATM   16  O   UNL     1     -12.350  14.238  63.977  1.00  0.00    -0.641 OA 
HETATM   17  O   UNL     1     -10.679  12.358  63.675  1.00  0.00    -0.417 OA 
HETATM   18  S   UNL     1     -11.947  12.853  64.142  1.00  0.00    -0.458 S  
HETATM   19  O   UNL     1     -13.115  12.015  63.417  1.00  0.00    -0.747 OA 
ENDBRANCH  10  15
ENDBRANCH   9  10
ENDBRANCH   7   9
ENDBRANCH   3   4
ENDBRANCH   2   3
TORSDOF 6
ENDMDL
MODEL       14
REMARK 921   NORMALIZED FREE ENERGY PREDICTED BY IDOCK:   -5.46 KCAL/MOL
REMARK 922        TOTAL FREE ENERGY PREDICTED BY IDOCK:   -8.13 KCAL/MOL
REMARK 923 INTER-LIGAND FREE ENERGY PREDICTED BY IDOCK:   -7.49 KCAL/MOL
REMARK 924 INTRA-LIGAND FREE ENERGY PREDICTED BY IDOCK:   -0.64 KCAL/MOL
REMARK 927      BINDING AFFINITY PREDICTED BY RF-SCORE:    0.00 PKD
ROOT
HETATM    1  C   UNL     1     -12.125  16.188  72.557  1.00  0.00    -0.644 C  
HETATM    2  C   UNL     1     -13.435  15.419  72.631  1.00  0.00    -0.630 C  
ENDROOT
BRANCH   2   3
HETATM    3  C   UNL     1     -13.225  13.945  72.278  1.00  0.00    -0.568 C  
BRANCH   3   4
HETATM    4  C   UNL     1     -13.160  13.734  70.763  1.00  0.00    -0.165 C  
HETATM    5  C   UNL     1     -11.985  12.839  70.294  1.00  0.00    -0.358 C  
HETATM    6  C   UNL     1     -11.950  11.452  70.973  1.00  0.00    -0.160 C  
HETATM    7  C   UNL     1     -11.975  12.684  68.752  1.00  0.00    -0.279 C  
HETATM    8  C   UNL     1     -13.114  10.534  70.625  1.00  0.00    -0.278 C  
BRANCH   7   9
HETATM    9  C   UNL     1     -11.769  14.020  68.038  1.00  0.00    -0.394 C  
BRANCH   9  10
HETATM   10  C   UNL     1     -11.245  13.950  66.591  1.00  0.00    -0.320 C  
BRANCH  10  11
HETATM   11  C   UNL     1     -11.959  12.843  65.784  1.00  0.00    -0.496 C  
HETATM   12  C   UNL     1     -10.275  12.640  63.864  1.00  0.00    -0.340 C  
HETATM   13  C   UNL     1     -11.735  12.871  64.255  1.00  0.00    -0.445 C  
HETATM   14  C   UNL     1     -12.600  11.789  63.590  1.00  0.00    -0.458 C  
ENDBRANCH  10  11
BRANCH  10  15
HETATM   15  O   UNL     1     -11.528  15.199  65.946  1.00  0.00    -0.284 OA 
HETATM   16  O   UNL     1     -10.603  17.026  67.386  1.00  0.00    -0.328 OA 
HETATM   17  O   UNL     1      -9.198  16.012  65.538  1.00  0.00    -0.354 OA 
HETATM   18  S   UNL     1     -10.469  16.427  66.070  1.00  0.00    -0.294 S  
HETATM   19  O   UNL     1     -11.101  17.523  65.074  1.00  0.00    -0.698 OA 
ENDBRANCH  10  15
ENDBRANCH   9  10
ENDBRANCH   7   9
ENDBRANCH   3   4
ENDBRANCH   2   3
TORSDOF 6
ENDMDL
MODEL       15
REMARK 921   NORMALIZED FREE ENERGY PREDICTED BY IDOCK:   -5.45 KCAL/MOL
REMARK 922        TOTAL FREE ENERGY PREDICTED BY IDOCK:   -8.13 KCAL/MOL
REMARK 923 INTER-LIGAND FREE ENERGY PREDICTED BY IDOCK:   -7.46 KCAL/MOL
REMARK 924 INTRA-LIGAND FREE ENERGY PREDICTED BY IDOCK:   -0.67 KCAL/MOL
REMARK 927      BINDING AFFINITY PREDICTED BY RF-SCORE:    0.00 PKD
ROOT
HETATM    1  C   UNL     1     -11.593   8.156  72.471  1.00  0.00    -0.468 C  
HETATM    2  C   UNL     1     -12.529   8.808  71.466  1.00  0.00    -0.374 C  
ENDROOT
BRANCH   2   3
HETATM    3  C   UNL     1     -12.327  10.325  71.435  1.00  0.00    -0.502 C  
BRANCH   3   4
HETATM    4  C   UNL     1     -12.387  10.870  70.007  1.00  0.00    -0.385 C  
HETATM    5  C   UNL     1     -11.013  11.295  69.428  1.00  0.00    -0.282 C  
HETATM    6  C   UNL     1      -9.949  10.177  69.470  1.00  0.00    -0.257 C  
HETATM    7  C   UNL     1     -11.154  11.851  67.989  1.00  0.00    -0.293 C  
HETATM    8  C   UNL     1     -10.235   8.980  68.572  1.00  0.00    -0.224 C  
BRANCH   7   9
HETATM    9  C   UNL     1     -12.017  13.112  67.938  1.00  0.00    -0.347 C  
BRANCH   9  10
HETATM   10  C   UNL     1     -11.685  14.125  66.825  1.00  0.00    -0.410 C  
BRANCH  10  11
HETATM   11  C   UNL     1     -10.485  15.018  67.215  1.00  0.00    -0.265 C  
HETATM   12  C   UNL     1     -11.487  16.089  69.315  1.00  0.00    -0.350 C  
HETATM   13  C   UNL     1     -10.832  16.330  67.954  1.00  0.00    -0.330 C  
HETATM   14  C   UNL     1      -9.553  17.155  68.163  1.00  0.00    -0.270 C  
ENDBRANCH  10  11
BRANCH  10  15
HETATM   15  O   UNL     1     -11.311  13.398  65.647  1.00  0.00    -0.296 OA 
HETATM   16  O   UNL     1     -13.398  12.439  64.652  1.00  0.00    -0.778 OA 
HETATM   17  O   UNL     1     -12.553  14.712  63.918  1.00  0.00    -0.834 OA 
HETATM   18  S   UNL     1     -12.317  13.366  64.370  1.00  0.00    -0.310 S  
HETATM   19  O   UNL     1     -11.430  12.608  63.260  1.00  0.00    -0.483 OA 
ENDBRANCH  10  15
ENDBRANCH   9  10
ENDBRANCH   7   9
ENDBRANCH   3   4
ENDBRANCH   2   3
TORSDOF 6
ENDMDL
MODEL       16
REMARK 921   NORMALIZED FREE ENERGY PREDICTED BY IDOCK:   -5.45 KCAL/MOL
REMARK 922        TOTAL FREE ENERGY PREDICTED BY IDOCK:   -8.12 KCAL/MOL
REMARK 923 INTER-LIGAND FREE ENERGY PREDICTED BY IDOCK:   -7.28 KCAL/MOL
REMARK 924 INTRA-LIGAND FREE ENERGY PREDICTED BY IDOCK:   -0.85 KCAL/MOL
REMARK 927      BINDING AFFINITY PREDICTED BY RF-SCORE:    0.00 PKD
ROOT
HETATM    1  C   UNL     1     -12.061  12.787  63.468  1.00  0.00    -0.642 C  
HETATM    2  C   UNL     1     -10.866  11.848  63.394  1.00  0.00    -0.469 C  
ENDROOT
BRANCH   2   3
HETATM    3  C   UNL     1     -10.579  11.221  64.760  1.00  0.00    -0.376 C  
BRANCH   3   4
HETATM    4  C   UNL     1     -10.493  12.284  65.858  1.00  0.00    -0.288 C  
HETATM    5  C   UNL     1     -11.435  12.033  67.064  1.00  0.00    -0.402 C  
HETATM    6  C   UNL     1     -11.246  10.648  67.721  1.00  0.00    -0.383 C  
HETATM    7  C   UNL     1     -11.305  13.155  68.124  1.00  0.00    -0.328 C  
HETATM    8  C   UNL     1      -9.903  10.438  68.409  1.00  0.00    -0.173 C  
BRANCH   7   9
HETATM    9  C   UNL     1     -11.716  14.521  67.574  1.00  0.00    -0.413 C  
BRANCH   9  10
HETATM   10  C   UNL     1     -11.365  15.743  68.444  1.00  0.00    -0.372 C  
BRANCH  10  11
HETATM   11  C   UNL     1     -11.090  15.335  69.908  1.00  0.00    -0.303 C  
HETATM   12  C   UNL     1     -13.519  15.161  70.706  1.00  0.00    -0.345 C  
HETATM   13  C   UNL     1     -12.144  15.787  70.944  1.00  0.00    -0.459 C  
HETATM   14  C   UNL     1     -11.669  15.410  72.356  1.00  0.00    -0.565 C  
ENDBRANCH  10  11
BRANCH  10  15
HETATM   15  O   UNL     1     -10.162  16.333  67.932  1.00  0.00    -0.248 OA 
HETATM   16  O   UNL     1     -10.590  16.991  65.555  1.00  0.00    -0.542 OA 
HETATM   17  O   UNL     1     -10.990  18.641  67.436  1.00  0.00    -0.399 OA 
HETATM   18  S   UNL     1     -10.258  17.547  66.854  1.00  0.00    -0.327 S  
HETATM   19  O   UNL     1      -8.717  17.992  66.708  1.00  0.00    -0.241 OA 
ENDBRANCH  10  15
ENDBRANCH   9  10
ENDBRANCH   7   9
ENDBRANCH   3   4
ENDBRANCH   2   3
TORSDOF 6
ENDMDL
MODEL       17
REMARK 921   NORMALIZED FREE ENERGY PREDICTED BY IDOCK:   -5.44 KCAL/MOL
REMARK 922        TOTAL FREE ENERGY PREDICTED BY IDOCK:   -8.11 KCAL/MOL
REMARK 923 INTER-LIGAND FREE ENERGY PREDICTED BY IDOCK:   -6.82 KCAL/MOL
REMARK 924 INTRA-LIGAND FREE ENERGY PREDICTED BY IDOCK:   -1.29 KCAL/MOL
REMARK 927      BINDING AFFINITY PREDICTED BY RF-SCORE:    0.00 PKD
ROOT
HETATM    1  C   UNL     1      -6.315  18.028  69.449  1.00  0.00    -0.243 C  
HETATM    2  C   UNL     1      -6.247  17.441  68.047  1.00  0.00    -0.149 C  
ENDROOT
BRANCH   2   3
HETATM    3  C   UNL     1      -6.670  18.475  67.001  1.00  0.00    -0.207 C  
BRANCH   3   4
HETATM    4  C   UNL     1      -7.911  18.018  66.231  1.00  0.00    -0.288 C  
HETATM    5  C   UNL     1      -9.190  17.895  67.097  1.00  0.00    -0.258 C  
HETATM    6  C   UNL     1      -9.549  19.187  67.863  1.00  0.00    -0.390 C  
HETATM    7  C   UNL     1     -10.398  17.414  66.256  1.00  0.00    -0.330 C  
HETATM    8  C   UNL     1      -9.959  20.363  66.986  1.00  0.00    -0.568 C  
BRANCH   7   9
HETATM    9  C   UNL     1     -10.177  16.019  65.669  1.00  0.00    -0.412 C  
BRANCH   9  10
HETATM   10  C   UNL     1     -10.808  14.844  66.439  1.00  0.00    -0.325 C  
BRANCH  10  11
HETATM   11  C   UNL     1     -11.457  15.316  67.760  1.00  0.00    -0.312 C  
HETATM   12  C   UNL     1      -9.402  15.107  69.275  1.00  0.00    -0.207 C  
HETATM   13  C   UNL     1     -10.864  14.717  69.054  1.00  0.00    -0.252 C  
HETATM   14  C   UNL     1     -11.687  15.190  70.262  1.00  0.00    -0.338 C  
ENDBRANCH  10  11
BRANCH  10  15
HETATM   15  O   UNL     1     -11.850  14.280  65.630  1.00  0.00    -0.354 OA 
HETATM   16  O   UNL     1     -10.874  12.352  64.368  1.00  0.00    -0.297 OA 
HETATM   17  O   UNL     1     -11.973  11.987  66.621  1.00  0.00    -0.614 OA 
HETATM   18  S   UNL     1     -11.881  12.677  65.361  1.00  0.00    -0.447 S  
HETATM   19  O   UNL     1     -13.277  12.491  64.580  1.00  0.00    -0.832 OA 
ENDBRANCH  10  15
ENDBRANCH   9  10
ENDBRANCH   7   9
ENDBRANCH   3   4
ENDBRANCH   2   3
TORSDOF 6
ENDMDL
MODEL       18
REMARK 921   NORMALIZED FREE ENERGY PREDICTED BY IDOCK:   -5.38 KCAL/MOL
REMARK 922        TOTAL FREE ENERGY PREDICTED BY IDOCK:   -8.03 KCAL/MOL
REMARK 923 INTER-LIGAND FREE ENERGY PREDICTED BY IDOCK:   -7.32 KCAL/MOL
REMARK 924 INTRA-LIGAND FREE ENERGY PREDICTED BY IDOCK:   -0.71 KCAL/MOL
REMARK 927      BINDING AFFINITY PREDICTED BY RF-SCORE:    0.00 PKD
ROOT
HETATM    1  C   UNL     1     -12.311  10.837  70.230  1.00  0.00    -0.423 C  
HETATM    2  C   UNL     1     -12.849  10.998  71.643  1.00  0.00    -0.540 C  
ENDROOT
BRANCH   2   3
HETATM    3  C   UNL     1     -13.346  12.426  71.879  1.00  0.00    -0.450 C  
BRANCH   3   4
HETATM    4  C   UNL     1     -12.466  13.452  71.161  1.00  0.00    -0.414 C  
HETATM    5  C   UNL     1     -13.098  14.863  71.044  1.00  0.00    -0.456 C  
HETATM    6  C   UNL     1     -13.528  15.465  72.399  1.00  0.00    -0.591 C  
HETATM    7  C   UNL     1     -12.160  15.841  70.293  1.00  0.00    -0.371 C  
HETATM    8  C   UNL     1     -12.385  15.785  73.354  1.00  0.00    -0.638 C  
BRANCH   7   9
HETATM    9  C   UNL     1     -11.898  15.400  68.853  1.00  0.00    -0.350 C  
BRANCH   9  10
HETATM   10  C   UNL     1     -10.844  16.207  68.070  1.00  0.00    -0.333 C  
BRANCH  10  11
HETATM   11  C   UNL     1     -10.523  17.546  68.770  1.00  0.00    -0.318 C  
HETATM   12  C   UNL     1     -10.637  19.074  66.717  1.00  0.00    -0.508 C  
HETATM   13  C   UNL     1      -9.799  18.602  67.906  1.00  0.00    -0.363 C  
HETATM   14  C   UNL     1      -9.447  19.821  68.774  1.00  0.00    -0.344 C  
ENDBRANCH  10  11
BRANCH  10  15
HETATM   15  O   UNL     1      -9.630  15.445  68.028  1.00  0.00    -0.204 OA 
HETATM   16  O   UNL     1      -9.716  13.988  65.994  1.00  0.00    -0.294 OA 
HETATM   17  O   UNL     1      -8.664  16.291  65.881  1.00  0.00    -0.380 OA 
HETATM   18  S   UNL     1      -8.962  15.075  66.592  1.00  0.00    -0.272 S  
HETATM   19  O   UNL     1      -7.571  14.392  67.031  1.00  0.00    -0.069 OA 
ENDBRANCH  10  15
ENDBRANCH   9  10
ENDBRANCH   7   9
ENDBRANCH   3   4
ENDBRANCH   2   3
TORSDOF 6
ENDMDL
MODEL       19
REMARK 921   NORMALIZED FREE ENERGY PREDICTED BY IDOCK:   -5.37 KCAL/MOL
REMARK 922        TOTAL FREE ENERGY PREDICTED BY IDOCK:   -8.01 KCAL/MOL
REMARK 923 INTER-LIGAND FREE ENERGY PREDICTED BY IDOCK:   -7.40 KCAL/MOL
REMARK 924 INTRA-LIGAND FREE ENERGY PREDICTED BY IDOCK:   -0.61 KCAL/MOL
REMARK 927      BINDING AFFINITY PREDICTED BY RF-SCORE:    0.00 PKD
ROOT
HETATM    1  C   UNL     1      -8.764  20.588  66.937  1.00  0.00    -0.288 C  
HETATM    2  C   UNL     1     -10.041  20.333  67.722  1.00  0.00    -0.505 C  
ENDROOT
BRANCH   2   3
HETATM    3  C   UNL     1     -10.670  18.996  67.323  1.00  0.00    -0.556 C  
BRANCH   3   4
HETATM    4  C   UNL     1     -10.210  17.863  68.242  1.00  0.00    -0.391 C  
HETATM    5  C   UNL     1      -9.709  16.600  67.496  1.00  0.00    -0.247 C  
HETATM    6  C   UNL     1      -8.578  16.885  66.483  1.00  0.00    -0.305 C  
HETATM    7  C   UNL     1      -9.277  15.492  68.488  1.00  0.00    -0.197 C  
HETATM    8  C   UNL     1      -7.263  17.346  67.099  1.00  0.00    -0.201 C  
BRANCH   7   9
HETATM    9  C   UNL     1     -10.439  15.008  69.356  1.00  0.00    -0.254 C  
BRANCH   9  10
HETATM   10  C   UNL     1     -11.205  13.771  68.849  1.00  0.00    -0.272 C  
BRANCH  10  11
HETATM   11  C   UNL     1     -12.102  13.169  69.954  1.00  0.00    -0.357 C  
HETATM   12  C   UNL     1     -13.222  15.335  70.740  1.00  0.00    -0.442 C  
HETATM   13  C   UNL     1     -12.418  14.099  71.147  1.00  0.00    -0.445 C  
HETATM   14  C   UNL     1     -13.214  13.321  72.206  1.00  0.00    -0.567 C  
ENDBRANCH  10  11
BRANCH  10  15
HETATM   15  O   UNL     1     -12.064  14.179  67.776  1.00  0.00    -0.367 OA 
HETATM   16  O   UNL     1     -10.752  14.027  65.650  1.00  0.00    -0.287 OA 
HETATM   17  O   UNL     1     -12.134  12.060  66.449  1.00  0.00    -0.610 OA 
HETATM   18  S   UNL     1     -11.918  13.477  66.317  1.00  0.00    -0.423 S  
HETATM   19  O   UNL     1     -13.163  14.105  65.512  1.00  0.00    -0.688 OA 
ENDBRANCH  10  15
ENDBRANCH   9  10
ENDBRANCH   7   9
ENDBRANCH   3   4
ENDBRANCH   2   3
TORSDOF 6
ENDMDL
MODEL       20
REMARK 921   NORMALIZED FREE ENERGY PREDICTED BY IDOCK:   -5.36 KCAL/MOL
REMARK 922        TOTAL FREE ENERGY PREDICTED BY IDOCK:   -8.00 KCAL/MOL
REMARK 923 INTER-LIGAND FREE ENERGY PREDICTED BY IDOCK:   -7.07 KCAL/MOL
REMARK 924 INTRA-LIGAND FREE ENERGY PREDICTED BY IDOCK:   -0.93 KCAL/MOL
REMARK 927      BINDING AFFINITY PREDICTED BY RF-SCORE:    0.00 PKD
ROOT
HETATM    1  C   UNL     1      -9.522  10.412  63.759  1.00  0.00    -0.353 C  
HETATM    2  C   UNL     1     -10.008  10.236  65.190  1.00  0.00    -0.395 C  
ENDROOT
BRANCH   2   3
HETATM    3  C   UNL     1      -9.531  11.389  66.074  1.00  0.00    -0.245 C  
BRANCH   3   4
HETATM    4  C   UNL     1     -10.705  12.093  66.761  1.00  0.00    -0.269 C  
HETATM    5  C   UNL     1     -10.843  13.596  66.407  1.00  0.00    -0.290 C  
HETATM    6  C   UNL     1     -10.939  13.870  64.890  1.00  0.00    -0.391 C  
HETATM    7  C   UNL     1     -12.038  14.243  67.148  1.00  0.00    -0.412 C  
HETATM    8  C   UNL     1     -12.200  13.342  64.218  1.00  0.00    -0.450 C  
BRANCH   7   9
HETATM    9  C   UNL     1     -11.866  14.205  68.667  1.00  0.00    -0.383 C  
BRANCH   9  10
HETATM   10  C   UNL     1     -11.414  15.515  69.339  1.00  0.00    -0.337 C  
BRANCH  10  11
HETATM   11  C   UNL     1     -11.271  15.346  70.869  1.00  0.00    -0.397 C  
HETATM   12  C   UNL     1     -13.761  15.315  71.472  1.00  0.00    -0.610 C  
HETATM   13  C   UNL     1     -12.400  15.964  71.724  1.00  0.00    -0.533 C  
HETATM   14  C   UNL     1     -12.053  15.816  73.214  1.00  0.00    -0.603 C  
ENDBRANCH  10  11
BRANCH  10  15
HETATM   15  O   UNL     1     -10.122  15.865  68.826  1.00  0.00    -0.207 OA 
HETATM   16  O   UNL     1     -10.470  17.271  66.785  1.00  0.00    -0.313 OA 
HETATM   17  O   UNL     1     -10.224  18.354  69.062  1.00  0.00    -0.367 OA 
HETATM   18  S   UNL     1      -9.903  17.314  68.120  1.00  0.00    -0.306 S  
HETATM   19  O   UNL     1      -8.312  17.332  67.870  1.00  0.00    -0.211 OA 
ENDBRANCH  10  15
ENDBRANCH   9  10
ENDBRANCH   7   9
ENDBRANCH   3   4
ENDBRANCH   2   3
TORSDOF 6
ENDMDL
MODEL       21
REMARK 921   NORMALIZED FREE ENERGY PREDICTED BY IDOCK:   -5.35 KCAL/MOL
REMARK 922        TOTAL FREE ENERGY PREDICTED BY IDOCK:   -7.99 KCAL/MOL
REMARK 923 INTER-LIGAND FREE ENERGY PREDICTED BY IDOCK:   -7.14 KCAL/MOL
REMARK 924 INTRA-LIGAND FREE ENERGY PREDICTED BY IDOCK:   -0.84 KCAL/MOL
REMARK 927      BINDING AFFINITY PREDICTED BY RF-SCORE:    0.00 PKD
ROOT
HETATM    1  C   UNL     1     -13.051  14.659  73.048  1.00  0.00    -0.616 C  
HETATM    2  C   UNL     1     -11.942  14.941  72.046  1.00  0.00    -0.428 C  
ENDROOT
BRANCH   2   3
HETATM    3  C   UNL     1     -12.509  15.544  70.759  1.00  0.00    -0.491 C  
BRANCH   3   4
HETATM    4  C   UNL     1     -11.947  14.846  69.518  1.00  0.00    -0.347 C  
HETATM    5  C   UNL     1     -11.659  15.796  68.327  1.00  0.00    -0.302 C  
HETATM    6  C   UNL     1     -10.722  16.971  68.683  1.00  0.00    -0.333 C  
HETATM    7  C   UNL     1     -11.110  15.020  67.105  1.00  0.00    -0.332 C  
HETATM    8  C   UNL     1      -9.293  16.573  69.032  1.00  0.00    -0.239 C  
BRANCH   7   9
HETATM    9  C   UNL     1     -12.115  14.000  66.568  1.00  0.00    -0.488 C  
BRANCH   9  10
HETATM   10  C   UNL     1     -11.597  12.561  66.380  1.00  0.00    -0.391 C  
BRANCH  10  11
HETATM   11  C   UNL     1     -10.627  12.462  65.181  1.00  0.00    -0.324 C  
HETATM   12  C   UNL     1     -12.351  11.980  63.349  1.00  0.00    -0.635 C  
HETATM   13  C   UNL     1     -11.064  11.522  64.035  1.00  0.00    -0.441 C  
HETATM   14  C   UNL     1      -9.946  11.443  62.984  1.00  0.00    -0.354 C  
ENDBRANCH  10  11
BRANCH  10  15
HETATM   15  O   UNL     1     -10.865  12.186  67.554  1.00  0.00    -0.227 OA 
HETATM   16  O   UNL     1     -12.432  10.951  69.065  1.00  0.00    -0.425 OA 
HETATM   17  O   UNL     1     -11.018   9.695  67.379  1.00  0.00    -0.247 OA 
HETATM   18  S   UNL     1     -11.209  10.783  68.302  1.00  0.00    -0.304 S  
HETATM   19  O   UNL     1     -10.055  10.705  69.422  1.00  0.00    -0.218 OA 
ENDBRANCH  10  15
ENDBRANCH   9  10
ENDBRANCH   7   9
ENDBRANCH   3   4
ENDBRANCH   2   3
TORSDOF 6
ENDMDL
MODEL       22
REMARK 921   NORMALIZED FREE ENERGY PREDICTED BY IDOCK:   -5.29 KCAL/MOL
REMARK 922        TOTAL FREE ENERGY PREDICTED BY IDOCK:   -7.91 KCAL/MOL
REMARK 923 INTER-LIGAND FREE ENERGY PREDICTED BY IDOCK:   -7.17 KCAL/MOL
REMARK 924 INTRA-LIGAND FREE ENERGY PREDICTED BY IDOCK:   -0.75 KCAL/MOL
REMARK 927      BINDING AFFINITY PREDICTED BY RF-SCORE:    0.00 PKD
ROOT
HETATM    1  C   UNL     1     -11.782   6.308  71.965  1.00  0.00    -0.374 C  
HETATM    2  C   UNL     1     -10.882   6.859  73.061  1.00  0.00    -0.328 C  
ENDROOT
BRANCH   2   3
HETATM    3  C   UNL     1     -10.226   8.169  72.622  1.00  0.00    -0.388 C  
BRANCH   3   4
HETATM    4  C   UNL     1     -11.148   8.980  71.708  1.00  0.00    -0.444 C  
HETATM    5  C   UNL     1     -10.419   9.703  70.545  1.00  0.00    -0.367 C  
HETATM    6  C   UNL     1      -9.574   8.760  69.661  1.00  0.00    -0.171 C  
HETATM    7  C   UNL     1     -11.411  10.514  69.675  1.00  0.00    -0.345 C  
HETATM    8  C   UNL     1     -10.373   7.743  68.856  1.00  0.00    -0.224 C  
BRANCH   7   9
HETATM    9  C   UNL     1     -12.100  11.625  70.467  1.00  0.00    -0.458 C  
BRANCH   9  10
HETATM   10  C   UNL     1     -12.139  13.016  69.804  1.00  0.00    -0.258 C  
BRANCH  10  11
HETATM   11  C   UNL     1     -11.833  14.136  70.824  1.00  0.00    -0.313 C  
HETATM   12  C   UNL     1     -13.826  13.765  72.391  1.00  0.00    -0.681 C  
HETATM   13  C   UNL     1     -13.058  14.765  71.524  1.00  0.00    -0.429 C  
HETATM   14  C   UNL     1     -12.599  15.933  72.410  1.00  0.00    -0.539 C  
ENDBRANCH  10  11
BRANCH  10  15
HETATM   15  O   UNL     1     -11.121  13.066  68.796  1.00  0.00    -0.249 OA 
HETATM   16  O   UNL     1     -12.128  12.242  66.657  1.00  0.00    -0.612 OA 
HETATM   17  O   UNL     1     -12.155  14.712  67.221  1.00  0.00    -0.358 OA 
HETATM   18  S   UNL     1     -11.527  13.418  67.261  1.00  0.00    -0.360 S  
HETATM   19  O   UNL     1     -10.087  13.532  66.548  1.00  0.00    -0.268 OA 
ENDBRANCH  10  15
ENDBRANCH   9  10
ENDBRANCH   7   9
ENDBRANCH   3   4
ENDBRANCH   2   3
TORSDOF 6
ENDMDL
MODEL       23
REMARK 921   NORMALIZED FREE ENERGY PREDICTED BY IDOCK:   -5.28 KCAL/MOL
REMARK 922        TOTAL FREE ENERGY PREDICTED BY IDOCK:   -7.89 KCAL/MOL
REMARK 923 INTER-LIGAND FREE ENERGY PREDICTED BY IDOCK:   -7.02 KCAL/MOL
REMARK 924 INTRA-LIGAND FREE ENERGY PREDICTED BY IDOCK:   -0.87 KCAL/MOL
REMARK 927      BINDING AFFINITY PREDICTED BY RF-SCORE:    0.00 PKD
ROOT
HETATM    1  C   UNL     1     -13.892   7.535  71.529  1.00  0.00    -0.487 C  
HETATM    2  C   UNL     1     -14.273   8.794  72.293  1.00  0.00    -0.498 C  
ENDROOT
BRANCH   2   3
HETATM    3  C   UNL     1     -13.167   9.847  72.197  1.00  0.00    -0.511 C  
BRANCH   3   4
HETATM    4  C   UNL     1     -12.908  10.258  70.745  1.00  0.00    -0.427 C  
HETATM    5  C   UNL     1     -11.420  10.546  70.419  1.00  0.00    -0.427 C  
HETATM    6  C   UNL     1     -10.471   9.377  70.763  1.00  0.00    -0.372 C  
HETATM    7  C   UNL     1     -11.237  10.971  68.941  1.00  0.00    -0.326 C  
HETATM    8  C   UNL     1     -10.668   8.119  69.925  1.00  0.00    -0.241 C  
BRANCH   7   9
HETATM    9  C   UNL     1     -11.976  12.270  68.618  1.00  0.00    -0.276 C  
BRANCH   9  10
HETATM   10  C   UNL     1     -11.418  13.103  67.447  1.00  0.00    -0.332 C  
BRANCH  10  11
HETATM   11  C   UNL     1     -12.119  12.747  66.117  1.00  0.00    -0.429 C  
HETATM   12  C   UNL     1     -10.322  11.194  65.156  1.00  0.00    -0.354 C  
HETATM   13  C   UNL     1     -11.187  12.435  64.925  1.00  0.00    -0.353 C  
HETATM   14  C   UNL     1     -12.028  12.220  63.658  1.00  0.00    -0.633 C  
ENDBRANCH  10  11
BRANCH  10  15
HETATM   15  O   UNL     1     -11.680  14.488  67.711  1.00  0.00    -0.349 OA 
HETATM   16  O   UNL     1     -10.438  15.114  69.792  1.00  0.00    -0.250 OA 
HETATM   17  O   UNL     1      -9.363  15.409  67.517  1.00  0.00    -0.201 OA 
HETATM   18  S   UNL     1     -10.519  15.414  68.374  1.00  0.00    -0.245 S  
HETATM   19  O   UNL     1     -11.183  16.880  68.321  1.00  0.00    -0.303 OA 
ENDBRANCH  10  15
ENDBRANCH   9  10
ENDBRANCH   7   9
ENDBRANCH   3   4
ENDBRANCH   2   3
TORSDOF 6
ENDMDL
MODEL       24
REMARK 921   NORMALIZED FREE ENERGY PREDICTED BY IDOCK:   -5.26 KCAL/MOL
REMARK 922        TOTAL FREE ENERGY PREDICTED BY IDOCK:   -7.86 KCAL/MOL
REMARK 923 INTER-LIGAND FREE ENERGY PREDICTED BY IDOCK:   -7.06 KCAL/MOL
REMARK 924 INTRA-LIGAND FREE ENERGY PREDICTED BY IDOCK:   -0.80 KCAL/MOL
REMARK 927      BINDING AFFINITY PREDICTED BY RF-SCORE:    0.00 PKD
ROOT
HETATM    1  C   UNL     1     -10.816  11.650  63.315  1.00  0.00    -0.380 C  
HETATM    2  C   UNL     1     -12.290  12.025  63.338  1.00  0.00    -0.635 C  
ENDROOT
BRANCH   2   3
HETATM    3  C   UNL     1     -12.719  12.469  64.738  1.00  0.00    -0.415 C  
BRANCH   3   4
HETATM    4  C   UNL     1     -11.561  13.120  65.499  1.00  0.00    -0.365 C  
HETATM    5  C   UNL     1     -11.705  13.070  67.042  1.00  0.00    -0.441 C  
HETATM    6  C   UNL     1     -11.905  11.644  67.601  1.00  0.00    -0.216 C  
HETATM    7  C   UNL     1     -10.508  13.760  67.743  1.00  0.00    -0.240 C  
HETATM    8  C   UNL     1     -10.711  10.712  67.434  1.00  0.00    -0.326 C  
BRANCH   7   9
HETATM    9  C   UNL     1     -10.416  15.247  67.398  1.00  0.00    -0.270 C  
BRANCH   9  10
HETATM   10  C   UNL     1     -10.712  16.235  68.543  1.00  0.00    -0.307 C  
BRANCH  10  11
HETATM   11  C   UNL     1     -10.717  17.697  68.040  1.00  0.00    -0.333 C  
HETATM   12  C   UNL     1      -8.317  18.318  68.686  1.00  0.00    -0.305 C  
HETATM   13  C   UNL     1      -9.799  18.676  68.804  1.00  0.00    -0.422 C  
HETATM   14  C   UNL     1     -10.006  20.100  68.265  1.00  0.00    -0.452 C  
ENDBRANCH  10  11
BRANCH  10  15
HETATM   15  O   UNL     1     -12.021  15.956  69.056  1.00  0.00    -0.378 OA 
HETATM   16  O   UNL     1     -11.804  14.107  70.729  1.00  0.00    -0.303 OA 
HETATM   17  O   UNL     1     -11.672  16.528  71.465  1.00  0.00    -0.395 OA 
HETATM   18  S   UNL     1     -12.197  15.499  70.607  1.00  0.00    -0.418 S  
HETATM   19  O   UNL     1     -13.798  15.471  70.772  1.00  0.00    -0.457 OA 
ENDBRANCH  10  15
ENDBRANCH   9  10
ENDBRANCH   7   9
ENDBRANCH   3   4
ENDBRANCH   2   3
TORSDOF 6
ENDMDL
MODEL       25
REMARK 921   NORMALIZED FREE ENERGY PREDICTED BY IDOCK:   -5.25 KCAL/MOL
REMARK 922        TOTAL FREE ENERGY PREDICTED BY IDOCK:   -7.85 KCAL/MOL
REMARK 923 INTER-LIGAND FREE ENERGY PREDICTED BY IDOCK:   -6.79 KCAL/MOL
REMARK 924 INTRA-LIGAND FREE ENERGY PREDICTED BY IDOCK:   -1.06 KCAL/MOL
REMARK 927      BINDING AFFINITY PREDICTED BY RF-SCORE:    0.00 PKD
ROOT
HETATM    1  C   UNL     1     -12.984  11.331  71.496  1.00  0.00    -0.520 C  
HETATM    2  C   UNL     1     -11.892  10.297  71.269  1.00  0.00    -0.425 C  
ENDROOT
BRANCH   2   3
HETATM    3  C   UNL     1     -11.573  10.156  69.779  1.00  0.00    -0.245 C  
BRANCH   3   4
HETATM    4  C   UNL     1     -11.888  11.444  69.014  1.00  0.00    -0.415 C  
HETATM    5  C   UNL     1     -10.670  12.384  68.819  1.00  0.00    -0.242 C  
HETATM    6  C   UNL     1      -9.463  11.703  68.138  1.00  0.00    -0.191 C  
HETATM    7  C   UNL     1     -11.067  13.670  68.053  1.00  0.00    -0.285 C  
HETATM    8  C   UNL     1      -9.689  11.289  66.689  1.00  0.00    -0.222 C  
BRANCH   7   9
HETATM    9  C   UNL     1     -12.097  14.503  68.816  1.00  0.00    -0.256 C  
BRANCH   9  10
HETATM   10  C   UNL     1     -11.541  15.609  69.733  1.00  0.00    -0.352 C  
BRANCH  10  11
HETATM   11  C   UNL     1     -11.535  15.166  71.213  1.00  0.00    -0.395 C  
HETATM   12  C   UNL     1     -14.068  15.114  71.594  1.00  0.00    -0.645 C  
HETATM   13  C   UNL     1     -12.722  15.661  72.070  1.00  0.00    -0.508 C  
HETATM   14  C   UNL     1     -12.509  15.239  73.532  1.00  0.00    -0.670 C  
ENDBRANCH  10  11
BRANCH  10  15
HETATM   15  O   UNL     1     -10.181  15.866  69.358  1.00  0.00    -0.227 OA 
HETATM   16  O   UNL     1     -10.197  16.833  67.050  1.00  0.00    -0.281 OA 
HETATM   17  O   UNL     1     -10.273  18.350  69.078  1.00  0.00    -0.367 OA 
HETATM   18  S   UNL     1      -9.834  17.148  68.420  1.00  0.00    -0.313 S  
HETATM   19  O   UNL     1      -8.223  17.135  68.411  1.00  0.00    -0.234 OA 
ENDBRANCH  10  15
ENDBRANCH   9  10
ENDBRANCH   7   9
ENDBRANCH   3   4
ENDBRANCH   2   3
TORSDOF 6
ENDMDL
MODEL       26
REMARK 921   NORMALIZED FREE ENERGY PREDICTED BY IDOCK:   -5.23 KCAL/MOL
REMARK 922        TOTAL FREE ENERGY PREDICTED BY IDOCK:   -7.83 KCAL/MOL
REMARK 923 INTER-LIGAND FREE ENERGY PREDICTED BY IDOCK:   -7.06 KCAL/MOL
REMARK 924 INTRA-LIGAND FREE ENERGY PREDICTED BY IDOCK:   -0.76 KCAL/MOL
REMARK 927      BINDING AFFINITY PREDICTED BY RF-SCORE:    0.00 PKD
ROOT
HETATM    1  C   UNL     1     -12.420  15.813  72.421  1.00  0.00    -0.540 C  
HETATM    2  C   UNL     1     -13.385  14.649  72.577  1.00  0.00    -0.542 C  
ENDROOT
BRANCH   2   3
HETATM    3  C   UNL     1     -12.974  13.475  71.685  1.00  0.00    -0.447 C  
BRANCH   3   4
HETATM    4  C   UNL     1     -12.725  13.926  70.244  1.00  0.00    -0.244 C  
HETATM    5  C   UNL     1     -11.381  13.436  69.645  1.00  0.00    -0.206 C  
HETATM    6  C   UNL     1     -11.195  11.904  69.708  1.00  0.00    -0.133 C  
HETATM    7  C   UNL     1     -11.191  13.943  68.194  1.00  0.00    -0.293 C  
HETATM    8  C   UNL     1     -12.157  11.102  68.842  1.00  0.00    -0.276 C  
BRANCH   7   9
HETATM    9  C   UNL     1     -11.130  15.469  68.118  1.00  0.00    -0.325 C  
BRANCH   9  10
HETATM   10  C   UNL     1     -11.078  16.083  66.706  1.00  0.00    -0.022 C  
BRANCH  10  11
HETATM   11  C   UNL     1      -9.865  17.027  66.544  1.00  0.00    -0.305 C  
HETATM   12  C   UNL     1     -10.886  19.125  67.603  1.00  0.00    -0.467 C  
HETATM   13  C   UNL     1     -10.196  18.527  66.376  1.00  0.00    -0.449 C  
HETATM   14  C   UNL     1      -8.901  19.311  66.110  1.00  0.00    -0.260 C  
ENDBRANCH  10  11
BRANCH  10  15
HETATM   15  O   UNL     1     -10.922  15.021  65.755  1.00  0.00    -0.333 OA 
HETATM   16  O   UNL     1     -13.199  14.113  65.248  1.00  0.00    -0.760 OA 
HETATM   17  O   UNL     1     -12.213  15.969  63.834  1.00  0.00    -0.883 OA 
HETATM   18  S   UNL     1     -12.068  14.777  64.627  1.00  0.00    -0.372 S  
HETATM   19  O   UNL     1     -11.400  13.636  63.708  1.00  0.00    -0.208 OA 
ENDBRANCH  10  15
ENDBRANCH   9  10
ENDBRANCH   7   9
ENDBRANCH   3   4
ENDBRANCH   2   3
TORSDOF 6
ENDMDL
MODEL       27
REMARK 921   NORMALIZED FREE ENERGY PREDICTED BY IDOCK:   -5.22 KCAL/MOL
REMARK 922        TOTAL FREE ENERGY PREDICTED BY IDOCK:   -7.81 KCAL/MOL
REMARK 923 INTER-LIGAND FREE ENERGY PREDICTED BY IDOCK:   -7.10 KCAL/MOL
REMARK 924 INTRA-LIGAND FREE ENERGY PREDICTED BY IDOCK:   -0.71 KCAL/MOL
REMARK 927      BINDING AFFINITY PREDICTED BY RF-SCORE:    0.00 PKD
ROOT
HETATM    1  C   UNL     1     -10.440   8.242  67.012  1.00  0.00    -0.384 C  
HETATM    2  C   UNL     1     -10.554   9.749  67.175  1.00  0.00    -0.298 C  
ENDROOT
BRANCH   2   3
HETATM    3  C   UNL     1     -10.228  10.467  65.864  1.00  0.00    -0.311 C  
BRANCH   3   4
HETATM    4  C   UNL     1     -10.536  11.964  65.951  1.00  0.00    -0.306 C  
HETATM    5  C   UNL     1     -10.386  12.726  64.609  1.00  0.00    -0.362 C  
HETATM    6  C   UNL     1     -11.227  12.129  63.459  1.00  0.00    -0.536 C  
HETATM    7  C   UNL     1     -10.698  14.233  64.778  1.00  0.00    -0.435 C  
HETATM    8  C   UNL     1     -12.736  12.240  63.639  1.00  0.00    -0.526 C  
BRANCH   7   9
HETATM    9  C   UNL     1      -9.726  14.921  65.738  1.00  0.00    -0.359 C  
BRANCH   9  10
HETATM   10  C   UNL     1     -10.274  16.131  66.518  1.00  0.00    -0.297 C  
BRANCH  10  11
HETATM   11  C   UNL     1     -10.059  15.967  68.039  1.00  0.00    -0.240 C  
HETATM   12  C   UNL     1     -11.873  14.213  68.482  1.00  0.00    -0.390 C  
HETATM   13  C   UNL     1     -11.311  15.584  68.860  1.00  0.00    -0.329 C  
HETATM   14  C   UNL     1     -10.961  15.577  70.356  1.00  0.00    -0.360 C  
ENDBRANCH  10  11
BRANCH  10  15
HETATM   15  O   UNL     1      -9.550  17.299  66.108  1.00  0.00    -0.382 OA 
HETATM   16  O   UNL     1     -11.140  18.785  64.872  1.00  0.00    -0.404 OA 
HETATM   17  O   UNL     1     -10.811  19.053  67.369  1.00  0.00    -0.473 OA 
HETATM   18  S   UNL     1     -10.306  18.738  66.059  1.00  0.00    -0.341 S  
HETATM   19  O   UNL     1      -9.095  19.746  65.727  1.00  0.00    -0.369 OA 
ENDBRANCH  10  15
ENDBRANCH   9  10
ENDBRANCH   7   9
ENDBRANCH   3   4
ENDBRANCH   2   3
TORSDOF 6
ENDMDL
MODEL       28
REMARK 921   NORMALIZED FREE ENERGY PREDICTED BY IDOCK:   -5.17 KCAL/MOL
REMARK 922        TOTAL FREE ENERGY PREDICTED BY IDOCK:   -7.75 KCAL/MOL
REMARK 923 INTER-LIGAND FREE ENERGY PREDICTED BY IDOCK:   -6.83 KCAL/MOL
REMARK 924 INTRA-LIGAND FREE ENERGY PREDICTED BY IDOCK:   -0.92 KCAL/MOL
REMARK 927      BINDING AFFINITY PREDICTED BY RF-SCORE:    0.00 PKD
ROOT
HETATM    1  C   UNL     1     -13.761   7.575  71.462  1.00  0.00    -0.460 C  
HETATM    2  C   UNL     1     -14.129   8.824  72.248  1.00  0.00    -0.511 C  
ENDROOT
BRANCH   2   3
HETATM    3  C   UNL     1     -13.055   9.902  72.095  1.00  0.00    -0.497 C  
BRANCH   3   4
HETATM    4  C   UNL     1     -12.814  10.249  70.623  1.00  0.00    -0.362 C  
HETATM    5  C   UNL     1     -11.350  10.636  70.291  1.00  0.00    -0.401 C  
HETATM    6  C   UNL     1     -10.315   9.568  70.709  1.00  0.00    -0.377 C  
HETATM    7  C   UNL     1     -11.185  10.988  68.792  1.00  0.00    -0.327 C  
HETATM    8  C   UNL     1     -10.402   8.253  69.945  1.00  0.00    -0.218 C  
BRANCH   7   9
HETATM    9  C   UNL     1     -12.022  12.203  68.388  1.00  0.00    -0.257 C  
BRANCH   9  10
HETATM   10  C   UNL     1     -11.329  13.242  67.485  1.00  0.00    -0.296 C  
BRANCH  10  11
HETATM   11  C   UNL     1     -10.000  13.731  68.103  1.00  0.00    -0.242 C  
HETATM   12  C   UNL     1     -10.970  15.050  70.073  1.00  0.00    -0.268 C  
HETATM   13  C   UNL     1     -10.059  15.084  68.846  1.00  0.00    -0.234 C  
HETATM   14  C   UNL     1      -8.644  15.485  69.295  1.00  0.00    -0.263 C  
ENDBRANCH  10  11
BRANCH  10  15
HETATM   15  O   UNL     1     -11.014  12.617  66.234  1.00  0.00    -0.270 OA 
HETATM   16  O   UNL     1     -13.008  12.859  64.740  1.00  0.00    -0.743 OA 
HETATM   17  O   UNL     1     -11.164  14.597  64.713  1.00  0.00    -0.379 OA 
HETATM   18  S   UNL     1     -11.610  13.236  64.853  1.00  0.00    -0.341 S  
HETATM   19  O   UNL     1     -10.871  12.343  63.735  1.00  0.00    -0.384 OA 
ENDBRANCH  10  15
ENDBRANCH   9  10
ENDBRANCH   7   9
ENDBRANCH   3   4
ENDBRANCH   2   3
TORSDOF 6
ENDMDL
MODEL       29
REMARK 921   NORMALIZED FREE ENERGY PREDICTED BY IDOCK:   -5.14 KCAL/MOL
REMARK 922        TOTAL FREE ENERGY PREDICTED BY IDOCK:   -7.71 KCAL/MOL
REMARK 923 INTER-LIGAND FREE ENERGY PREDICTED BY IDOCK:   -6.97 KCAL/MOL
REMARK 924 INTRA-LIGAND FREE ENERGY PREDICTED BY IDOCK:   -0.73 KCAL/MOL
REMARK 927      BINDING AFFINITY PREDICTED BY RF-SCORE:    0.00 PKD
ROOT
HETATM    1  C   UNL     1     -10.404  11.794  65.682  1.00  0.00    -0.293 C  
HETATM    2  C   UNL     1      -9.999  10.493  66.358  1.00  0.00    -0.271 C  
ENDROOT
BRANCH   2   3
HETATM    3  C   UNL     1     -10.875  10.218  67.582  1.00  0.00    -0.363 C  
BRANCH   3   4
HETATM    4  C   UNL     1     -10.908  11.419  68.530  1.00  0.00    -0.251 C  
HETATM    5  C   UNL     1     -12.190  11.512  69.397  1.00  0.00    -0.273 C  
HETATM    6  C   UNL     1     -12.473  10.239  70.225  1.00  0.00    -0.239 C  
HETATM    7  C   UNL     1     -12.160  12.757  70.317  1.00  0.00    -0.373 C  
HETATM    8  C   UNL     1     -11.456   9.942  71.320  1.00  0.00    -0.435 C  
BRANCH   7   9
HETATM    9  C   UNL     1     -12.120  14.063  69.522  1.00  0.00    -0.397 C  
BRANCH   9  10
HETATM   10  C   UNL     1     -11.634  15.313  70.281  1.00  0.00    -0.301 C  
BRANCH  10  11
HETATM   11  C   UNL     1     -11.613  15.075  71.807  1.00  0.00    -0.425 C  
HETATM   12  C   UNL     1     -14.106  15.439  72.272  1.00  0.00    -0.660 C  
HETATM   13  C   UNL     1     -12.674  15.845  72.625  1.00  0.00    -0.554 C  
HETATM   14  C   UNL     1     -12.447  15.595  74.124  1.00  0.00    -0.804 C  
ENDBRANCH  10  11
BRANCH  10  15
HETATM   15  O   UNL     1     -10.288  15.594  69.874  1.00  0.00    -0.289 OA 
HETATM   16  O   UNL     1     -10.221  15.535  67.372  1.00  0.00    -0.248 OA 
HETATM   17  O   UNL     1     -10.657  17.711  68.595  1.00  0.00    -0.335 OA 
HETATM   18  S   UNL     1     -10.019  16.425  68.502  1.00  0.00    -0.250 S  
HETATM   19  O   UNL     1      -8.425  16.646  68.546  1.00  0.00    -0.213 OA 
ENDBRANCH  10  15
ENDBRANCH   9  10
ENDBRANCH   7   9
ENDBRANCH   3   4
ENDBRANCH   2   3
TORSDOF 6
ENDMDL
MODEL       30
REMARK 921   NORMALIZED FREE ENERGY PREDICTED BY IDOCK:   -5.12 KCAL/MOL
REMARK 922        TOTAL FREE ENERGY PREDICTED BY IDOCK:   -7.68 KCAL/MOL
REMARK 923 INTER-LIGAND FREE ENERGY PREDICTED BY IDOCK:   -6.68 KCAL/MOL
REMARK 924 INTRA-LIGAND FREE ENERGY PREDICTED BY IDOCK:   -1.00 KCAL/MOL
REMARK 927      BINDING AFFINITY PREDICTED BY RF-SCORE:    0.00 PKD
ROOT
HETATM    1  C   UNL     1     -14.046   7.300  71.596  1.00  0.00    -0.522 C  
HETATM    2  C   UNL     1     -14.404   8.518  72.433  1.00  0.00    -0.412 C  
ENDROOT
BRANCH   2   3
HETATM    3  C   UNL     1     -13.295   9.570  72.370  1.00  0.00    -0.469 C  
BRANCH   3   4
HETATM    4  C   UNL     1     -12.652   9.625  70.982  1.00  0.00    -0.367 C  
HETATM    5  C   UNL     1     -11.112   9.799  70.998  1.00  0.00    -0.431 C  
HETATM    6  C   UNL     1     -10.374   8.724  71.826  1.00  0.00    -0.413 C  
HETATM    7  C   UNL     1     -10.535   9.863  69.562  1.00  0.00    -0.261 C  
HETATM    8  C   UNL     1     -10.456   7.310  71.266  1.00  0.00    -0.215 C  
BRANCH   7   9
HETATM    9  C   UNL     1     -11.065  11.065  68.779  1.00  0.00    -0.293 C  
BRANCH   9  10
HETATM   10  C   UNL     1     -10.639  11.162  67.301  1.00  0.00    -0.239 C  
BRANCH  10  11
HETATM   11  C   UNL     1     -10.035   9.831  66.799  1.00  0.00    -0.278 C  
HETATM   12  C   UNL     1      -7.590  10.577  66.625  1.00  0.00    -0.120 C  
HETATM   13  C   UNL     1      -8.784   9.955  65.900  1.00  0.00    -0.154 C  
HETATM   14  C   UNL     1      -8.379   8.563  65.391  1.00  0.00    -0.164 C  
ENDBRANCH  10  11
BRANCH  10  15
HETATM   15  O   UNL     1     -11.805  11.427  66.510  1.00  0.00    -0.352 OA 
HETATM   16  O   UNL     1     -12.112  13.909  66.416  1.00  0.00    -0.414 OA 
HETATM   17  O   UNL     1     -10.768  12.713  64.632  1.00  0.00    -0.294 OA 
HETATM   18  S   UNL     1     -11.856  12.755  65.573  1.00  0.00    -0.444 S  
HETATM   19  O   UNL     1     -13.233  12.547  64.765  1.00  0.00    -0.839 OA 
ENDBRANCH  10  15
ENDBRANCH   9  10
ENDBRANCH   7   9
ENDBRANCH   3   4
ENDBRANCH   2   3
TORSDOF 6
ENDMDL
MODEL       31
REMARK 921   NORMALIZED FREE ENERGY PREDICTED BY IDOCK:   -5.11 KCAL/MOL
REMARK 922        TOTAL FREE ENERGY PREDICTED BY IDOCK:   -7.67 KCAL/MOL
REMARK 923 INTER-LIGAND FREE ENERGY PREDICTED BY IDOCK:   -6.82 KCAL/MOL
REMARK 924 INTRA-LIGAND FREE ENERGY PREDICTED BY IDOCK:   -0.85 KCAL/MOL
REMARK 927      BINDING AFFINITY PREDICTED BY RF-SCORE:    0.00 PKD
ROOT
HETATM    1  C   UNL     1     -12.566  15.704  74.199  1.00  0.00    -0.763 C  
HETATM    2  C   UNL     1     -12.250  16.117  72.770  1.00  0.00    -0.628 C  
ENDROOT
BRANCH   2   3
HETATM    3  C   UNL     1     -13.096  15.324  71.772  1.00  0.00    -0.488 C  
BRANCH   3   4
HETATM    4  C   UNL     1     -12.309  14.154  71.174  1.00  0.00    -0.447 C  
HETATM    5  C   UNL     1     -12.240  14.157  69.625  1.00  0.00    -0.376 C  
HETATM    6  C   UNL     1     -11.677  15.468  69.031  1.00  0.00    -0.392 C  
HETATM    7  C   UNL     1     -11.444  12.940  69.093  1.00  0.00    -0.360 C  
HETATM    8  C   UNL     1     -10.212  15.740  69.344  1.00  0.00    -0.262 C  
BRANCH   7   9
HETATM    9  C   UNL     1     -12.106  11.611  69.461  1.00  0.00    -0.336 C  
BRANCH   9  10
HETATM   10  C   UNL     1     -11.158  10.442  69.791  1.00  0.00    -0.295 C  
BRANCH  10  11
HETATM   11  C   UNL     1     -11.507   9.799  71.153  1.00  0.00    -0.472 C  
HETATM   12  C   UNL     1      -9.235   8.723  71.647  1.00  0.00    -0.333 C  
HETATM   13  C   UNL     1     -10.742   8.504  71.503  1.00  0.00    -0.330 C  
HETATM   14  C   UNL     1     -11.283   7.929  72.821  1.00  0.00    -0.466 C  
ENDBRANCH  10  11
BRANCH  10  15
HETATM   15  O   UNL     1     -11.321   9.430  68.788  1.00  0.00     0.074 OA 
HETATM   16  O   UNL     1     -10.326  10.301  66.662  1.00  0.00    -0.227 OA 
HETATM   17  O   UNL     1      -8.921   8.943  68.275  1.00  0.00    -0.137 OA 
HETATM   18  S   UNL     1     -10.180   9.242  67.644  1.00  0.00    -0.245 S  
HETATM   19  O   UNL     1     -10.686   7.921  66.875  1.00  0.00    -0.333 OA 
ENDBRANCH  10  15
ENDBRANCH   9  10
ENDBRANCH   7   9
ENDBRANCH   3   4
ENDBRANCH   2   3
TORSDOF 6
ENDMDL
MODEL       32
REMARK 921   NORMALIZED FREE ENERGY PREDICTED BY IDOCK:   -5.11 KCAL/MOL
REMARK 922        TOTAL FREE ENERGY PREDICTED BY IDOCK:   -7.66 KCAL/MOL
REMARK 923 INTER-LIGAND FREE ENERGY PREDICTED BY IDOCK:   -6.86 KCAL/MOL
REMARK 924 INTRA-LIGAND FREE ENERGY PREDICTED BY IDOCK:   -0.81 KCAL/MOL
REMARK 927      BINDING AFFINITY PREDICTED BY RF-SCORE:    0.00 PKD
ROOT
HETATM    1  C   UNL     1     -10.903   6.755  67.078  1.00  0.00    -0.453 C  
HETATM    2  C   UNL     1     -10.451   8.207  67.063  1.00  0.00    -0.396 C  
ENDROOT
BRANCH   2   3
HETATM    3  C   UNL     1     -10.089   8.680  68.473  1.00  0.00    -0.211 C  
BRANCH   3   4
HETATM    4  C   UNL     1      -9.757  10.174  68.495  1.00  0.00    -0.161 C  
HETATM    5  C   UNL     1     -10.973  11.102  68.243  1.00  0.00    -0.278 C  
HETATM    6  C   UNL     1     -12.152  10.858  69.211  1.00  0.00    -0.332 C  
HETATM    7  C   UNL     1     -10.559  12.594  68.264  1.00  0.00    -0.250 C  
HETATM    8  C   UNL     1     -11.872  11.207  70.667  1.00  0.00    -0.403 C  
BRANCH   7   9
HETATM    9  C   UNL     1      -9.562  12.933  67.155  1.00  0.00    -0.225 C  
BRANCH   9  10
HETATM   10  C   UNL     1     -10.046  13.919  66.075  1.00  0.00    -0.313 C  
BRANCH  10  11
HETATM   11  C   UNL     1     -11.360  13.438  65.419  1.00  0.00    -0.309 C  
HETATM   12  C   UNL     1     -10.484  11.259  64.394  1.00  0.00    -0.407 C  
HETATM   13  C   UNL     1     -11.202  12.586  64.140  1.00  0.00    -0.437 C  
HETATM   14  C   UNL     1     -12.589  12.289  63.548  1.00  0.00    -0.589 C  
ENDBRANCH  10  11
BRANCH  10  15
HETATM   15  O   UNL     1     -10.319  15.180  66.703  1.00  0.00    -0.263 OA 
HETATM   16  O   UNL     1      -8.693  16.850  65.792  1.00  0.00    -0.512 OA 
HETATM   17  O   UNL     1     -10.954  16.531  64.696  1.00  0.00    -0.732 OA 
HETATM   18  S   UNL     1     -10.113  16.557  65.863  1.00  0.00    -0.312 S  
HETATM   19  O   UNL     1     -10.692  17.664  66.880  1.00  0.00    -0.273 OA 
ENDBRANCH  10  15
ENDBRANCH   9  10
ENDBRANCH   7   9
ENDBRANCH   3   4
ENDBRANCH   2   3
TORSDOF 6
ENDMDL
MODEL       33
REMARK 921   NORMALIZED FREE ENERGY PREDICTED BY IDOCK:   -5.10 KCAL/MOL
REMARK 922        TOTAL FREE ENERGY PREDICTED BY IDOCK:   -7.66 KCAL/MOL
REMARK 923 INTER-LIGAND FREE ENERGY PREDICTED BY IDOCK:   -7.14 KCAL/MOL
REMARK 924 INTRA-LIGAND FREE ENERGY PREDICTED BY IDOCK:   -0.52 KCAL/MOL
REMARK 927      BINDING AFFINITY PREDICTED BY RF-SCORE:    0.00 PKD
ROOT
HETATM    1  C   UNL     1     -12.707  11.725  63.555  1.00  0.00    -0.428 C  
HETATM    2  C   UNL     1     -11.566  12.635  63.984  1.00  0.00    -0.486 C  
ENDROOT
BRANCH   2   3
HETATM    3  C   UNL     1     -12.047  14.079  64.140  1.00  0.00    -0.456 C  
BRANCH   3   4
HETATM    4  C   UNL     1     -12.195  14.465  65.613  1.00  0.00    -0.352 C  
HETATM    5  C   UNL     1     -10.883  14.368  66.433  1.00  0.00    -0.314 C  
HETATM    6  C   UNL     1      -9.717  15.187  65.837  1.00  0.00    -0.385 C  
HETATM    7  C   UNL     1     -11.112  14.757  67.914  1.00  0.00    -0.301 C  
HETATM    8  C   UNL     1      -9.912  16.698  65.861  1.00  0.00    -0.320 C  
BRANCH   7   9
HETATM    9  C   UNL     1     -12.091  13.814  68.615  1.00  0.00    -0.333 C  
BRANCH   9  10
HETATM   10  C   UNL     1     -11.684  13.321  70.017  1.00  0.00    -0.225 C  
BRANCH  10  11
HETATM   11  C   UNL     1     -12.652  13.842  71.102  1.00  0.00    -0.446 C  
HETATM   12  C   UNL     1     -11.692  16.204  71.351  1.00  0.00    -0.506 C  
HETATM   13  C   UNL     1     -12.078  14.907  72.063  1.00  0.00    -0.436 C  
HETATM   14  C   UNL     1     -13.117  15.232  73.148  1.00  0.00    -0.627 C  
ENDBRANCH  10  11
BRANCH  10  15
HETATM   15  O   UNL     1     -11.756  11.889  70.032  1.00  0.00    -0.317 OA 
HETATM   16  O   UNL     1     -11.856  11.107  67.656  1.00  0.00    -0.612 OA 
HETATM   17  O   UNL     1      -9.628  11.337  68.839  1.00  0.00    -0.183 OA 
HETATM   18  S   UNL     1     -11.035  11.035  68.851  1.00  0.00    -0.248 S  
HETATM   19  O   UNL     1     -11.222   9.520  69.365  1.00  0.00    -0.163 OA 
ENDBRANCH  10  15
ENDBRANCH   9  10
ENDBRANCH   7   9
ENDBRANCH   3   4
ENDBRANCH   2   3
TORSDOF 6
ENDMDL
MODEL       34
REMARK 921   NORMALIZED FREE ENERGY PREDICTED BY IDOCK:   -5.10 KCAL/MOL
REMARK 922        TOTAL FREE ENERGY PREDICTED BY IDOCK:   -7.64 KCAL/MOL
REMARK 923 INTER-LIGAND FREE ENERGY PREDICTED BY IDOCK:   -6.70 KCAL/MOL
REMARK 924 INTRA-LIGAND FREE ENERGY PREDICTED BY IDOCK:   -0.94 KCAL/MOL
REMARK 927      BINDING AFFINITY PREDICTED BY RF-SCORE:    0.00 PKD
ROOT
HETATM    1  C   UNL     1     -10.336  19.682  67.637  1.00  0.00    -0.583 C  
HETATM    2  C   UNL     1      -9.334  18.916  68.488  1.00  0.00    -0.412 C  
ENDROOT
BRANCH   2   3
HETATM    3  C   UNL     1      -8.887  17.633  67.784  1.00  0.00    -0.240 C  
BRANCH   3   4
HETATM    4  C   UNL     1      -9.713  16.427  68.237  1.00  0.00    -0.224 C  
HETATM    5  C   UNL     1     -10.968  16.151  67.368  1.00  0.00    -0.210 C  
HETATM    6  C   UNL     1     -10.657  15.983  65.864  1.00  0.00    -0.338 C  
HETATM    7  C   UNL     1     -11.761  14.929  67.894  1.00  0.00    -0.344 C  
HETATM    8  C   UNL     1      -9.835  14.750  65.510  1.00  0.00    -0.336 C  
BRANCH   7   9
HETATM    9  C   UNL     1     -12.296  15.152  69.309  1.00  0.00    -0.128 C  
BRANCH   9  10
HETATM   10  C   UNL     1     -12.527  13.890  70.162  1.00  0.00    -0.292 C  
BRANCH  10  11
HETATM   11  C   UNL     1     -11.707  12.692  69.632  1.00  0.00    -0.373 C  
HETATM   12  C   UNL     1     -13.227  10.806  70.467  1.00  0.00     0.010 C  
HETATM   13  C   UNL     1     -11.812  11.387  70.453  1.00  0.00    -0.428 C  
HETATM   14  C   UNL     1     -10.854  10.337  69.870  1.00  0.00    -0.355 C  
ENDBRANCH  10  11
BRANCH  10  15
HETATM   15  O   UNL     1     -12.079  14.157  71.498  1.00  0.00    -0.314 OA 
HETATM   16  O   UNL     1     -13.674  15.792  72.522  1.00  0.00    -0.528 OA 
HETATM   17  O   UNL     1     -14.041  13.299  72.790  1.00  0.00    -0.691 OA 
HETATM   18  S   UNL     1     -13.170  14.438  72.670  1.00  0.00    -0.518 S  
HETATM   19  O   UNL     1     -12.243  14.507  73.986  1.00  0.00    -0.395 OA 
ENDBRANCH  10  15
ENDBRANCH   9  10
ENDBRANCH   7   9
ENDBRANCH   3   4
ENDBRANCH   2   3
TORSDOF 6
ENDMDL
MODEL       35
REMARK 921   NORMALIZED FREE ENERGY PREDICTED BY IDOCK:   -5.09 KCAL/MOL
REMARK 922        TOTAL FREE ENERGY PREDICTED BY IDOCK:   -7.64 KCAL/MOL
REMARK 923 INTER-LIGAND FREE ENERGY PREDICTED BY IDOCK:   -6.47 KCAL/MOL
REMARK 924 INTRA-LIGAND FREE ENERGY PREDICTED BY IDOCK:   -1.17 KCAL/MOL
REMARK 927      BINDING AFFINITY PREDICTED BY RF-SCORE:    0.00 PKD
ROOT
HETATM    1  C   UNL     1      -9.457  10.537  68.301  1.00  0.00    -0.158 C  
HETATM    2  C   UNL     1      -8.961  10.327  66.878  1.00  0.00    -0.149 C  
ENDROOT
BRANCH   2   3
HETATM    3  C   UNL     1      -9.992  10.822  65.862  1.00  0.00    -0.304 C  
BRANCH   3   4
HETATM    4  C   UNL     1     -11.076  11.671  66.530  1.00  0.00    -0.357 C  
HETATM    5  C   UNL     1     -10.859  13.201  66.398  1.00  0.00    -0.299 C  
HETATM    6  C   UNL     1     -10.703  13.682  64.939  1.00  0.00    -0.400 C  
HETATM    7  C   UNL     1     -11.983  13.994  67.110  1.00  0.00    -0.465 C  
HETATM    8  C   UNL     1     -11.949  13.535  64.075  1.00  0.00    -0.501 C  
BRANCH   7   9
HETATM    9  C   UNL     1     -12.018  13.723  68.615  1.00  0.00    -0.401 C  
BRANCH   9  10
HETATM   10  C   UNL     1     -11.672  14.911  69.533  1.00  0.00    -0.320 C  
BRANCH  10  11
HETATM   11  C   UNL     1     -11.263  16.157  68.715  1.00  0.00    -0.365 C  
HETATM   12  C   UNL     1      -8.790  15.580  68.377  1.00  0.00    -0.183 C  
HETATM   13  C   UNL     1      -9.797  16.617  68.876  1.00  0.00    -0.261 C  
HETATM   14  C   UNL     1      -9.582  17.925  68.099  1.00  0.00    -0.306 C  
ENDBRANCH  10  11
BRANCH  10  15
HETATM   15  O   UNL     1     -12.844  15.259  70.284  1.00  0.00    -0.341 OA 
HETATM   16  O   UNL     1     -13.153  13.522  72.059  1.00  0.00    -0.373 OA 
HETATM   17  O   UNL     1     -11.819  15.622  72.537  1.00  0.00    -0.405 OA 
HETATM   18  S   UNL     1     -12.901  14.940  71.877  1.00  0.00    -0.353 S  
HETATM   19  O   UNL     1     -14.283  15.642  72.314  1.00  0.00    -0.531 OA 
ENDBRANCH  10  15
ENDBRANCH   9  10
ENDBRANCH   7   9
ENDBRANCH   3   4
ENDBRANCH   2   3
TORSDOF 6
ENDMDL
MODEL       36
REMARK 921   NORMALIZED FREE ENERGY PREDICTED BY IDOCK:   -5.06 KCAL/MOL
REMARK 922        TOTAL FREE ENERGY PREDICTED BY IDOCK:   -7.60 KCAL/MOL
REMARK 923 INTER-LIGAND FREE ENERGY PREDICTED BY IDOCK:   -6.74 KCAL/MOL
REMARK 924 INTRA-LIGAND FREE ENERGY PREDICTED BY IDOCK:   -0.85 KCAL/MOL
REMARK 927      BINDING AFFINITY PREDICTED BY RF-SCORE:    0.00 PKD
ROOT
HETATM    1  C   UNL     1     -12.759  15.762  73.803  1.00  0.00    -0.736 C  
HETATM    2  C   UNL     1     -12.032  16.214  72.546  1.00  0.00    -0.660 C  
ENDROOT
BRANCH   2   3
HETATM    3  C   UNL     1     -12.749  15.713  71.290  1.00  0.00    -0.537 C  
BRANCH   3   4
HETATM    4  C   UNL     1     -12.010  14.533  70.655  1.00  0.00    -0.387 C  
HETATM    5  C   UNL     1     -11.793  14.665  69.126  1.00  0.00    -0.347 C  
HETATM    6  C   UNL     1     -11.068  15.964  68.712  1.00  0.00    -0.328 C  
HETATM    7  C   UNL     1     -11.055  13.430  68.551  1.00  0.00    -0.299 C  
HETATM    8  C   UNL     1      -9.621  16.072  69.177  1.00  0.00    -0.257 C  
BRANCH   7   9
HETATM    9  C   UNL     1     -11.858  12.141  68.731  1.00  0.00    -0.356 C  
BRANCH   9  10
HETATM   10  C   UNL     1     -11.245  11.074  69.658  1.00  0.00    -0.278 C  
BRANCH  10  11
HETATM   11  C   UNL     1     -12.330  10.144  70.245  1.00  0.00    -0.211 C  
HETATM   12  C   UNL     1     -13.276  11.746  72.006  1.00  0.00    -0.460 C  
HETATM   13  C   UNL     1     -12.675  10.366  71.734  1.00  0.00    -0.525 C  
HETATM   14  C   UNL     1     -13.676   9.294  72.194  1.00  0.00    -0.517 C  
ENDBRANCH  10  11
BRANCH  10  15
HETATM   15  O   UNL     1     -10.356  10.258  68.883  1.00  0.00    -0.182 OA 
HETATM   16  O   UNL     1      -8.014  10.953  69.428  1.00  0.00    -0.119 OA 
HETATM   17  O   UNL     1      -9.133   9.086  70.723  1.00  0.00    -0.202 OA 
HETATM   18  S   UNL     1      -8.918   9.820  69.505  1.00  0.00    -0.218 S  
HETATM   19  O   UNL     1      -8.363   8.800  68.389  1.00  0.00    -0.123 OA 
ENDBRANCH  10  15
ENDBRANCH   9  10
ENDBRANCH   7   9
ENDBRANCH   3   4
ENDBRANCH   2   3
TORSDOF 6
ENDMDL
MODEL       37
REMARK 921   NORMALIZED FREE ENERGY PREDICTED BY IDOCK:   -5.06 KCAL/MOL
REMARK 922        TOTAL FREE ENERGY PREDICTED BY IDOCK:   -7.59 KCAL/MOL
REMARK 923 INTER-LIGAND FREE ENERGY PREDICTED BY IDOCK:   -6.61 KCAL/MOL
REMARK 924 INTRA-LIGAND FREE ENERGY PREDICTED BY IDOCK:   -0.98 KCAL/MOL
REMARK 927      BINDING AFFINITY PREDICTED BY RF-SCORE:    0.00 PKD
ROOT
HETATM    1  C   UNL     1     -13.952   8.355  71.728  1.00  0.00    -0.482 C  
HETATM    2  C   UNL     1     -13.410   9.755  71.972  1.00  0.00    -0.547 C  
ENDROOT
BRANCH   2   3
HETATM    3  C   UNL     1     -12.129   9.992  71.169  1.00  0.00    -0.475 C  
BRANCH   3   4
HETATM    4  C   UNL     1     -12.379  10.909  69.970  1.00  0.00    -0.385 C  
HETATM    5  C   UNL     1     -11.091  11.496  69.337  1.00  0.00    -0.287 C  
HETATM    6  C   UNL     1     -10.063  10.424  68.914  1.00  0.00    -0.213 C  
HETATM    7  C   UNL     1     -11.423  12.425  68.142  1.00  0.00    -0.370 C  
HETATM    8  C   UNL     1     -10.508   9.518  67.774  1.00  0.00    -0.309 C  
BRANCH   7   9
HETATM    9  C   UNL     1     -12.249  13.640  68.566  1.00  0.00    -0.183 C  
BRANCH   9  10
HETATM   10  C   UNL     1     -11.634  14.541  69.654  1.00  0.00    -0.299 C  
BRANCH  10  11
HETATM   11  C   UNL     1     -10.903  15.754  69.037  1.00  0.00    -0.248 C  
HETATM   12  C   UNL     1      -8.661  14.619  68.536  1.00  0.00    -0.176 C  
HETATM   13  C   UNL     1      -9.369  15.785  69.226  1.00  0.00    -0.261 C  
HETATM   14  C   UNL     1      -8.810  17.102  68.664  1.00  0.00    -0.266 C  
ENDBRANCH  10  11
BRANCH  10  15
HETATM   15  O   UNL     1     -12.695  15.053  70.471  1.00  0.00    -0.353 OA 
HETATM   16  O   UNL     1     -13.144  13.376  72.275  1.00  0.00    -0.396 OA 
HETATM   17  O   UNL     1     -11.495  15.261  72.656  1.00  0.00    -0.448 OA 
HETATM   18  S   UNL     1     -12.702  14.743  72.068  1.00  0.00    -0.346 S  
HETATM   19  O   UNL     1     -13.940  15.637  72.581  1.00  0.00    -0.566 OA 
ENDBRANCH  10  15
ENDBRANCH   9  10
ENDBRANCH   7   9
ENDBRANCH   3   4
ENDBRANCH   2   3
TORSDOF 6
ENDMDL
MODEL       38
REMARK 921   NORMALIZED FREE ENERGY PREDICTED BY IDOCK:   -5.05 KCAL/MOL
REMARK 922        TOTAL FREE ENERGY PREDICTED BY IDOCK:   -7.59 KCAL/MOL
REMARK 923 INTER-LIGAND FREE ENERGY PREDICTED BY IDOCK:   -6.41 KCAL/MOL
REMARK 924 INTRA-LIGAND FREE ENERGY PREDICTED BY IDOCK:   -1.18 KCAL/MOL
REMARK 927      BINDING AFFINITY PREDICTED BY RF-SCORE:    0.00 PKD
ROOT
HETATM    1  C   UNL     1     -11.024   6.605  67.193  1.00  0.00    -0.478 C  
HETATM    2  C   UNL     1     -10.783   5.771  68.442  1.00  0.00    -0.283 C  
ENDROOT
BRANCH   2   3
HETATM    3  C   UNL     1     -11.148   6.558  69.702  1.00  0.00    -0.435 C  
BRANCH   3   4
HETATM    4  C   UNL     1     -10.956   8.063  69.500  1.00  0.00    -0.062 C  
HETATM    5  C   UNL     1     -11.378   8.929  70.715  1.00  0.00    -0.325 C  
HETATM    6  C   UNL     1     -10.680   8.529  72.034  1.00  0.00    -0.410 C  
HETATM    7  C   UNL     1     -11.171  10.437  70.432  1.00  0.00    -0.399 C  
HETATM    8  C   UNL     1      -9.176   8.773  72.067  1.00  0.00    -0.294 C  
BRANCH   7   9
HETATM    9  C   UNL     1     -12.035  10.931  69.271  1.00  0.00    -0.382 C  
BRANCH   9  10
HETATM   10  C   UNL     1     -11.283  11.443  68.027  1.00  0.00    -0.281 C  
BRANCH  10  11
HETATM   11  C   UNL     1     -10.682  10.277  67.210  1.00  0.00    -0.323 C  
HETATM   12  C   UNL     1      -8.308  10.339  68.170  1.00  0.00    -0.118 C  
HETATM   13  C   UNL     1      -9.170  10.375  66.908  1.00  0.00    -0.170 C  
HETATM   14  C   UNL     1      -8.754   9.211  65.994  1.00  0.00    -0.176 C  
ENDBRANCH  10  11
BRANCH  10  15
HETATM   15  O   UNL     1     -12.221  12.120  67.178  1.00  0.00    -0.507 OA 
HETATM   16  O   UNL     1     -12.021  14.574  67.630  1.00  0.00    -0.374 OA 
HETATM   17  O   UNL     1     -10.644  13.490  65.801  1.00  0.00    -0.274 OA 
HETATM   18  S   UNL     1     -11.850  13.587  66.580  1.00  0.00    -0.418 S  
HETATM   19  O   UNL     1     -13.080  13.864  65.577  1.00  0.00    -0.699 OA 
ENDBRANCH  10  15
ENDBRANCH   9  10
ENDBRANCH   7   9
ENDBRANCH   3   4
ENDBRANCH   2   3
TORSDOF 6
ENDMDL
MODEL       39
REMARK 921   NORMALIZED FREE ENERGY PREDICTED BY IDOCK:   -5.05 KCAL/MOL
REMARK 922        TOTAL FREE ENERGY PREDICTED BY IDOCK:   -7.58 KCAL/MOL
REMARK 923 INTER-LIGAND FREE ENERGY PREDICTED BY IDOCK:   -6.70 KCAL/MOL
REMARK 924 INTRA-LIGAND FREE ENERGY PREDICTED BY IDOCK:   -0.88 KCAL/MOL
REMARK 927      BINDING AFFINITY PREDICTED BY RF-SCORE:    0.00 PKD
ROOT
HETATM    1  C   UNL     1      -9.297  10.293  64.237  1.00  0.00    -0.328 C  
HETATM    2  C   UNL     1     -10.043  11.555  63.833  1.00  0.00    -0.388 C  
ENDROOT
BRANCH   2   3
HETATM    3  C   UNL     1     -11.279  11.764  64.710  1.00  0.00    -0.333 C  
BRANCH   3   4
HETATM    4  C   UNL     1     -10.999  12.750  65.847  1.00  0.00    -0.303 C  
HETATM    5  C   UNL     1     -11.657  12.368  67.199  1.00  0.00    -0.435 C  
HETATM    6  C   UNL     1     -11.289  10.951  67.691  1.00  0.00    -0.345 C  
HETATM    7  C   UNL     1     -11.345  13.417  68.294  1.00  0.00    -0.330 C  
HETATM    8  C   UNL     1      -9.825  10.760  68.066  1.00  0.00    -0.180 C  
BRANCH   7   9
HETATM    9  C   UNL     1     -11.908  14.797  67.951  1.00  0.00    -0.327 C  
BRANCH   9  10
HETATM   10  C   UNL     1     -11.399  15.976  68.803  1.00  0.00    -0.380 C  
BRANCH  10  11
HETATM   11  C   UNL     1     -11.072  15.531  70.246  1.00  0.00    -0.345 C  
HETATM   12  C   UNL     1     -13.467  15.407  71.146  1.00  0.00    -0.565 C  
HETATM   13  C   UNL     1     -12.067  15.990  71.335  1.00  0.00    -0.479 C  
HETATM   14  C   UNL     1     -11.542  15.573  72.718  1.00  0.00    -0.472 C  
ENDBRANCH  10  11
BRANCH  10  15
HETATM   15  O   UNL     1     -10.183  16.464  68.220  1.00  0.00    -0.238 OA 
HETATM   16  O   UNL     1     -10.679  17.110  65.854  1.00  0.00    -0.270 OA 
HETATM   17  O   UNL     1     -10.860  18.818  67.716  1.00  0.00    -0.389 OA 
HETATM   18  S   UNL     1     -10.241  17.662  67.123  1.00  0.00    -0.349 S  
HETATM   19  O   UNL     1      -8.680  17.987  66.892  1.00  0.00    -0.238 OA 
ENDBRANCH  10  15
ENDBRANCH   9  10
ENDBRANCH   7   9
ENDBRANCH   3   4
ENDBRANCH   2   3
TORSDOF 6
ENDMDL
MODEL       40
REMARK 921   NORMALIZED FREE ENERGY PREDICTED BY IDOCK:   -5.04 KCAL/MOL
REMARK 922        TOTAL FREE ENERGY PREDICTED BY IDOCK:   -7.57 KCAL/MOL
REMARK 923 INTER-LIGAND FREE ENERGY PREDICTED BY IDOCK:   -7.76 KCAL/MOL
REMARK 924 INTRA-LIGAND FREE ENERGY PREDICTED BY IDOCK:    0.18 KCAL/MOL
REMARK 927      BINDING AFFINITY PREDICTED BY RF-SCORE:    0.00 PKD
ROOT
HETATM    1  C   UNL     1     -14.032  15.193  72.195  1.00  0.00    -0.635 C  
HETATM    2  C   UNL     1     -12.929  15.045  71.158  1.00  0.00    -0.457 C  
ENDROOT
BRANCH   2   3
HETATM    3  C   UNL     1     -12.307  13.649  71.217  1.00  0.00    -0.359 C  
BRANCH   3   4
HETATM    4  C   UNL     1     -12.276  12.989  69.836  1.00  0.00    -0.271 C  
HETATM    5  C   UNL     1     -11.434  11.689  69.769  1.00  0.00    -0.339 C  
HETATM    6  C   UNL     1     -11.856  10.621  70.802  1.00  0.00    -0.459 C  
HETATM    7  C   UNL     1     -11.436  11.088  68.341  1.00  0.00    -0.378 C  
HETATM    8  C   UNL     1     -13.243  10.028  70.586  1.00  0.00    -0.174 C  
BRANCH   7   9
HETATM    9  C   UNL     1     -10.801  12.029  67.317  1.00  0.00    -0.290 C  
BRANCH   9  10
HETATM   10  C   UNL     1     -11.722  13.108  66.714  1.00  0.00    -0.385 C  
BRANCH  10  11
HETATM   11  C   UNL     1     -10.906  14.261  66.089  1.00  0.00    -0.310 C  
HETATM   12  C   UNL     1     -10.744  15.763  68.158  1.00  0.00    -0.285 C  
HETATM   13  C   UNL     1     -11.153  15.664  66.688  1.00  0.00    -0.147 C  
HETATM   14  C   UNL     1     -10.363  16.710  65.886  1.00  0.00    -0.355 C  
ENDBRANCH  10  11
BRANCH  10  15
HETATM   15  O   UNL     1     -12.491  12.510  65.662  1.00  0.00    -0.648 OA 
HETATM   16  O   UNL     1     -12.681  14.185  63.812  1.00  0.00    -0.761 OA 
HETATM   17  O   UNL     1     -10.786  12.504  63.831  1.00  0.00    -0.377 OA 
HETATM   18  S   UNL     1     -12.149  12.868  64.113  1.00  0.00    -0.452 S  
HETATM   19  O   UNL     1     -13.118  11.862  63.310  1.00  0.00    -0.674 OA 
ENDBRANCH  10  15
ENDBRANCH   9  10
ENDBRANCH   7   9
ENDBRANCH   3   4
ENDBRANCH   2   3
TORSDOF 6
ENDMDL
MODEL       41
REMARK 921   NORMALIZED FREE ENERGY PREDICTED BY IDOCK:   -5.04 KCAL/MOL
REMARK 922        TOTAL FREE ENERGY PREDICTED BY IDOCK:   -7.57 KCAL/MOL
REMARK 923 INTER-LIGAND FREE ENERGY PREDICTED BY IDOCK:   -6.83 KCAL/MOL
REMARK 924 INTRA-LIGAND FREE ENERGY PREDICTED BY IDOCK:   -0.74 KCAL/MOL
REMARK 927      BINDING AFFINITY PREDICTED BY RF-SCORE:    0.00 PKD
ROOT
HETATM    1  C   UNL     1      -5.468  18.615  67.766  1.00  0.00    -0.168 C  
HETATM    2  C   UNL     1      -6.214  17.304  67.570  1.00  0.00    -0.169 C  
ENDROOT
BRANCH   2   3
HETATM    3  C   UNL     1      -7.328  17.460  66.533  1.00  0.00    -0.312 C  
BRANCH   3   4
HETATM    4  C   UNL     1      -8.660  16.917  67.056  1.00  0.00    -0.229 C  
HETATM    5  C   UNL     1      -9.200  17.651  68.310  1.00  0.00    -0.283 C  
HETATM    6  C   UNL     1      -9.344  19.177  68.122  1.00  0.00    -0.388 C  
HETATM    7  C   UNL     1     -10.539  17.038  68.791  1.00  0.00    -0.346 C  
HETATM    8  C   UNL     1     -10.401  19.605  67.112  1.00  0.00    -0.581 C  
BRANCH   7   9
HETATM    9  C   UNL     1     -10.387  15.578  69.217  1.00  0.00    -0.252 C  
BRANCH   9  10
HETATM   10  C   UNL     1     -11.668  14.722  69.199  1.00  0.00    -0.313 C  
BRANCH  10  11
HETATM   11  C   UNL     1     -12.764  15.325  70.107  1.00  0.00    -0.278 C  
HETATM   12  C   UNL     1     -11.482  15.266  72.324  1.00  0.00    -0.480 C  
HETATM   13  C   UNL     1     -12.753  14.858  71.579  1.00  0.00    -0.404 C  
HETATM   14  C   UNL     1     -13.966  15.450  72.314  1.00  0.00    -0.661 C  
ENDBRANCH  10  11
BRANCH  10  15
HETATM   15  O   UNL     1     -12.183  14.705  67.861  1.00  0.00    -0.241 OA 
HETATM   16  O   UNL     1     -10.408  13.755  66.375  1.00  0.00    -0.279 OA 
HETATM   17  O   UNL     1     -12.153  12.243  67.419  1.00  0.00    -0.533 OA 
HETATM   18  S   UNL     1     -11.756  13.505  66.850  1.00  0.00    -0.404 S  
HETATM   19  O   UNL     1     -12.685  13.796  65.567  1.00  0.00    -0.515 OA 
ENDBRANCH  10  15
ENDBRANCH   9  10
ENDBRANCH   7   9
ENDBRANCH   3   4
ENDBRANCH   2   3
TORSDOF 6
ENDMDL
MODEL       42
REMARK 921   NORMALIZED FREE ENERGY PREDICTED BY IDOCK:   -5.02 KCAL/MOL
REMARK 922        TOTAL FREE ENERGY PREDICTED BY IDOCK:   -7.55 KCAL/MOL
REMARK 923 INTER-LIGAND FREE ENERGY PREDICTED BY IDOCK:   -6.80 KCAL/MOL
REMARK 924 INTRA-LIGAND FREE ENERGY PREDICTED BY IDOCK:   -0.75 KCAL/MOL
REMARK 927      BINDING AFFINITY PREDICTED BY RF-SCORE:    0.00 PKD
ROOT
HETATM    1  C   UNL     1      -9.961  20.215  66.321  1.00  0.00    -0.557 C  
HETATM    2  C   UNL     1     -10.728  19.336  67.298  1.00  0.00    -0.594 C  
ENDROOT
BRANCH   2   3
HETATM    3  C   UNL     1      -9.772  18.619  68.253  1.00  0.00    -0.394 C  
BRANCH   3   4
HETATM    4  C   UNL     1      -9.780  17.106  68.025  1.00  0.00    -0.274 C  
HETATM    5  C   UNL     1      -9.279  16.670  66.624  1.00  0.00    -0.277 C  
HETATM    6  C   UNL     1      -7.872  17.201  66.274  1.00  0.00    -0.351 C  
HETATM    7  C   UNL     1      -9.331  15.130  66.460  1.00  0.00    -0.308 C  
HETATM    8  C   UNL     1      -6.741  16.638  67.125  1.00  0.00    -0.223 C  
BRANCH   7   9
HETATM    9  C   UNL     1     -10.756  14.585  66.563  1.00  0.00    -0.312 C  
BRANCH   9  10
HETATM   10  C   UNL     1     -10.935  13.079  66.294  1.00  0.00    -0.284 C  
BRANCH  10  11
HETATM   11  C   UNL     1     -10.190  12.641  65.013  1.00  0.00    -0.294 C  
HETATM   12  C   UNL     1     -12.233  12.116  63.559  1.00  0.00    -0.670 C  
HETATM   13  C   UNL     1     -10.915  11.597  64.135  1.00  0.00    -0.442 C  
HETATM   14  C   UNL     1     -10.000  11.181  62.972  1.00  0.00    -0.347 C  
ENDBRANCH  10  11
BRANCH  10  15
HETATM   15  O   UNL     1     -10.362  12.352  67.390  1.00  0.00    -0.206 OA 
HETATM   16  O   UNL     1     -11.488  13.125  69.487  1.00  0.00    -0.264 OA 
HETATM   17  O   UNL     1     -12.388  11.134  68.206  1.00  0.00    -0.532 OA 
HETATM   18  S   UNL     1     -11.292  11.948  68.661  1.00  0.00    -0.304 S  
HETATM   19  O   UNL     1     -10.299  11.022  69.527  1.00  0.00    -0.164 OA 
ENDBRANCH  10  15
ENDBRANCH   9  10
ENDBRANCH   7   9
ENDBRANCH   3   4
ENDBRANCH   2   3
TORSDOF 6
ENDMDL
MODEL       43
REMARK 921   NORMALIZED FREE ENERGY PREDICTED BY IDOCK:   -5.00 KCAL/MOL
REMARK 922        TOTAL FREE ENERGY PREDICTED BY IDOCK:   -7.51 KCAL/MOL
REMARK 923 INTER-LIGAND FREE ENERGY PREDICTED BY IDOCK:   -6.86 KCAL/MOL
REMARK 924 INTRA-LIGAND FREE ENERGY PREDICTED BY IDOCK:   -0.65 KCAL/MOL
REMARK 927      BINDING AFFINITY PREDICTED BY RF-SCORE:    0.00 PKD
ROOT
HETATM    1  C   UNL     1      -8.163  16.230  66.418  1.00  0.00    -0.354 C  
HETATM    2  C   UNL     1      -9.570  16.623  65.995  1.00  0.00    -0.298 C  
ENDROOT
BRANCH   2   3
HETATM    3  C   UNL     1     -10.276  15.458  65.298  1.00  0.00    -0.390 C  
BRANCH   3   4
HETATM    4  C   UNL     1     -10.437  14.258  66.234  1.00  0.00    -0.291 C  
HETATM    5  C   UNL     1     -11.909  13.856  66.509  1.00  0.00    -0.440 C  
HETATM    6  C   UNL     1     -12.727  13.579  65.228  1.00  0.00    -0.481 C  
HETATM    7  C   UNL     1     -11.994  12.648  67.474  1.00  0.00    -0.314 C  
HETATM    8  C   UNL     1     -12.283  12.359  64.432  1.00  0.00    -0.519 C  
BRANCH   7   9
HETATM    9  C   UNL     1     -11.402  12.963  68.849  1.00  0.00    -0.335 C  
BRANCH   9  10
HETATM   10  C   UNL     1     -12.087  12.299  70.058  1.00  0.00    -0.273 C  
BRANCH  10  11
HETATM   11  C   UNL     1     -11.432  10.942  70.404  1.00  0.00    -0.367 C  
HETATM   12  C   UNL     1     -13.492   9.776  71.383  1.00  0.00    -0.397 C  
HETATM   13  C   UNL     1     -12.037  10.189  71.609  1.00  0.00    -0.373 C  
HETATM   14  C   UNL     1     -11.207   8.928  71.895  1.00  0.00    -0.447 C  
ENDBRANCH  10  11
BRANCH  10  15
HETATM   15  O   UNL     1     -11.923  13.154  71.198  1.00  0.00    -0.075 OA 
HETATM   16  O   UNL     1     -13.573  15.025  70.987  1.00  0.00    -0.410 OA 
HETATM   17  O   UNL     1     -14.181  12.912  72.246  1.00  0.00    -0.277 OA 
HETATM   18  S   UNL     1     -13.219  13.901  71.835  1.00  0.00    -0.428 S  
HETATM   19  O   UNL     1     -12.601  14.585  73.155  1.00  0.00    -0.391 OA 
ENDBRANCH  10  15
ENDBRANCH   9  10
ENDBRANCH   7   9
ENDBRANCH   3   4
ENDBRANCH   2   3
TORSDOF 6
ENDMDL
MODEL       44
REMARK 921   NORMALIZED FREE ENERGY PREDICTED BY IDOCK:   -4.97 KCAL/MOL
REMARK 922        TOTAL FREE ENERGY PREDICTED BY IDOCK:   -7.47 KCAL/MOL
REMARK 923 INTER-LIGAND FREE ENERGY PREDICTED BY IDOCK:   -7.47 KCAL/MOL
REMARK 924 INTRA-LIGAND FREE ENERGY PREDICTED BY IDOCK:    0.00 KCAL/MOL
REMARK 927      BINDING AFFINITY PREDICTED BY RF-SCORE:    0.00 PKD
ROOT
HETATM    1  C   UNL     1     -12.609  10.352  70.543  1.00  0.00    -0.384 C  
HETATM    2  C   UNL     1     -13.114  10.818  71.900  1.00  0.00    -0.557 C  
ENDROOT
BRANCH   2   3
HETATM    3  C   UNL     1     -13.227  12.343  71.947  1.00  0.00    -0.486 C  
BRANCH   3   4
HETATM    4  C   UNL     1     -12.402  13.001  70.839  1.00  0.00    -0.376 C  
HETATM    5  C   UNL     1     -12.862  14.435  70.467  1.00  0.00    -0.353 C  
HETATM    6  C   UNL     1     -12.910  15.403  71.670  1.00  0.00    -0.492 C  
HETATM    7  C   UNL     1     -11.993  15.030  69.331  1.00  0.00    -0.336 C  
HETATM    8  C   UNL     1     -11.557  15.731  72.288  1.00  0.00    -0.522 C  
BRANCH   7   9
HETATM    9  C   UNL     1     -12.105  14.225  68.036  1.00  0.00    -0.289 C  
BRANCH   9  10
HETATM   10  C   UNL     1     -10.856  14.200  67.134  1.00  0.00    -0.290 C  
BRANCH  10  11
HETATM   11  C   UNL     1     -10.574  12.779  66.599  1.00  0.00    -0.272 C  
HETATM   12  C   UNL     1      -8.533  12.236  68.049  1.00  0.00    -0.171 C  
HETATM   13  C   UNL     1      -9.097  12.327  66.631  1.00  0.00    -0.203 C  
HETATM   14  C   UNL     1      -8.967  10.950  65.961  1.00  0.00    -0.200 C  
ENDBRANCH  10  11
BRANCH  10  15
HETATM   15  O   UNL     1     -11.100  15.043  65.999  1.00  0.00    -0.334 OA 
HETATM   16  O   UNL     1     -11.127  13.588  63.963  1.00  0.00    -0.335 OA 
HETATM   17  O   UNL     1     -13.274  14.088  65.212  1.00  0.00    -0.782 OA 
HETATM   18  S   UNL     1     -11.968  14.474  64.747  1.00  0.00    -0.443 S  
HETATM   19  O   UNL     1     -12.127  15.783  63.823  1.00  0.00    -0.648 OA 
ENDBRANCH  10  15
ENDBRANCH   9  10
ENDBRANCH   7   9
ENDBRANCH   3   4
ENDBRANCH   2   3
TORSDOF 6
ENDMDL
MODEL       45
REMARK 921   NORMALIZED FREE ENERGY PREDICTED BY IDOCK:   -4.96 KCAL/MOL
REMARK 922        TOTAL FREE ENERGY PREDICTED BY IDOCK:   -7.47 KCAL/MOL
REMARK 923 INTER-LIGAND FREE ENERGY PREDICTED BY IDOCK:   -6.87 KCAL/MOL
REMARK 924 INTRA-LIGAND FREE ENERGY PREDICTED BY IDOCK:   -0.60 KCAL/MOL
REMARK 927      BINDING AFFINITY PREDICTED BY RF-SCORE:    0.00 PKD
ROOT
HETATM    1  C   UNL     1     -13.577  13.920  71.742  1.00  0.00    -0.466 C  
HETATM    2  C   UNL     1     -12.636  14.174  70.575  1.00  0.00    -0.410 C  
ENDROOT
BRANCH   2   3
HETATM    3  C   UNL     1     -12.006  12.868  70.086  1.00  0.00    -0.373 C  
BRANCH   3   4
HETATM    4  C   UNL     1     -11.393  13.027  68.693  1.00  0.00    -0.329 C  
HETATM    5  C   UNL     1      -9.994  12.379  68.534  1.00  0.00    -0.175 C  
HETATM    6  C   UNL     1      -9.957  10.881  68.907  1.00  0.00    -0.208 C  
HETATM    7  C   UNL     1      -9.431  12.594  67.108  1.00  0.00    -0.214 C  
HETATM    8  C   UNL     1     -10.757   9.968  67.985  1.00  0.00    -0.303 C  
BRANCH   7   9
HETATM    9  C   UNL     1      -9.225  14.074  66.784  1.00  0.00    -0.280 C  
BRANCH   9  10
HETATM   10  C   UNL     1     -10.485  14.875  66.404  1.00  0.00    -0.299 C  
BRANCH  10  11
HETATM   11  C   UNL     1     -10.217  16.396  66.428  1.00  0.00    -0.325 C  
HETATM   12  C   UNL     1     -10.218  16.731  68.969  1.00  0.00    -0.310 C  
HETATM   13  C   UNL     1     -10.812  17.167  67.628  1.00  0.00    -0.241 C  
HETATM   14  C   UNL     1     -10.562  18.672  67.446  1.00  0.00    -0.490 C  
ENDBRANCH  10  11
BRANCH  10  15
HETATM   15  O   UNL     1     -10.855  14.528  65.063  1.00  0.00    -0.362 OA 
HETATM   16  O   UNL     1     -11.966  12.286  65.136  1.00  0.00    -0.379 OA 
HETATM   17  O   UNL     1     -13.341  14.406  65.319  1.00  0.00    -0.574 OA 
HETATM   18  S   UNL     1     -12.215  13.676  64.798  1.00  0.00    -0.402 S  
HETATM   19  O   UNL     1     -12.309  13.678  63.191  1.00  0.00    -0.729 OA 
ENDBRANCH  10  15
ENDBRANCH   9  10
ENDBRANCH   7   9
ENDBRANCH   3   4
ENDBRANCH   2   3
TORSDOF 6
ENDMDL
MODEL       46
REMARK 921   NORMALIZED FREE ENERGY PREDICTED BY IDOCK:   -4.96 KCAL/MOL
REMARK 922        TOTAL FREE ENERGY PREDICTED BY IDOCK:   -7.46 KCAL/MOL
REMARK 923 INTER-LIGAND FREE ENERGY PREDICTED BY IDOCK:   -6.73 KCAL/MOL
REMARK 924 INTRA-LIGAND FREE ENERGY PREDICTED BY IDOCK:   -0.73 KCAL/MOL
REMARK 927      BINDING AFFINITY PREDICTED BY RF-SCORE:    0.00 PKD
ROOT
HETATM    1  C   UNL     1     -11.028   6.464  72.593  1.00  0.00    -0.284 C  
HETATM    2  C   UNL     1     -11.179   7.460  71.453  1.00  0.00    -0.272 C  
ENDROOT
BRANCH   2   3
HETATM    3  C   UNL     1     -10.803   8.872  71.908  1.00  0.00    -0.433 C  
BRANCH   3   4
HETATM    4  C   UNL     1     -10.706   9.836  70.723  1.00  0.00    -0.393 C  
HETATM    5  C   UNL     1     -12.065  10.161  70.052  1.00  0.00    -0.166 C  
HETATM    6  C   UNL     1     -13.126  10.709  71.032  1.00  0.00    -0.376 C  
HETATM    7  C   UNL     1     -11.887  11.127  68.855  1.00  0.00    -0.406 C  
HETATM    8  C   UNL     1     -12.810  12.077  71.624  1.00  0.00    -0.399 C  
BRANCH   7   9
HETATM    9  C   UNL     1     -11.028  10.519  67.744  1.00  0.00    -0.372 C  
BRANCH   9  10
HETATM   10  C   UNL     1     -10.807  11.392  66.494  1.00  0.00    -0.283 C  
BRANCH  10  11
HETATM   11  C   UNL     1     -10.503  10.528  65.249  1.00  0.00    -0.232 C  
HETATM   12  C   UNL     1      -7.978  10.263  65.590  1.00  0.00    -0.150 C  
HETATM   13  C   UNL     1      -9.094  10.697  64.639  1.00  0.00    -0.238 C  
HETATM   14  C   UNL     1      -8.991   9.867  63.349  1.00  0.00    -0.278 C  
ENDBRANCH  10  11
BRANCH  10  15
HETATM   15  O   UNL     1     -12.016  12.115  66.227  1.00  0.00    -0.605 OA 
HETATM   16  O   UNL     1     -11.706  14.452  67.069  1.00  0.00    -0.368 OA 
HETATM   17  O   UNL     1     -11.137  13.865  64.671  1.00  0.00    -0.362 OA 
HETATM   18  S   UNL     1     -11.941  13.696  65.852  1.00  0.00    -0.433 S  
HETATM   19  O   UNL     1     -13.471  14.027  65.474  1.00  0.00    -0.677 OA 
ENDBRANCH  10  15
ENDBRANCH   9  10
ENDBRANCH   7   9
ENDBRANCH   3   4
ENDBRANCH   2   3
TORSDOF 6
ENDMDL
MODEL       47
REMARK 921   NORMALIZED FREE ENERGY PREDICTED BY IDOCK:   -4.96 KCAL/MOL
REMARK 922        TOTAL FREE ENERGY PREDICTED BY IDOCK:   -7.46 KCAL/MOL
REMARK 923 INTER-LIGAND FREE ENERGY PREDICTED BY IDOCK:   -6.62 KCAL/MOL
REMARK 924 INTRA-LIGAND FREE ENERGY PREDICTED BY IDOCK:   -0.83 KCAL/MOL
REMARK 927      BINDING AFFINITY PREDICTED BY RF-SCORE:    0.00 PKD
ROOT
HETATM    1  C   UNL     1     -11.069   6.730  69.679  1.00  0.00    -0.343 C  
HETATM    2  C   UNL     1     -10.584   8.092  69.208  1.00  0.00    -0.191 C  
ENDROOT
BRANCH   2   3
HETATM    3  C   UNL     1     -10.410   9.049  70.389  1.00  0.00    -0.253 C  
BRANCH   3   4
HETATM    4  C   UNL     1     -10.441  10.511  69.936  1.00  0.00    -0.213 C  
HETATM    5  C   UNL     1     -11.790  10.960  69.320  1.00  0.00    -0.395 C  
HETATM    6  C   UNL     1     -13.005  10.718  70.242  1.00  0.00    -0.132 C  
HETATM    7  C   UNL     1     -11.741  12.442  68.871  1.00  0.00    -0.372 C  
HETATM    8  C   UNL     1     -13.026  11.555  71.515  1.00  0.00    -0.485 C  
BRANCH   7   9
HETATM    9  C   UNL     1     -10.702  12.680  67.775  1.00  0.00    -0.239 C  
BRANCH   9  10
HETATM   10  C   UNL     1     -11.043  13.759  66.729  1.00  0.00    -0.308 C  
BRANCH  10  11
HETATM   11  C   UNL     1     -10.005  14.903  66.738  1.00  0.00    -0.252 C  
HETATM   12  C   UNL     1     -11.155  16.431  68.444  1.00  0.00    -0.351 C  
HETATM   13  C   UNL     1     -10.559  16.314  67.040  1.00  0.00    -0.284 C  
HETATM   14  C   UNL     1      -9.433  17.349  66.895  1.00  0.00    -0.275 C  
ENDBRANCH  10  11
BRANCH  10  15
HETATM   15  O   UNL     1     -11.004  13.156  65.428  1.00  0.00    -0.275 OA 
HETATM   16  O   UNL     1     -13.343  12.505  64.820  1.00  0.00    -0.773 OA 
HETATM   17  O   UNL     1     -12.430  14.774  64.161  1.00  0.00    -0.758 OA 
HETATM   18  S   UNL     1     -12.251  13.368  64.406  1.00  0.00    -0.373 S  
HETATM   19  O   UNL     1     -11.701  12.684  63.056  1.00  0.00    -0.352 OA 
ENDBRANCH  10  15
ENDBRANCH   9  10
ENDBRANCH   7   9
ENDBRANCH   3   4
ENDBRANCH   2   3
TORSDOF 6
ENDMDL
MODEL       48
REMARK 921   NORMALIZED FREE ENERGY PREDICTED BY IDOCK:   -4.95 KCAL/MOL
REMARK 922        TOTAL FREE ENERGY PREDICTED BY IDOCK:   -7.45 KCAL/MOL
REMARK 923 INTER-LIGAND FREE ENERGY PREDICTED BY IDOCK:   -6.70 KCAL/MOL
REMARK 924 INTRA-LIGAND FREE ENERGY PREDICTED BY IDOCK:   -0.75 KCAL/MOL
REMARK 927      BINDING AFFINITY PREDICTED BY RF-SCORE:    0.00 PKD
ROOT
HETATM    1  C   UNL     1     -12.243  16.533  73.401  1.00  0.00    -0.485 C  
HETATM    2  C   UNL     1     -13.477  15.785  72.921  1.00  0.00    -0.666 C  
ENDROOT
BRANCH   2   3
HETATM    3  C   UNL     1     -13.354  15.421  71.440  1.00  0.00    -0.601 C  
BRANCH   3   4
HETATM    4  C   UNL     1     -12.488  14.176  71.238  1.00  0.00    -0.446 C  
HETATM    5  C   UNL     1     -12.149  13.868  69.756  1.00  0.00    -0.404 C  
HETATM    6  C   UNL     1     -11.477  15.045  69.016  1.00  0.00    -0.322 C  
HETATM    7  C   UNL     1     -11.287  12.588  69.628  1.00  0.00    -0.182 C  
HETATM    8  C   UNL     1     -10.086  15.411  69.516  1.00  0.00    -0.278 C  
BRANCH   7   9
HETATM    9  C   UNL     1     -12.017  11.345  70.137  1.00  0.00    -0.460 C  
BRANCH   9  10
HETATM   10  C   UNL     1     -11.278  10.002  69.978  1.00  0.00    -0.288 C  
BRANCH  10  11
HETATM   11  C   UNL     1      -9.895  10.194  69.317  1.00  0.00    -0.235 C  
HETATM   12  C   UNL     1     -10.481   9.335  66.976  1.00  0.00    -0.303 C  
HETATM   13  C   UNL     1      -9.548   9.207  68.180  1.00  0.00    -0.160 C  
HETATM   14  C   UNL     1      -8.104   9.451  67.712  1.00  0.00    -0.107 C  
ENDBRANCH  10  11
BRANCH  10  15
HETATM   15  O   UNL     1     -11.055   9.450  71.283  1.00  0.00    -0.319 OA 
HETATM   16  O   UNL     1     -13.290   9.131  72.365  1.00  0.00    -0.434 OA 
HETATM   17  O   UNL     1     -12.231   7.257  71.029  1.00  0.00    -0.328 OA 
HETATM   18  S   UNL     1     -12.127   8.396  71.903  1.00  0.00    -0.368 S  
HETATM   19  O   UNL     1     -11.395   7.927  73.259  1.00  0.00    -0.312 OA 
ENDBRANCH  10  15
ENDBRANCH   9  10
ENDBRANCH   7   9
ENDBRANCH   3   4
ENDBRANCH   2   3
TORSDOF 6
ENDMDL
MODEL       49
REMARK 921   NORMALIZED FREE ENERGY PREDICTED BY IDOCK:   -4.94 KCAL/MOL
REMARK 922        TOTAL FREE ENERGY PREDICTED BY IDOCK:   -7.43 KCAL/MOL
REMARK 923 INTER-LIGAND FREE ENERGY PREDICTED BY IDOCK:   -6.43 KCAL/MOL
REMARK 924 INTRA-LIGAND FREE ENERGY PREDICTED BY IDOCK:   -1.01 KCAL/MOL
REMARK 927      BINDING AFFINITY PREDICTED BY RF-SCORE:    0.00 PKD
ROOT
HETATM    1  C   UNL     1     -11.938  12.180  63.793  1.00  0.00    -0.607 C  
HETATM    2  C   UNL     1     -11.916  13.651  64.181  1.00  0.00    -0.488 C  
ENDROOT
BRANCH   2   3
HETATM    3  C   UNL     1     -12.659  13.879  65.499  1.00  0.00    -0.560 C  
BRANCH   3   4
HETATM    4  C   UNL     1     -12.043  13.064  66.639  1.00  0.00    -0.386 C  
HETATM    5  C   UNL     1     -10.684  13.610  67.150  1.00  0.00    -0.279 C  
HETATM    6  C   UNL     1     -10.734  15.089  67.590  1.00  0.00    -0.274 C  
HETATM    7  C   UNL     1     -10.115  12.728  68.289  1.00  0.00    -0.237 C  
HETATM    8  C   UNL     1     -11.590  15.368  68.819  1.00  0.00    -0.382 C  
BRANCH   7   9
HETATM    9  C   UNL     1      -9.823  11.300  67.825  1.00  0.00    -0.186 C  
BRANCH   9  10
HETATM   10  C   UNL     1     -10.212  10.171  68.798  1.00  0.00    -0.186 C  
BRANCH  10  11
HETATM   11  C   UNL     1     -11.238  10.656  69.847  1.00  0.00    -0.378 C  
HETATM   12  C   UNL     1     -10.603   9.063  71.750  1.00  0.00    -0.426 C  
HETATM   13  C   UNL     1     -11.725   9.593  70.857  1.00  0.00    -0.412 C  
HETATM   14  C   UNL     1     -12.821  10.196  71.748  1.00  0.00    -0.554 C  
ENDBRANCH  10  11
BRANCH  10  15
HETATM   15  O   UNL     1     -10.834   9.120  68.047  1.00  0.00    -0.185 OA 
HETATM   16  O   UNL     1      -9.152   8.262  66.403  1.00  0.00    -0.160 OA 
HETATM   17  O   UNL     1      -9.366   7.200  68.693  1.00  0.00    -0.136 OA 
HETATM   18  S   UNL     1      -9.944   7.853  67.548  1.00  0.00    -0.212 S  
HETATM   19  O   UNL     1     -11.064   6.878  66.923  1.00  0.00    -0.379 OA 
ENDBRANCH  10  15
ENDBRANCH   9  10
ENDBRANCH   7   9
ENDBRANCH   3   4
ENDBRANCH   2   3
TORSDOF 6
ENDMDL
MODEL       50
REMARK 921   NORMALIZED FREE ENERGY PREDICTED BY IDOCK:   -4.92 KCAL/MOL
REMARK 922        TOTAL FREE ENERGY PREDICTED BY IDOCK:   -7.41 KCAL/MOL
REMARK 923 INTER-LIGAND FREE ENERGY PREDICTED BY IDOCK:   -6.70 KCAL/MOL
REMARK 924 INTRA-LIGAND FREE ENERGY PREDICTED BY IDOCK:   -0.71 KCAL/MOL
REMARK 927      BINDING AFFINITY PREDICTED BY RF-SCORE:    0.00 PKD
ROOT
HETATM    1  C   UNL     1      -6.042  19.668  70.113  1.00  0.00    -0.316 C  
HETATM    2  C   UNL     1      -6.730  19.495  68.768  1.00  0.00    -0.342 C  
ENDROOT
BRANCH   2   3
HETATM    3  C   UNL     1      -8.233  19.272  68.948  1.00  0.00    -0.344 C  
BRANCH   3   4
HETATM    4  C   UNL     1      -8.708  18.022  68.203  1.00  0.00    -0.277 C  
HETATM    5  C   UNL     1     -10.247  17.919  68.047  1.00  0.00    -0.381 C  
HETATM    6  C   UNL     1     -10.887  19.152  67.372  1.00  0.00    -0.533 C  
HETATM    7  C   UNL     1     -10.653  16.624  67.300  1.00  0.00    -0.281 C  
HETATM    8  C   UNL     1     -10.504  19.358  65.912  1.00  0.00    -0.561 C  
BRANCH   7   9
HETATM    9  C   UNL     1     -10.244  15.364  68.063  1.00  0.00    -0.235 C  
BRANCH   9  10
HETATM   10  C   UNL     1     -10.911  14.047  67.620  1.00  0.00    -0.262 C  
BRANCH  10  11
HETATM   11  C   UNL     1     -10.562  13.703  66.155  1.00  0.00    -0.291 C  
HETATM   12  C   UNL     1     -12.865  14.131  65.116  1.00  0.00    -0.321 C  
HETATM   13  C   UNL     1     -11.719  13.136  65.301  1.00  0.00    -0.375 C  
HETATM   14  C   UNL     1     -11.186  12.735  63.917  1.00  0.00    -0.491 C  
ENDBRANCH  10  11
BRANCH  10  15
HETATM   15  O   UNL     1     -10.406  12.985  68.440  1.00  0.00    -0.244 OA 
HETATM   16  O   UNL     1     -12.027  12.636  70.315  1.00  0.00    -0.348 OA 
HETATM   17  O   UNL     1     -12.247  11.315  68.165  1.00  0.00    -0.622 OA 
HETATM   18  S   UNL     1     -11.445  11.966  69.166  1.00  0.00    -0.319 S  
HETATM   19  O   UNL     1     -10.453  10.873  69.810  1.00  0.00    -0.160 OA 
ENDBRANCH  10  15
ENDBRANCH   9  10
ENDBRANCH   7   9
ENDBRANCH   3   4
ENDBRANCH   2   3
TORSDOF 6
ENDMDL
MODEL       51
REMARK 921   NORMALIZED FREE ENERGY PREDICTED BY IDOCK:   -4.92 KCAL/MOL
REMARK 922        TOTAL FREE ENERGY PREDICTED BY IDOCK:   -7.40 KCAL/MOL
REMARK 923 INTER-LIGAND FREE ENERGY PREDICTED BY IDOCK:   -6.67 KCAL/MOL
REMARK 924 INTRA-LIGAND FREE ENERGY PREDICTED BY IDOCK:   -0.73 KCAL/MOL
REMARK 927      BINDING AFFINITY PREDICTED BY RF-SCORE:    0.00 PKD
ROOT
HETATM    1  C   UNL     1     -11.936  11.986  64.385  1.00  0.00    -0.385 C  
HETATM    2  C   UNL     1     -12.183  13.272  63.611  1.00  0.00    -0.522 C  
ENDROOT
BRANCH   2   3
HETATM    3  C   UNL     1     -11.937  14.497  64.495  1.00  0.00    -0.482 C  
BRANCH   3   4
HETATM    4  C   UNL     1     -12.197  14.186  65.971  1.00  0.00    -0.464 C  
HETATM    5  C   UNL     1     -10.915  14.071  66.834  1.00  0.00    -0.301 C  
HETATM    6  C   UNL     1     -10.002  15.314  66.759  1.00  0.00    -0.249 C  
HETATM    7  C   UNL     1     -11.255  13.740  68.308  1.00  0.00    -0.301 C  
HETATM    8  C   UNL     1     -10.592  16.584  67.362  1.00  0.00    -0.300 C  
BRANCH   7   9
HETATM    9  C   UNL     1     -11.955  12.388  68.451  1.00  0.00    -0.269 C  
BRANCH   9  10
HETATM   10  C   UNL     1     -12.353  11.969  69.879  1.00  0.00    -0.074 C  
BRANCH  10  11
HETATM   11  C   UNL     1     -11.617  10.682  70.316  1.00  0.00    -0.424 C  
HETATM   12  C   UNL     1     -13.579   9.510  71.475  1.00  0.00    -0.397 C  
HETATM   13  C   UNL     1     -12.140  10.011  71.606  1.00  0.00    -0.420 C  
HETATM   14  C   UNL     1     -11.236   8.822  71.968  1.00  0.00    -0.443 C  
ENDBRANCH  10  11
BRANCH  10  15
HETATM   15  O   UNL     1     -11.962  13.012  70.782  1.00  0.00    -0.267 OA 
HETATM   16  O   UNL     1     -13.692  14.816  70.656  1.00  0.00    -0.160 OA 
HETATM   17  O   UNL     1     -13.897  12.958  72.366  1.00  0.00    -0.532 OA 
HETATM   18  S   UNL     1     -13.102  13.859  71.574  1.00  0.00    -0.363 S  
HETATM   19  O   UNL     1     -12.220  14.765  72.571  1.00  0.00    -0.321 OA 
ENDBRANCH  10  15
ENDBRANCH   9  10
ENDBRANCH   7   9
ENDBRANCH   3   4
ENDBRANCH   2   3
TORSDOF 6
ENDMDL
MODEL       52
REMARK 921   NORMALIZED FREE ENERGY PREDICTED BY IDOCK:   -4.88 KCAL/MOL
REMARK 922        TOTAL FREE ENERGY PREDICTED BY IDOCK:   -7.35 KCAL/MOL
REMARK 923 INTER-LIGAND FREE ENERGY PREDICTED BY IDOCK:   -6.52 KCAL/MOL
REMARK 924 INTRA-LIGAND FREE ENERGY PREDICTED BY IDOCK:   -0.82 KCAL/MOL
REMARK 927      BINDING AFFINITY PREDICTED BY RF-SCORE:    0.00 PKD
ROOT
HETATM    1  C   UNL     1     -13.995  13.784  72.307  1.00  0.00    -0.672 C  
HETATM    2  C   UNL     1     -13.980  15.279  72.028  1.00  0.00    -0.645 C  
ENDROOT
BRANCH   2   3
HETATM    3  C   UNL     1     -12.670  15.697  71.359  1.00  0.00    -0.535 C  
BRANCH   3   4
HETATM    4  C   UNL     1     -11.949  14.498  70.738  1.00  0.00    -0.388 C  
HETATM    5  C   UNL     1     -12.029  14.436  69.191  1.00  0.00    -0.357 C  
HETATM    6  C   UNL     1     -11.521  15.716  68.491  1.00  0.00    -0.380 C  
HETATM    7  C   UNL     1     -11.293  13.191  68.637  1.00  0.00    -0.327 C  
HETATM    8  C   UNL     1     -10.031  15.990  68.650  1.00  0.00    -0.220 C  
BRANCH   7   9
HETATM    9  C   UNL     1     -11.921  11.884  69.123  1.00  0.00    -0.336 C  
BRANCH   9  10
HETATM   10  C   UNL     1     -11.172  10.587  68.760  1.00  0.00    -0.262 C  
BRANCH  10  11
HETATM   11  C   UNL     1     -10.549  10.671  67.349  1.00  0.00    -0.304 C  
HETATM   12  C   UNL     1     -10.403   8.160  66.860  1.00  0.00    -0.401 C  
HETATM   13  C   UNL     1      -9.646   9.486  66.939  1.00  0.00    -0.217 C  
HETATM   14  C   UNL     1      -9.013   9.774  65.569  1.00  0.00    -0.214 C  
ENDBRANCH  10  11
BRANCH  10  15
HETATM   15  O   UNL     1     -10.097  10.410  69.692  1.00  0.00    -0.231 OA 
HETATM   16  O   UNL     1     -11.086   9.634  71.856  1.00  0.00    -0.201 OA 
HETATM   17  O   UNL     1     -10.304   7.955  70.127  1.00  0.00    -0.206 OA 
HETATM   18  S   UNL     1     -10.180   9.222  70.799  1.00  0.00    -0.305 S  
HETATM   19  O   UNL     1      -8.723   9.292  71.482  1.00  0.00    -0.323 OA 
ENDBRANCH  10  15
ENDBRANCH   9  10
ENDBRANCH   7   9
ENDBRANCH   3   4
ENDBRANCH   2   3
TORSDOF 6
ENDMDL
MODEL       53
REMARK 921   NORMALIZED FREE ENERGY PREDICTED BY IDOCK:   -4.87 KCAL/MOL
REMARK 922        TOTAL FREE ENERGY PREDICTED BY IDOCK:   -7.35 KCAL/MOL
REMARK 923 INTER-LIGAND FREE ENERGY PREDICTED BY IDOCK:   -6.30 KCAL/MOL
REMARK 924 INTRA-LIGAND FREE ENERGY PREDICTED BY IDOCK:   -1.04 KCAL/MOL
REMARK 927      BINDING AFFINITY PREDICTED BY RF-SCORE:    0.00 PKD
ROOT
HETATM    1  C   UNL     1     -12.055  11.897  63.621  1.00  0.00    -0.580 C  
HETATM    2  C   UNL     1     -12.041  13.400  63.848  1.00  0.00    -0.514 C  
ENDROOT
BRANCH   2   3
HETATM    3  C   UNL     1     -12.674  13.755  65.195  1.00  0.00    -0.439 C  
BRANCH   3   4
HETATM    4  C   UNL     1     -11.658  14.398  66.141  1.00  0.00    -0.372 C  
HETATM    5  C   UNL     1     -11.641  13.792  67.568  1.00  0.00    -0.387 C  
HETATM    6  C   UNL     1     -11.418  12.263  67.590  1.00  0.00    -0.401 C  
HETATM    7  C   UNL     1     -10.602  14.501  68.471  1.00  0.00    -0.252 C  
HETATM    8  C   UNL     1     -10.046  11.805  67.112  1.00  0.00    -0.224 C  
BRANCH   7   9
HETATM    9  C   UNL     1     -10.925  15.982  68.670  1.00  0.00    -0.323 C  
BRANCH   9  10
HETATM   10  C   UNL     1      -9.953  16.989  68.025  1.00  0.00    -0.283 C  
BRANCH  10  11
HETATM   11  C   UNL     1      -8.726  16.276  67.412  1.00  0.00    -0.196 C  
HETATM   12  C   UNL     1      -7.264  16.184  69.514  1.00  0.00    -0.136 C  
HETATM   13  C   UNL     1      -7.360  16.615  68.050  1.00  0.00    -0.162 C  
HETATM   14  C   UNL     1      -6.239  15.924  67.258  1.00  0.00    -0.117 C  
ENDBRANCH  10  11
BRANCH  10  15
HETATM   15  O   UNL     1     -10.636  17.657  66.957  1.00  0.00    -0.328 OA 
HETATM   16  O   UNL     1     -10.751  20.091  67.532  1.00  0.00    -0.332 OA 
HETATM   17  O   UNL     1      -8.817  19.184  66.170  1.00  0.00    -0.399 OA 
HETATM   18  S   UNL     1     -10.205  19.172  66.550  1.00  0.00    -0.463 S  
HETATM   19  O   UNL     1     -11.093  19.434  65.232  1.00  0.00    -0.394 OA 
ENDBRANCH  10  15
ENDBRANCH   9  10
ENDBRANCH   7   9
ENDBRANCH   3   4
ENDBRANCH   2   3
TORSDOF 6
ENDMDL
MODEL       54
REMARK 921   NORMALIZED FREE ENERGY PREDICTED BY IDOCK:   -4.87 KCAL/MOL
REMARK 922        TOTAL FREE ENERGY PREDICTED BY IDOCK:   -7.34 KCAL/MOL
REMARK 923 INTER-LIGAND FREE ENERGY PREDICTED BY IDOCK:   -6.85 KCAL/MOL
REMARK 924 INTRA-LIGAND FREE ENERGY PREDICTED BY IDOCK:   -0.49 KCAL/MOL
REMARK 927      BINDING AFFINITY PREDICTED BY RF-SCORE:    0.00 PKD
ROOT
HETATM    1  C   UNL     1      -6.357  20.745  67.703  1.00  0.00    -0.361 C  
HETATM    2  C   UNL     1      -6.632  19.337  67.198  1.00  0.00    -0.201 C  
ENDROOT
BRANCH   2   3
HETATM    3  C   UNL     1      -7.419  18.530  68.233  1.00  0.00    -0.298 C  
BRANCH   3   4
HETATM    4  C   UNL     1      -8.431  17.597  67.565  1.00  0.00    -0.220 C  
HETATM    5  C   UNL     1      -9.895  17.801  68.036  1.00  0.00    -0.317 C  
HETATM    6  C   UNL     1     -10.401  19.252  67.877  1.00  0.00    -0.518 C  
HETATM    7  C   UNL     1     -10.857  16.814  67.331  1.00  0.00    -0.176 C  
HETATM    8  C   UNL     1     -10.535  19.733  66.438  1.00  0.00    -0.618 C  
BRANCH   7   9
HETATM    9  C   UNL     1     -10.533  15.356  67.658  1.00  0.00    -0.272 C  
BRANCH   9  10
HETATM   10  C   UNL     1     -10.259  14.429  66.458  1.00  0.00    -0.274 C  
BRANCH  10  11
HETATM   11  C   UNL     1      -9.221  13.340  66.811  1.00  0.00    -0.237 C  
HETATM   12  C   UNL     1     -10.778  11.735  68.061  1.00  0.00    -0.244 C  
HETATM   13  C   UNL     1      -9.486  12.551  68.113  1.00  0.00    -0.214 C  
HETATM   14  C   UNL     1      -8.312  11.597  68.382  1.00  0.00    -0.157 C  
ENDBRANCH  10  11
BRANCH  10  15
HETATM   15  O   UNL     1     -11.480  13.759  66.116  1.00  0.00    -0.322 OA 
HETATM   16  O   UNL     1     -12.464  14.937  64.138  1.00  0.00    -0.763 OA 
HETATM   17  O   UNL     1     -10.906  12.966  63.814  1.00  0.00    -0.401 OA 
HETATM   18  S   UNL     1     -11.929  13.654  64.556  1.00  0.00    -0.434 S  
HETATM   19  O   UNL     1     -13.222  12.698  64.640  1.00  0.00    -0.828 OA 
ENDBRANCH  10  15
ENDBRANCH   9  10
ENDBRANCH   7   9
ENDBRANCH   3   4
ENDBRANCH   2   3
TORSDOF 6
ENDMDL
MODEL       55
REMARK 921   NORMALIZED FREE ENERGY PREDICTED BY IDOCK:   -4.87 KCAL/MOL
REMARK 922        TOTAL FREE ENERGY PREDICTED BY IDOCK:   -7.34 KCAL/MOL
REMARK 923 INTER-LIGAND FREE ENERGY PREDICTED BY IDOCK:   -6.21 KCAL/MOL
REMARK 924 INTRA-LIGAND FREE ENERGY PREDICTED BY IDOCK:   -1.12 KCAL/MOL
REMARK 927      BINDING AFFINITY PREDICTED BY RF-SCORE:    0.00 PKD
ROOT
HETATM    1  C   UNL     1     -12.343  12.656  70.544  1.00  0.00    -0.350 C  
HETATM    2  C   UNL     1     -13.115  12.204  71.774  1.00  0.00    -0.457 C  
ENDROOT
BRANCH   2   3
HETATM    3  C   UNL     1     -13.117  10.679  71.888  1.00  0.00    -0.563 C  
BRANCH   3   4
HETATM    4  C   UNL     1     -12.224  10.035  70.824  1.00  0.00    -0.408 C  
HETATM    5  C   UNL     1     -10.890   9.465  71.371  1.00  0.00    -0.430 C  
HETATM    6  C   UNL     1     -11.074   8.450  72.521  1.00  0.00    -0.397 C  
HETATM    7  C   UNL     1     -10.034   8.846  70.238  1.00  0.00    -0.214 C  
HETATM    8  C   UNL     1     -11.757   7.147  72.128  1.00  0.00    -0.322 C  
BRANCH   7   9
HETATM    9  C   UNL     1      -9.626   9.881  69.190  1.00  0.00    -0.204 C  
BRANCH   9  10
HETATM   10  C   UNL     1     -10.057   9.595  67.739  1.00  0.00    -0.187 C  
BRANCH  10  11
HETATM   11  C   UNL     1     -10.691   8.192  67.605  1.00  0.00    -0.203 C  
HETATM   12  C   UNL     1      -8.531   6.820  67.482  1.00  0.00    -0.121 C  
HETATM   13  C   UNL     1      -9.866   7.152  66.814  1.00  0.00    -0.272 C  
HETATM   14  C   UNL     1     -10.679   5.856  66.669  1.00  0.00    -0.323 C  
ENDBRANCH  10  11
BRANCH  10  15
HETATM   15  O   UNL     1     -11.057  10.553  67.366  1.00  0.00    -0.303 OA 
HETATM   16  O   UNL     1      -9.878  12.622  66.595  1.00  0.00    -0.232 OA 
HETATM   17  O   UNL     1     -10.518  10.815  64.938  1.00  0.00    -0.311 OA 
HETATM   18  S   UNL     1     -10.772  11.575  66.134  1.00  0.00    -0.267 S  
HETATM   19  O   UNL     1     -12.193  12.315  65.971  1.00  0.00    -0.646 OA 
ENDBRANCH  10  15
ENDBRANCH   9  10
ENDBRANCH   7   9
ENDBRANCH   3   4
ENDBRANCH   2   3
TORSDOF 6
ENDMDL
MODEL       56
REMARK 921   NORMALIZED FREE ENERGY PREDICTED BY IDOCK:   -4.87 KCAL/MOL
REMARK 922        TOTAL FREE ENERGY PREDICTED BY IDOCK:   -7.33 KCAL/MOL
REMARK 923 INTER-LIGAND FREE ENERGY PREDICTED BY IDOCK:   -6.57 KCAL/MOL
REMARK 924 INTRA-LIGAND FREE ENERGY PREDICTED BY IDOCK:   -0.76 KCAL/MOL
REMARK 927      BINDING AFFINITY PREDICTED BY RF-SCORE:    0.00 PKD
ROOT
HETATM    1  C   UNL     1     -11.601   6.231  70.678  1.00  0.00    -0.350 C  
HETATM    2  C   UNL     1     -11.429   6.432  72.176  1.00  0.00    -0.344 C  
ENDROOT
BRANCH   2   3
HETATM    3  C   UNL     1     -11.420   7.920  72.530  1.00  0.00    -0.455 C  
BRANCH   3   4
HETATM    4  C   UNL     1     -11.542   8.795  71.280  1.00  0.00    -0.353 C  
HETATM    5  C   UNL     1     -10.312   9.701  71.012  1.00  0.00    -0.292 C  
HETATM    6  C   UNL     1      -8.978   8.927  70.928  1.00  0.00    -0.273 C  
HETATM    7  C   UNL     1     -10.515  10.566  69.744  1.00  0.00    -0.245 C  
HETATM    8  C   UNL     1      -8.854   7.984  69.738  1.00  0.00    -0.144 C  
BRANCH   7   9
HETATM    9  C   UNL     1     -11.696  11.527  69.882  1.00  0.00    -0.420 C  
BRANCH   9  10
HETATM   10  C   UNL     1     -11.579  12.869  69.134  1.00  0.00    -0.322 C  
BRANCH  10  11
HETATM   11  C   UNL     1     -11.781  12.687  67.612  1.00  0.00    -0.420 C  
HETATM   12  C   UNL     1     -10.865  14.954  66.845  1.00  0.00    -0.319 C  
HETATM   13  C   UNL     1     -12.044  13.980  66.807  1.00  0.00    -0.480 C  
HETATM   14  C   UNL     1     -12.339  13.621  65.343  1.00  0.00    -0.510 C  
ENDBRANCH  10  11
BRANCH  10  15
HETATM   15  O   UNL     1     -12.618  13.740  69.601  1.00  0.00    -0.217 OA 
HETATM   16  O   UNL     1     -12.170  14.232  72.014  1.00  0.00    -0.258 OA 
HETATM   17  O   UNL     1     -11.256  15.750  70.203  1.00  0.00    -0.288 OA 
HETATM   18  S   UNL     1     -12.276  14.873  70.716  1.00  0.00    -0.356 S  
HETATM   19  O   UNL     1     -13.658  15.697  70.797  1.00  0.00    -0.524 OA 
ENDBRANCH  10  15
ENDBRANCH   9  10
ENDBRANCH   7   9
ENDBRANCH   3   4
ENDBRANCH   2   3
TORSDOF 6
ENDMDL
MODEL       57
REMARK 921   NORMALIZED FREE ENERGY PREDICTED BY IDOCK:   -4.86 KCAL/MOL
REMARK 922        TOTAL FREE ENERGY PREDICTED BY IDOCK:   -7.33 KCAL/MOL
REMARK 923 INTER-LIGAND FREE ENERGY PREDICTED BY IDOCK:   -6.44 KCAL/MOL
REMARK 924 INTRA-LIGAND FREE ENERGY PREDICTED BY IDOCK:   -0.89 KCAL/MOL
REMARK 927      BINDING AFFINITY PREDICTED BY RF-SCORE:    0.00 PKD
ROOT
HETATM    1  C   UNL     1     -11.155   6.121  71.334  1.00  0.00    -0.346 C  
HETATM    2  C   UNL     1     -11.479   6.672  69.954  1.00  0.00    -0.414 C  
ENDROOT
BRANCH   2   3
HETATM    3  C   UNL     1     -10.200   6.925  69.153  1.00  0.00    -0.196 C  
BRANCH   3   4
HETATM    4  C   UNL     1     -10.183   8.333  68.554  1.00  0.00    -0.234 C  
HETATM    5  C   UNL     1     -10.358   9.470  69.593  1.00  0.00    -0.236 C  
HETATM    6  C   UNL     1      -9.329   9.425  70.743  1.00  0.00    -0.292 C  
HETATM    7  C   UNL     1     -10.347  10.862  68.913  1.00  0.00    -0.222 C  
HETATM    8  C   UNL     1      -7.887   9.690  70.328  1.00  0.00    -0.193 C  
BRANCH   7   9
HETATM    9  C   UNL     1     -11.505  11.036  67.931  1.00  0.00    -0.358 C  
BRANCH   9  10
HETATM   10  C   UNL     1     -11.655  12.427  67.286  1.00  0.00    -0.365 C  
BRANCH  10  11
HETATM   11  C   UNL     1     -10.723  13.463  67.956  1.00  0.00    -0.261 C  
HETATM   12  C   UNL     1     -12.130  13.930  70.045  1.00  0.00    -0.411 C  
HETATM   13  C   UNL     1     -11.418  14.529  68.831  1.00  0.00    -0.327 C  
HETATM   14  C   UNL     1     -10.377  15.546  69.324  1.00  0.00    -0.252 C  
ENDBRANCH  10  11
BRANCH  10  15
HETATM   15  O   UNL     1     -11.268  12.333  65.909  1.00  0.00    -0.311 OA 
HETATM   16  O   UNL     1     -13.356  12.369  64.529  1.00  0.00    -0.800 OA 
HETATM   17  O   UNL     1     -12.134  14.523  65.066  1.00  0.00    -0.391 OA 
HETATM   18  S   UNL     1     -12.134  13.113  64.775  1.00  0.00    -0.435 S  
HETATM   19  O   UNL     1     -11.253  12.871  63.449  1.00  0.00    -0.394 OA 
ENDBRANCH  10  15
ENDBRANCH   9  10
ENDBRANCH   7   9
ENDBRANCH   3   4
ENDBRANCH   2   3
TORSDOF 6
ENDMDL
MODEL       58
REMARK 921   NORMALIZED FREE ENERGY PREDICTED BY IDOCK:   -4.86 KCAL/MOL
REMARK 922        TOTAL FREE ENERGY PREDICTED BY IDOCK:   -7.33 KCAL/MOL
REMARK 923 INTER-LIGAND FREE ENERGY PREDICTED BY IDOCK:   -6.39 KCAL/MOL
REMARK 924 INTRA-LIGAND FREE ENERGY PREDICTED BY IDOCK:   -0.94 KCAL/MOL
REMARK 927      BINDING AFFINITY PREDICTED BY RF-SCORE:    0.00 PKD
ROOT
HETATM    1  C   UNL     1      -8.756   9.580  62.873  1.00  0.00    -0.233 C  
HETATM    2  C   UNL     1      -8.906   9.291  64.358  1.00  0.00    -0.197 C  
ENDROOT
BRANCH   2   3
HETATM    3  C   UNL     1     -10.000  10.163  64.977  1.00  0.00    -0.375 C  
BRANCH   3   4
HETATM    4  C   UNL     1      -9.408  11.272  65.849  1.00  0.00    -0.240 C  
HETATM    5  C   UNL     1     -10.025  11.366  67.269  1.00  0.00    -0.217 C  
HETATM    6  C   UNL     1      -9.959  10.043  68.063  1.00  0.00    -0.176 C  
HETATM    7  C   UNL     1      -9.389  12.518  68.086  1.00  0.00    -0.210 C  
HETATM    8  C   UNL     1      -8.554   9.584  68.435  1.00  0.00    -0.120 C  
BRANCH   7   9
HETATM    9  C   UNL     1      -9.641  13.885  67.450  1.00  0.00    -0.235 C  
BRANCH   9  10
HETATM   10  C   UNL     1     -11.103  14.370  67.421  1.00  0.00    -0.308 C  
BRANCH  10  11
HETATM   11  C   UNL     1     -11.461  15.161  68.699  1.00  0.00    -0.341 C  
HETATM   12  C   UNL     1     -12.037  13.175  70.213  1.00  0.00    -0.399 C  
HETATM   13  C   UNL     1     -12.510  14.506  69.626  1.00  0.00    -0.208 C  
HETATM   14  C   UNL     1     -12.842  15.463  70.782  1.00  0.00    -0.524 C  
ENDBRANCH  10  11
BRANCH  10  15
HETATM   15  O   UNL     1     -11.264  15.261  66.309  1.00  0.00    -0.316 OA 
HETATM   16  O   UNL     1     -10.879  13.942  64.217  1.00  0.00    -0.343 OA 
HETATM   17  O   UNL     1     -13.213  14.183  65.171  1.00  0.00    -0.743 OA 
HETATM   18  S   UNL     1     -11.896  14.704  64.918  1.00  0.00    -0.392 S  
HETATM   19  O   UNL     1     -12.044  16.052  64.050  1.00  0.00    -0.810 OA 
ENDBRANCH  10  15
ENDBRANCH   9  10
ENDBRANCH   7   9
ENDBRANCH   3   4
ENDBRANCH   2   3
TORSDOF 6
ENDMDL
MODEL       59
REMARK 921   NORMALIZED FREE ENERGY PREDICTED BY IDOCK:   -4.86 KCAL/MOL
REMARK 922        TOTAL FREE ENERGY PREDICTED BY IDOCK:   -7.33 KCAL/MOL
REMARK 923 INTER-LIGAND FREE ENERGY PREDICTED BY IDOCK:   -6.54 KCAL/MOL
REMARK 924 INTRA-LIGAND FREE ENERGY PREDICTED BY IDOCK:   -0.79 KCAL/MOL
REMARK 927      BINDING AFFINITY PREDICTED BY RF-SCORE:    0.00 PKD
ROOT
HETATM    1  C   UNL     1     -10.716  16.546  67.742  1.00  0.00    -0.329 C  
HETATM    2  C   UNL     1     -10.245  16.760  66.312  1.00  0.00    -0.341 C  
ENDROOT
BRANCH   2   3
HETATM    3  C   UNL     1     -10.706  15.616  65.408  1.00  0.00    -0.424 C  
BRANCH   3   4
HETATM    4  C   UNL     1     -10.482  14.253  66.069  1.00  0.00    -0.306 C  
HETATM    5  C   UNL     1     -11.787  13.519  66.473  1.00  0.00    -0.441 C  
HETATM    6  C   UNL     1     -12.780  13.329  65.306  1.00  0.00    -0.474 C  
HETATM    7  C   UNL     1     -11.483  12.159  67.149  1.00  0.00    -0.413 C  
HETATM    8  C   UNL     1     -12.304  12.395  64.200  1.00  0.00    -0.558 C  
BRANCH   7   9
HETATM    9  C   UNL     1     -10.696  12.322  68.450  1.00  0.00    -0.255 C  
BRANCH   9  10
HETATM   10  C   UNL     1     -11.519  12.324  69.752  1.00  0.00    -0.166 C  
BRANCH  10  11
HETATM   11  C   UNL     1     -12.460  13.548  69.825  1.00  0.00    -0.155 C  
HETATM   12  C   UNL     1     -10.790  15.241  70.779  1.00  0.00    -0.255 C  
HETATM   13  C   UNL     1     -12.154  14.569  70.944  1.00  0.00    -0.404 C  
HETATM   14  C   UNL     1     -13.240  15.655  70.957  1.00  0.00    -0.435 C  
ENDBRANCH  10  11
BRANCH  10  15
HETATM   15  O   UNL     1     -12.343  11.151  69.769  1.00  0.00    -0.303 OA 
HETATM   16  O   UNL     1     -11.346   9.544  71.409  1.00  0.00    -0.350 OA 
HETATM   17  O   UNL     1     -13.115  11.201  72.148  1.00  0.00    -0.463 OA 
HETATM   18  S   UNL     1     -12.542  10.328  71.158  1.00  0.00    -0.436 S  
HETATM   19  O   UNL     1     -13.649   9.232  70.747  1.00  0.00    -0.030 OA 
ENDBRANCH  10  15
ENDBRANCH   9  10
ENDBRANCH   7   9
ENDBRANCH   3   4
ENDBRANCH   2   3
TORSDOF 6
ENDMDL
MODEL       60
REMARK 921   NORMALIZED FREE ENERGY PREDICTED BY IDOCK:   -4.81 KCAL/MOL
REMARK 922        TOTAL FREE ENERGY PREDICTED BY IDOCK:   -7.26 KCAL/MOL
REMARK 923 INTER-LIGAND FREE ENERGY PREDICTED BY IDOCK:   -6.47 KCAL/MOL
REMARK 924 INTRA-LIGAND FREE ENERGY PREDICTED BY IDOCK:   -0.80 KCAL/MOL
REMARK 927      BINDING AFFINITY PREDICTED BY RF-SCORE:    0.00 PKD
ROOT
HETATM    1  C   UNL     1     -10.853   6.835  67.711  1.00  0.00    -0.339 C  
HETATM    2  C   UNL     1     -10.561   5.837  68.820  1.00  0.00    -0.321 C  
ENDROOT
BRANCH   2   3
HETATM    3  C   UNL     1     -11.345   6.183  70.087  1.00  0.00    -0.433 C  
BRANCH   3   4
HETATM    4  C   UNL     1     -11.437   7.697  70.295  1.00  0.00    -0.144 C  
HETATM    5  C   UNL     1     -11.873   8.120  71.721  1.00  0.00    -0.346 C  
HETATM    6  C   UNL     1     -10.984   7.535  72.841  1.00  0.00    -0.434 C  
HETATM    7  C   UNL     1     -11.959   9.660  71.851  1.00  0.00    -0.330 C  
HETATM    8  C   UNL     1      -9.550   8.047  72.859  1.00  0.00    -0.348 C  
BRANCH   7   9
HETATM    9  C   UNL     1     -13.010  10.262  70.918  1.00  0.00    -0.456 C  
BRANCH   9  10
HETATM   10  C   UNL     1     -12.897  11.773  70.640  1.00  0.00    -0.010 C  
BRANCH  10  11
HETATM   11  C   UNL     1     -12.947  12.593  71.949  1.00  0.00    -0.402 C  
HETATM   12  C   UNL     1     -13.535  14.871  70.936  1.00  0.00    -0.356 C  
HETATM   13  C   UNL     1     -12.570  14.086  71.825  1.00  0.00    -0.376 C  
HETATM   14  C   UNL     1     -12.552  14.729  73.220  1.00  0.00    -0.554 C  
ENDBRANCH  10  11
BRANCH  10  15
HETATM   15  O   UNL     1     -11.626  12.026  70.026  1.00  0.00    -0.279 OA 
HETATM   16  O   UNL     1     -11.663  10.990  67.748  1.00  0.00    -0.573 OA 
HETATM   17  O   UNL     1     -12.359  13.405  68.072  1.00  0.00    -0.199 OA 
HETATM   18  S   UNL     1     -11.544  12.271  68.420  1.00  0.00    -0.343 S  
HETATM   19  O   UNL     1      -9.999  12.678  68.219  1.00  0.00    -0.223 OA 
ENDBRANCH  10  15
ENDBRANCH   9  10
ENDBRANCH   7   9
ENDBRANCH   3   4
ENDBRANCH   2   3
TORSDOF 6
ENDMDL
MODEL       61
REMARK 921   NORMALIZED FREE ENERGY PREDICTED BY IDOCK:   -4.80 KCAL/MOL
REMARK 922        TOTAL FREE ENERGY PREDICTED BY IDOCK:   -7.24 KCAL/MOL
REMARK 923 INTER-LIGAND FREE ENERGY PREDICTED BY IDOCK:   -6.30 KCAL/MOL
REMARK 924 INTRA-LIGAND FREE ENERGY PREDICTED BY IDOCK:   -0.94 KCAL/MOL
REMARK 927      BINDING AFFINITY PREDICTED BY RF-SCORE:    0.00 PKD
ROOT
HETATM    1  C   UNL     1     -12.607  16.127  73.285  1.00  0.00    -0.623 C  
HETATM    2  C   UNL     1     -12.856  14.628  73.215  1.00  0.00    -0.580 C  
ENDROOT
BRANCH   2   3
HETATM    3  C   UNL     1     -13.463  14.238  71.866  1.00  0.00    -0.485 C  
BRANCH   3   4
HETATM    4  C   UNL     1     -12.460  13.471  71.001  1.00  0.00    -0.451 C  
HETATM    5  C   UNL     1     -12.247  14.071  69.587  1.00  0.00    -0.383 C  
HETATM    6  C   UNL     1     -11.832  15.559  69.600  1.00  0.00    -0.384 C  
HETATM    7  C   UNL     1     -11.234  13.236  68.765  1.00  0.00    -0.317 C  
HETATM    8  C   UNL     1     -10.458  15.840  70.196  1.00  0.00    -0.288 C  
BRANCH   7   9
HETATM    9  C   UNL     1     -11.723  11.808  68.524  1.00  0.00    -0.390 C  
BRANCH   9  10
HETATM   10  C   UNL     1     -10.838  10.923  67.626  1.00  0.00    -0.266 C  
BRANCH  10  11
HETATM   11  C   UNL     1     -10.899   9.440  68.058  1.00  0.00    -0.197 C  
HETATM   12  C   UNL     1      -9.351   9.585  70.094  1.00  0.00    -0.286 C  
HETATM   13  C   UNL     1      -9.638   8.891  68.762  1.00  0.00    -0.159 C  
HETATM   14  C   UNL     1      -9.809   7.386  69.019  1.00  0.00    -0.168 C  
ENDBRANCH  10  11
BRANCH  10  15
HETATM   15  O   UNL     1     -11.337  10.997  66.283  1.00  0.00    -0.141 OA 
HETATM   16  O   UNL     1     -10.406  13.072  65.239  1.00  0.00    -0.294 OA 
HETATM   17  O   UNL     1      -9.185  10.863  65.015  1.00  0.00    -0.199 OA 
HETATM   18  S   UNL     1     -10.402  11.626  65.111  1.00  0.00    -0.291 S  
HETATM   19  O   UNL     1     -11.280  11.347  63.790  1.00  0.00    -0.399 OA 
ENDBRANCH  10  15
ENDBRANCH   9  10
ENDBRANCH   7   9
ENDBRANCH   3   4
ENDBRANCH   2   3
TORSDOF 6
ENDMDL
MODEL       62
REMARK 921   NORMALIZED FREE ENERGY PREDICTED BY IDOCK:   -4.77 KCAL/MOL
REMARK 922        TOTAL FREE ENERGY PREDICTED BY IDOCK:   -7.21 KCAL/MOL
REMARK 923 INTER-LIGAND FREE ENERGY PREDICTED BY IDOCK:   -6.53 KCAL/MOL
REMARK 924 INTRA-LIGAND FREE ENERGY PREDICTED BY IDOCK:   -0.68 KCAL/MOL
REMARK 927      BINDING AFFINITY PREDICTED BY RF-SCORE:    0.00 PKD
ROOT
HETATM    1  C   UNL     1     -10.768   6.181  67.757  1.00  0.00    -0.382 C  
HETATM    2  C   UNL     1     -10.562   5.748  69.200  1.00  0.00    -0.365 C  
ENDROOT
BRANCH   2   3
HETATM    3  C   UNL     1     -11.614   6.378  70.115  1.00  0.00    -0.449 C  
BRANCH   3   4
HETATM    4  C   UNL     1     -11.422   7.892  70.231  1.00  0.00    -0.097 C  
HETATM    5  C   UNL     1     -12.007   8.512  71.526  1.00  0.00    -0.354 C  
HETATM    6  C   UNL     1     -11.475   7.861  72.821  1.00  0.00    -0.428 C  
HETATM    7  C   UNL     1     -11.790  10.046  71.565  1.00  0.00    -0.406 C  
HETATM    8  C   UNL     1      -9.991   8.080  73.091  1.00  0.00    -0.316 C  
BRANCH   7   9
HETATM    9  C   UNL     1     -12.509  10.761  70.421  1.00  0.00    -0.430 C  
BRANCH   9  10
HETATM   10  C   UNL     1     -11.957  12.143  70.022  1.00  0.00    -0.315 C  
BRANCH  10  11
HETATM   11  C   UNL     1     -11.556  12.183  68.531  1.00  0.00    -0.366 C  
HETATM   12  C   UNL     1     -10.548  14.538  68.482  1.00  0.00    -0.252 C  
HETATM   13  C   UNL     1     -11.567  13.578  67.866  1.00  0.00    -0.377 C  
HETATM   14  C   UNL     1     -11.264  13.434  66.367  1.00  0.00    -0.323 C  
ENDBRANCH  10  11
BRANCH  10  15
HETATM   15  O   UNL     1     -12.993  13.116  70.212  1.00  0.00     0.110 OA 
HETATM   16  O   UNL     1     -13.568  13.149  72.648  1.00  0.00    -0.604 OA 
HETATM   17  O   UNL     1     -11.807  14.719  71.723  1.00  0.00    -0.354 OA 
HETATM   18  S   UNL     1     -13.038  13.985  71.586  1.00  0.00    -0.378 S  
HETATM   19  O   UNL     1     -14.222  15.034  71.285  1.00  0.00    -0.448 OA 
ENDBRANCH  10  15
ENDBRANCH   9  10
ENDBRANCH   7   9
ENDBRANCH   3   4
ENDBRANCH   2   3
TORSDOF 6
ENDMDL
MODEL       63
REMARK 921   NORMALIZED FREE ENERGY PREDICTED BY IDOCK:   -4.76 KCAL/MOL
REMARK 922        TOTAL FREE ENERGY PREDICTED BY IDOCK:   -7.19 KCAL/MOL
REMARK 923 INTER-LIGAND FREE ENERGY PREDICTED BY IDOCK:   -6.10 KCAL/MOL
REMARK 924 INTRA-LIGAND FREE ENERGY PREDICTED BY IDOCK:   -1.09 KCAL/MOL
REMARK 927      BINDING AFFINITY PREDICTED BY RF-SCORE:    0.00 PKD
ROOT
HETATM    1  C   UNL     1      -8.728   8.575  65.878  1.00  0.00    -0.203 C  
HETATM    2  C   UNL     1      -9.416   7.543  66.759  1.00  0.00    -0.230 C  
ENDROOT
BRANCH   2   3
HETATM    3  C   UNL     1     -10.659   8.136  67.426  1.00  0.00    -0.325 C  
BRANCH   3   4
HETATM    4  C   UNL     1     -10.576   9.662  67.511  1.00  0.00    -0.339 C  
HETATM    5  C   UNL     1     -10.846  10.237  68.925  1.00  0.00    -0.263 C  
HETATM    6  C   UNL     1      -9.931   9.645  70.021  1.00  0.00    -0.288 C  
HETATM    7  C   UNL     1     -10.761  11.784  68.931  1.00  0.00    -0.241 C  
HETATM    8  C   UNL     1      -8.455   9.998  69.888  1.00  0.00    -0.171 C  
BRANCH   7   9
HETATM    9  C   UNL     1     -11.819  12.424  68.031  1.00  0.00    -0.376 C  
BRANCH   9  10
HETATM   10  C   UNL     1     -11.318  13.482  67.030  1.00  0.00    -0.324 C  
BRANCH  10  11
HETATM   11  C   UNL     1      -9.986  14.112  67.493  1.00  0.00    -0.236 C  
HETATM   12  C   UNL     1     -10.792  16.531  67.751  1.00  0.00    -0.304 C  
HETATM   13  C   UNL     1      -9.770  15.593  67.107  1.00  0.00    -0.226 C  
HETATM   14  C   UNL     1      -8.361  16.033  67.533  1.00  0.00    -0.177 C  
ENDBRANCH  10  11
BRANCH  10  15
HETATM   15  O   UNL     1     -11.071  12.835  65.774  1.00  0.00    -0.275 OA 
HETATM   16  O   UNL     1     -13.284  12.426  64.679  1.00  0.00    -0.822 OA 
HETATM   17  O   UNL     1     -11.995  14.557  64.212  1.00  0.00    -0.444 OA 
HETATM   18  S   UNL     1     -12.037  13.148  64.504  1.00  0.00    -0.420 S  
HETATM   19  O   UNL     1     -11.293  12.362  63.311  1.00  0.00    -0.437 OA 
ENDBRANCH  10  15
ENDBRANCH   9  10
ENDBRANCH   7   9
ENDBRANCH   3   4
ENDBRANCH   2   3
TORSDOF 6
ENDMDL
MODEL       64
REMARK 921   NORMALIZED FREE ENERGY PREDICTED BY IDOCK:   -4.76 KCAL/MOL
REMARK 922        TOTAL FREE ENERGY PREDICTED BY IDOCK:   -7.19 KCAL/MOL
REMARK 923 INTER-LIGAND FREE ENERGY PREDICTED BY IDOCK:   -6.35 KCAL/MOL
REMARK 924 INTRA-LIGAND FREE ENERGY PREDICTED BY IDOCK:   -0.84 KCAL/MOL
REMARK 927      BINDING AFFINITY PREDICTED BY RF-SCORE:    0.00 PKD
ROOT
HETATM    1  C   UNL     1     -10.780  19.502  67.238  1.00  0.00    -0.604 C  
HETATM    2  C   UNL     1      -9.553  18.633  67.012  1.00  0.00    -0.319 C  
ENDROOT
BRANCH   2   3
HETATM    3  C   UNL     1      -9.377  17.629  68.153  1.00  0.00    -0.279 C  
BRANCH   3   4
HETATM    4  C   UNL     1      -9.730  16.207  67.710  1.00  0.00    -0.229 C  
HETATM    5  C   UNL     1      -9.689  15.156  68.849  1.00  0.00    -0.224 C  
HETATM    6  C   UNL     1     -10.577  15.516  70.059  1.00  0.00    -0.337 C  
HETATM    7  C   UNL     1     -10.041  13.741  68.324  1.00  0.00    -0.239 C  
HETATM    8  C   UNL     1     -12.075  15.520  69.781  1.00  0.00    -0.372 C  
BRANCH   7   9
HETATM    9  C   UNL     1      -9.036  13.244  67.284  1.00  0.00    -0.221 C  
BRANCH   9  10
HETATM   10  C   UNL     1      -9.564  12.228  66.253  1.00  0.00    -0.242 C  
BRANCH  10  11
HETATM   11  C   UNL     1      -9.390  10.776  66.751  1.00  0.00    -0.182 C  
HETATM   12  C   UNL     1      -9.219   9.621  64.470  1.00  0.00    -0.277 C  
HETATM   13  C   UNL     1      -9.939   9.673  65.818  1.00  0.00    -0.342 C  
HETATM   14  C   UNL     1      -9.799   8.305  66.504  1.00  0.00    -0.323 C  
ENDBRANCH  10  11
BRANCH  10  15
HETATM   15  O   UNL     1     -10.969  12.453  66.073  1.00  0.00    -0.270 OA 
HETATM   16  O   UNL     1     -11.244  14.644  64.895  1.00  0.00    -0.360 OA 
HETATM   17  O   UNL     1     -11.084  12.488  63.574  1.00  0.00    -0.444 OA 
HETATM   18  S   UNL     1     -11.496  13.223  64.741  1.00  0.00    -0.344 S  
HETATM   19  O   UNL     1     -13.094  13.091  64.884  1.00  0.00    -0.745 OA 
ENDBRANCH  10  15
ENDBRANCH   9  10
ENDBRANCH   7   9
ENDBRANCH   3   4
ENDBRANCH   2   3
TORSDOF 6
ENDMDL
MODEL       65
REMARK 921   NORMALIZED FREE ENERGY PREDICTED BY IDOCK:   -4.75 KCAL/MOL
REMARK 922        TOTAL FREE ENERGY PREDICTED BY IDOCK:   -7.18 KCAL/MOL
REMARK 923 INTER-LIGAND FREE ENERGY PREDICTED BY IDOCK:   -6.39 KCAL/MOL
REMARK 924 INTRA-LIGAND FREE ENERGY PREDICTED BY IDOCK:   -0.79 KCAL/MOL
REMARK 927      BINDING AFFINITY PREDICTED BY RF-SCORE:    0.00 PKD
ROOT
HETATM    1  C   UNL     1     -13.023  15.597  73.381  1.00  0.00    -0.676 C  
HETATM    2  C   UNL     1     -13.425  14.327  72.646  1.00  0.00    -0.623 C  
ENDROOT
BRANCH   2   3
HETATM    3  C   UNL     1     -13.347  14.526  71.131  1.00  0.00    -0.415 C  
BRANCH   3   4
HETATM    4  C   UNL     1     -12.258  13.650  70.506  1.00  0.00    -0.438 C  
HETATM    5  C   UNL     1     -11.959  13.969  69.018  1.00  0.00    -0.392 C  
HETATM    6  C   UNL     1     -11.593  15.447  68.761  1.00  0.00    -0.382 C  
HETATM    7  C   UNL     1     -10.862  13.035  68.450  1.00  0.00    -0.280 C  
HETATM    8  C   UNL     1     -10.277  15.902  69.380  1.00  0.00    -0.262 C  
BRANCH   7   9
HETATM    9  C   UNL     1     -11.286  11.566  68.467  1.00  0.00    -0.337 C  
BRANCH   9  10
HETATM   10  C   UNL     1     -10.763  10.688  67.314  1.00  0.00    -0.285 C  
BRANCH  10  11
HETATM   11  C   UNL     1     -10.180  11.547  66.170  1.00  0.00    -0.272 C  
HETATM   12  C   UNL     1     -12.382  12.473  65.243  1.00  0.00    -0.469 C  
HETATM   13  C   UNL     1     -11.086  11.725  64.930  1.00  0.00    -0.345 C  
HETATM   14  C   UNL     1     -10.322  12.497  63.844  1.00  0.00    -0.436 C  
ENDBRANCH  10  11
BRANCH  10  15
HETATM   15  O   UNL     1      -9.700   9.867  67.816  1.00  0.00    -0.146 OA 
HETATM   16  O   UNL     1     -10.719   7.755  68.691  1.00  0.00    -0.159 OA 
HETATM   17  O   UNL     1      -9.920   7.897  66.291  1.00  0.00    -0.166 OA 
HETATM   18  S   UNL     1      -9.801   8.250  67.681  1.00  0.00    -0.182 S  
HETATM   19  O   UNL     1      -8.353   7.775  68.201  1.00  0.00    -0.123 OA 
ENDBRANCH  10  15
ENDBRANCH   9  10
ENDBRANCH   7   9
ENDBRANCH   3   4
ENDBRANCH   2   3
TORSDOF 6
ENDMDL
MODEL       66
REMARK 921   NORMALIZED FREE ENERGY PREDICTED BY IDOCK:   -4.74 KCAL/MOL
REMARK 922        TOTAL FREE ENERGY PREDICTED BY IDOCK:   -7.17 KCAL/MOL
REMARK 923 INTER-LIGAND FREE ENERGY PREDICTED BY IDOCK:   -6.31 KCAL/MOL
REMARK 924 INTRA-LIGAND FREE ENERGY PREDICTED BY IDOCK:   -0.86 KCAL/MOL
REMARK 927      BINDING AFFINITY PREDICTED BY RF-SCORE:    0.00 PKD
ROOT
HETATM    1  C   UNL     1     -12.763  11.845  63.412  1.00  0.00    -0.496 C  
HETATM    2  C   UNL     1     -11.646  12.869  63.551  1.00  0.00    -0.528 C  
ENDROOT
BRANCH   2   3
HETATM    3  C   UNL     1     -12.155  14.143  64.228  1.00  0.00    -0.471 C  
BRANCH   3   4
HETATM    4  C   UNL     1     -12.225  13.982  65.748  1.00  0.00    -0.475 C  
HETATM    5  C   UNL     1     -10.860  13.685  66.421  1.00  0.00    -0.290 C  
HETATM    6  C   UNL     1      -9.768  14.728  66.098  1.00  0.00    -0.338 C  
HETATM    7  C   UNL     1     -11.010  13.519  67.954  1.00  0.00    -0.275 C  
HETATM    8  C   UNL     1     -10.022  16.121  66.660  1.00  0.00    -0.270 C  
BRANCH   7   9
HETATM    9  C   UNL     1     -11.904  12.334  68.322  1.00  0.00    -0.367 C  
BRANCH   9  10
HETATM   10  C   UNL     1     -11.298  11.291  69.281  1.00  0.00    -0.287 C  
BRANCH  10  11
HETATM   11  C   UNL     1     -12.390  10.380  69.888  1.00  0.00    -0.176 C  
HETATM   12  C   UNL     1     -13.083  11.885  71.842  1.00  0.00    -0.474 C  
HETATM   13  C   UNL     1     -12.597  10.500  71.414  1.00  0.00    -0.539 C  
HETATM   14  C   UNL     1     -13.623   9.454  71.876  1.00  0.00    -0.482 C  
ENDBRANCH  10  11
BRANCH  10  15
HETATM   15  O   UNL     1     -10.408  10.451  68.534  1.00  0.00    -0.161 OA 
HETATM   16  O   UNL     1      -8.084  11.316  68.871  1.00  0.00    -0.140 OA 
HETATM   17  O   UNL     1      -9.022   9.526  70.399  1.00  0.00    -0.237 OA 
HETATM   18  S   UNL     1      -8.916  10.150  69.107  1.00  0.00    -0.184 S  
HETATM   19  O   UNL     1      -8.365   9.057  68.060  1.00  0.00    -0.116 OA 
ENDBRANCH  10  15
ENDBRANCH   9  10
ENDBRANCH   7   9
ENDBRANCH   3   4
ENDBRANCH   2   3
TORSDOF 6
ENDMDL
MODEL       67
REMARK 921   NORMALIZED FREE ENERGY PREDICTED BY IDOCK:   -4.74 KCAL/MOL
REMARK 922        TOTAL FREE ENERGY PREDICTED BY IDOCK:   -7.17 KCAL/MOL
REMARK 923 INTER-LIGAND FREE ENERGY PREDICTED BY IDOCK:   -6.30 KCAL/MOL
REMARK 924 INTRA-LIGAND FREE ENERGY PREDICTED BY IDOCK:   -0.87 KCAL/MOL
REMARK 927      BINDING AFFINITY PREDICTED BY RF-SCORE:    0.00 PKD
ROOT
HETATM    1  C   UNL     1      -7.750   7.634  70.629  1.00  0.00    -0.088 C  
HETATM    2  C   UNL     1      -8.343   9.024  70.801  1.00  0.00    -0.228 C  
ENDROOT
BRANCH   2   3
HETATM    3  C   UNL     1      -7.892   9.953  69.672  1.00  0.00    -0.156 C  
BRANCH   3   4
HETATM    4  C   UNL     1      -9.087  10.578  68.948  1.00  0.00    -0.180 C  
HETATM    5  C   UNL     1      -9.202  10.188  67.452  1.00  0.00    -0.156 C  
HETATM    6  C   UNL     1      -9.236   8.663  67.208  1.00  0.00    -0.167 C  
HETATM    7  C   UNL     1     -10.422  10.868  66.783  1.00  0.00    -0.302 C  
HETATM    8  C   UNL     1     -10.473   7.953  67.744  1.00  0.00    -0.278 C  
BRANCH   7   9
HETATM    9  C   UNL     1     -10.310  12.393  66.791  1.00  0.00    -0.239 C  
BRANCH   9  10
HETATM   10  C   UNL     1     -11.592  13.173  67.143  1.00  0.00    -0.361 C  
BRANCH  10  11
HETATM   11  C   UNL     1     -11.402  14.028  68.416  1.00  0.00    -0.321 C  
HETATM   12  C   UNL     1     -12.077  12.265  70.149  1.00  0.00    -0.364 C  
HETATM   13  C   UNL     1     -12.319  13.675  69.609  1.00  0.00    -0.257 C  
HETATM   14  C   UNL     1     -12.092  14.684  70.746  1.00  0.00    -0.387 C  
ENDBRANCH  10  11
BRANCH  10  15
HETATM   15  O   UNL     1     -11.885  14.072  66.065  1.00  0.00    -0.355 OA 
HETATM   16  O   UNL     1     -10.817  13.153  63.996  1.00  0.00    -0.390 OA 
HETATM   17  O   UNL     1     -13.207  12.550  64.583  1.00  0.00    -0.848 OA 
HETATM   18  S   UNL     1     -12.111  13.483  64.566  1.00  0.00    -0.418 S  
HETATM   19  O   UNL     1     -12.574  14.794  63.753  1.00  0.00    -0.806 OA 
ENDBRANCH  10  15
ENDBRANCH   9  10
ENDBRANCH   7   9
ENDBRANCH   3   4
ENDBRANCH   2   3
TORSDOF 6
ENDMDL
MODEL       68
REMARK 921   NORMALIZED FREE ENERGY PREDICTED BY IDOCK:   -4.74 KCAL/MOL
REMARK 922        TOTAL FREE ENERGY PREDICTED BY IDOCK:   -7.16 KCAL/MOL
REMARK 923 INTER-LIGAND FREE ENERGY PREDICTED BY IDOCK:   -6.57 KCAL/MOL
REMARK 924 INTRA-LIGAND FREE ENERGY PREDICTED BY IDOCK:   -0.59 KCAL/MOL
REMARK 927      BINDING AFFINITY PREDICTED BY RF-SCORE:    0.00 PKD
ROOT
HETATM    1  C   UNL     1     -12.306  12.325  63.514  1.00  0.00    -0.670 C  
HETATM    2  C   UNL     1     -10.791  12.200  63.469  1.00  0.00    -0.518 C  
ENDROOT
BRANCH   2   3
HETATM    3  C   UNL     1     -10.264  11.489  64.717  1.00  0.00    -0.331 C  
BRANCH   3   4
HETATM    4  C   UNL     1     -11.212  11.666  65.906  1.00  0.00    -0.296 C  
HETATM    5  C   UNL     1     -10.610  12.471  67.087  1.00  0.00    -0.247 C  
HETATM    6  C   UNL     1     -10.081  13.865  66.682  1.00  0.00    -0.273 C  
HETATM    7  C   UNL     1     -11.617  12.596  68.257  1.00  0.00    -0.377 C  
HETATM    8  C   UNL     1     -11.148  14.853  66.229  1.00  0.00    -0.340 C  
BRANCH   7   9
HETATM    9  C   UNL     1     -11.988  11.235  68.848  1.00  0.00    -0.378 C  
BRANCH   9  10
HETATM   10  C   UNL     1     -12.008  11.139  70.386  1.00  0.00    -0.378 C  
BRANCH  10  11
HETATM   11  C   UNL     1     -13.133  12.008  70.991  1.00  0.00    -0.022 C  
HETATM   12  C   UNL     1     -11.931  14.269  70.924  1.00  0.00    -0.389 C  
HETATM   13  C   UNL     1     -12.673  13.249  71.788  1.00  0.00    -0.292 C  
HETATM   14  C   UNL     1     -13.894  13.935  72.420  1.00  0.00    -0.668 C  
ENDBRANCH  10  11
BRANCH  10  15
HETATM   15  O   UNL     1     -12.276   9.778  70.751  1.00  0.00    -0.286 OA 
HETATM   16  O   UNL     1     -10.658   8.326  69.512  1.00  0.00    -0.227 OA 
HETATM   17  O   UNL     1     -10.098   9.185  71.829  1.00  0.00    -0.329 OA 
HETATM   18  S   UNL     1     -11.048   8.717  70.854  1.00  0.00    -0.282 S  
HETATM   19  O   UNL     1     -11.779   7.410  71.446  1.00  0.00    -0.268 OA 
ENDBRANCH  10  15
ENDBRANCH   9  10
ENDBRANCH   7   9
ENDBRANCH   3   4
ENDBRANCH   2   3
TORSDOF 6
ENDMDL
MODEL       69
REMARK 921   NORMALIZED FREE ENERGY PREDICTED BY IDOCK:   -4.70 KCAL/MOL
REMARK 922        TOTAL FREE ENERGY PREDICTED BY IDOCK:   -7.11 KCAL/MOL
REMARK 923 INTER-LIGAND FREE ENERGY PREDICTED BY IDOCK:   -6.32 KCAL/MOL
REMARK 924 INTRA-LIGAND FREE ENERGY PREDICTED BY IDOCK:   -0.79 KCAL/MOL
REMARK 927      BINDING AFFINITY PREDICTED BY RF-SCORE:    0.00 PKD
ROOT
HETATM    1  C   UNL     1      -6.310  14.815  69.917  1.00  0.00    -0.158 C  
HETATM    2  C   UNL     1      -7.722  15.144  69.456  1.00  0.00    -0.197 C  
ENDROOT
BRANCH   2   3
HETATM    3  C   UNL     1      -7.759  15.393  67.947  1.00  0.00    -0.144 C  
BRANCH   3   4
HETATM    4  C   UNL     1      -9.006  14.777  67.307  1.00  0.00    -0.210 C  
HETATM    5  C   UNL     1     -10.339  15.441  67.741  1.00  0.00    -0.253 C  
HETATM    6  C   UNL     1     -10.380  16.966  67.502  1.00  0.00    -0.318 C  
HETATM    7  C   UNL     1     -11.555  14.757  67.068  1.00  0.00    -0.352 C  
HETATM    8  C   UNL     1     -10.358  17.390  66.039  1.00  0.00    -0.309 C  
BRANCH   7   9
HETATM    9  C   UNL     1     -11.690  13.288  67.472  1.00  0.00    -0.410 C  
BRANCH   9  10
HETATM   10  C   UNL     1     -11.200  12.248  66.447  1.00  0.00    -0.324 C  
BRANCH  10  11
HETATM   11  C   UNL     1     -10.888  10.893  67.122  1.00  0.00    -0.337 C  
HETATM   12  C   UNL     1      -8.739  10.330  65.847  1.00  0.00    -0.169 C  
HETATM   13  C   UNL     1     -10.137   9.862  66.251  1.00  0.00    -0.311 C  
HETATM   14  C   UNL     1     -10.010   8.537  67.019  1.00  0.00    -0.318 C  
ENDBRANCH  10  11
BRANCH  10  15
HETATM   15  O   UNL     1     -12.249  12.020  65.497  1.00  0.00    -0.483 OA 
HETATM   16  O   UNL     1     -12.232  13.925  63.874  1.00  0.00    -0.591 OA 
HETATM   17  O   UNL     1     -10.897  11.824  63.401  1.00  0.00    -0.391 OA 
HETATM   18  S   UNL     1     -12.050  12.487  63.952  1.00  0.00    -0.538 S  
HETATM   19  O   UNL     1     -13.365  11.886  63.244  1.00  0.00    -0.507 OA 
ENDBRANCH  10  15
ENDBRANCH   9  10
ENDBRANCH   7   9
ENDBRANCH   3   4
ENDBRANCH   2   3
TORSDOF 6
ENDMDL
MODEL       70
REMARK 921   NORMALIZED FREE ENERGY PREDICTED BY IDOCK:   -4.68 KCAL/MOL
REMARK 922        TOTAL FREE ENERGY PREDICTED BY IDOCK:   -7.08 KCAL/MOL
REMARK 923 INTER-LIGAND FREE ENERGY PREDICTED BY IDOCK:   -6.29 KCAL/MOL
REMARK 924 INTRA-LIGAND FREE ENERGY PREDICTED BY IDOCK:   -0.79 KCAL/MOL
REMARK 927      BINDING AFFINITY PREDICTED BY RF-SCORE:    0.00 PKD
ROOT
HETATM    1  C   UNL     1     -10.748   6.903  67.202  1.00  0.00    -0.436 C  
HETATM    2  C   UNL     1     -10.374   8.288  66.696  1.00  0.00    -0.293 C  
ENDROOT
BRANCH   2   3
HETATM    3  C   UNL     1     -10.529   9.334  67.801  1.00  0.00    -0.313 C  
BRANCH   3   4
HETATM    4  C   UNL     1     -10.339  10.753  67.261  1.00  0.00    -0.262 C  
HETATM    5  C   UNL     1      -9.049  11.457  67.758  1.00  0.00    -0.158 C  
HETATM    6  C   UNL     1      -7.758  10.659  67.474  1.00  0.00    -0.101 C  
HETATM    7  C   UNL     1      -8.933  12.891  67.185  1.00  0.00    -0.219 C  
HETATM    8  C   UNL     1      -7.404  10.507  66.000  1.00  0.00    -0.137 C  
BRANCH   7   9
HETATM    9  C   UNL     1     -10.081  13.792  67.642  1.00  0.00    -0.242 C  
BRANCH   9  10
HETATM   10  C   UNL     1     -10.790  14.609  66.545  1.00  0.00    -0.315 C  
BRANCH  10  11
HETATM   11  C   UNL     1     -10.041  15.929  66.250  1.00  0.00    -0.317 C  
HETATM   12  C   UNL     1     -10.743  17.227  68.345  1.00  0.00    -0.332 C  
HETATM   13  C   UNL     1     -10.689  17.212  66.817  1.00  0.00    -0.097 C  
HETATM   14  C   UNL     1      -9.896  18.439  66.341  1.00  0.00    -0.369 C  
ENDBRANCH  10  11
BRANCH  10  15
HETATM   15  O   UNL     1     -10.790  13.839  65.335  1.00  0.00    -0.293 OA 
HETATM   16  O   UNL     1     -13.038  12.760  65.120  1.00  0.00    -0.750 OA 
HETATM   17  O   UNL     1     -12.595  15.022  64.071  1.00  0.00    -0.817 OA 
HETATM   18  S   UNL     1     -12.157  13.709  64.464  1.00  0.00    -0.419 S  
HETATM   19  O   UNL     1     -11.649  12.930  63.150  1.00  0.00    -0.422 OA 
ENDBRANCH  10  15
ENDBRANCH   9  10
ENDBRANCH   7   9
ENDBRANCH   3   4
ENDBRANCH   2   3
TORSDOF 6
ENDMDL
MODEL       71
REMARK 921   NORMALIZED FREE ENERGY PREDICTED BY IDOCK:   -4.65 KCAL/MOL
REMARK 922        TOTAL FREE ENERGY PREDICTED BY IDOCK:   -7.04 KCAL/MOL
REMARK 923 INTER-LIGAND FREE ENERGY PREDICTED BY IDOCK:   -6.08 KCAL/MOL
REMARK 924 INTRA-LIGAND FREE ENERGY PREDICTED BY IDOCK:   -0.97 KCAL/MOL
REMARK 927      BINDING AFFINITY PREDICTED BY RF-SCORE:    0.00 PKD
ROOT
HETATM    1  C   UNL     1      -8.760   7.262  65.847  1.00  0.00    -0.150 C  
HETATM    2  C   UNL     1      -9.532   7.518  67.132  1.00  0.00    -0.194 C  
ENDROOT
BRANCH   2   3
HETATM    3  C   UNL     1     -10.487   8.702  66.969  1.00  0.00    -0.354 C  
BRANCH   3   4
HETATM    4  C   UNL     1      -9.727  10.028  66.881  1.00  0.00    -0.237 C  
HETATM    5  C   UNL     1      -9.802  10.892  68.166  1.00  0.00    -0.187 C  
HETATM    6  C   UNL     1      -9.333  10.154  69.439  1.00  0.00    -0.235 C  
HETATM    7  C   UNL     1      -9.025  12.222  67.998  1.00  0.00    -0.190 C  
HETATM    8  C   UNL     1      -7.853   9.796  69.469  1.00  0.00    -0.128 C  
BRANCH   7   9
HETATM    9  C   UNL     1      -9.613  13.099  66.891  1.00  0.00    -0.248 C  
BRANCH   9  10
HETATM   10  C   UNL     1     -10.966  13.770  67.194  1.00  0.00    -0.290 C  
BRANCH  10  11
HETATM   11  C   UNL     1     -10.871  14.703  68.422  1.00  0.00    -0.250 C  
HETATM   12  C   UNL     1     -11.992  13.168  70.141  1.00  0.00    -0.381 C  
HETATM   13  C   UNL     1     -11.990  14.546  69.477  1.00  0.00    -0.363 C  
HETATM   14  C   UNL     1     -11.821  15.616  70.566  1.00  0.00    -0.402 C  
ENDBRANCH  10  11
BRANCH  10  15
HETATM   15  O   UNL     1     -11.332  14.580  66.069  1.00  0.00    -0.333 OA 
HETATM   16  O   UNL     1     -11.201  13.145  64.023  1.00  0.00    -0.382 OA 
HETATM   17  O   UNL     1     -13.376  13.358  65.304  1.00  0.00    -0.554 OA 
HETATM   18  S   UNL     1     -12.137  13.912  64.825  1.00  0.00    -0.433 S  
HETATM   19  O   UNL     1     -12.475  15.195  63.912  1.00  0.00    -0.768 OA 
ENDBRANCH  10  15
ENDBRANCH   9  10
ENDBRANCH   7   9
ENDBRANCH   3   4
ENDBRANCH   2   3
TORSDOF 6
ENDMDL
MODEL       72
REMARK 921   NORMALIZED FREE ENERGY PREDICTED BY IDOCK:   -4.65 KCAL/MOL
REMARK 922        TOTAL FREE ENERGY PREDICTED BY IDOCK:   -7.04 KCAL/MOL
REMARK 923 INTER-LIGAND FREE ENERGY PREDICTED BY IDOCK:   -6.32 KCAL/MOL
REMARK 924 INTRA-LIGAND FREE ENERGY PREDICTED BY IDOCK:   -0.72 KCAL/MOL
REMARK 927      BINDING AFFINITY PREDICTED BY RF-SCORE:    0.00 PKD
ROOT
HETATM    1  C   UNL     1     -12.090  13.493  63.976  1.00  0.00    -0.494 C  
HETATM    2  C   UNL     1     -12.583  13.878  65.363  1.00  0.00    -0.538 C  
ENDROOT
BRANCH   2   3
HETATM    3  C   UNL     1     -11.841  13.090  66.444  1.00  0.00    -0.465 C  
BRANCH   3   4
HETATM    4  C   UNL     1     -10.594  13.836  66.926  1.00  0.00    -0.276 C  
HETATM    5  C   UNL     1     -10.886  15.210  67.581  1.00  0.00    -0.295 C  
HETATM    6  C   UNL     1     -11.885  15.138  68.756  1.00  0.00    -0.329 C  
HETATM    7  C   UNL     1      -9.579  15.911  68.028  1.00  0.00    -0.211 C  
HETATM    8  C   UNL     1     -11.387  14.381  69.981  1.00  0.00    -0.253 C  
BRANCH   7   9
HETATM    9  C   UNL     1      -8.656  16.219  66.848  1.00  0.00    -0.247 C  
BRANCH   9  10
HETATM   10  C   UNL     1      -8.162  17.674  66.726  1.00  0.00    -0.243 C  
BRANCH  10  11
HETATM   11  C   UNL     1      -6.837  17.756  65.934  1.00  0.00    -0.290 C  
HETATM   12  C   UNL     1      -6.091  20.083  66.702  1.00  0.00    -0.192 C  
HETATM   13  C   UNL     1      -6.391  19.173  65.510  1.00  0.00    -0.290 C  
HETATM   14  C   UNL     1      -5.131  19.074  64.636  1.00  0.00    -0.215 C  
ENDBRANCH  10  11
BRANCH  10  15
HETATM   15  O   UNL     1      -9.142  18.425  65.998  1.00  0.00    -0.501 OA 
HETATM   16  O   UNL     1     -11.091  18.810  67.520  1.00  0.00    -0.326 OA 
HETATM   17  O   UNL     1      -9.211  20.504  67.388  1.00  0.00    -0.376 OA 
HETATM   18  S   UNL     1     -10.062  19.516  66.778  1.00  0.00    -0.453 S  
HETATM   19  O   UNL     1     -10.861  20.214  65.567  1.00  0.00    -0.323 OA 
ENDBRANCH  10  15
ENDBRANCH   9  10
ENDBRANCH   7   9
ENDBRANCH   3   4
ENDBRANCH   2   3
TORSDOF 6
ENDMDL
MODEL       73
REMARK 921   NORMALIZED FREE ENERGY PREDICTED BY IDOCK:   -4.63 KCAL/MOL
REMARK 922        TOTAL FREE ENERGY PREDICTED BY IDOCK:   -7.01 KCAL/MOL
REMARK 923 INTER-LIGAND FREE ENERGY PREDICTED BY IDOCK:   -5.77 KCAL/MOL
REMARK 924 INTRA-LIGAND FREE ENERGY PREDICTED BY IDOCK:   -1.25 KCAL/MOL
REMARK 927      BINDING AFFINITY PREDICTED BY RF-SCORE:    0.00 PKD
ROOT
HETATM    1  C   UNL     1     -11.489  12.667  63.407  1.00  0.00    -0.499 C  
HETATM    2  C   UNL     1     -12.554  12.693  64.492  1.00  0.00    -0.491 C  
ENDROOT
BRANCH   2   3
HETATM    3  C   UNL     1     -12.435  13.957  65.345  1.00  0.00    -0.528 C  
BRANCH   3   4
HETATM    4  C   UNL     1     -12.220  13.619  66.823  1.00  0.00    -0.416 C  
HETATM    5  C   UNL     1     -10.820  13.036  67.147  1.00  0.00    -0.278 C  
HETATM    6  C   UNL     1      -9.652  13.934  66.685  1.00  0.00    -0.297 C  
HETATM    7  C   UNL     1     -10.682  12.704  68.653  1.00  0.00    -0.269 C  
HETATM    8  C   UNL     1      -9.537  15.268  67.412  1.00  0.00    -0.207 C  
BRANCH   7   9
HETATM    9  C   UNL     1     -11.675  11.631  69.102  1.00  0.00    -0.390 C  
BRANCH   9  10
HETATM   10  C   UNL     1     -11.128  10.196  69.220  1.00  0.00    -0.225 C  
BRANCH  10  11
HETATM   11  C   UNL     1      -9.673  10.103  68.709  1.00  0.00    -0.174 C  
HETATM   12  C   UNL     1     -10.173   9.444  66.284  1.00  0.00    -0.284 C  
HETATM   13  C   UNL     1      -9.421   9.091  67.568  1.00  0.00    -0.168 C  
HETATM   14  C   UNL     1      -7.918   9.032  67.258  1.00  0.00    -0.099 C  
ENDBRANCH  10  11
BRANCH  10  15
HETATM   15  O   UNL     1     -11.119   9.827  70.605  1.00  0.00    -0.279 OA 
HETATM   16  O   UNL     1     -13.445   9.145  71.226  1.00  0.00    -0.319 OA 
HETATM   17  O   UNL     1     -11.776   7.421  70.415  1.00  0.00    -0.237 OA 
HETATM   18  S   UNL     1     -12.091   8.632  71.126  1.00  0.00    -0.220 S  
HETATM   19  O   UNL     1     -11.623   8.456  72.657  1.00  0.00    -0.385 OA 
ENDBRANCH  10  15
ENDBRANCH   9  10
ENDBRANCH   7   9
ENDBRANCH   3   4
ENDBRANCH   2   3
TORSDOF 6
ENDMDL
MODEL       74
REMARK 921   NORMALIZED FREE ENERGY PREDICTED BY IDOCK:   -4.62 KCAL/MOL
REMARK 922        TOTAL FREE ENERGY PREDICTED BY IDOCK:   -7.00 KCAL/MOL
REMARK 923 INTER-LIGAND FREE ENERGY PREDICTED BY IDOCK:   -6.45 KCAL/MOL
REMARK 924 INTRA-LIGAND FREE ENERGY PREDICTED BY IDOCK:   -0.55 KCAL/MOL
REMARK 927      BINDING AFFINITY PREDICTED BY RF-SCORE:    0.00 PKD
ROOT
HETATM    1  C   UNL     1      -6.554   9.367  67.555  1.00  0.00    -0.064 C  
HETATM    2  C   UNL     1      -6.669   9.010  66.081  1.00  0.00    -0.070 C  
ENDROOT
BRANCH   2   3
HETATM    3  C   UNL     1      -7.688   9.910  65.379  1.00  0.00    -0.130 C  
BRANCH   3   4
HETATM    4  C   UNL     1      -8.505  10.724  66.385  1.00  0.00    -0.158 C  
HETATM    5  C   UNL     1     -10.032  10.462  66.327  1.00  0.00    -0.283 C  
HETATM    6  C   UNL     1     -10.413   8.974  66.492  1.00  0.00    -0.192 C  
HETATM    7  C   UNL     1     -10.793  11.330  67.360  1.00  0.00    -0.311 C  
HETATM    8  C   UNL     1     -10.111   8.379  67.861  1.00  0.00    -0.254 C  
BRANCH   7   9
HETATM    9  C   UNL     1     -10.635  12.826  67.086  1.00  0.00    -0.249 C  
BRANCH   9  10
HETATM   10  C   UNL     1     -11.856  13.713  67.397  1.00  0.00    -0.393 C  
BRANCH  10  11
HETATM   11  C   UNL     1     -11.541  14.737  68.511  1.00  0.00    -0.348 C  
HETATM   12  C   UNL     1     -12.202  13.303  70.529  1.00  0.00    -0.416 C  
HETATM   13  C   UNL     1     -12.400  14.627  69.791  1.00  0.00    -0.306 C  
HETATM   14  C   UNL     1     -12.049  15.780  70.744  1.00  0.00    -0.448 C  
ENDBRANCH  10  11
BRANCH  10  15
HETATM   15  O   UNL     1     -12.189  14.455  66.217  1.00  0.00    -0.412 OA 
HETATM   16  O   UNL     1     -10.683  13.673  64.376  1.00  0.00    -0.410 OA 
HETATM   17  O   UNL     1     -12.945  12.588  64.733  1.00  0.00    -0.827 OA 
HETATM   18  S   UNL     1     -12.082  13.739  64.760  1.00  0.00    -0.424 S  
HETATM   19  O   UNL     1     -12.702  14.861  63.785  1.00  0.00    -0.754 OA 
ENDBRANCH  10  15
ENDBRANCH   9  10
ENDBRANCH   7   9
ENDBRANCH   3   4
ENDBRANCH   2   3
TORSDOF 6
ENDMDL
MODEL       75
REMARK 921   NORMALIZED FREE ENERGY PREDICTED BY IDOCK:   -4.61 KCAL/MOL
REMARK 922        TOTAL FREE ENERGY PREDICTED BY IDOCK:   -6.98 KCAL/MOL
REMARK 923 INTER-LIGAND FREE ENERGY PREDICTED BY IDOCK:   -6.22 KCAL/MOL
REMARK 924 INTRA-LIGAND FREE ENERGY PREDICTED BY IDOCK:   -0.77 KCAL/MOL
REMARK 927      BINDING AFFINITY PREDICTED BY RF-SCORE:    0.00 PKD
ROOT
HETATM    1  C   UNL     1      -6.343   9.494  70.734  1.00  0.00    -0.091 C  
HETATM    2  C   UNL     1      -7.589  10.074  70.083  1.00  0.00    -0.168 C  
ENDROOT
BRANCH   2   3
HETATM    3  C   UNL     1      -8.841   9.315  70.526  1.00  0.00    -0.285 C  
BRANCH   3   4
HETATM    4  C   UNL     1     -10.099   9.863  69.848  1.00  0.00    -0.297 C  
HETATM    5  C   UNL     1      -9.957  10.078  68.319  1.00  0.00    -0.173 C  
HETATM    6  C   UNL     1      -9.510   8.813  67.553  1.00  0.00    -0.173 C  
HETATM    7  C   UNL     1     -11.260  10.647  67.705  1.00  0.00    -0.383 C  
HETATM    8  C   UNL     1     -10.519   7.672  67.549  1.00  0.00    -0.336 C  
BRANCH   7   9
HETATM    9  C   UNL     1     -11.613  12.023  68.271  1.00  0.00    -0.394 C  
BRANCH   9  10
HETATM   10  C   UNL     1     -11.513  13.211  67.296  1.00  0.00    -0.331 C  
BRANCH  10  11
HETATM   11  C   UNL     1     -10.448  14.232  67.756  1.00  0.00    -0.245 C  
HETATM   12  C   UNL     1     -11.899  15.569  69.390  1.00  0.00    -0.392 C  
HETATM   13  C   UNL     1     -10.980  15.622  68.169  1.00  0.00    -0.314 C  
HETATM   14  C   UNL     1      -9.797  16.551  68.483  1.00  0.00    -0.243 C  
ENDBRANCH  10  11
BRANCH  10  15
HETATM   15  O   UNL     1     -11.102  12.713  66.015  1.00  0.00    -0.271 OA 
HETATM   16  O   UNL     1     -13.162  12.366  64.637  1.00  0.00    -0.822 OA 
HETATM   17  O   UNL     1     -11.915  14.570  64.549  1.00  0.00    -0.440 OA 
HETATM   18  S   UNL     1     -11.933  13.137  64.683  1.00  0.00    -0.415 S  
HETATM   19  O   UNL     1     -11.031  12.507  63.507  1.00  0.00    -0.445 OA 
ENDBRANCH  10  15
ENDBRANCH   9  10
ENDBRANCH   7   9
ENDBRANCH   3   4
ENDBRANCH   2   3
TORSDOF 6
ENDMDL
MODEL       76
REMARK 921   NORMALIZED FREE ENERGY PREDICTED BY IDOCK:   -4.58 KCAL/MOL
REMARK 922        TOTAL FREE ENERGY PREDICTED BY IDOCK:   -6.95 KCAL/MOL
REMARK 923 INTER-LIGAND FREE ENERGY PREDICTED BY IDOCK:   -6.20 KCAL/MOL
REMARK 924 INTRA-LIGAND FREE ENERGY PREDICTED BY IDOCK:   -0.75 KCAL/MOL
REMARK 927      BINDING AFFINITY PREDICTED BY RF-SCORE:    0.00 PKD
ROOT
HETATM    1  C   UNL     1      -8.515   9.917  67.284  1.00  0.00    -0.121 C  
HETATM    2  C   UNL     1      -9.703   9.436  66.465  1.00  0.00    -0.299 C  
ENDROOT
BRANCH   2   3
HETATM    3  C   UNL     1      -9.896  10.304  65.220  1.00  0.00    -0.372 C  
BRANCH   3   4
HETATM    4  C   UNL     1     -10.249  11.746  65.591  1.00  0.00    -0.284 C  
HETATM    5  C   UNL     1     -10.333  12.714  64.382  1.00  0.00    -0.386 C  
HETATM    6  C   UNL     1     -11.311  12.248  63.280  1.00  0.00    -0.414 C  
HETATM    7  C   UNL     1     -10.678  14.154  64.834  1.00  0.00    -0.444 C  
HETATM    8  C   UNL     1     -12.779  12.232  63.686  1.00  0.00    -0.526 C  
BRANCH   7   9
HETATM    9  C   UNL     1      -9.604  14.747  65.746  1.00  0.00    -0.289 C  
BRANCH   9  10
HETATM   10  C   UNL     1     -10.084  15.759  66.804  1.00  0.00    -0.271 C  
BRANCH  10  11
HETATM   11  C   UNL     1     -10.519  17.092  66.153  1.00  0.00    -0.274 C  
HETATM   12  C   UNL     1      -8.412  18.457  66.661  1.00  0.00    -0.283 C  
HETATM   13  C   UNL     1      -9.934  18.374  66.785  1.00  0.00    -0.374 C  
HETATM   14  C   UNL     1     -10.551  19.608  66.108  1.00  0.00    -0.584 C  
ENDBRANCH  10  11
BRANCH  10  15
HETATM   15  O   UNL     1     -11.232  15.212  67.466  1.00  0.00    -0.318 OA 
HETATM   16  O   UNL     1     -10.468  13.248  68.816  1.00  0.00    -0.232 OA 
HETATM   17  O   UNL     1     -10.561  15.559  69.850  1.00  0.00    -0.273 OA 
HETATM   18  S   UNL     1     -11.072  14.561  68.947  1.00  0.00    -0.269 S  
HETATM   19  O   UNL     1     -12.600  14.251  69.349  1.00  0.00    -0.186 OA 
ENDBRANCH  10  15
ENDBRANCH   9  10
ENDBRANCH   7   9
ENDBRANCH   3   4
ENDBRANCH   2   3
TORSDOF 6
ENDMDL
MODEL       77
REMARK 921   NORMALIZED FREE ENERGY PREDICTED BY IDOCK:   -4.57 KCAL/MOL
REMARK 922        TOTAL FREE ENERGY PREDICTED BY IDOCK:   -6.93 KCAL/MOL
REMARK 923 INTER-LIGAND FREE ENERGY PREDICTED BY IDOCK:   -5.93 KCAL/MOL
REMARK 924 INTRA-LIGAND FREE ENERGY PREDICTED BY IDOCK:   -1.00 KCAL/MOL
REMARK 927      BINDING AFFINITY PREDICTED BY RF-SCORE:    0.00 PKD
ROOT
HETATM    1  C   UNL     1      -8.306  10.154  63.970  1.00  0.00    -0.172 C  
HETATM    2  C   UNL     1      -9.487  10.405  63.046  1.00  0.00    -0.362 C  
ENDROOT
BRANCH   2   3
HETATM    3  C   UNL     1     -10.403  11.492  63.612  1.00  0.00    -0.467 C  
BRANCH   3   4
HETATM    4  C   UNL     1     -10.603  11.327  65.120  1.00  0.00    -0.343 C  
HETATM    5  C   UNL     1     -10.378  12.624  65.939  1.00  0.00    -0.295 C  
HETATM    6  C   UNL     1     -11.242  13.815  65.467  1.00  0.00    -0.303 C  
HETATM    7  C   UNL     1     -10.581  12.378  67.455  1.00  0.00    -0.237 C  
HETATM    8  C   UNL     1     -12.741  13.647  65.680  1.00  0.00    -0.505 C  
BRANCH   7   9
HETATM    9  C   UNL     1      -9.577  11.371  68.017  1.00  0.00    -0.184 C  
BRANCH   9  10
HETATM   10  C   UNL     1     -10.154  10.246  68.897  1.00  0.00    -0.204 C  
BRANCH  10  11
HETATM   11  C   UNL     1     -11.251  10.777  69.846  1.00  0.00    -0.371 C  
HETATM   12  C   UNL     1     -10.863   9.165  71.799  1.00  0.00    -0.416 C  
HETATM   13  C   UNL     1     -11.874   9.738  70.806  1.00  0.00    -0.400 C  
HETATM   14  C   UNL     1     -13.021  10.391  71.593  1.00  0.00    -0.581 C  
ENDBRANCH  10  11
BRANCH  10  15
HETATM   15  O   UNL     1     -10.766   9.271  68.041  1.00  0.00    -0.232 OA 
HETATM   16  O   UNL     1      -8.933   7.984  66.922  1.00  0.00    -0.129 OA 
HETATM   17  O   UNL     1      -9.922   7.171  69.108  1.00  0.00    -0.162 OA 
HETATM   18  S   UNL     1     -10.053   7.824  67.832  1.00  0.00    -0.195 S  
HETATM   19  O   UNL     1     -11.151   7.027  66.966  1.00  0.00    -0.373 OA 
ENDBRANCH  10  15
ENDBRANCH   9  10
ENDBRANCH   7   9
ENDBRANCH   3   4
ENDBRANCH   2   3
TORSDOF 6
ENDMDL
MODEL       78
REMARK 921   NORMALIZED FREE ENERGY PREDICTED BY IDOCK:   -4.54 KCAL/MOL
REMARK 922        TOTAL FREE ENERGY PREDICTED BY IDOCK:   -6.90 KCAL/MOL
REMARK 923 INTER-LIGAND FREE ENERGY PREDICTED BY IDOCK:   -6.25 KCAL/MOL
REMARK 924 INTRA-LIGAND FREE ENERGY PREDICTED BY IDOCK:   -0.65 KCAL/MOL
REMARK 927      BINDING AFFINITY PREDICTED BY RF-SCORE:    0.00 PKD
ROOT
HETATM    1  C   UNL     1     -12.161  15.352  72.614  1.00  0.00    -0.535 C  
HETATM    2  C   UNL     1     -13.434  14.645  72.178  1.00  0.00    -0.494 C  
ENDROOT
BRANCH   2   3
HETATM    3  C   UNL     1     -13.247  13.126  72.189  1.00  0.00    -0.561 C  
BRANCH   3   4
HETATM    4  C   UNL     1     -12.924  12.591  70.792  1.00  0.00     0.032 C  
HETATM    5  C   UNL     1     -11.964  11.374  70.782  1.00  0.00    -0.355 C  
HETATM    6  C   UNL     1     -12.451  10.191  71.648  1.00  0.00    -0.506 C  
HETATM    7  C   UNL     1     -11.670  10.898  69.337  1.00  0.00    -0.397 C  
HETATM    8  C   UNL     1     -13.720   9.509  71.152  1.00  0.00    -0.161 C  
BRANCH   7   9
HETATM    9  C   UNL     1     -10.964  11.971  68.507  1.00  0.00    -0.280 C  
BRANCH   9  10
HETATM   10  C   UNL     1     -11.070  11.834  66.977  1.00  0.00    -0.304 C  
BRANCH  10  11
HETATM   11  C   UNL     1     -11.756  13.066  66.346  1.00  0.00    -0.444 C  
HETATM   12  C   UNL     1     -11.894  12.217  63.932  1.00  0.00    -0.558 C  
HETATM   13  C   UNL     1     -11.424  13.337  64.861  1.00  0.00    -0.342 C  
HETATM   14  C   UNL     1     -12.085  14.652  64.420  1.00  0.00    -0.481 C  
ENDBRANCH  10  11
BRANCH  10  15
HETATM   15  O   UNL     1      -9.744  11.761  66.435  1.00  0.00    -0.204 OA 
HETATM   16  O   UNL     1      -8.679   9.672  67.312  1.00  0.00    -0.131 OA 
HETATM   17  O   UNL     1      -9.935   9.647  65.111  1.00  0.00    -0.263 OA 
HETATM   18  S   UNL     1      -9.100  10.311  66.078  1.00  0.00    -0.168 S  
HETATM   19  O   UNL     1      -7.720  10.721  65.358  1.00  0.00    -0.096 OA 
ENDBRANCH  10  15
ENDBRANCH   9  10
ENDBRANCH   7   9
ENDBRANCH   3   4
ENDBRANCH   2   3
TORSDOF 6
ENDMDL
MODEL       79
REMARK 921   NORMALIZED FREE ENERGY PREDICTED BY IDOCK:   -4.54 KCAL/MOL
REMARK 922        TOTAL FREE ENERGY PREDICTED BY IDOCK:   -6.89 KCAL/MOL
REMARK 923 INTER-LIGAND FREE ENERGY PREDICTED BY IDOCK:   -6.15 KCAL/MOL
REMARK 924 INTRA-LIGAND FREE ENERGY PREDICTED BY IDOCK:   -0.73 KCAL/MOL
REMARK 927      BINDING AFFINITY PREDICTED BY RF-SCORE:    0.00 PKD
ROOT
HETATM    1  C   UNL     1     -11.151   6.225  72.070  1.00  0.00    -0.313 C  
HETATM    2  C   UNL     1     -11.319   7.437  71.167  1.00  0.00    -0.291 C  
ENDROOT
BRANCH   2   3
HETATM    3  C   UNL     1     -10.836   8.710  71.865  1.00  0.00    -0.419 C  
BRANCH   3   4
HETATM    4  C   UNL     1     -10.723   9.880  70.885  1.00  0.00    -0.305 C  
HETATM    5  C   UNL     1     -12.049  10.239  70.166  1.00  0.00    -0.279 C  
HETATM    6  C   UNL     1     -13.219  10.532  71.131  1.00  0.00    -0.358 C  
HETATM    7  C   UNL     1     -11.855  11.418  69.180  1.00  0.00    -0.413 C  
HETATM    8  C   UNL     1     -13.053  11.784  71.983  1.00  0.00    -0.436 C  
BRANCH   7   9
HETATM    9  C   UNL     1     -10.872  11.079  68.059  1.00  0.00    -0.278 C  
BRANCH   9  10
HETATM   10  C   UNL     1     -10.766  12.098  66.908  1.00  0.00    -0.236 C  
BRANCH  10  11
HETATM   11  C   UNL     1     -11.741  11.756  65.759  1.00  0.00    -0.093 C  
HETATM   12  C   UNL     1     -10.061  11.790  63.826  1.00  0.00    -0.421 C  
HETATM   13  C   UNL     1     -11.381  12.335  64.373  1.00  0.00    -0.396 C  
HETATM   14  C   UNL     1     -12.501  12.008  63.374  1.00  0.00    -0.625 C  
ENDBRANCH  10  11
BRANCH  10  15
HETATM   15  O   UNL     1     -11.135  13.389  67.411  1.00  0.00    -0.266 OA 
HETATM   16  O   UNL     1      -9.083  14.441  68.385  1.00  0.00    -0.184 OA 
HETATM   17  O   UNL     1      -9.705  14.841  65.961  1.00  0.00    -0.295 OA 
HETATM   18  S   UNL     1     -10.071  14.616  67.335  1.00  0.00    -0.232 S  
HETATM   19  O   UNL     1     -10.956  15.865  67.834  1.00  0.00    -0.317 OA 
ENDBRANCH  10  15
ENDBRANCH   9  10
ENDBRANCH   7   9
ENDBRANCH   3   4
ENDBRANCH   2   3
TORSDOF 6
ENDMDL
MODEL       80
REMARK 921   NORMALIZED FREE ENERGY PREDICTED BY IDOCK:   -4.51 KCAL/MOL
REMARK 922        TOTAL FREE ENERGY PREDICTED BY IDOCK:   -6.86 KCAL/MOL
REMARK 923 INTER-LIGAND FREE ENERGY PREDICTED BY IDOCK:   -6.24 KCAL/MOL
REMARK 924 INTRA-LIGAND FREE ENERGY PREDICTED BY IDOCK:   -0.62 KCAL/MOL
REMARK 927      BINDING AFFINITY PREDICTED BY RF-SCORE:    0.00 PKD
ROOT
HETATM    1  C   UNL     1     -12.157  15.841  72.204  1.00  0.00    -0.570 C  
HETATM    2  C   UNL     1     -12.675  14.896  73.277  1.00  0.00    -0.624 C  
ENDROOT
BRANCH   2   3
HETATM    3  C   UNL     1     -13.369  13.685  72.651  1.00  0.00    -0.587 C  
BRANCH   3   4
HETATM    4  C   UNL     1     -13.326  13.743  71.122  1.00  0.00    -0.218 C  
HETATM    5  C   UNL     1     -12.094  13.043  70.492  1.00  0.00    -0.373 C  
HETATM    6  C   UNL     1     -11.930  11.569  70.922  1.00  0.00    -0.220 C  
HETATM    7  C   UNL     1     -12.110  13.156  68.947  1.00  0.00    -0.232 C  
HETATM    8  C   UNL     1     -13.024  10.629  70.432  1.00  0.00    -0.210 C  
BRANCH   7   9
HETATM    9  C   UNL     1     -12.032  14.607  68.472  1.00  0.00    -0.298 C  
BRANCH   9  10
HETATM   10  C   UNL     1     -11.398  14.842  67.087  1.00  0.00    -0.356 C  
BRANCH  10  11
HETATM   11  C   UNL     1     -10.277  15.903  67.151  1.00  0.00    -0.278 C  
HETATM   12  C   UNL     1      -8.723  14.700  68.795  1.00  0.00    -0.166 C  
HETATM   13  C   UNL     1      -9.498  15.981  68.483  1.00  0.00    -0.216 C  
HETATM   14  C   UNL     1      -8.507  17.155  68.429  1.00  0.00    -0.241 C  
ENDBRANCH  10  11
BRANCH  10  15
HETATM   15  O   UNL     1     -10.800  13.614  66.649  1.00  0.00    -0.281 OA 
HETATM   16  O   UNL     1     -12.481  12.410  65.239  1.00  0.00    -0.611 OA 
HETATM   17  O   UNL     1     -10.809  13.989  64.176  1.00  0.00    -0.204 OA 
HETATM   18  S   UNL     1     -11.166  13.021  65.180  1.00  0.00    -0.303 S  
HETATM   19  O   UNL     1     -10.157  11.772  65.058  1.00  0.00    -0.249 OA 
ENDBRANCH  10  15
ENDBRANCH   9  10
ENDBRANCH   7   9
ENDBRANCH   3   4
ENDBRANCH   2   3
TORSDOF 6
ENDMDL
MODEL       81
REMARK 921   NORMALIZED FREE ENERGY PREDICTED BY IDOCK:   -4.51 KCAL/MOL
REMARK 922        TOTAL FREE ENERGY PREDICTED BY IDOCK:   -6.86 KCAL/MOL
REMARK 923 INTER-LIGAND FREE ENERGY PREDICTED BY IDOCK:   -5.75 KCAL/MOL
REMARK 924 INTRA-LIGAND FREE ENERGY PREDICTED BY IDOCK:   -1.11 KCAL/MOL
REMARK 927      BINDING AFFINITY PREDICTED BY RF-SCORE:    0.00 PKD
ROOT
HETATM    1  C   UNL     1     -13.159  14.572  72.102  1.00  0.00    -0.438 C  
HETATM    2  C   UNL     1     -12.005  14.421  71.123  1.00  0.00    -0.383 C  
ENDROOT
BRANCH   2   3
HETATM    3  C   UNL     1     -12.250  13.254  70.165  1.00  0.00    -0.376 C  
BRANCH   3   4
HETATM    4  C   UNL     1     -12.012  13.663  68.710  1.00  0.00    -0.394 C  
HETATM    5  C   UNL     1     -10.536  13.552  68.249  1.00  0.00    -0.258 C  
HETATM    6  C   UNL     1      -9.923  12.150  68.460  1.00  0.00    -0.180 C  
HETATM    7  C   UNL     1     -10.369  13.997  66.775  1.00  0.00    -0.271 C  
HETATM    8  C   UNL     1     -10.532  11.046  67.605  1.00  0.00    -0.239 C  
BRANCH   7   9
HETATM    9  C   UNL     1     -10.743  15.465  66.568  1.00  0.00    -0.308 C  
BRANCH   9  10
HETATM   10  C   UNL     1      -9.672  16.506  66.948  1.00  0.00    -0.251 C  
BRANCH  10  11
HETATM   11  C   UNL     1      -8.246  15.941  66.763  1.00  0.00    -0.307 C  
HETATM   12  C   UNL     1      -7.652  15.621  69.235  1.00  0.00    -0.222 C  
HETATM   13  C   UNL     1      -7.246  16.248  67.901  1.00  0.00    -0.145 C  
HETATM   14  C   UNL     1      -5.853  15.726  67.514  1.00  0.00    -0.125 C  
ENDBRANCH  10  11
BRANCH  10  15
HETATM   15  O   UNL     1      -9.803  17.632  66.070  1.00  0.00    -0.478 OA 
HETATM   16  O   UNL     1     -11.160  19.368  67.256  1.00  0.00    -0.458 OA 
HETATM   17  O   UNL     1      -8.632  19.376  67.429  1.00  0.00    -0.286 OA 
HETATM   18  S   UNL     1      -9.844  19.135  66.690  1.00  0.00    -0.380 S  
HETATM   19  O   UNL     1      -9.819  20.049  65.365  1.00  0.00    -0.250 OA 
ENDBRANCH  10  15
ENDBRANCH   9  10
ENDBRANCH   7   9
ENDBRANCH   3   4
ENDBRANCH   2   3
TORSDOF 6
ENDMDL
MODEL       82
REMARK 921   NORMALIZED FREE ENERGY PREDICTED BY IDOCK:   -4.50 KCAL/MOL
REMARK 922        TOTAL FREE ENERGY PREDICTED BY IDOCK:   -6.85 KCAL/MOL
REMARK 923 INTER-LIGAND FREE ENERGY PREDICTED BY IDOCK:   -6.03 KCAL/MOL
REMARK 924 INTRA-LIGAND FREE ENERGY PREDICTED BY IDOCK:   -0.82 KCAL/MOL
REMARK 927      BINDING AFFINITY PREDICTED BY RF-SCORE:    0.00 PKD
ROOT
HETATM    1  C   UNL     1      -9.709  19.720  67.433  1.00  0.00    -0.498 C  
HETATM    2  C   UNL     1      -8.218  19.587  67.169  1.00  0.00    -0.308 C  
ENDROOT
BRANCH   2   3
HETATM    3  C   UNL     1      -7.903  18.265  66.467  1.00  0.00    -0.279 C  
BRANCH   3   4
HETATM    4  C   UNL     1      -8.756  17.120  67.018  1.00  0.00    -0.244 C  
HETATM    5  C   UNL     1      -8.025  15.755  67.085  1.00  0.00    -0.250 C  
HETATM    6  C   UNL     1      -6.704  15.797  67.885  1.00  0.00    -0.162 C  
HETATM    7  C   UNL     1      -8.953  14.644  67.636  1.00  0.00    -0.187 C  
HETATM    8  C   UNL     1      -6.862  16.066  69.376  1.00  0.00    -0.215 C  
BRANCH   7   9
HETATM    9  C   UNL     1     -10.165  14.403  66.735  1.00  0.00    -0.270 C  
BRANCH   9  10
HETATM   10  C   UNL     1     -10.151  13.111  65.896  1.00  0.00    -0.290 C  
BRANCH  10  11
HETATM   11  C   UNL     1      -9.515  11.938  66.676  1.00  0.00    -0.217 C  
HETATM   12  C   UNL     1      -8.652  10.589  64.676  1.00  0.00    -0.167 C  
HETATM   13  C   UNL     1      -9.499  10.575  65.950  1.00  0.00    -0.236 C  
HETATM   14  C   UNL     1      -8.948   9.496  66.895  1.00  0.00    -0.148 C  
ENDBRANCH  10  11
BRANCH  10  15
HETATM   15  O   UNL     1     -11.506  12.745  65.605  1.00  0.00    -0.313 OA 
HETATM   16  O   UNL     1     -12.335  14.271  63.802  1.00  0.00    -0.735 OA 
HETATM   17  O   UNL     1     -11.261  12.053  63.213  1.00  0.00    -0.386 OA 
HETATM   18  S   UNL     1     -12.064  12.873  64.082  1.00  0.00    -0.452 S  
HETATM   19  O   UNL     1     -13.525  12.206  64.200  1.00  0.00    -0.671 OA 
ENDBRANCH  10  15
ENDBRANCH   9  10
ENDBRANCH   7   9
ENDBRANCH   3   4
ENDBRANCH   2   3
TORSDOF 6
ENDMDL
MODEL       83
REMARK 921   NORMALIZED FREE ENERGY PREDICTED BY IDOCK:   -4.50 KCAL/MOL
REMARK 922        TOTAL FREE ENERGY PREDICTED BY IDOCK:   -6.84 KCAL/MOL
REMARK 923 INTER-LIGAND FREE ENERGY PREDICTED BY IDOCK:   -5.99 KCAL/MOL
REMARK 924 INTRA-LIGAND FREE ENERGY PREDICTED BY IDOCK:   -0.85 KCAL/MOL
REMARK 927      BINDING AFFINITY PREDICTED BY RF-SCORE:    0.00 PKD
ROOT
HETATM    1  C   UNL     1     -10.990  11.677  63.334  1.00  0.00    -0.442 C  
HETATM    2  C   UNL     1     -12.454  12.009  63.575  1.00  0.00    -0.654 C  
ENDROOT
BRANCH   2   3
HETATM    3  C   UNL     1     -12.603  13.039  64.697  1.00  0.00    -0.425 C  
BRANCH   3   4
HETATM    4  C   UNL     1     -11.243  13.454  65.262  1.00  0.00    -0.305 C  
HETATM    5  C   UNL     1     -11.274  13.876  66.754  1.00  0.00    -0.328 C  
HETATM    6  C   UNL     1     -11.877  12.806  67.690  1.00  0.00    -0.396 C  
HETATM    7  C   UNL     1      -9.869  14.297  67.251  1.00  0.00    -0.244 C  
HETATM    8  C   UNL     1     -11.061  11.525  67.813  1.00  0.00    -0.319 C  
BRANCH   7   9
HETATM    9  C   UNL     1      -9.332  15.517  66.501  1.00  0.00    -0.311 C  
BRANCH   9  10
HETATM   10  C   UNL     1      -8.581  16.564  67.345  1.00  0.00    -0.178 C  
BRANCH  10  11
HETATM   11  C   UNL     1      -9.559  17.539  68.039  1.00  0.00    -0.282 C  
HETATM   12  C   UNL     1      -8.995  19.647  66.697  1.00  0.00    -0.419 C  
HETATM   13  C   UNL     1      -9.117  19.019  68.086  1.00  0.00    -0.364 C  
HETATM   14  C   UNL     1     -10.132  19.831  68.905  1.00  0.00    -0.481 C  
ENDBRANCH  10  11
BRANCH  10  15
HETATM   15  O   UNL     1      -7.857  15.880  68.376  1.00  0.00    -0.137 OA 
HETATM   16  O   UNL     1      -5.812  14.879  67.335  1.00  0.00    -0.341 OA 
HETATM   17  O   UNL     1      -5.730  17.196  68.357  1.00  0.00    -0.135 OA 
HETATM   18  S   UNL     1      -6.231  15.848  68.332  1.00  0.00    -0.112 S  
HETATM   19  O   UNL     1      -5.868  15.147  69.736  1.00  0.00    -0.113 OA 
ENDBRANCH  10  15
ENDBRANCH   9  10
ENDBRANCH   7   9
ENDBRANCH   3   4
ENDBRANCH   2   3
TORSDOF 6
ENDMDL
MODEL       84
REMARK 921   NORMALIZED FREE ENERGY PREDICTED BY IDOCK:   -4.49 KCAL/MOL
REMARK 922        TOTAL FREE ENERGY PREDICTED BY IDOCK:   -6.83 KCAL/MOL
REMARK 923 INTER-LIGAND FREE ENERGY PREDICTED BY IDOCK:   -6.39 KCAL/MOL
REMARK 924 INTRA-LIGAND FREE ENERGY PREDICTED BY IDOCK:   -0.43 KCAL/MOL
REMARK 927      BINDING AFFINITY PREDICTED BY RF-SCORE:    0.00 PKD
ROOT
HETATM    1  C   UNL     1      -7.864   7.599  62.657  1.00  0.00    -0.131 C  
HETATM    2  C   UNL     1      -8.405   8.718  63.533  1.00  0.00    -0.147 C  
ENDROOT
BRANCH   2   3
HETATM    3  C   UNL     1      -7.948   8.547  64.983  1.00  0.00    -0.131 C  
BRANCH   3   4
HETATM    4  C   UNL     1      -8.521   9.641  65.886  1.00  0.00    -0.136 C  
HETATM    5  C   UNL     1     -10.015   9.447  66.253  1.00  0.00    -0.353 C  
HETATM    6  C   UNL     1     -10.323   8.079  66.902  1.00  0.00    -0.408 C  
HETATM    7  C   UNL     1     -10.529  10.598  67.153  1.00  0.00    -0.295 C  
HETATM    8  C   UNL     1      -9.701   7.864  68.276  1.00  0.00    -0.172 C  
BRANCH   7   9
HETATM    9  C   UNL     1     -10.464  11.955  66.451  1.00  0.00    -0.258 C  
BRANCH   9  10
HETATM   10  C   UNL     1     -11.602  12.945  66.764  1.00  0.00    -0.360 C  
BRANCH  10  11
HETATM   11  C   UNL     1     -11.210  13.915  67.902  1.00  0.00    -0.302 C  
HETATM   12  C   UNL     1     -12.073  12.533  69.879  1.00  0.00    -0.322 C  
HETATM   13  C   UNL     1     -12.110  13.880  69.157  1.00  0.00    -0.377 C  
HETATM   14  C   UNL     1     -11.664  14.976  70.138  1.00  0.00    -0.340 C  
ENDBRANCH  10  11
BRANCH  10  15
HETATM   15  O   UNL     1     -11.848  13.737  65.594  1.00  0.00    -0.336 OA 
HETATM   16  O   UNL     1     -10.896  12.510  63.631  1.00  0.00    -0.423 OA 
HETATM   17  O   UNL     1     -13.312  12.166  64.311  1.00  0.00    -0.761 OA 
HETATM   18  S   UNL     1     -12.149  13.002  64.175  1.00  0.00    -0.439 S  
HETATM   19  O   UNL     1     -12.528  14.245  63.224  1.00  0.00    -0.705 OA 
ENDBRANCH  10  15
ENDBRANCH   9  10
ENDBRANCH   7   9
ENDBRANCH   3   4
ENDBRANCH   2   3
TORSDOF 6
ENDMDL
MODEL       85
REMARK 921   NORMALIZED FREE ENERGY PREDICTED BY IDOCK:   -4.49 KCAL/MOL
REMARK 922        TOTAL FREE ENERGY PREDICTED BY IDOCK:   -6.82 KCAL/MOL
REMARK 923 INTER-LIGAND FREE ENERGY PREDICTED BY IDOCK:   -5.79 KCAL/MOL
REMARK 924 INTRA-LIGAND FREE ENERGY PREDICTED BY IDOCK:   -1.03 KCAL/MOL
REMARK 927      BINDING AFFINITY PREDICTED BY RF-SCORE:    0.00 PKD
ROOT
HETATM    1  C   UNL     1     -11.946   7.045  71.681  1.00  0.00    -0.365 C  
HETATM    2  C   UNL     1     -12.153   8.539  71.486  1.00  0.00    -0.351 C  
ENDROOT
BRANCH   2   3
HETATM    3  C   UNL     1     -10.817   9.252  71.267  1.00  0.00    -0.417 C  
BRANCH   3   4
HETATM    4  C   UNL     1     -10.889  10.232  70.094  1.00  0.00    -0.362 C  
HETATM    5  C   UNL     1      -9.652  10.201  69.159  1.00  0.00    -0.222 C  
HETATM    6  C   UNL     1      -9.336   8.799  68.594  1.00  0.00    -0.141 C  
HETATM    7  C   UNL     1      -9.789  11.228  68.007  1.00  0.00    -0.186 C  
HETATM    8  C   UNL     1     -10.381   8.238  67.639  1.00  0.00    -0.313 C  
BRANCH   7   9
HETATM    9  C   UNL     1      -9.866  12.666  68.521  1.00  0.00    -0.152 C  
BRANCH   9  10
HETATM   10  C   UNL     1     -11.060  13.506  68.029  1.00  0.00    -0.258 C  
BRANCH  10  11
HETATM   11  C   UNL     1     -11.879  12.752  66.958  1.00  0.00    -0.428 C  
HETATM   12  C   UNL     1     -10.367  13.215  64.942  1.00  0.00    -0.352 C  
HETATM   13  C   UNL     1     -11.781  13.306  65.519  1.00  0.00    -0.376 C  
HETATM   14  C   UNL     1     -12.737  12.527  64.603  1.00  0.00    -0.434 C  
ENDBRANCH  10  11
BRANCH  10  15
HETATM   15  O   UNL     1     -11.932  13.748  69.141  1.00  0.00    -0.331 OA 
HETATM   16  O   UNL     1     -10.673  15.125  70.809  1.00  0.00    -0.226 OA 
HETATM   17  O   UNL     1     -12.089  16.243  69.031  1.00  0.00    -0.148 OA 
HETATM   18  S   UNL     1     -11.838  15.159  69.944  1.00  0.00    -0.354 S  
HETATM   19  O   UNL     1     -13.084  15.055  70.960  1.00  0.00    -0.370 OA 
ENDBRANCH  10  15
ENDBRANCH   9  10
ENDBRANCH   7   9
ENDBRANCH   3   4
ENDBRANCH   2   3
TORSDOF 6
ENDMDL
MODEL       86
REMARK 921   NORMALIZED FREE ENERGY PREDICTED BY IDOCK:   -4.46 KCAL/MOL
REMARK 922        TOTAL FREE ENERGY PREDICTED BY IDOCK:   -6.79 KCAL/MOL
REMARK 923 INTER-LIGAND FREE ENERGY PREDICTED BY IDOCK:   -6.75 KCAL/MOL
REMARK 924 INTRA-LIGAND FREE ENERGY PREDICTED BY IDOCK:   -0.04 KCAL/MOL
REMARK 927      BINDING AFFINITY PREDICTED BY RF-SCORE:    0.00 PKD
ROOT
HETATM    1  C   UNL     1     -13.138   9.548  72.238  1.00  0.00    -0.492 C  
HETATM    2  C   UNL     1     -12.972  10.491  71.057  1.00  0.00    -0.475 C  
ENDROOT
BRANCH   2   3
HETATM    3  C   UNL     1     -11.658  10.219  70.321  1.00  0.00    -0.396 C  
BRANCH   3   4
HETATM    4  C   UNL     1     -11.584  10.992  69.002  1.00  0.00    -0.392 C  
HETATM    5  C   UNL     1     -10.203  10.925  68.301  1.00  0.00    -0.191 C  
HETATM    6  C   UNL     1      -9.707   9.486  68.042  1.00  0.00    -0.168 C  
HETATM    7  C   UNL     1     -10.199  11.741  66.984  1.00  0.00    -0.240 C  
HETATM    8  C   UNL     1     -10.532   8.690  67.039  1.00  0.00    -0.354 C  
BRANCH   7   9
HETATM    9  C   UNL     1     -10.453  13.230  67.225  1.00  0.00    -0.247 C  
BRANCH   9  10
HETATM   10  C   UNL     1     -11.920  13.694  67.162  1.00  0.00    -0.393 C  
BRANCH  10  11
HETATM   11  C   UNL     1     -12.378  14.304  68.506  1.00  0.00    -0.034 C  
HETATM   12  C   UNL     1     -10.901  16.397  68.484  1.00  0.00    -0.339 C  
HETATM   13  C   UNL     1     -11.325  15.148  69.258  1.00  0.00    -0.313 C  
HETATM   14  C   UNL     1     -11.891  15.580  70.620  1.00  0.00    -0.400 C  
ENDBRANCH  10  11
BRANCH  10  15
HETATM   15  O   UNL     1     -12.028  14.722  66.168  1.00  0.00    -0.281 OA 
HETATM   16  O   UNL     1     -10.360  14.219  64.371  1.00  0.00    -0.240 OA 
HETATM   17  O   UNL     1     -12.733  13.346  64.201  1.00  0.00    -0.651 OA 
HETATM   18  S   UNL     1     -11.787  14.354  64.602  1.00  0.00    -0.455 S  
HETATM   19  O   UNL     1     -12.175  15.734  63.867  1.00  0.00    -0.690 OA 
ENDBRANCH  10  15
ENDBRANCH   9  10
ENDBRANCH   7   9
ENDBRANCH   3   4
ENDBRANCH   2   3
TORSDOF 6
ENDMDL
MODEL       87
REMARK 921   NORMALIZED FREE ENERGY PREDICTED BY IDOCK:   -4.46 KCAL/MOL
REMARK 922        TOTAL FREE ENERGY PREDICTED BY IDOCK:   -6.79 KCAL/MOL
REMARK 923 INTER-LIGAND FREE ENERGY PREDICTED BY IDOCK:   -5.76 KCAL/MOL
REMARK 924 INTRA-LIGAND FREE ENERGY PREDICTED BY IDOCK:   -1.03 KCAL/MOL
REMARK 927      BINDING AFFINITY PREDICTED BY RF-SCORE:    0.00 PKD
ROOT
HETATM    1  C   UNL     1     -10.096  19.266  68.886  1.00  0.00    -0.434 C  
HETATM    2  C   UNL     1     -10.462  19.926  67.565  1.00  0.00    -0.535 C  
ENDROOT
BRANCH   2   3
HETATM    3  C   UNL     1     -10.343  18.934  66.407  1.00  0.00    -0.503 C  
BRANCH   3   4
HETATM    4  C   UNL     1      -9.935  17.543  66.899  1.00  0.00    -0.313 C  
HETATM    5  C   UNL     1      -8.675  16.965  66.205  1.00  0.00    -0.280 C  
HETATM    6  C   UNL     1      -7.439  17.887  66.294  1.00  0.00    -0.321 C  
HETATM    7  C   UNL     1      -8.334  15.553  66.741  1.00  0.00    -0.301 C  
HETATM    8  C   UNL     1      -6.880  18.082  67.698  1.00  0.00    -0.196 C  
BRANCH   7   9
HETATM    9  C   UNL     1      -9.445  14.542  66.456  1.00  0.00    -0.310 C  
BRANCH   9  10
HETATM   10  C   UNL     1      -9.189  13.094  66.916  1.00  0.00    -0.236 C  
BRANCH  10  11
HETATM   11  C   UNL     1      -7.862  12.976  67.698  1.00  0.00    -0.166 C  
HETATM   12  C   UNL     1      -7.088  10.715  66.773  1.00  0.00    -0.118 C  
HETATM   13  C   UNL     1      -7.396  11.539  68.024  1.00  0.00    -0.091 C  
HETATM   14  C   UNL     1      -6.135  11.595  68.899  1.00  0.00    -0.053 C  
ENDBRANCH  10  11
BRANCH  10  15
HETATM   15  O   UNL     1     -10.245  12.709  67.807  1.00  0.00    -0.213 OA 
HETATM   16  O   UNL     1     -12.278  12.247  66.423  1.00  0.00    -0.613 OA 
HETATM   17  O   UNL     1     -10.664  10.380  66.996  1.00  0.00    -0.261 OA 
HETATM   18  S   UNL     1     -11.340  11.607  67.327  1.00  0.00    -0.286 S  
HETATM   19  O   UNL     1     -12.193  11.368  68.672  1.00  0.00    -0.532 OA 
ENDBRANCH  10  15
ENDBRANCH   9  10
ENDBRANCH   7   9
ENDBRANCH   3   4
ENDBRANCH   2   3
TORSDOF 6
ENDMDL
MODEL       88
REMARK 921   NORMALIZED FREE ENERGY PREDICTED BY IDOCK:   -4.45 KCAL/MOL
REMARK 922        TOTAL FREE ENERGY PREDICTED BY IDOCK:   -6.77 KCAL/MOL
REMARK 923 INTER-LIGAND FREE ENERGY PREDICTED BY IDOCK:   -6.00 KCAL/MOL
REMARK 924 INTRA-LIGAND FREE ENERGY PREDICTED BY IDOCK:   -0.78 KCAL/MOL
REMARK 927      BINDING AFFINITY PREDICTED BY RF-SCORE:    0.00 PKD
ROOT
HETATM    1  C   UNL     1     -10.616  16.639  67.708  1.00  0.00    -0.342 C  
HETATM    2  C   UNL     1     -10.192  16.807  66.258  1.00  0.00    -0.341 C  
ENDROOT
BRANCH   2   3
HETATM    3  C   UNL     1     -10.614  15.598  65.421  1.00  0.00    -0.436 C  
BRANCH   3   4
HETATM    4  C   UNL     1     -10.449  14.291  66.199  1.00  0.00    -0.294 C  
HETATM    5  C   UNL     1     -11.781  13.563  66.515  1.00  0.00    -0.408 C  
HETATM    6  C   UNL     1     -12.640  13.272  65.265  1.00  0.00    -0.528 C  
HETATM    7  C   UNL     1     -11.536  12.261  67.316  1.00  0.00    -0.427 C  
HETATM    8  C   UNL     1     -12.037  12.270  64.288  1.00  0.00    -0.499 C  
BRANCH   7   9
HETATM    9  C   UNL     1     -10.897  12.531  68.679  1.00  0.00    -0.280 C  
BRANCH   9  10
HETATM   10  C   UNL     1     -10.613  11.300  69.560  1.00  0.00    -0.035 C  
BRANCH  10  11
HETATM   11  C   UNL     1     -11.902  10.492  69.834  1.00  0.00    -0.358 C  
HETATM   12  C   UNL     1     -12.864  11.956  71.704  1.00  0.00    -0.417 C  
HETATM   13  C   UNL     1     -12.438  10.549  71.282  1.00  0.00    -0.524 C  
HETATM   14  C   UNL     1     -13.645   9.608  71.419  1.00  0.00    -0.343 C  
ENDBRANCH  10  11
BRANCH  10  15
HETATM   15  O   UNL     1      -9.711  10.437  68.854  1.00  0.00    -0.179 OA 
HETATM   16  O   UNL     1      -7.380  11.191  69.367  1.00  0.00    -0.118 OA 
HETATM   17  O   UNL     1      -8.495   9.413  70.786  1.00  0.00    -0.200 OA 
HETATM   18  S   UNL     1      -8.275  10.058  69.519  1.00  0.00    -0.173 S  
HETATM   19  O   UNL     1      -7.702   8.964  68.486  1.00  0.00    -0.095 OA 
ENDBRANCH  10  15
ENDBRANCH   9  10
ENDBRANCH   7   9
ENDBRANCH   3   4
ENDBRANCH   2   3
TORSDOF 6
ENDMDL
MODEL       89
REMARK 921   NORMALIZED FREE ENERGY PREDICTED BY IDOCK:   -4.45 KCAL/MOL
REMARK 922        TOTAL FREE ENERGY PREDICTED BY IDOCK:   -6.77 KCAL/MOL
REMARK 923 INTER-LIGAND FREE ENERGY PREDICTED BY IDOCK:   -5.65 KCAL/MOL
REMARK 924 INTRA-LIGAND FREE ENERGY PREDICTED BY IDOCK:   -1.12 KCAL/MOL
REMARK 927      BINDING AFFINITY PREDICTED BY RF-SCORE:    0.00 PKD
ROOT
HETATM    1  C   UNL     1      -9.512   7.882  66.232  1.00  0.00    -0.220 C  
HETATM    2  C   UNL     1      -9.910   9.339  66.053  1.00  0.00    -0.363 C  
ENDROOT
BRANCH   2   3
HETATM    3  C   UNL     1      -8.753  10.154  65.473  1.00  0.00    -0.173 C  
BRANCH   3   4
HETATM    4  C   UNL     1      -8.661  11.538  66.120  1.00  0.00    -0.131 C  
HETATM    5  C   UNL     1      -8.438  11.512  67.654  1.00  0.00    -0.135 C  
HETATM    6  C   UNL     1      -7.200  10.696  68.088  1.00  0.00    -0.086 C  
HETATM    7  C   UNL     1      -8.372  12.944  68.240  1.00  0.00    -0.157 C  
HETATM    8  C   UNL     1      -5.861  11.279  67.654  1.00  0.00    -0.050 C  
BRANCH   7   9
HETATM    9  C   UNL     1      -9.680  13.712  68.039  1.00  0.00    -0.226 C  
BRANCH   9  10
HETATM   10  C   UNL     1     -10.967  12.868  67.976  1.00  0.00    -0.247 C  
BRANCH  10  11
HETATM   11  C   UNL     1     -11.527  12.585  69.388  1.00  0.00    -0.327 C  
HETATM   12  C   UNL     1     -10.980  10.085  69.508  1.00  0.00    -0.289 C  
HETATM   13  C   UNL     1     -12.065  11.156  69.627  1.00  0.00    -0.406 C  
HETATM   14  C   UNL     1     -12.690  11.071  71.028  1.00  0.00    -0.485 C  
ENDBRANCH  10  11
BRANCH  10  15
HETATM   15  O   UNL     1     -11.963  13.615  67.264  1.00  0.00    -0.376 OA 
HETATM   16  O   UNL     1     -10.982  14.281  65.060  1.00  0.00    -0.344 OA 
HETATM   17  O   UNL     1     -12.287  12.121  65.284  1.00  0.00    -0.513 OA 
HETATM   18  S   UNL     1     -12.053  13.494  65.645  1.00  0.00    -0.461 S  
HETATM   19  O   UNL     1     -13.385  14.338  65.316  1.00  0.00    -0.660 OA 
ENDBRANCH  10  15
ENDBRANCH   9  10
ENDBRANCH   7   9
ENDBRANCH   3   4
ENDBRANCH   2   3
TORSDOF 6
ENDMDL
MODEL       90
REMARK 921   NORMALIZED FREE ENERGY PREDICTED BY IDOCK:   -4.44 KCAL/MOL
REMARK 922        TOTAL FREE ENERGY PREDICTED BY IDOCK:   -6.77 KCAL/MOL
REMARK 923 INTER-LIGAND FREE ENERGY PREDICTED BY IDOCK:   -5.82 KCAL/MOL
REMARK 924 INTRA-LIGAND FREE ENERGY PREDICTED BY IDOCK:   -0.95 KCAL/MOL
REMARK 927      BINDING AFFINITY PREDICTED BY RF-SCORE:    0.00 PKD
ROOT
HETATM    1  C   UNL     1     -10.972   6.344  67.128  1.00  0.00    -0.476 C  
HETATM    2  C   UNL     1      -9.937   7.376  66.710  1.00  0.00    -0.300 C  
ENDROOT
BRANCH   2   3
HETATM    3  C   UNL     1      -9.059   7.782  67.896  1.00  0.00    -0.132 C  
BRANCH   3   4
HETATM    4  C   UNL     1      -8.985   9.304  68.044  1.00  0.00    -0.128 C  
HETATM    5  C   UNL     1     -10.358   9.991  68.261  1.00  0.00    -0.224 C  
HETATM    6  C   UNL     1     -11.151   9.430  69.462  1.00  0.00    -0.134 C  
HETATM    7  C   UNL     1     -10.206  11.528  68.386  1.00  0.00    -0.211 C  
HETATM    8  C   UNL     1     -10.526   9.692  70.826  1.00  0.00    -0.375 C  
BRANCH   7   9
HETATM    9  C   UNL     1      -9.640  12.159  67.113  1.00  0.00    -0.195 C  
BRANCH   9  10
HETATM   10  C   UNL     1     -10.553  13.160  66.380  1.00  0.00    -0.286 C  
BRANCH  10  11
HETATM   11  C   UNL     1     -11.653  12.435  65.573  1.00  0.00    -0.432 C  
HETATM   12  C   UNL     1     -10.273  11.871  63.489  1.00  0.00    -0.485 C  
HETATM   13  C   UNL     1     -11.538  12.534  64.035  1.00  0.00    -0.485 C  
HETATM   14  C   UNL     1     -12.762  11.869  63.386  1.00  0.00    -0.496 C  
ENDBRANCH  10  11
BRANCH  10  15
HETATM   15  O   UNL     1     -11.209  13.976  67.360  1.00  0.00    -0.291 OA 
HETATM   16  O   UNL     1      -9.456  15.341  68.511  1.00  0.00    -0.189 OA 
HETATM   17  O   UNL     1     -10.654  16.247  66.471  1.00  0.00    -0.308 OA 
HETATM   18  S   UNL     1     -10.639  15.465  67.679  1.00  0.00    -0.286 S  
HETATM   19  O   UNL     1     -11.760  16.051  68.675  1.00  0.00    -0.382 OA 
ENDBRANCH  10  15
ENDBRANCH   9  10
ENDBRANCH   7   9
ENDBRANCH   3   4
ENDBRANCH   2   3
TORSDOF 6
ENDMDL
MODEL       91
REMARK 921   NORMALIZED FREE ENERGY PREDICTED BY IDOCK:   -4.44 KCAL/MOL
REMARK 922        TOTAL FREE ENERGY PREDICTED BY IDOCK:   -6.75 KCAL/MOL
REMARK 923 INTER-LIGAND FREE ENERGY PREDICTED BY IDOCK:   -5.67 KCAL/MOL
REMARK 924 INTRA-LIGAND FREE ENERGY PREDICTED BY IDOCK:   -1.08 KCAL/MOL
REMARK 927      BINDING AFFINITY PREDICTED BY RF-SCORE:    0.00 PKD
ROOT
HETATM    1  C   UNL     1     -12.284  12.938  63.409  1.00  0.00    -0.574 C  
HETATM    2  C   UNL     1     -12.458  12.635  64.889  1.00  0.00    -0.564 C  
ENDROOT
BRANCH   2   3
HETATM    3  C   UNL     1     -12.822  13.901  65.667  1.00  0.00    -0.467 C  
BRANCH   3   4
HETATM    4  C   UNL     1     -11.748  14.254  66.698  1.00  0.00    -0.417 C  
HETATM    5  C   UNL     1     -10.339  14.492  66.096  1.00  0.00    -0.305 C  
HETATM    6  C   UNL     1     -10.311  15.567  64.987  1.00  0.00    -0.327 C  
HETATM    7  C   UNL     1      -9.303  14.828  67.198  1.00  0.00    -0.233 C  
HETATM    8  C   UNL     1     -10.622  16.983  65.455  1.00  0.00    -0.147 C  
BRANCH   7   9
HETATM    9  C   UNL     1      -9.124  13.680  68.192  1.00  0.00    -0.195 C  
BRANCH   9  10
HETATM   10  C   UNL     1      -9.422  12.264  67.665  1.00  0.00    -0.188 C  
BRANCH  10  11
HETATM   11  C   UNL     1      -8.176  11.636  66.999  1.00  0.00    -0.170 C  
HETATM   12  C   UNL     1      -9.215  11.080  64.724  1.00  0.00    -0.198 C  
HETATM   13  C   UNL     1      -8.455  10.546  65.939  1.00  0.00    -0.164 C  
HETATM   14  C   UNL     1      -7.125   9.942  65.463  1.00  0.00    -0.118 C  
ENDBRANCH  10  11
BRANCH  10  15
HETATM   15  O   UNL     1      -9.777  11.431  68.777  1.00  0.00    -0.197 OA 
HETATM   16  O   UNL     1     -11.635  12.565  70.013  1.00  0.00    -0.244 OA 
HETATM   17  O   UNL     1     -12.145  10.896  68.177  1.00  0.00    -0.563 OA 
HETATM   18  S   UNL     1     -11.326  11.360  69.266  1.00  0.00    -0.316 S  
HETATM   19  O   UNL     1     -11.275  10.205  70.387  1.00  0.00    -0.284 OA 
ENDBRANCH  10  15
ENDBRANCH   9  10
ENDBRANCH   7   9
ENDBRANCH   3   4
ENDBRANCH   2   3
TORSDOF 6
ENDMDL
MODEL       92
REMARK 921   NORMALIZED FREE ENERGY PREDICTED BY IDOCK:   -4.43 KCAL/MOL
REMARK 922        TOTAL FREE ENERGY PREDICTED BY IDOCK:   -6.75 KCAL/MOL
REMARK 923 INTER-LIGAND FREE ENERGY PREDICTED BY IDOCK:   -5.58 KCAL/MOL
REMARK 924 INTRA-LIGAND FREE ENERGY PREDICTED BY IDOCK:   -1.16 KCAL/MOL
REMARK 927      BINDING AFFINITY PREDICTED BY RF-SCORE:    0.00 PKD
ROOT
HETATM    1  C   UNL     1     -14.303   8.261  71.604  1.00  0.00    -0.561 C  
HETATM    2  C   UNL     1     -13.500   9.434  72.144  1.00  0.00    -0.543 C  
ENDROOT
BRANCH   2   3
HETATM    3  C   UNL     1     -12.854  10.224  71.004  1.00  0.00    -0.490 C  
BRANCH   3   4
HETATM    4  C   UNL     1     -11.333  10.055  70.996  1.00  0.00    -0.434 C  
HETATM    5  C   UNL     1     -10.747   9.620  69.628  1.00  0.00    -0.260 C  
HETATM    6  C   UNL     1     -11.132  10.556  68.461  1.00  0.00    -0.329 C  
HETATM    7  C   UNL     1      -9.208   9.454  69.700  1.00  0.00    -0.195 C  
HETATM    8  C   UNL     1     -10.550  11.961  68.543  1.00  0.00    -0.245 C  
BRANCH   7   9
HETATM    9  C   UNL     1      -8.790   8.358  70.681  1.00  0.00    -0.161 C  
BRANCH   9  10
HETATM   10  C   UNL     1      -9.594   7.044  70.624  1.00  0.00    -0.165 C  
BRANCH  10  11
HETATM   11  C   UNL     1      -9.036   6.087  69.547  1.00  0.00    -0.131 C  
HETATM   12  C   UNL     1     -10.815   6.481  67.746  1.00  0.00    -0.395 C  
HETATM   13  C   UNL     1     -10.082   5.450  68.605  1.00  0.00    -0.246 C  
HETATM   14  C   UNL     1      -9.388   4.441  67.676  1.00  0.00    -0.186 C  
ENDBRANCH  10  11
BRANCH  10  15
HETATM   15  O   UNL     1      -9.468   6.382  71.890  1.00  0.00    -0.153 OA 
HETATM   16  O   UNL     1     -10.833   7.659  73.555  1.00  0.00    -0.340 OA 
HETATM   17  O   UNL     1     -11.852   5.727  72.271  1.00  0.00    -0.273 OA 
HETATM   18  S   UNL     1     -10.731   6.360  72.915  1.00  0.00    -0.261 S  
HETATM   19  O   UNL     1     -10.202   5.387  74.084  1.00  0.00    -0.214 OA 
ENDBRANCH  10  15
ENDBRANCH   9  10
ENDBRANCH   7   9
ENDBRANCH   3   4
ENDBRANCH   2   3
TORSDOF 6
ENDMDL
MODEL       93
REMARK 921   NORMALIZED FREE ENERGY PREDICTED BY IDOCK:   -4.42 KCAL/MOL
REMARK 922        TOTAL FREE ENERGY PREDICTED BY IDOCK:   -6.74 KCAL/MOL
REMARK 923 INTER-LIGAND FREE ENERGY PREDICTED BY IDOCK:   -5.65 KCAL/MOL
REMARK 924 INTRA-LIGAND FREE ENERGY PREDICTED BY IDOCK:   -1.09 KCAL/MOL
REMARK 927      BINDING AFFINITY PREDICTED BY RF-SCORE:    0.00 PKD
ROOT
HETATM    1  C   UNL     1      -7.931  10.806  66.194  1.00  0.00    -0.157 C  
HETATM    2  C   UNL     1      -8.269  11.612  67.438  1.00  0.00    -0.153 C  
ENDROOT
BRANCH   2   3
HETATM    3  C   UNL     1      -7.345  12.825  67.571  1.00  0.00    -0.153 C  
BRANCH   3   4
HETATM    4  C   UNL     1      -8.081  14.129  67.252  1.00  0.00    -0.188 C  
HETATM    5  C   UNL     1      -8.569  14.907  68.501  1.00  0.00    -0.162 C  
HETATM    6  C   UNL     1      -7.446  15.224  69.513  1.00  0.00    -0.214 C  
HETATM    7  C   UNL     1      -9.316  16.203  68.102  1.00  0.00    -0.201 C  
HETATM    8  C   UNL     1      -6.385  16.198  69.015  1.00  0.00    -0.148 C  
BRANCH   7   9
HETATM    9  C   UNL     1     -10.581  15.915  67.291  1.00  0.00    -0.314 C  
BRANCH   9  10
HETATM   10  C   UNL     1     -11.498  14.799  67.825  1.00  0.00    -0.345 C  
BRANCH  10  11
HETATM   11  C   UNL     1     -12.498  15.341  68.872  1.00  0.00     0.146 C  
HETATM   12  C   UNL     1     -11.049  15.030  70.962  1.00  0.00    -0.214 C  
HETATM   13  C   UNL     1     -12.389  14.732  70.288  1.00  0.00    -0.400 C  
HETATM   14  C   UNL     1     -13.519  15.284  71.171  1.00  0.00    -0.559 C  
ENDBRANCH  10  11
BRANCH  10  15
HETATM   15  O   UNL     1     -12.266  14.281  66.730  1.00  0.00    -0.441 OA 
HETATM   16  O   UNL     1     -10.691  13.085  65.196  1.00  0.00    -0.289 OA 
HETATM   17  O   UNL     1     -11.876  11.831  67.052  1.00  0.00    -0.599 OA 
HETATM   18  S   UNL     1     -11.843  12.865  66.051  1.00  0.00    -0.445 S  
HETATM   19  O   UNL     1     -13.053  12.609  65.020  1.00  0.00    -0.808 OA 
ENDBRANCH  10  15
ENDBRANCH   9  10
ENDBRANCH   7   9
ENDBRANCH   3   4
ENDBRANCH   2   3
TORSDOF 6
ENDMDL
MODEL       94
REMARK 921   NORMALIZED FREE ENERGY PREDICTED BY IDOCK:   -4.41 KCAL/MOL
REMARK 922        TOTAL FREE ENERGY PREDICTED BY IDOCK:   -6.72 KCAL/MOL
REMARK 923 INTER-LIGAND FREE ENERGY PREDICTED BY IDOCK:   -5.71 KCAL/MOL
REMARK 924 INTRA-LIGAND FREE ENERGY PREDICTED BY IDOCK:   -1.01 KCAL/MOL
REMARK 927      BINDING AFFINITY PREDICTED BY RF-SCORE:    0.00 PKD
ROOT
HETATM    1  C   UNL     1      -6.611   8.011  67.154  1.00  0.00    -0.057 C  
HETATM    2  C   UNL     1      -7.243   7.350  65.939  1.00  0.00    -0.066 C  
ENDROOT
BRANCH   2   3
HETATM    3  C   UNL     1      -8.307   8.257  65.315  1.00  0.00    -0.175 C  
BRANCH   3   4
HETATM    4  C   UNL     1      -8.402   9.596  66.049  1.00  0.00    -0.123 C  
HETATM    5  C   UNL     1      -9.845  10.007  66.442  1.00  0.00    -0.283 C  
HETATM    6  C   UNL     1     -10.585   8.944  67.284  1.00  0.00    -0.304 C  
HETATM    7  C   UNL     1      -9.865  11.377  67.164  1.00  0.00    -0.212 C  
HETATM    8  C   UNL     1     -10.009   8.708  68.674  1.00  0.00    -0.197 C  
BRANCH   7   9
HETATM    9  C   UNL     1      -9.357  12.509  66.271  1.00  0.00    -0.177 C  
BRANCH   9  10
HETATM   10  C   UNL     1     -10.258  13.754  66.162  1.00  0.00    -0.301 C  
BRANCH  10  11
HETATM   11  C   UNL     1      -9.447  15.057  66.343  1.00  0.00    -0.325 C  
HETATM   12  C   UNL     1     -11.006  16.236  67.999  1.00  0.00    -0.328 C  
HETATM   13  C   UNL     1     -10.270  16.325  66.661  1.00  0.00    -0.287 C  
HETATM   14  C   UNL     1      -9.338  17.546  66.693  1.00  0.00    -0.275 C  
ENDBRANCH  10  11
BRANCH  10  15
HETATM   15  O   UNL     1     -10.830  13.786  64.848  1.00  0.00    -0.345 OA 
HETATM   16  O   UNL     1     -12.563  11.983  64.728  1.00  0.00    -0.412 OA 
HETATM   17  O   UNL     1     -13.202  14.335  65.422  1.00  0.00    -0.688 OA 
HETATM   18  S   UNL     1     -12.403  13.424  64.646  1.00  0.00    -0.363 S  
HETATM   19  O   UNL     1     -12.629  13.755  63.086  1.00  0.00    -0.793 OA 
ENDBRANCH  10  15
ENDBRANCH   9  10
ENDBRANCH   7   9
ENDBRANCH   3   4
ENDBRANCH   2   3
TORSDOF 6
ENDMDL
MODEL       95
REMARK 921   NORMALIZED FREE ENERGY PREDICTED BY IDOCK:   -4.41 KCAL/MOL
REMARK 922        TOTAL FREE ENERGY PREDICTED BY IDOCK:   -6.72 KCAL/MOL
REMARK 923 INTER-LIGAND FREE ENERGY PREDICTED BY IDOCK:   -6.59 KCAL/MOL
REMARK 924 INTRA-LIGAND FREE ENERGY PREDICTED BY IDOCK:   -0.13 KCAL/MOL
REMARK 927      BINDING AFFINITY PREDICTED BY RF-SCORE:    0.00 PKD
ROOT
HETATM    1  C   UNL     1     -12.481  10.642  70.489  1.00  0.00    -0.445 C  
HETATM    2  C   UNL     1     -13.194  11.025  71.777  1.00  0.00    -0.505 C  
ENDROOT
BRANCH   2   3
HETATM    3  C   UNL     1     -13.269  12.546  71.928  1.00  0.00    -0.495 C  
BRANCH   3   4
HETATM    4  C   UNL     1     -12.377  13.256  70.907  1.00  0.00    -0.413 C  
HETATM    5  C   UNL     1     -12.874  14.666  70.497  1.00  0.00    -0.371 C  
HETATM    6  C   UNL     1     -13.090  15.621  71.692  1.00  0.00    -0.554 C  
HETATM    7  C   UNL     1     -11.933  15.315  69.452  1.00  0.00    -0.342 C  
HETATM    8  C   UNL     1     -11.822  16.014  72.439  1.00  0.00    -0.639 C  
BRANCH   7   9
HETATM    9  C   UNL     1     -11.877  14.517  68.149  1.00  0.00    -0.348 C  
BRANCH   9  10
HETATM   10  C   UNL     1     -10.533  14.528  67.395  1.00  0.00    -0.264 C  
BRANCH  10  11
HETATM   11  C   UNL     1      -9.431  13.797  68.194  1.00  0.00    -0.212 C  
HETATM   12  C   UNL     1      -8.426  15.832  69.383  1.00  0.00    -0.218 C  
HETATM   13  C   UNL     1      -8.157  14.619  68.492  1.00  0.00    -0.146 C  
HETATM   14  C   UNL     1      -7.118  13.721  69.183  1.00  0.00    -0.053 C  
ENDBRANCH  10  11
BRANCH  10  15
HETATM   15  O   UNL     1     -10.702  13.823  66.158  1.00  0.00    -0.280 OA 
HETATM   16  O   UNL     1      -9.720  11.538  66.445  1.00  0.00    -0.197 OA 
HETATM   17  O   UNL     1     -12.173  11.951  66.927  1.00  0.00    -0.493 OA 
HETATM   18  S   UNL     1     -10.974  12.219  66.177  1.00  0.00    -0.307 S  
HETATM   19  O   UNL     1     -11.267  11.907  64.625  1.00  0.00    -0.308 OA 
ENDBRANCH  10  15
ENDBRANCH   9  10
ENDBRANCH   7   9
ENDBRANCH   3   4
ENDBRANCH   2   3
TORSDOF 6
ENDMDL
MODEL       96
REMARK 921   NORMALIZED FREE ENERGY PREDICTED BY IDOCK:   -4.40 KCAL/MOL
REMARK 922        TOTAL FREE ENERGY PREDICTED BY IDOCK:   -6.70 KCAL/MOL
REMARK 923 INTER-LIGAND FREE ENERGY PREDICTED BY IDOCK:   -5.97 KCAL/MOL
REMARK 924 INTRA-LIGAND FREE ENERGY PREDICTED BY IDOCK:   -0.73 KCAL/MOL
REMARK 927      BINDING AFFINITY PREDICTED BY RF-SCORE:    0.00 PKD
ROOT
HETATM    1  C   UNL     1     -11.017   6.637  68.643  1.00  0.00    -0.317 C  
HETATM    2  C   UNL     1      -9.673   5.998  68.328  1.00  0.00    -0.138 C  
ENDROOT
BRANCH   2   3
HETATM    3  C   UNL     1      -9.066   6.599  67.059  1.00  0.00    -0.135 C  
BRANCH   3   4
HETATM    4  C   UNL     1      -9.782   7.888  66.650  1.00  0.00    -0.305 C  
HETATM    5  C   UNL     1      -8.863   9.135  66.580  1.00  0.00    -0.156 C  
HETATM    6  C   UNL     1      -7.639   8.952  65.656  1.00  0.00    -0.086 C  
HETATM    7  C   UNL     1      -9.658  10.401  66.177  1.00  0.00    -0.245 C  
HETATM    8  C   UNL     1      -7.966   8.803  64.175  1.00  0.00    -0.154 C  
BRANCH   7   9
HETATM    9  C   UNL     1     -10.736  10.757  67.201  1.00  0.00    -0.324 C  
BRANCH   9  10
HETATM   10  C   UNL     1     -11.513  12.065  66.952  1.00  0.00    -0.337 C  
BRANCH  10  11
HETATM   11  C   UNL     1     -10.981  13.214  67.837  1.00  0.00    -0.271 C  
HETATM   12  C   UNL     1     -12.116  12.546  70.034  1.00  0.00    -0.337 C  
HETATM   13  C   UNL     1     -11.899  13.651  69.000  1.00  0.00    -0.393 C  
HETATM   14  C   UNL     1     -11.288  14.872  69.705  1.00  0.00    -0.314 C  
ENDBRANCH  10  11
BRANCH  10  15
HETATM   15  O   UNL     1     -11.320  12.453  65.586  1.00  0.00    -0.318 OA 
HETATM   16  O   UNL     1     -13.394  11.847  64.322  1.00  0.00    -0.610 OA 
HETATM   17  O   UNL     1     -13.147  14.146  65.357  1.00  0.00    -0.743 OA 
HETATM   18  S   UNL     1     -12.585  12.987  64.715  1.00  0.00    -0.351 S  
HETATM   19  O   UNL     1     -11.880  13.458  63.346  1.00  0.00    -0.430 OA 
ENDBRANCH  10  15
ENDBRANCH   9  10
ENDBRANCH   7   9
ENDBRANCH   3   4
ENDBRANCH   2   3
TORSDOF 6
ENDMDL
MODEL       97
REMARK 921   NORMALIZED FREE ENERGY PREDICTED BY IDOCK:   -4.38 KCAL/MOL
REMARK 922        TOTAL FREE ENERGY PREDICTED BY IDOCK:   -6.68 KCAL/MOL
REMARK 923 INTER-LIGAND FREE ENERGY PREDICTED BY IDOCK:   -5.80 KCAL/MOL
REMARK 924 INTRA-LIGAND FREE ENERGY PREDICTED BY IDOCK:   -0.87 KCAL/MOL
REMARK 927      BINDING AFFINITY PREDICTED BY RF-SCORE:    0.00 PKD
ROOT
HETATM    1  C   UNL     1     -12.925  14.484  71.708  1.00  0.00    -0.413 C  
HETATM    2  C   UNL     1     -12.470  13.291  70.881  1.00  0.00    -0.424 C  
ENDROOT
BRANCH   2   3
HETATM    3  C   UNL     1     -13.093  11.995  71.403  1.00  0.00    -0.295 C  
BRANCH   3   4
HETATM    4  C   UNL     1     -12.481  10.766  70.726  1.00  0.00    -0.481 C  
HETATM    5  C   UNL     1     -12.093   9.627  71.703  1.00  0.00    -0.481 C  
HETATM    6  C   UNL     1     -13.259   9.151  72.598  1.00  0.00    -0.362 C  
HETATM    7  C   UNL     1     -11.467   8.426  70.951  1.00  0.00    -0.295 C  
HETATM    8  C   UNL     1     -14.399   8.464  71.858  1.00  0.00    -0.561 C  
BRANCH   7   9
HETATM    9  C   UNL     1     -10.166   8.804  70.240  1.00  0.00    -0.220 C  
BRANCH   9  10
HETATM   10  C   UNL     1     -10.181   8.733  68.701  1.00  0.00    -0.194 C  
BRANCH  10  11
HETATM   11  C   UNL     1      -9.395   9.906  68.074  1.00  0.00    -0.140 C  
HETATM   12  C   UNL     1     -11.390  11.302  67.276  1.00  0.00    -0.329 C  
HETATM   13  C   UNL     1     -10.079  10.617  66.885  1.00  0.00    -0.260 C  
HETATM   14  C   UNL     1      -9.127  11.673  66.303  1.00  0.00    -0.219 C  
ENDBRANCH  10  11
BRANCH  10  15
HETATM   15  O   UNL     1      -9.530   7.520  68.298  1.00  0.00    -0.144 OA 
HETATM   16  O   UNL     1     -10.877   5.604  69.184  1.00  0.00    -0.284 OA 
HETATM   17  O   UNL     1     -11.324   6.525  66.866  1.00  0.00    -0.330 OA 
HETATM   18  S   UNL     1     -10.424   6.208  67.943  1.00  0.00    -0.259 S  
HETATM   19  O   UNL     1      -9.314   5.181  67.390  1.00  0.00    -0.114 OA 
ENDBRANCH  10  15
ENDBRANCH   9  10
ENDBRANCH   7   9
ENDBRANCH   3   4
ENDBRANCH   2   3
TORSDOF 6
ENDMDL
MODEL       98
REMARK 921   NORMALIZED FREE ENERGY PREDICTED BY IDOCK:   -4.36 KCAL/MOL
REMARK 922        TOTAL FREE ENERGY PREDICTED BY IDOCK:   -6.65 KCAL/MOL
REMARK 923 INTER-LIGAND FREE ENERGY PREDICTED BY IDOCK:   -6.13 KCAL/MOL
REMARK 924 INTRA-LIGAND FREE ENERGY PREDICTED BY IDOCK:   -0.52 KCAL/MOL
REMARK 927      BINDING AFFINITY PREDICTED BY RF-SCORE:    0.00 PKD
ROOT
HETATM    1  C   UNL     1     -12.118  13.233  63.801  1.00  0.00    -0.546 C  
HETATM    2  C   UNL     1     -12.605  13.237  65.242  1.00  0.00    -0.528 C  
ENDROOT
BRANCH   2   3
HETATM    3  C   UNL     1     -11.470  12.874  66.203  1.00  0.00    -0.393 C  
BRANCH   3   4
HETATM    4  C   UNL     1     -12.010  12.345  67.534  1.00  0.00    -0.253 C  
HETATM    5  C   UNL     1     -11.064  12.573  68.741  1.00  0.00    -0.314 C  
HETATM    6  C   UNL     1     -10.656  14.049  68.941  1.00  0.00    -0.241 C  
HETATM    7  C   UNL     1     -11.668  12.000  70.047  1.00  0.00    -0.346 C  
HETATM    8  C   UNL     1     -11.792  14.984  69.338  1.00  0.00    -0.358 C  
BRANCH   7   9
HETATM    9  C   UNL     1     -11.867  10.485  69.976  1.00  0.00    -0.388 C  
BRANCH   9  10
HETATM   10  C   UNL     1     -10.598   9.636  69.768  1.00  0.00    -0.242 C  
BRANCH  10  11
HETATM   11  C   UNL     1     -10.190   8.903  71.066  1.00  0.00    -0.322 C  
HETATM   12  C   UNL     1     -12.093   7.189  71.137  1.00  0.00    -0.397 C  
HETATM   13  C   UNL     1     -11.347   8.292  71.888  1.00  0.00    -0.372 C  
HETATM   14  C   UNL     1     -10.794   7.708  73.197  1.00  0.00    -0.440 C  
ENDBRANCH  10  11
BRANCH  10  15
HETATM   15  O   UNL     1     -10.881   8.633  68.783  1.00  0.00    -0.116 OA 
HETATM   16  O   UNL     1     -10.278   9.576  66.544  1.00  0.00    -0.254 OA 
HETATM   17  O   UNL     1      -8.579   8.255  67.880  1.00  0.00    -0.130 OA 
HETATM   18  S   UNL     1      -9.934   8.510  67.467  1.00  0.00    -0.219 S  
HETATM   19  O   UNL     1     -10.506   7.180  66.761  1.00  0.00    -0.271 OA 
ENDBRANCH  10  15
ENDBRANCH   9  10
ENDBRANCH   7   9
ENDBRANCH   3   4
ENDBRANCH   2   3
TORSDOF 6
ENDMDL
MODEL       99
REMARK 921   NORMALIZED FREE ENERGY PREDICTED BY IDOCK:   -4.35 KCAL/MOL
REMARK 922        TOTAL FREE ENERGY PREDICTED BY IDOCK:   -6.63 KCAL/MOL
REMARK 923 INTER-LIGAND FREE ENERGY PREDICTED BY IDOCK:   -5.59 KCAL/MOL
REMARK 924 INTRA-LIGAND FREE ENERGY PREDICTED BY IDOCK:   -1.04 KCAL/MOL
REMARK 927      BINDING AFFINITY PREDICTED BY RF-SCORE:    0.00 PKD
ROOT
HETATM    1  C   UNL     1      -7.974  19.505  68.741  1.00  0.00    -0.362 C  
HETATM    2  C   UNL     1      -9.488  19.590  68.855  1.00  0.00    -0.426 C  
ENDROOT
BRANCH   2   3
HETATM    3  C   UNL     1     -10.163  18.549  67.959  1.00  0.00    -0.415 C  
BRANCH   3   4
HETATM    4  C   UNL     1     -10.041  17.141  68.545  1.00  0.00    -0.329 C  
HETATM    5  C   UNL     1      -9.814  16.028  67.489  1.00  0.00    -0.235 C  
HETATM    6  C   UNL     1      -8.592  16.277  66.577  1.00  0.00    -0.332 C  
HETATM    7  C   UNL     1      -9.717  14.632  68.152  1.00  0.00    -0.220 C  
HETATM    8  C   UNL     1      -7.242  16.227  67.281  1.00  0.00    -0.223 C  
BRANCH   7   9
HETATM    9  C   UNL     1     -11.008  14.242  68.872  1.00  0.00    -0.275 C  
BRANCH   9  10
HETATM   10  C   UNL     1     -11.599  12.863  68.522  1.00  0.00    -0.323 C  
BRANCH  10  11
HETATM   11  C   UNL     1     -11.191  12.418  67.099  1.00  0.00    -0.353 C  
HETATM   12  C   UNL     1     -12.564  14.124  65.770  1.00  0.00    -0.475 C  
HETATM   13  C   UNL     1     -12.245  12.645  65.993  1.00  0.00    -0.329 C  
HETATM   14  C   UNL     1     -11.738  12.046  64.671  1.00  0.00    -0.358 C  
ENDBRANCH  10  11
BRANCH  10  15
HETATM   15  O   UNL     1     -11.069  11.897  69.440  1.00  0.00    -0.222 OA 
HETATM   16  O   UNL     1     -12.753  11.576  71.263  1.00  0.00    -0.398 OA 
HETATM   17  O   UNL     1     -12.787  10.094  69.208  1.00  0.00     0.396 OA 
HETATM   18  S   UNL     1     -12.076  10.866  70.193  1.00  0.00    -0.373 S  
HETATM   19  O   UNL     1     -11.050   9.889  70.959  1.00  0.00    -0.337 OA 
ENDBRANCH  10  15
ENDBRANCH   9  10
ENDBRANCH   7   9
ENDBRANCH   3   4
ENDBRANCH   2   3
TORSDOF 6
ENDMDL
MODEL      100
REMARK 921   NORMALIZED FREE ENERGY PREDICTED BY IDOCK:   -4.35 KCAL/MOL
REMARK 922        TOTAL FREE ENERGY PREDICTED BY IDOCK:   -6.63 KCAL/MOL
REMARK 923 INTER-LIGAND FREE ENERGY PREDICTED BY IDOCK:   -5.68 KCAL/MOL
REMARK 924 INTRA-LIGAND FREE ENERGY PREDICTED BY IDOCK:   -0.95 KCAL/MOL
REMARK 927      BINDING AFFINITY PREDICTED BY RF-SCORE:    0.00 PKD
ROOT
HETATM    1  C   UNL     1      -6.316  11.571  69.615  1.00  0.00    -0.133 C  
HETATM    2  C   UNL     1      -7.632  10.829  69.440  1.00  0.00    -0.114 C  
ENDROOT
BRANCH   2   3
HETATM    3  C   UNL     1      -8.229  11.095  68.056  1.00  0.00    -0.125 C  
BRANCH   3   4
HETATM    4  C   UNL     1      -9.254  12.230  68.095  1.00  0.00    -0.197 C  
HETATM    5  C   UNL     1     -10.606  11.893  67.414  1.00  0.00    -0.257 C  
HETATM    6  C   UNL     1     -11.279  10.618  67.969  1.00  0.00    -0.373 C  
HETATM    7  C   UNL     1     -11.585  13.091  67.479  1.00  0.00    -0.405 C  
HETATM    8  C   UNL     1     -11.749  10.714  69.415  1.00  0.00    -0.344 C  
BRANCH   7   9
HETATM    9  C   UNL     1     -11.053  14.314  66.729  1.00  0.00    -0.316 C  
BRANCH   9  10
HETATM   10  C   UNL     1     -11.021  15.639  67.514  1.00  0.00    -0.309 C  
BRANCH  10  11
HETATM   11  C   UNL     1     -10.661  15.407  68.999  1.00  0.00    -0.242 C  
HETATM   12  C   UNL     1     -13.032  15.046  69.901  1.00  0.00     0.072 C  
HETATM   13  C   UNL     1     -11.730  15.839  70.027  1.00  0.00    -0.362 C  
HETATM   14  C   UNL     1     -11.177  15.656  71.449  1.00  0.00    -0.392 C  
ENDBRANCH  10  11
BRANCH  10  15
HETATM   15  O   UNL     1      -9.998  16.473  66.952  1.00  0.00    -0.254 OA 
HETATM   16  O   UNL     1     -10.936  17.542  64.892  1.00  0.00    -0.887 OA 
HETATM   17  O   UNL     1     -11.114  18.704  67.136  1.00  0.00    -0.250 OA 
HETATM   18  S   UNL     1     -10.411  17.859  66.207  1.00  0.00    -0.314 S  
HETATM   19  O   UNL     1      -8.974  18.522  65.907  1.00  0.00    -0.480 OA 
ENDBRANCH  10  15
ENDBRANCH   9  10
ENDBRANCH   7   9
ENDBRANCH   3   4
ENDBRANCH   2   3
TORSDOF 6
ENDMDL
MODEL      101
REMARK 921   NORMALIZED FREE ENERGY PREDICTED BY IDOCK:   -4.33 KCAL/MOL
REMARK 922        TOTAL FREE ENERGY PREDICTED BY IDOCK:   -6.61 KCAL/MOL
REMARK 923 INTER-LIGAND FREE ENERGY PREDICTED BY IDOCK:   -5.55 KCAL/MOL
REMARK 924 INTRA-LIGAND FREE ENERGY PREDICTED BY IDOCK:   -1.07 KCAL/MOL
REMARK 927      BINDING AFFINITY PREDICTED BY RF-SCORE:    0.00 PKD
ROOT
HETATM    1  C   UNL     1      -5.655  10.462  69.952  1.00  0.00    -0.046 C  
HETATM    2  C   UNL     1      -7.089  10.706  69.510  1.00  0.00    -0.127 C  
ENDROOT
BRANCH   2   3
HETATM    3  C   UNL     1      -7.984   9.520  69.876  1.00  0.00    -0.154 C  
BRANCH   3   4
HETATM    4  C   UNL     1      -9.466   9.895  69.818  1.00  0.00    -0.254 C  
HETATM    5  C   UNL     1      -9.913  10.520  68.471  1.00  0.00    -0.181 C  
HETATM    6  C   UNL     1      -9.592   9.641  67.242  1.00  0.00    -0.203 C  
HETATM    7  C   UNL     1     -11.418  10.888  68.491  1.00  0.00    -0.380 C  
HETATM    8  C   UNL     1     -10.358   8.327  67.171  1.00  0.00    -0.387 C  
BRANCH   7   9
HETATM    9  C   UNL     1     -11.740  11.945  69.548  1.00  0.00    -0.410 C  
BRANCH   9  10
HETATM   10  C   UNL     1     -11.701  13.413  69.083  1.00  0.00    -0.326 C  
BRANCH  10  11
HETATM   11  C   UNL     1     -11.907  13.528  67.556  1.00  0.00    -0.406 C  
HETATM   12  C   UNL     1      -9.481  14.013  66.891  1.00  0.00    -0.271 C  
HETATM   13  C   UNL     1     -10.937  14.475  66.814  1.00  0.00    -0.316 C  
HETATM   14  C   UNL     1     -11.345  14.570  65.336  1.00  0.00    -0.341 C  
ENDBRANCH  10  11
BRANCH  10  15
HETATM   15  O   UNL     1     -12.780  14.117  69.714  1.00  0.00    -0.212 OA 
HETATM   16  O   UNL     1     -12.259  14.276  72.157  1.00  0.00    -0.222 OA 
HETATM   17  O   UNL     1     -11.547  16.118  70.570  1.00  0.00    -0.366 OA 
HETATM   18  S   UNL     1     -12.473  15.094  70.977  1.00  0.00    -0.396 S  
HETATM   19  O   UNL     1     -13.907  15.780  71.231  1.00  0.00    -0.547 OA 
ENDBRANCH  10  15
ENDBRANCH   9  10
ENDBRANCH   7   9
ENDBRANCH   3   4
ENDBRANCH   2   3
TORSDOF 6
ENDMDL
MODEL      102
REMARK 921   NORMALIZED FREE ENERGY PREDICTED BY IDOCK:   -4.32 KCAL/MOL
REMARK 922        TOTAL FREE ENERGY PREDICTED BY IDOCK:   -6.59 KCAL/MOL
REMARK 923 INTER-LIGAND FREE ENERGY PREDICTED BY IDOCK:   -5.78 KCAL/MOL
REMARK 924 INTRA-LIGAND FREE ENERGY PREDICTED BY IDOCK:   -0.81 KCAL/MOL
REMARK 927      BINDING AFFINITY PREDICTED BY RF-SCORE:    0.00 PKD
ROOT
HETATM    1  C   UNL     1     -12.634  13.168  70.728  1.00  0.00    -0.338 C  
HETATM    2  C   UNL     1     -12.988  12.343  71.956  1.00  0.00    -0.376 C  
ENDROOT
BRANCH   2   3
HETATM    3  C   UNL     1     -12.807  10.849  71.681  1.00  0.00    -0.554 C  
BRANCH   3   4
HETATM    4  C   UNL     1     -12.623  10.571  70.187  1.00  0.00    -0.246 C  
HETATM    5  C   UNL     1     -11.155  10.311  69.762  1.00  0.00    -0.340 C  
HETATM    6  C   UNL     1     -10.473   9.171  70.550  1.00  0.00    -0.289 C  
HETATM    7  C   UNL     1     -11.044  10.055  68.239  1.00  0.00    -0.247 C  
HETATM    8  C   UNL     1     -11.051   7.783  70.303  1.00  0.00    -0.242 C  
BRANCH   7   9
HETATM    9  C   UNL     1     -11.490  11.264  67.415  1.00  0.00    -0.300 C  
BRANCH   9  10
HETATM   10  C   UNL     1     -10.768  11.483  66.072  1.00  0.00    -0.281 C  
BRANCH  10  11
HETATM   11  C   UNL     1     -10.271  10.147  65.474  1.00  0.00    -0.288 C  
HETATM   12  C   UNL     1      -7.754  10.615  65.564  1.00  0.00    -0.083 C  
HETATM   13  C   UNL     1      -8.942  10.213  64.689  1.00  0.00    -0.241 C  
HETATM   14  C   UNL     1      -8.649   8.841  64.062  1.00  0.00    -0.076 C  
ENDBRANCH  10  11
BRANCH  10  15
HETATM   15  O   UNL     1     -11.702  12.047  65.142  1.00  0.00    -0.330 OA 
HETATM   16  O   UNL     1     -11.678  14.530  65.450  1.00  0.00    -0.350 OA 
HETATM   17  O   UNL     1     -10.147  13.432  63.756  1.00  0.00    -0.028 OA 
HETATM   18  S   UNL     1     -11.394  13.496  64.472  1.00  0.00    -0.374 S  
HETATM   19  O   UNL     1     -12.587  13.634  63.399  1.00  0.00    -0.799 OA 
ENDBRANCH  10  15
ENDBRANCH   9  10
ENDBRANCH   7   9
ENDBRANCH   3   4
ENDBRANCH   2   3
TORSDOF 6
ENDMDL
MODEL      103
REMARK 921   NORMALIZED FREE ENERGY PREDICTED BY IDOCK:   -4.32 KCAL/MOL
REMARK 922        TOTAL FREE ENERGY PREDICTED BY IDOCK:   -6.59 KCAL/MOL
REMARK 923 INTER-LIGAND FREE ENERGY PREDICTED BY IDOCK:   -5.51 KCAL/MOL
REMARK 924 INTRA-LIGAND FREE ENERGY PREDICTED BY IDOCK:   -1.08 KCAL/MOL
REMARK 927      BINDING AFFINITY PREDICTED BY RF-SCORE:    0.00 PKD
ROOT
HETATM    1  C   UNL     1      -9.480  17.562  66.599  1.00  0.00    -0.285 C  
HETATM    2  C   UNL     1      -9.756  16.173  67.155  1.00  0.00    -0.236 C  
ENDROOT
BRANCH   2   3
HETATM    3  C   UNL     1      -9.640  15.113  66.057  1.00  0.00    -0.365 C  
BRANCH   3   4
HETATM    4  C   UNL     1      -9.990  13.720  66.585  1.00  0.00    -0.279 C  
HETATM    5  C   UNL     1     -11.447  13.578  67.096  1.00  0.00    -0.368 C  
HETATM    6  C   UNL     1     -12.513  13.978  66.052  1.00  0.00    -0.489 C  
HETATM    7  C   UNL     1     -11.722  12.149  67.627  1.00  0.00    -0.386 C  
HETATM    8  C   UNL     1     -12.591  13.071  64.830  1.00  0.00    -0.490 C  
BRANCH   7   9
HETATM    9  C   UNL     1     -10.842  11.799  68.827  1.00  0.00    -0.268 C  
BRANCH   9  10
HETATM   10  C   UNL     1     -10.057  10.477  68.739  1.00  0.00    -0.191 C  
BRANCH  10  11
HETATM   11  C   UNL     1      -8.828  10.610  67.811  1.00  0.00    -0.133 C  
HETATM   12  C   UNL     1      -9.931   9.854  65.626  1.00  0.00    -0.353 C  
HETATM   13  C   UNL     1      -8.781   9.639  66.610  1.00  0.00    -0.146 C  
HETATM   14  C   UNL     1      -7.451   9.816  65.860  1.00  0.00    -0.103 C  
ENDBRANCH  10  11
BRANCH  10  15
HETATM   15  O   UNL     1      -9.570  10.150  70.048  1.00  0.00    -0.200 OA 
HETATM   16  O   UNL     1     -11.553   9.680  71.501  1.00  0.00    -0.370 OA 
HETATM   17  O   UNL     1     -10.407   7.801  70.245  1.00  0.00    -0.207 OA 
HETATM   18  S   UNL     1     -10.364   9.055  70.951  1.00  0.00    -0.282 S  
HETATM   19  O   UNL     1      -9.385   8.889  72.219  1.00  0.00    -0.360 OA 
ENDBRANCH  10  15
ENDBRANCH   9  10
ENDBRANCH   7   9
ENDBRANCH   3   4
ENDBRANCH   2   3
TORSDOF 6
ENDMDL
MODEL      104
REMARK 921   NORMALIZED FREE ENERGY PREDICTED BY IDOCK:   -4.31 KCAL/MOL
REMARK 922        TOTAL FREE ENERGY PREDICTED BY IDOCK:   -6.59 KCAL/MOL
REMARK 923 INTER-LIGAND FREE ENERGY PREDICTED BY IDOCK:   -5.81 KCAL/MOL
REMARK 924 INTRA-LIGAND FREE ENERGY PREDICTED BY IDOCK:   -0.78 KCAL/MOL
REMARK 927      BINDING AFFINITY PREDICTED BY RF-SCORE:    0.00 PKD
ROOT
HETATM    1  C   UNL     1     -13.893  13.583  72.329  1.00  0.00    -0.680 C  
HETATM    2  C   UNL     1     -12.836  12.940  71.445  1.00  0.00    -0.377 C  
ENDROOT
BRANCH   2   3
HETATM    3  C   UNL     1     -12.915  11.414  71.520  1.00  0.00    -0.505 C  
BRANCH   3   4
HETATM    4  C   UNL     1     -12.337  10.760  70.263  1.00  0.00    -0.423 C  
HETATM    5  C   UNL     1     -11.026   9.967  70.502  1.00  0.00    -0.392 C  
HETATM    6  C   UNL     1     -11.146   8.883  71.595  1.00  0.00    -0.420 C  
HETATM    7  C   UNL     1     -10.492   9.348  69.186  1.00  0.00    -0.230 C  
HETATM    8  C   UNL     1     -12.076   7.725  71.255  1.00  0.00    -0.328 C  
BRANCH   7   9
HETATM    9  C   UNL     1     -10.132  10.414  68.150  1.00  0.00    -0.179 C  
BRANCH   9  10
HETATM   10  C   UNL     1      -9.903   9.920  66.709  1.00  0.00    -0.201 C  
BRANCH  10  11
HETATM   11  C   UNL     1     -10.080   8.388  66.603  1.00  0.00    -0.358 C  
HETATM   12  C   UNL     1      -7.752   7.690  67.413  1.00  0.00    -0.117 C  
HETATM   13  C   UNL     1      -8.798   7.580  66.302  1.00  0.00    -0.184 C  
HETATM   14  C   UNL     1      -9.159   6.099  66.110  1.00  0.00    -0.158 C  
ENDBRANCH  10  11
BRANCH  10  15
HETATM   15  O   UNL     1     -10.889  10.524  65.861  1.00  0.00    -0.065 OA 
HETATM   16  O   UNL     1     -10.282  12.936  65.588  1.00  0.00    -0.279 OA 
HETATM   17  O   UNL     1      -9.443  11.207  63.938  1.00  0.00    -0.226 OA 
HETATM   18  S   UNL     1     -10.451  11.707  64.835  1.00  0.00    -0.303 S  
HETATM   19  O   UNL     1     -11.804  11.944  63.994  1.00  0.00    -0.383 OA 
ENDBRANCH  10  15
ENDBRANCH   9  10
ENDBRANCH   7   9
ENDBRANCH   3   4
ENDBRANCH   2   3
TORSDOF 6
ENDMDL
MODEL      105
REMARK 921   NORMALIZED FREE ENERGY PREDICTED BY IDOCK:   -4.31 KCAL/MOL
REMARK 922        TOTAL FREE ENERGY PREDICTED BY IDOCK:   -6.58 KCAL/MOL
REMARK 923 INTER-LIGAND FREE ENERGY PREDICTED BY IDOCK:   -6.08 KCAL/MOL
REMARK 924 INTRA-LIGAND FREE ENERGY PREDICTED BY IDOCK:   -0.50 KCAL/MOL
REMARK 927      BINDING AFFINITY PREDICTED BY RF-SCORE:    0.00 PKD
ROOT
HETATM    1  C   UNL     1      -9.542  11.543  62.970  1.00  0.00    -0.371 C  
HETATM    2  C   UNL     1     -10.711  11.093  63.833  1.00  0.00    -0.407 C  
ENDROOT
BRANCH   2   3
HETATM    3  C   UNL     1     -10.218  10.468  65.139  1.00  0.00    -0.358 C  
BRANCH   3   4
HETATM    4  C   UNL     1     -10.331  11.449  66.308  1.00  0.00    -0.287 C  
HETATM    5  C   UNL     1     -11.197  10.938  67.489  1.00  0.00    -0.364 C  
HETATM    6  C   UNL     1     -10.739   9.574  68.050  1.00  0.00    -0.266 C  
HETATM    7  C   UNL     1     -11.279  11.988  68.624  1.00  0.00    -0.309 C  
HETATM    8  C   UNL     1      -9.376   9.582  68.729  1.00  0.00    -0.146 C  
BRANCH   7   9
HETATM    9  C   UNL     1     -11.951  13.284  68.167  1.00  0.00    -0.340 C  
BRANCH   9  10
HETATM   10  C   UNL     1     -11.823  14.493  69.114  1.00  0.00    -0.319 C  
BRANCH  10  11
HETATM   11  C   UNL     1     -12.727  14.335  70.357  1.00  0.00    -0.355 C  
HETATM   12  C   UNL     1     -11.752  16.239  71.767  1.00  0.00    -0.504 C  
HETATM   13  C   UNL     1     -12.098  14.751  71.706  1.00  0.00    -0.417 C  
HETATM   14  C   UNL     1     -13.073  14.425  72.848  1.00  0.00    -0.612 C  
ENDBRANCH  10  11
BRANCH  10  15
HETATM   15  O   UNL     1     -10.468  14.564  69.578  1.00  0.00    -0.176 OA 
HETATM   16  O   UNL     1      -8.984  14.727  67.568  1.00  0.00    -0.175 OA 
HETATM   17  O   UNL     1      -9.834  16.823  68.711  1.00  0.00    -0.242 OA 
HETATM   18  S   UNL     1      -9.384  15.457  68.758  1.00  0.00    -0.222 S  
HETATM   19  O   UNL     1      -8.091  15.383  69.716  1.00  0.00    -0.207 OA 
ENDBRANCH  10  15
ENDBRANCH   9  10
ENDBRANCH   7   9
ENDBRANCH   3   4
ENDBRANCH   2   3
TORSDOF 6
ENDMDL
MODEL      106
REMARK 921   NORMALIZED FREE ENERGY PREDICTED BY IDOCK:   -4.29 KCAL/MOL
REMARK 922        TOTAL FREE ENERGY PREDICTED BY IDOCK:   -6.56 KCAL/MOL
REMARK 923 INTER-LIGAND FREE ENERGY PREDICTED BY IDOCK:   -5.72 KCAL/MOL
REMARK 924 INTRA-LIGAND FREE ENERGY PREDICTED BY IDOCK:   -0.84 KCAL/MOL
REMARK 927      BINDING AFFINITY PREDICTED BY RF-SCORE:    0.00 PKD
ROOT
HETATM    1  C   UNL     1      -5.930  17.729  69.913  1.00  0.00    -0.216 C  
HETATM    2  C   UNL     1      -6.615  17.181  68.671  1.00  0.00    -0.180 C  
ENDROOT
BRANCH   2   3
HETATM    3  C   UNL     1      -7.150  18.316  67.795  1.00  0.00    -0.213 C  
BRANCH   3   4
HETATM    4  C   UNL     1      -8.258  17.828  66.859  1.00  0.00    -0.254 C  
HETATM    5  C   UNL     1      -9.493  17.235  67.586  1.00  0.00    -0.246 C  
HETATM    6  C   UNL     1     -10.125  18.194  68.618  1.00  0.00    -0.406 C  
HETATM    7  C   UNL     1     -10.562  16.749  66.576  1.00  0.00    -0.198 C  
HETATM    8  C   UNL     1     -10.763  19.446  68.029  1.00  0.00    -0.350 C  
BRANCH   7   9
HETATM    9  C   UNL     1     -10.045  15.620  65.684  1.00  0.00    -0.395 C  
BRANCH   9  10
HETATM   10  C   UNL     1     -10.653  14.225  65.920  1.00  0.00    -0.302 C  
BRANCH  10  11
HETATM   11  C   UNL     1     -10.058  13.178  64.952  1.00  0.00    -0.236 C  
HETATM   12  C   UNL     1     -12.196  12.614  63.657  1.00  0.00    -0.624 C  
HETATM   13  C   UNL     1     -11.026  12.070  64.478  1.00  0.00    -0.369 C  
HETATM   14  C   UNL     1     -10.258  11.049  63.624  1.00  0.00    -0.431 C  
ENDBRANCH  10  11
BRANCH  10  15
HETATM   15  O   UNL     1     -10.327  13.808  67.253  1.00  0.00    -0.250 OA 
HETATM   16  O   UNL     1     -12.244  14.433  68.736  1.00  0.00    -0.275 OA 
HETATM   17  O   UNL     1     -12.156  12.148  67.645  1.00  0.00    -0.522 OA 
HETATM   18  S   UNL     1     -11.506  13.284  68.243  1.00  0.00    -0.340 S  
HETATM   19  O   UNL     1     -10.672  12.775  69.523  1.00  0.00     0.089 OA 
ENDBRANCH  10  15
ENDBRANCH   9  10
ENDBRANCH   7   9
ENDBRANCH   3   4
ENDBRANCH   2   3
TORSDOF 6
ENDMDL
MODEL      107
REMARK 921   NORMALIZED FREE ENERGY PREDICTED BY IDOCK:   -4.29 KCAL/MOL
REMARK 922        TOTAL FREE ENERGY PREDICTED BY IDOCK:   -6.55 KCAL/MOL
REMARK 923 INTER-LIGAND FREE ENERGY PREDICTED BY IDOCK:   -6.41 KCAL/MOL
REMARK 924 INTRA-LIGAND FREE ENERGY PREDICTED BY IDOCK:   -0.14 KCAL/MOL
REMARK 927      BINDING AFFINITY PREDICTED BY RF-SCORE:    0.00 PKD
ROOT
HETATM    1  C   UNL     1      -9.954   9.681  66.068  1.00  0.00    -0.344 C  
HETATM    2  C   UNL     1     -10.313   8.502  66.959  1.00  0.00    -0.379 C  
ENDROOT
BRANCH   2   3
HETATM    3  C   UNL     1      -9.627   8.619  68.322  1.00  0.00    -0.160 C  
BRANCH   3   4
HETATM    4  C   UNL     1      -9.935   9.960  68.992  1.00  0.00    -0.193 C  
HETATM    5  C   UNL     1     -11.345  10.044  69.632  1.00  0.00    -0.253 C  
HETATM    6  C   UNL     1     -11.632   8.921  70.653  1.00  0.00    -0.251 C  
HETATM    7  C   UNL     1     -11.590  11.432  70.275  1.00  0.00    -0.334 C  
HETATM    8  C   UNL     1     -10.784   8.966  71.917  1.00  0.00    -0.426 C  
BRANCH   7   9
HETATM    9  C   UNL     1     -11.551  12.562  69.246  1.00  0.00    -0.378 C  
BRANCH   9  10
HETATM   10  C   UNL     1     -12.318  13.847  69.609  1.00  0.00    -0.249 C  
BRANCH  10  11
HETATM   11  C   UNL     1     -11.922  14.365  71.010  1.00  0.00    -0.389 C  
HETATM   12  C   UNL     1     -14.011  13.611  72.287  1.00  0.00    -0.661 C  
HETATM   13  C   UNL     1     -13.091  14.780  71.931  1.00  0.00    -0.419 C  
HETATM   14  C   UNL     1     -12.532  15.379  73.231  1.00  0.00    -0.603 C  
ENDBRANCH  10  11
BRANCH  10  15
HETATM   15  O   UNL     1     -11.968  14.866  68.662  1.00  0.00    -0.302 OA 
HETATM   16  O   UNL     1     -10.913  16.750  69.929  1.00  0.00    -0.293 OA 
HETATM   17  O   UNL     1      -9.485  14.895  68.959  1.00  0.00    -0.210 OA 
HETATM   18  S   UNL     1     -10.632  15.762  68.903  1.00  0.00    -0.249 S  
HETATM   19  O   UNL     1     -10.551  16.621  67.543  1.00  0.00    -0.319 OA 
ENDBRANCH  10  15
ENDBRANCH   9  10
ENDBRANCH   7   9
ENDBRANCH   3   4
ENDBRANCH   2   3
TORSDOF 6
ENDMDL
MODEL      108
REMARK 921   NORMALIZED FREE ENERGY PREDICTED BY IDOCK:   -4.28 KCAL/MOL
REMARK 922        TOTAL FREE ENERGY PREDICTED BY IDOCK:   -6.55 KCAL/MOL
REMARK 923 INTER-LIGAND FREE ENERGY PREDICTED BY IDOCK:   -5.85 KCAL/MOL
REMARK 924 INTRA-LIGAND FREE ENERGY PREDICTED BY IDOCK:   -0.70 KCAL/MOL
REMARK 927      BINDING AFFINITY PREDICTED BY RF-SCORE:    0.00 PKD
ROOT
HETATM    1  C   UNL     1     -12.875  11.443  71.298  1.00  0.00    -0.481 C  
HETATM    2  C   UNL     1     -12.737   9.994  71.738  1.00  0.00    -0.526 C  
ENDROOT
BRANCH   2   3
HETATM    3  C   UNL     1     -11.362   9.437  71.365  1.00  0.00    -0.451 C  
BRANCH   3   4
HETATM    4  C   UNL     1     -10.909   9.936  69.991  1.00  0.00    -0.339 C  
HETATM    5  C   UNL     1      -9.371  10.043  69.826  1.00  0.00    -0.233 C  
HETATM    6  C   UNL     1      -8.621   8.727  70.130  1.00  0.00    -0.149 C  
HETATM    7  C   UNL     1      -8.989  10.568  68.420  1.00  0.00    -0.141 C  
HETATM    8  C   UNL     1      -8.896   7.589  69.155  1.00  0.00    -0.136 C  
BRANCH   7   9
HETATM    9  C   UNL     1      -9.516  11.981  68.167  1.00  0.00    -0.200 C  
BRANCH   9  10
HETATM   10  C   UNL     1     -10.091  12.257  66.765  1.00  0.00    -0.209 C  
BRANCH  10  11
HETATM   11  C   UNL     1     -10.167  13.773  66.474  1.00  0.00    -0.284 C  
HETATM   12  C   UNL     1     -12.539  13.846  65.509  1.00  0.00    -0.560 C  
HETATM   13  C   UNL     1     -11.065  14.188  65.287  1.00  0.00    -0.331 C  
HETATM   14  C   UNL     1     -10.941  15.702  65.055  1.00  0.00    -0.445 C  
ENDBRANCH  10  11
BRANCH  10  15
HETATM   15  O   UNL     1      -9.210  11.680  65.792  1.00  0.00    -0.225 OA 
HETATM   16  O   UNL     1      -9.901   9.297  65.460  1.00  0.00    -0.265 OA 
HETATM   17  O   UNL     1     -10.857  11.127  63.992  1.00  0.00    -0.378 OA 
HETATM   18  S   UNL     1      -9.778  10.561  64.757  1.00  0.00    -0.331 S  
HETATM   19  O   UNL     1      -8.522  10.342  63.773  1.00  0.00    -0.166 OA 
ENDBRANCH  10  15
ENDBRANCH   9  10
ENDBRANCH   7   9
ENDBRANCH   3   4
ENDBRANCH   2   3
TORSDOF 6
ENDMDL
MODEL      109
REMARK 921   NORMALIZED FREE ENERGY PREDICTED BY IDOCK:   -4.28 KCAL/MOL
REMARK 922        TOTAL FREE ENERGY PREDICTED BY IDOCK:   -6.55 KCAL/MOL
REMARK 923 INTER-LIGAND FREE ENERGY PREDICTED BY IDOCK:   -5.60 KCAL/MOL
REMARK 924 INTRA-LIGAND FREE ENERGY PREDICTED BY IDOCK:   -0.94 KCAL/MOL
REMARK 927      BINDING AFFINITY PREDICTED BY RF-SCORE:    0.00 PKD
ROOT
HETATM    1  C   UNL     1      -5.426  19.334  67.585  1.00  0.00    -0.171 C  
HETATM    2  C   UNL     1      -6.190  19.321  66.270  1.00  0.00    -0.189 C  
ENDROOT
BRANCH   2   3
HETATM    3  C   UNL     1      -7.441  20.198  66.357  1.00  0.00    -0.311 C  
BRANCH   3   4
HETATM    4  C   UNL     1      -8.719  19.368  66.212  1.00  0.00    -0.364 C  
HETATM    5  C   UNL     1      -8.980  18.390  67.386  1.00  0.00    -0.265 C  
HETATM    6  C   UNL     1      -9.006  19.073  68.771  1.00  0.00    -0.358 C  
HETATM    7  C   UNL     1     -10.279  17.575  67.164  1.00  0.00    -0.323 C  
HETATM    8  C   UNL     1     -10.164  20.038  68.992  1.00  0.00    -0.293 C  
BRANCH   7   9
HETATM    9  C   UNL     1     -10.201  16.692  65.918  1.00  0.00    -0.358 C  
BRANCH   9  10
HETATM   10  C   UNL     1     -10.324  15.173  66.145  1.00  0.00    -0.301 C  
BRANCH  10  11
HETATM   11  C   UNL     1     -10.578  14.423  64.818  1.00  0.00    -0.417 C  
HETATM   12  C   UNL     1     -12.868  13.425  65.390  1.00  0.00    -0.388 C  
HETATM   13  C   UNL     1     -11.440  13.144  64.921  1.00  0.00    -0.337 C  
HETATM   14  C   UNL     1     -11.500  12.455  63.548  1.00  0.00    -0.561 C  
ENDBRANCH  10  11
BRANCH  10  15
HETATM   15  O   UNL     1      -9.082  14.692  66.676  1.00  0.00    -0.252 OA 
HETATM   16  O   UNL     1      -9.210  14.852  69.171  1.00  0.00    -0.193 OA 
HETATM   17  O   UNL     1      -9.906  12.725  67.984  1.00  0.00    -0.213 OA 
HETATM   18  S   UNL     1      -9.070  13.892  68.092  1.00  0.00    -0.196 S  
HETATM   19  O   UNL     1      -7.537  13.408  68.194  1.00  0.00    -0.113 OA 
ENDBRANCH  10  15
ENDBRANCH   9  10
ENDBRANCH   7   9
ENDBRANCH   3   4
ENDBRANCH   2   3
TORSDOF 6
ENDMDL
MODEL      110
REMARK 921   NORMALIZED FREE ENERGY PREDICTED BY IDOCK:   -4.27 KCAL/MOL
REMARK 922        TOTAL FREE ENERGY PREDICTED BY IDOCK:   -6.53 KCAL/MOL
REMARK 923 INTER-LIGAND FREE ENERGY PREDICTED BY IDOCK:   -5.94 KCAL/MOL
REMARK 924 INTRA-LIGAND FREE ENERGY PREDICTED BY IDOCK:   -0.59 KCAL/MOL
REMARK 927      BINDING AFFINITY PREDICTED BY RF-SCORE:    0.00 PKD
ROOT
HETATM    1  C   UNL     1     -13.721  13.240  72.141  1.00  0.00    -0.619 C  
HETATM    2  C   UNL     1     -13.687  14.742  72.378  1.00  0.00    -0.576 C  
ENDROOT
BRANCH   2   3
HETATM    3  C   UNL     1     -13.100  15.473  71.169  1.00  0.00    -0.573 C  
BRANCH   3   4
HETATM    4  C   UNL     1     -11.901  14.721  70.586  1.00  0.00    -0.364 C  
HETATM    5  C   UNL     1     -11.720  14.898  69.056  1.00  0.00    -0.347 C  
HETATM    6  C   UNL     1     -11.627  16.373  68.608  1.00  0.00    -0.127 C  
HETATM    7  C   UNL     1     -10.500  14.098  68.536  1.00  0.00    -0.252 C  
HETATM    8  C   UNL     1     -10.387  17.115  69.090  1.00  0.00    -0.297 C  
BRANCH   7   9
HETATM    9  C   UNL     1     -10.663  12.592  68.748  1.00  0.00    -0.240 C  
BRANCH   9  10
HETATM   10  C   UNL     1     -10.391  11.694  67.526  1.00  0.00    -0.197 C  
BRANCH  10  11
HETATM   11  C   UNL     1     -11.382  11.989  66.378  1.00  0.00    -0.411 C  
HETATM   12  C   UNL     1     -10.226  10.634  64.536  1.00  0.00    -0.399 C  
HETATM   13  C   UNL     1     -10.782  11.996  64.954  1.00  0.00    -0.346 C  
HETATM   14  C   UNL     1     -11.861  12.418  63.945  1.00  0.00    -0.551 C  
ENDBRANCH  10  11
BRANCH  10  15
HETATM   15  O   UNL     1      -9.074  11.981  67.037  1.00  0.00    -0.179 OA 
HETATM   16  O   UNL     1      -7.477  11.703  68.945  1.00  0.00    -0.116 OA 
HETATM   17  O   UNL     1      -7.985   9.759  67.402  1.00  0.00    -0.102 OA 
HETATM   18  S   UNL     1      -7.799  11.167  67.635  1.00  0.00    -0.119 S  
HETATM   19  O   UNL     1      -6.597  11.681  66.695  1.00  0.00    -0.123 OA 
ENDBRANCH  10  15
ENDBRANCH   9  10
ENDBRANCH   7   9
ENDBRANCH   3   4
ENDBRANCH   2   3
TORSDOF 6
ENDMDL
MODEL      111
REMARK 921   NORMALIZED FREE ENERGY PREDICTED BY IDOCK:   -4.26 KCAL/MOL
REMARK 922        TOTAL FREE ENERGY PREDICTED BY IDOCK:   -6.52 KCAL/MOL
REMARK 923 INTER-LIGAND FREE ENERGY PREDICTED BY IDOCK:   -6.53 KCAL/MOL
REMARK 924 INTRA-LIGAND FREE ENERGY PREDICTED BY IDOCK:    0.01 KCAL/MOL
REMARK 927      BINDING AFFINITY PREDICTED BY RF-SCORE:    0.00 PKD
ROOT
HETATM    1  C   UNL     1      -9.094   5.368  65.975  1.00  0.00    -0.159 C  
HETATM    2  C   UNL     1     -10.054   5.398  67.154  1.00  0.00    -0.231 C  
ENDROOT
BRANCH   2   3
HETATM    3  C   UNL     1     -11.062   6.540  67.010  1.00  0.00    -0.411 C  
BRANCH   3   4
HETATM    4  C   UNL     1     -10.360   7.888  66.828  1.00  0.00    -0.357 C  
HETATM    5  C   UNL     1     -10.632   8.908  67.963  1.00  0.00    -0.226 C  
HETATM    6  C   UNL     1     -10.290   8.374  69.372  1.00  0.00    -0.217 C  
HETATM    7  C   UNL     1      -9.904  10.250  67.703  1.00  0.00    -0.199 C  
HETATM    8  C   UNL     1      -8.809   8.117  69.621  1.00  0.00    -0.143 C  
BRANCH   7   9
HETATM    9  C   UNL     1     -10.392  10.934  66.426  1.00  0.00    -0.306 C  
BRANCH   9  10
HETATM   10  C   UNL     1     -11.627  11.845  66.565  1.00  0.00    -0.255 C  
BRANCH  10  11
HETATM   11  C   UNL     1     -11.271  13.177  67.263  1.00  0.00    -0.319 C  
HETATM   12  C   UNL     1     -11.699  12.452  69.683  1.00  0.00    -0.377 C  
HETATM   13  C   UNL     1     -12.018  13.467  68.584  1.00  0.00    -0.362 C  
HETATM   14  C   UNL     1     -11.644  14.870  69.087  1.00  0.00    -0.331 C  
ENDBRANCH  10  11
BRANCH  10  15
HETATM   15  O   UNL     1     -12.103  12.166  65.251  1.00  0.00    -0.435 OA 
HETATM   16  O   UNL     1     -13.349  14.332  65.402  1.00  0.00    -0.649 OA 
HETATM   17  O   UNL     1     -10.875  14.310  64.859  1.00  0.00    -0.373 OA 
HETATM   18  S   UNL     1     -12.186  13.722  64.784  1.00  0.00    -0.403 S  
HETATM   19  O   UNL     1     -12.592  13.587  63.231  1.00  0.00    -0.773 OA 
ENDBRANCH  10  15
ENDBRANCH   9  10
ENDBRANCH   7   9
ENDBRANCH   3   4
ENDBRANCH   2   3
TORSDOF 6
ENDMDL
MODEL      112
REMARK 921   NORMALIZED FREE ENERGY PREDICTED BY IDOCK:   -4.26 KCAL/MOL
REMARK 922        TOTAL FREE ENERGY PREDICTED BY IDOCK:   -6.51 KCAL/MOL
REMARK 923 INTER-LIGAND FREE ENERGY PREDICTED BY IDOCK:   -6.25 KCAL/MOL
REMARK 924 INTRA-LIGAND FREE ENERGY PREDICTED BY IDOCK:   -0.26 KCAL/MOL
REMARK 927      BINDING AFFINITY PREDICTED BY RF-SCORE:    0.00 PKD
ROOT
HETATM    1  C   UNL     1     -11.705  12.814  63.544  1.00  0.00    -0.597 C  
HETATM    2  C   UNL     1     -12.053  14.081  64.310  1.00  0.00    -0.476 C  
ENDROOT
BRANCH   2   3
HETATM    3  C   UNL     1     -12.182  13.795  65.808  1.00  0.00    -0.495 C  
BRANCH   3   4
HETATM    4  C   UNL     1     -11.127  14.553  66.617  1.00  0.00    -0.333 C  
HETATM    5  C   UNL     1     -11.304  14.448  68.154  1.00  0.00    -0.317 C  
HETATM    6  C   UNL     1     -11.356  12.995  68.675  1.00  0.00    -0.329 C  
HETATM    7  C   UNL     1     -10.212  15.250  68.904  1.00  0.00    -0.232 C  
HETATM    8  C   UNL     1     -10.061  12.208  68.521  1.00  0.00    -0.192 C  
BRANCH   7   9
HETATM    9  C   UNL     1     -10.279  16.746  68.596  1.00  0.00    -0.298 C  
BRANCH   9  10
HETATM   10  C   UNL     1      -9.041  17.362  67.915  1.00  0.00    -0.255 C  
BRANCH  10  11
HETATM   11  C   UNL     1      -9.432  18.174  66.660  1.00  0.00    -0.303 C  
HETATM   12  C   UNL     1      -9.891  20.421  67.803  1.00  0.00    -0.494 C  
HETATM   13  C   UNL     1     -10.438  19.325  66.888  1.00  0.00    -0.547 C  
HETATM   14  C   UNL     1     -10.813  19.953  65.537  1.00  0.00    -0.232 C  
ENDBRANCH  10  11
BRANCH  10  15
HETATM   15  O   UNL     1      -8.423  18.270  68.836  1.00  0.00    -0.257 OA 
HETATM   16  O   UNL     1      -6.430  17.118  69.819  1.00  0.00    -0.218 OA 
HETATM   17  O   UNL     1      -6.192  18.545  67.739  1.00  0.00    -0.186 OA 
HETATM   18  S   UNL     1      -6.806  18.263  69.010  1.00  0.00    -0.229 S  
HETATM   19  O   UNL     1      -6.563  19.525  69.980  1.00  0.00    -0.263 OA 
ENDBRANCH  10  15
ENDBRANCH   9  10
ENDBRANCH   7   9
ENDBRANCH   3   4
ENDBRANCH   2   3
TORSDOF 6
ENDMDL
MODEL      113
REMARK 921   NORMALIZED FREE ENERGY PREDICTED BY IDOCK:   -4.26 KCAL/MOL
REMARK 922        TOTAL FREE ENERGY PREDICTED BY IDOCK:   -6.51 KCAL/MOL
REMARK 923 INTER-LIGAND FREE ENERGY PREDICTED BY IDOCK:   -5.57 KCAL/MOL
REMARK 924 INTRA-LIGAND FREE ENERGY PREDICTED BY IDOCK:   -0.95 KCAL/MOL
REMARK 927      BINDING AFFINITY PREDICTED BY RF-SCORE:    0.00 PKD
ROOT
HETATM    1  C   UNL     1      -6.518  20.190  69.257  1.00  0.00    -0.335 C  
HETATM    2  C   UNL     1      -6.727  20.928  67.944  1.00  0.00    -0.337 C  
ENDROOT
BRANCH   2   3
HETATM    3  C   UNL     1      -6.638  19.967  66.756  1.00  0.00    -0.235 C  
BRANCH   3   4
HETATM    4  C   UNL     1      -7.474  18.707  66.991  1.00  0.00    -0.229 C  
HETATM    5  C   UNL     1      -6.897  17.427  66.332  1.00  0.00    -0.310 C  
HETATM    6  C   UNL     1      -5.440  17.121  66.743  1.00  0.00    -0.211 C  
HETATM    7  C   UNL     1      -7.802  16.199  66.598  1.00  0.00    -0.288 C  
HETATM    8  C   UNL     1      -5.248  16.752  68.209  1.00  0.00    -0.115 C  
BRANCH   7   9
HETATM    9  C   UNL     1      -9.196  16.365  65.992  1.00  0.00    -0.328 C  
BRANCH   9  10
HETATM   10  C   UNL     1     -10.304  15.459  66.563  1.00  0.00    -0.289 C  
BRANCH  10  11
HETATM   11  C   UNL     1     -10.318  14.079  65.868  1.00  0.00    -0.327 C  
HETATM   12  C   UNL     1     -12.847  13.872  65.510  1.00  0.00    -0.471 C  
HETATM   13  C   UNL     1     -11.588  13.226  66.089  1.00  0.00    -0.385 C  
HETATM   14  C   UNL     1     -11.398  11.847  65.438  1.00  0.00    -0.334 C  
ENDBRANCH  10  11
BRANCH  10  15
HETATM   15  O   UNL     1     -10.034  15.235  67.953  1.00  0.00    -0.225 OA 
HETATM   16  O   UNL     1     -10.255  17.430  69.135  1.00  0.00    -0.329 OA 
HETATM   17  O   UNL     1     -12.246  15.877  68.930  1.00  0.00    -0.226 OA 
HETATM   18  S   UNL     1     -10.831  16.100  69.077  1.00  0.00    -0.323 S  
HETATM   19  O   UNL     1     -10.349  15.403  70.446  1.00  0.00    -0.269 OA 
ENDBRANCH  10  15
ENDBRANCH   9  10
ENDBRANCH   7   9
ENDBRANCH   3   4
ENDBRANCH   2   3
TORSDOF 6
ENDMDL
MODEL      114
REMARK 921   NORMALIZED FREE ENERGY PREDICTED BY IDOCK:   -4.26 KCAL/MOL
REMARK 922        TOTAL FREE ENERGY PREDICTED BY IDOCK:   -6.51 KCAL/MOL
REMARK 923 INTER-LIGAND FREE ENERGY PREDICTED BY IDOCK:   -5.69 KCAL/MOL
REMARK 924 INTRA-LIGAND FREE ENERGY PREDICTED BY IDOCK:   -0.82 KCAL/MOL
REMARK 927      BINDING AFFINITY PREDICTED BY RF-SCORE:    0.00 PKD
ROOT
HETATM    1  C   UNL     1     -10.909   6.094  67.368  1.00  0.00    -0.431 C  
HETATM    2  C   UNL     1     -10.634   5.519  68.748  1.00  0.00    -0.236 C  
ENDROOT
BRANCH   2   3
HETATM    3  C   UNL     1     -11.205   6.425  69.841  1.00  0.00    -0.485 C  
BRANCH   3   4
HETATM    4  C   UNL     1     -11.016   7.905  69.499  1.00  0.00    -0.078 C  
HETATM    5  C   UNL     1     -11.202   8.867  70.700  1.00  0.00    -0.308 C  
HETATM    6  C   UNL     1     -10.298   8.534  71.908  1.00  0.00    -0.378 C  
HETATM    7  C   UNL     1     -11.011  10.344  70.276  1.00  0.00    -0.353 C  
HETATM    8  C   UNL     1      -8.806   8.725  71.668  1.00  0.00    -0.278 C  
BRANCH   7   9
HETATM    9  C   UNL     1     -12.049  10.788  69.244  1.00  0.00    -0.278 C  
BRANCH   9  10
HETATM   10  C   UNL     1     -11.534  11.664  68.087  1.00  0.00    -0.313 C  
BRANCH  10  11
HETATM   11  C   UNL     1     -11.600  13.166  68.443  1.00  0.00    -0.372 C  
HETATM   12  C   UNL     1     -12.297  14.061  66.146  1.00  0.00    -0.491 C  
HETATM   13  C   UNL     1     -11.287  14.147  67.291  1.00  0.00    -0.349 C  
HETATM   14  C   UNL     1     -11.276  15.586  67.831  1.00  0.00    -0.325 C  
ENDBRANCH  10  11
BRANCH  10  15
HETATM   15  O   UNL     1     -10.157  11.340  67.852  1.00  0.00    -0.172 OA 
HETATM   16  O   UNL     1     -10.092   9.295  66.411  1.00  0.00    -0.271 OA 
HETATM   17  O   UNL     1     -10.072  11.602  65.365  1.00  0.00    -0.239 OA 
HETATM   18  S   UNL     1      -9.715  10.696  66.425  1.00  0.00    -0.204 S  
HETATM   19  O   UNL     1      -8.110  10.669  66.549  1.00  0.00    -0.129 OA 
ENDBRANCH  10  15
ENDBRANCH   9  10
ENDBRANCH   7   9
ENDBRANCH   3   4
ENDBRANCH   2   3
TORSDOF 6
ENDMDL
MODEL      115
REMARK 921   NORMALIZED FREE ENERGY PREDICTED BY IDOCK:   -4.24 KCAL/MOL
REMARK 922        TOTAL FREE ENERGY PREDICTED BY IDOCK:   -6.49 KCAL/MOL
REMARK 923 INTER-LIGAND FREE ENERGY PREDICTED BY IDOCK:   -5.60 KCAL/MOL
REMARK 924 INTRA-LIGAND FREE ENERGY PREDICTED BY IDOCK:   -0.89 KCAL/MOL
REMARK 927      BINDING AFFINITY PREDICTED BY RF-SCORE:    0.00 PKD
ROOT
HETATM    1  C   UNL     1      -9.176   5.680  68.717  1.00  0.00    -0.133 C  
HETATM    2  C   UNL     1     -10.345   5.334  69.627  1.00  0.00    -0.348 C  
ENDROOT
BRANCH   2   3
HETATM    3  C   UNL     1     -11.321   6.507  69.733  1.00  0.00    -0.456 C  
BRANCH   3   4
HETATM    4  C   UNL     1     -10.783   7.751  69.021  1.00  0.00    -0.119 C  
HETATM    5  C   UNL     1     -10.916   9.061  69.839  1.00  0.00    -0.204 C  
HETATM    6  C   UNL     1     -10.265   8.990  71.237  1.00  0.00    -0.384 C  
HETATM    7  C   UNL     1     -10.368  10.276  69.050  1.00  0.00    -0.229 C  
HETATM    8  C   UNL     1      -8.748   8.853  71.235  1.00  0.00    -0.279 C  
BRANCH   7   9
HETATM    9  C   UNL     1     -11.149  10.529  67.760  1.00  0.00    -0.382 C  
BRANCH   9  10
HETATM   10  C   UNL     1     -10.730  11.762  66.936  1.00  0.00    -0.250 C  
BRANCH  10  11
HETATM   11  C   UNL     1     -11.724  12.035  65.784  1.00  0.00    -0.313 C  
HETATM   12  C   UNL     1     -10.369  10.998  63.873  1.00  0.00    -0.436 C  
HETATM   13  C   UNL     1     -11.097  12.240  64.387  1.00  0.00    -0.381 C  
HETATM   14  C   UNL     1     -12.197  12.617  63.382  1.00  0.00    -0.610 C  
ENDBRANCH  10  11
BRANCH  10  15
HETATM   15  O   UNL     1     -10.748  12.909  67.796  1.00  0.00    -0.218 OA 
HETATM   16  O   UNL     1      -8.384  13.399  68.458  1.00  0.00    -0.151 OA 
HETATM   17  O   UNL     1      -9.401  14.502  66.416  1.00  0.00    -0.282 OA 
HETATM   18  S   UNL     1      -9.515  13.969  67.748  1.00  0.00    -0.216 S  
HETATM   19  O   UNL     1     -10.038  15.141  68.720  1.00  0.00    -0.212 OA 
ENDBRANCH  10  15
ENDBRANCH   9  10
ENDBRANCH   7   9
ENDBRANCH   3   4
ENDBRANCH   2   3
TORSDOF 6
ENDMDL
MODEL      116
REMARK 921   NORMALIZED FREE ENERGY PREDICTED BY IDOCK:   -4.21 KCAL/MOL
REMARK 922        TOTAL FREE ENERGY PREDICTED BY IDOCK:   -6.44 KCAL/MOL
REMARK 923 INTER-LIGAND FREE ENERGY PREDICTED BY IDOCK:   -5.88 KCAL/MOL
REMARK 924 INTRA-LIGAND FREE ENERGY PREDICTED BY IDOCK:   -0.56 KCAL/MOL
REMARK 927      BINDING AFFINITY PREDICTED BY RF-SCORE:    0.00 PKD
ROOT
HETATM    1  C   UNL     1      -6.598  16.964  69.042  1.00  0.00    -0.209 C  
HETATM    2  C   UNL     1      -5.808  15.671  68.921  1.00  0.00    -0.103 C  
ENDROOT
BRANCH   2   3
HETATM    3  C   UNL     1      -6.477  14.712  67.934  1.00  0.00    -0.177 C  
BRANCH   3   4
HETATM    4  C   UNL     1      -7.920  14.405  68.340  1.00  0.00    -0.141 C  
HETATM    5  C   UNL     1      -8.642  13.391  67.416  1.00  0.00    -0.204 C  
HETATM    6  C   UNL     1      -7.891  12.050  67.261  1.00  0.00    -0.170 C  
HETATM    7  C   UNL     1     -10.099  13.142  67.879  1.00  0.00    -0.232 C  
HETATM    8  C   UNL     1      -7.804  11.210  68.529  1.00  0.00    -0.136 C  
BRANCH   7   9
HETATM    9  C   UNL     1     -10.949  14.412  67.819  1.00  0.00    -0.283 C  
BRANCH   9  10
HETATM   10  C   UNL     1     -11.243  14.974  66.415  1.00  0.00    -0.310 C  
BRANCH  10  11
HETATM   11  C   UNL     1     -10.275  16.123  66.052  1.00  0.00    -0.374 C  
HETATM   12  C   UNL     1     -10.288  17.343  68.305  1.00  0.00    -0.374 C  
HETATM   13  C   UNL     1     -10.504  17.458  66.795  1.00  0.00    -0.257 C  
HETATM   14  C   UNL     1      -9.545  18.524  66.241  1.00  0.00    -0.279 C  
ENDBRANCH  10  11
BRANCH  10  15
HETATM   15  O   UNL     1     -11.041  13.927  65.456  1.00  0.00    -0.297 OA 
HETATM   16  O   UNL     1     -13.256  12.836  65.045  1.00  0.00    -0.768 OA 
HETATM   17  O   UNL     1     -12.486  14.764  63.594  1.00  0.00    -0.726 OA 
HETATM   18  S   UNL     1     -12.210  13.589  64.377  1.00  0.00    -0.369 S  
HETATM   19  O   UNL     1     -11.491  12.505  63.428  1.00  0.00    -0.472 OA 
ENDBRANCH  10  15
ENDBRANCH   9  10
ENDBRANCH   7   9
ENDBRANCH   3   4
ENDBRANCH   2   3
TORSDOF 6
ENDMDL
MODEL      117
REMARK 921   NORMALIZED FREE ENERGY PREDICTED BY IDOCK:   -4.20 KCAL/MOL
REMARK 922        TOTAL FREE ENERGY PREDICTED BY IDOCK:   -6.44 KCAL/MOL
REMARK 923 INTER-LIGAND FREE ENERGY PREDICTED BY IDOCK:   -5.47 KCAL/MOL
REMARK 924 INTRA-LIGAND FREE ENERGY PREDICTED BY IDOCK:   -0.96 KCAL/MOL
REMARK 927      BINDING AFFINITY PREDICTED BY RF-SCORE:    0.00 PKD
ROOT
HETATM    1  C   UNL     1      -5.492   9.910  67.810  1.00  0.00    -0.039 C  
HETATM    2  C   UNL     1      -6.480   9.895  68.966  1.00  0.00    -0.048 C  
ENDROOT
BRANCH   2   3
HETATM    3  C   UNL     1      -7.648   8.951  68.674  1.00  0.00    -0.096 C  
BRANCH   3   4
HETATM    4  C   UNL     1      -8.676   9.602  67.744  1.00  0.00    -0.122 C  
HETATM    5  C   UNL     1      -8.813   8.912  66.362  1.00  0.00    -0.178 C  
HETATM    6  C   UNL     1      -9.132   7.403  66.450  1.00  0.00    -0.196 C  
HETATM    7  C   UNL     1      -9.856   9.633  65.473  1.00  0.00    -0.352 C  
HETATM    8  C   UNL     1     -10.499   7.066  67.030  1.00  0.00    -0.386 C  
BRANCH   7   9
HETATM    9  C   UNL     1      -9.454  11.075  65.162  1.00  0.00    -0.265 C  
BRANCH   9  10
HETATM   10  C   UNL     1     -10.300  12.180  65.822  1.00  0.00    -0.258 C  
BRANCH  10  11
HETATM   11  C   UNL     1      -9.456  13.029  66.800  1.00  0.00    -0.250 C  
HETATM   12  C   UNL     1     -11.125  13.125  68.741  1.00  0.00    -0.309 C  
HETATM   13  C   UNL     1     -10.253  13.926  67.774  1.00  0.00    -0.237 C  
HETATM   14  C   UNL     1      -9.277  14.788  68.591  1.00  0.00    -0.194 C  
ENDBRANCH  10  11
BRANCH  10  15
HETATM   15  O   UNL     1     -10.777  13.060  64.795  1.00  0.00    -0.314 OA 
HETATM   16  O   UNL     1     -12.385  11.770  63.376  1.00  0.00    -0.532 OA 
HETATM   17  O   UNL     1     -13.213  13.104  65.364  1.00  0.00    -0.564 OA 
HETATM   18  S   UNL     1     -12.307  12.917  64.261  1.00  0.00    -0.372 S  
HETATM   19  O   UNL     1     -12.441  14.183  63.275  1.00  0.00    -0.758 OA 
ENDBRANCH  10  15
ENDBRANCH   9  10
ENDBRANCH   7   9
ENDBRANCH   3   4
ENDBRANCH   2   3
TORSDOF 6
ENDMDL
MODEL      118
REMARK 921   NORMALIZED FREE ENERGY PREDICTED BY IDOCK:   -4.20 KCAL/MOL
REMARK 922        TOTAL FREE ENERGY PREDICTED BY IDOCK:   -6.43 KCAL/MOL
REMARK 923 INTER-LIGAND FREE ENERGY PREDICTED BY IDOCK:   -6.50 KCAL/MOL
REMARK 924 INTRA-LIGAND FREE ENERGY PREDICTED BY IDOCK:    0.07 KCAL/MOL
REMARK 927      BINDING AFFINITY PREDICTED BY RF-SCORE:    0.00 PKD
ROOT
HETATM    1  C   UNL     1     -14.239  13.771  72.132  1.00  0.00    -0.544 C  
HETATM    2  C   UNL     1     -14.043  15.231  71.754  1.00  0.00    -0.654 C  
ENDROOT
BRANCH   2   3
HETATM    3  C   UNL     1     -12.872  15.391  70.782  1.00  0.00    -0.524 C  
BRANCH   3   4
HETATM    4  C   UNL     1     -12.156  14.060  70.542  1.00  0.00    -0.424 C  
HETATM    5  C   UNL     1     -12.264  13.531  69.088  1.00  0.00    -0.236 C  
HETATM    6  C   UNL     1     -11.776  14.538  68.024  1.00  0.00    -0.373 C  
HETATM    7  C   UNL     1     -11.531  12.176  68.925  1.00  0.00    -0.350 C  
HETATM    8  C   UNL     1     -10.284  14.846  68.064  1.00  0.00    -0.228 C  
BRANCH   7   9
HETATM    9  C   UNL     1     -12.144  11.079  69.796  1.00  0.00    -0.424 C  
BRANCH   9  10
HETATM   10  C   UNL     1     -11.155  10.190  70.574  1.00  0.00    -0.327 C  
BRANCH  10  11
HETATM   11  C   UNL     1     -11.653   8.729  70.656  1.00  0.00    -0.236 C  
HETATM   12  C   UNL     1     -13.621   9.097  72.255  1.00  0.00    -0.548 C  
HETATM   13  C   UNL     1     -12.332   8.321  71.983  1.00  0.00    -0.395 C  
HETATM   14  C   UNL     1     -12.659   6.820  71.950  1.00  0.00    -0.328 C  
ENDBRANCH  10  11
BRANCH  10  15
HETATM   15  O   UNL     1      -9.906  10.177  69.870  1.00  0.00    -0.233 OA 
HETATM   16  O   UNL     1      -9.209   7.788  69.603  1.00  0.00    -0.153 OA 
HETATM   17  O   UNL     1     -10.586   8.930  67.810  1.00  0.00    -0.243 OA 
HETATM   18  S   UNL     1      -9.579   8.964  68.837  1.00  0.00    -0.163 S  
HETATM   19  O   UNL     1      -8.195   9.450  68.172  1.00  0.00    -0.116 OA 
ENDBRANCH  10  15
ENDBRANCH   9  10
ENDBRANCH   7   9
ENDBRANCH   3   4
ENDBRANCH   2   3
TORSDOF 6
ENDMDL
MODEL      119
REMARK 921   NORMALIZED FREE ENERGY PREDICTED BY IDOCK:   -4.18 KCAL/MOL
REMARK 922        TOTAL FREE ENERGY PREDICTED BY IDOCK:   -6.40 KCAL/MOL
REMARK 923 INTER-LIGAND FREE ENERGY PREDICTED BY IDOCK:   -6.28 KCAL/MOL
REMARK 924 INTRA-LIGAND FREE ENERGY PREDICTED BY IDOCK:   -0.13 KCAL/MOL
REMARK 927      BINDING AFFINITY PREDICTED BY RF-SCORE:    0.00 PKD
ROOT
HETATM    1  C   UNL     1     -13.569  14.529  72.799  1.00  0.00    -0.533 C  
HETATM    2  C   UNL     1     -12.739  13.611  71.915  1.00  0.00    -0.325 C  
ENDROOT
BRANCH   2   3
HETATM    3  C   UNL     1     -13.245  12.169  71.996  1.00  0.00    -0.496 C  
BRANCH   3   4
HETATM    4  C   UNL     1     -12.478  11.251  71.043  1.00  0.00    -0.503 C  
HETATM    5  C   UNL     1     -12.018   9.913  71.678  1.00  0.00    -0.427 C  
HETATM    6  C   UNL     1     -13.169   9.097  72.309  1.00  0.00    -0.528 C  
HETATM    7  C   UNL     1     -11.236   9.045  70.662  1.00  0.00    -0.318 C  
HETATM    8  C   UNL     1     -14.196   8.561  71.319  1.00  0.00    -0.285 C  
BRANCH   7   9
HETATM    9  C   UNL     1      -9.951   9.724  70.189  1.00  0.00    -0.315 C  
BRANCH   9  10
HETATM   10  C   UNL     1      -9.439   9.327  68.791  1.00  0.00    -0.150 C  
BRANCH  10  11
HETATM   11  C   UNL     1     -10.424   8.372  68.080  1.00  0.00    -0.242 C  
HETATM   12  C   UNL     1      -9.382   6.150  68.815  1.00  0.00    -0.123 C  
HETATM   13  C   UNL     1      -9.843   7.010  67.638  1.00  0.00    -0.180 C  
HETATM   14  C   UNL     1     -10.906   6.232  66.846  1.00  0.00    -0.428 C  
ENDBRANCH  10  11
BRANCH  10  15
HETATM   15  O   UNL     1      -9.340  10.513  67.991  1.00  0.00    -0.142 OA 
HETATM   16  O   UNL     1     -10.371  10.015  65.765  1.00  0.00    -0.228 OA 
HETATM   17  O   UNL     1     -11.769  10.996  67.637  1.00  0.00    -0.576 OA 
HETATM   18  S   UNL     1     -10.521  10.867  66.931  1.00  0.00    -0.259 S  
HETATM   19  O   UNL     1     -10.082  12.326  66.409  1.00  0.00    -0.218 OA 
ENDBRANCH  10  15
ENDBRANCH   9  10
ENDBRANCH   7   9
ENDBRANCH   3   4
ENDBRANCH   2   3
TORSDOF 6
ENDMDL
MODEL      120
REMARK 921   NORMALIZED FREE ENERGY PREDICTED BY IDOCK:   -4.15 KCAL/MOL
REMARK 922        TOTAL FREE ENERGY PREDICTED BY IDOCK:   -6.37 KCAL/MOL
REMARK 923 INTER-LIGAND FREE ENERGY PREDICTED BY IDOCK:   -5.50 KCAL/MOL
REMARK 924 INTRA-LIGAND FREE ENERGY PREDICTED BY IDOCK:   -0.87 KCAL/MOL
REMARK 927      BINDING AFFINITY PREDICTED BY RF-SCORE:    0.00 PKD
ROOT
HETATM    1  C   UNL     1     -13.285  15.381  71.202  1.00  0.00    -0.583 C  
HETATM    2  C   UNL     1     -13.622  14.637  72.485  1.00  0.00    -0.572 C  
ENDROOT
BRANCH   2   3
HETATM    3  C   UNL     1     -13.274  13.152  72.364  1.00  0.00    -0.519 C  
BRANCH   3   4
HETATM    4  C   UNL     1     -13.224  12.706  70.900  1.00  0.00     0.214 C  
HETATM    5  C   UNL     1     -12.090  11.698  70.580  1.00  0.00    -0.458 C  
HETATM    6  C   UNL     1     -12.113  10.434  71.467  1.00  0.00    -0.364 C  
HETATM    7  C   UNL     1     -12.092  11.305  69.081  1.00  0.00    -0.348 C  
HETATM    8  C   UNL     1     -13.318   9.524  71.261  1.00  0.00    -0.385 C  
BRANCH   7   9
HETATM    9  C   UNL     1     -11.831  12.504  68.169  1.00  0.00    -0.371 C  
BRANCH   9  10
HETATM   10  C   UNL     1     -10.414  12.617  67.574  1.00  0.00    -0.221 C  
BRANCH  10  11
HETATM   11  C   UNL     1      -9.820  14.026  67.796  1.00  0.00    -0.232 C  
HETATM   12  C   UNL     1     -10.323  15.008  65.484  1.00  0.00    -0.397 C  
HETATM   13  C   UNL     1      -9.254  14.725  66.540  1.00  0.00    -0.304 C  
HETATM   14  C   UNL     1      -8.598  16.055  66.944  1.00  0.00    -0.263 C  
ENDBRANCH  10  11
BRANCH  10  15
HETATM   15  O   UNL     1      -9.562  11.683  68.252  1.00  0.00    -0.187 OA 
HETATM   16  O   UNL     1      -9.631   9.529  66.979  1.00  0.00    -0.151 OA 
HETATM   17  O   UNL     1      -7.865  11.270  66.461  1.00  0.00    -0.153 OA 
HETATM   18  S   UNL     1      -8.726  10.587  67.390  1.00  0.00    -0.125 S  
HETATM   19  O   UNL     1      -7.807   9.899  68.519  1.00  0.00    -0.080 OA 
ENDBRANCH  10  15
ENDBRANCH   9  10
ENDBRANCH   7   9
ENDBRANCH   3   4
ENDBRANCH   2   3
TORSDOF 6
ENDMDL
MODEL      121
REMARK 921   NORMALIZED FREE ENERGY PREDICTED BY IDOCK:   -4.15 KCAL/MOL
REMARK 922        TOTAL FREE ENERGY PREDICTED BY IDOCK:   -6.37 KCAL/MOL
REMARK 923 INTER-LIGAND FREE ENERGY PREDICTED BY IDOCK:   -5.45 KCAL/MOL
REMARK 924 INTRA-LIGAND FREE ENERGY PREDICTED BY IDOCK:   -0.92 KCAL/MOL
REMARK 927      BINDING AFFINITY PREDICTED BY RF-SCORE:    0.00 PKD
ROOT
HETATM    1  C   UNL     1     -11.765  14.730  69.279  1.00  0.00    -0.347 C  
HETATM    2  C   UNL     1     -12.124  13.893  68.061  1.00  0.00    -0.318 C  
ENDROOT
BRANCH   2   3
HETATM    3  C   UNL     1     -11.454  14.445  66.801  1.00  0.00    -0.381 C  
BRANCH   3   4
HETATM    4  C   UNL     1     -10.566  13.394  66.131  1.00  0.00    -0.294 C  
HETATM    5  C   UNL     1     -11.328  12.136  65.640  1.00  0.00    -0.395 C  
HETATM    6  C   UNL     1     -12.500  12.453  64.686  1.00  0.00    -0.500 C  
HETATM    7  C   UNL     1     -10.365  11.112  64.988  1.00  0.00    -0.362 C  
HETATM    8  C   UNL     1     -12.095  13.038  63.339  1.00  0.00    -0.591 C  
BRANCH   7   9
HETATM    9  C   UNL     1      -9.323  10.587  65.977  1.00  0.00    -0.215 C  
BRANCH   9  10
HETATM   10  C   UNL     1      -9.720   9.343  66.795  1.00  0.00    -0.198 C  
BRANCH  10  11
HETATM   11  C   UNL     1      -9.247   8.042  66.108  1.00  0.00    -0.219 C  
HETATM   12  C   UNL     1     -11.029   6.459  67.048  1.00  0.00    -0.463 C  
HETATM   13  C   UNL     1      -9.534   6.732  66.875  1.00  0.00    -0.189 C  
HETATM   14  C   UNL     1      -8.903   5.549  66.124  1.00  0.00    -0.139 C  
ENDBRANCH  10  11
BRANCH  10  15
HETATM   15  O   UNL     1      -9.068   9.413  68.071  1.00  0.00    -0.128 OA 
HETATM   16  O   UNL     1     -10.148  11.256  69.375  1.00  0.00    -0.073 OA 
HETATM   17  O   UNL     1     -10.998   8.878  69.569  1.00  0.00    -0.195 OA 
HETATM   18  S   UNL     1      -9.927   9.822  69.390  1.00  0.00    -0.219 S  
HETATM   19  O   UNL     1      -8.856   9.602  70.572  1.00  0.00    -0.225 OA 
ENDBRANCH  10  15
ENDBRANCH   9  10
ENDBRANCH   7   9
ENDBRANCH   3   4
ENDBRANCH   2   3
TORSDOF 6
ENDMDL
MODEL      122
REMARK 921   NORMALIZED FREE ENERGY PREDICTED BY IDOCK:   -4.15 KCAL/MOL
REMARK 922        TOTAL FREE ENERGY PREDICTED BY IDOCK:   -6.37 KCAL/MOL
REMARK 923 INTER-LIGAND FREE ENERGY PREDICTED BY IDOCK:   -5.30 KCAL/MOL
REMARK 924 INTRA-LIGAND FREE ENERGY PREDICTED BY IDOCK:   -1.06 KCAL/MOL
REMARK 927      BINDING AFFINITY PREDICTED BY RF-SCORE:    0.00 PKD
ROOT
HETATM    1  C   UNL     1     -10.750  16.625  67.455  1.00  0.00    -0.253 C  
HETATM    2  C   UNL     1     -10.062  16.410  66.115  1.00  0.00    -0.364 C  
ENDROOT
BRANCH   2   3
HETATM    3  C   UNL     1     -10.815  15.376  65.275  1.00  0.00    -0.423 C  
BRANCH   3   4
HETATM    4  C   UNL     1     -10.068  14.041  65.228  1.00  0.00    -0.345 C  
HETATM    5  C   UNL     1     -10.868  12.841  65.798  1.00  0.00    -0.299 C  
HETATM    6  C   UNL     1     -12.248  12.643  65.133  1.00  0.00    -0.539 C  
HETATM    7  C   UNL     1     -10.045  11.531  65.732  1.00  0.00    -0.278 C  
HETATM    8  C   UNL     1     -12.204  12.235  63.666  1.00  0.00    -0.665 C  
BRANCH   7   9
HETATM    9  C   UNL     1      -8.774  11.603  66.579  1.00  0.00    -0.182 C  
BRANCH   9  10
HETATM   10  C   UNL     1      -8.962  11.955  68.067  1.00  0.00    -0.185 C  
BRANCH  10  11
HETATM   11  C   UNL     1      -9.524  10.757  68.865  1.00  0.00    -0.190 C  
HETATM   12  C   UNL     1     -11.940  11.574  69.106  1.00  0.00    -0.386 C  
HETATM   13  C   UNL     1     -10.688  11.075  69.829  1.00  0.00    -0.135 C  
HETATM   14  C   UNL     1     -11.052   9.814  70.629  1.00  0.00    -0.398 C  
ENDBRANCH  10  11
BRANCH  10  15
HETATM   15  O   UNL     1      -7.678  12.274  68.623  1.00  0.00    -0.121 OA 
HETATM   16  O   UNL     1      -6.744  14.198  67.323  1.00  0.00    -0.250 OA 
HETATM   17  O   UNL     1      -8.117  14.606  69.412  1.00  0.00    -0.089 OA 
HETATM   18  S   UNL     1      -7.178  13.821  68.655  1.00  0.00    -0.112 S  
HETATM   19  O   UNL     1      -5.810  13.717  69.499  1.00  0.00    -0.091 OA 
ENDBRANCH  10  15
ENDBRANCH   9  10
ENDBRANCH   7   9
ENDBRANCH   3   4
ENDBRANCH   2   3
TORSDOF 6
ENDMDL
MODEL      123
REMARK 921   NORMALIZED FREE ENERGY PREDICTED BY IDOCK:   -4.14 KCAL/MOL
REMARK 922        TOTAL FREE ENERGY PREDICTED BY IDOCK:   -6.36 KCAL/MOL
REMARK 923 INTER-LIGAND FREE ENERGY PREDICTED BY IDOCK:   -6.07 KCAL/MOL
REMARK 924 INTRA-LIGAND FREE ENERGY PREDICTED BY IDOCK:   -0.29 KCAL/MOL
REMARK 927      BINDING AFFINITY PREDICTED BY RF-SCORE:    0.00 PKD
ROOT
HETATM    1  C   UNL     1     -13.666   7.262  71.621  1.00  0.00    -0.446 C  
HETATM    2  C   UNL     1     -14.366   8.573  71.944  1.00  0.00    -0.536 C  
ENDROOT
BRANCH   2   3
HETATM    3  C   UNL     1     -13.362   9.725  72.013  1.00  0.00    -0.547 C  
BRANCH   3   4
HETATM    4  C   UNL     1     -12.904  10.156  70.618  1.00  0.00    -0.314 C  
HETATM    5  C   UNL     1     -11.400  10.519  70.523  1.00  0.00    -0.400 C  
HETATM    6  C   UNL     1     -10.458   9.397  71.012  1.00  0.00    -0.392 C  
HETATM    7  C   UNL     1     -11.015  10.960  69.089  1.00  0.00    -0.290 C  
HETATM    8  C   UNL     1     -10.461   8.136  70.158  1.00  0.00    -0.225 C  
BRANCH   7   9
HETATM    9  C   UNL     1     -11.759  12.222  68.652  1.00  0.00    -0.377 C  
BRANCH   9  10
HETATM   10  C   UNL     1     -11.229  12.928  67.389  1.00  0.00    -0.291 C  
BRANCH  10  11
HETATM   11  C   UNL     1     -11.132  14.456  67.594  1.00  0.00    -0.311 C  
HETATM   12  C   UNL     1     -11.308  15.171  65.140  1.00  0.00    -0.357 C  
HETATM   13  C   UNL     1     -10.497  15.254  66.434  1.00  0.00    -0.307 C  
HETATM   14  C   UNL     1     -10.365  16.730  66.838  1.00  0.00    -0.294 C  
ENDBRANCH  10  11
BRANCH  10  15
HETATM   15  O   UNL     1      -9.904  12.448  67.124  1.00  0.00    -0.201 OA 
HETATM   16  O   UNL     1     -10.083  10.036  66.479  1.00  0.00    -0.214 OA 
HETATM   17  O   UNL     1     -10.138  11.847  64.708  1.00  0.00    -0.255 OA 
HETATM   18  S   UNL     1      -9.670  11.330  65.967  1.00  0.00    -0.231 S  
HETATM   19  O   UNL     1      -8.064  11.234  65.908  1.00  0.00    -0.084 OA 
ENDBRANCH  10  15
ENDBRANCH   9  10
ENDBRANCH   7   9
ENDBRANCH   3   4
ENDBRANCH   2   3
TORSDOF 6
ENDMDL
MODEL      124
REMARK 921   NORMALIZED FREE ENERGY PREDICTED BY IDOCK:   -4.13 KCAL/MOL
REMARK 922        TOTAL FREE ENERGY PREDICTED BY IDOCK:   -6.33 KCAL/MOL
REMARK 923 INTER-LIGAND FREE ENERGY PREDICTED BY IDOCK:   -5.44 KCAL/MOL
REMARK 924 INTRA-LIGAND FREE ENERGY PREDICTED BY IDOCK:   -0.89 KCAL/MOL
REMARK 927      BINDING AFFINITY PREDICTED BY RF-SCORE:    0.00 PKD
ROOT
HETATM    1  C   UNL     1      -5.721  21.028  68.694  1.00  0.00    -0.360 C  
HETATM    2  C   UNL     1      -5.946  19.855  67.752  1.00  0.00    -0.220 C  
ENDROOT
BRANCH   2   3
HETATM    3  C   UNL     1      -6.798  18.774  68.419  1.00  0.00    -0.269 C  
BRANCH   3   4
HETATM    4  C   UNL     1      -7.443  17.849  67.384  1.00  0.00    -0.213 C  
HETATM    5  C   UNL     1      -8.977  17.686  67.541  1.00  0.00    -0.235 C  
HETATM    6  C   UNL     1      -9.747  19.024  67.535  1.00  0.00    -0.371 C  
HETATM    7  C   UNL     1      -9.555  16.726  66.472  1.00  0.00    -0.285 C  
HETATM    8  C   UNL     1      -9.715  19.781  66.214  1.00  0.00    -0.532 C  
BRANCH   7   9
HETATM    9  C   UNL     1      -8.988  15.311  66.597  1.00  0.00    -0.324 C  
BRANCH   9  10
HETATM   10  C   UNL     1      -9.881  14.274  67.305  1.00  0.00    -0.244 C  
BRANCH  10  11
HETATM   11  C   UNL     1      -9.281  12.854  67.210  1.00  0.00    -0.208 C  
HETATM   12  C   UNL     1     -10.658  12.003  65.224  1.00  0.00    -0.328 C  
HETATM   13  C   UNL     1     -10.226  11.757  66.670  1.00  0.00    -0.240 C  
HETATM   14  C   UNL     1      -9.526  10.392  66.749  1.00  0.00    -0.198 C  
ENDBRANCH  10  11
BRANCH  10  15
HETATM   15  O   UNL     1      -9.956  14.615  68.696  1.00  0.00    -0.223 OA 
HETATM   16  O   UNL     1     -11.907  16.153  68.999  1.00  0.00    -0.327 OA 
HETATM   17  O   UNL     1     -12.194  13.649  69.256  1.00  0.00    -0.320 OA 
HETATM   18  S   UNL     1     -11.408  14.847  69.390  1.00  0.00    -0.308 S  
HETATM   19  O   UNL     1     -11.017  15.025  70.942  1.00  0.00    -0.237 OA 
ENDBRANCH  10  15
ENDBRANCH   9  10
ENDBRANCH   7   9
ENDBRANCH   3   4
ENDBRANCH   2   3
TORSDOF 6
ENDMDL
MODEL      125
REMARK 921   NORMALIZED FREE ENERGY PREDICTED BY IDOCK:   -4.12 KCAL/MOL
REMARK 922        TOTAL FREE ENERGY PREDICTED BY IDOCK:   -6.33 KCAL/MOL
REMARK 923 INTER-LIGAND FREE ENERGY PREDICTED BY IDOCK:   -5.53 KCAL/MOL
REMARK 924 INTRA-LIGAND FREE ENERGY PREDICTED BY IDOCK:   -0.80 KCAL/MOL
REMARK 927      BINDING AFFINITY PREDICTED BY RF-SCORE:    0.00 PKD
ROOT
HETATM    1  C   UNL     1      -6.359  11.690  69.588  1.00  0.00    -0.133 C  
HETATM    2  C   UNL     1      -7.685  11.058  69.192  1.00  0.00    -0.102 C  
ENDROOT
BRANCH   2   3
HETATM    3  C   UNL     1      -8.198  11.643  67.875  1.00  0.00    -0.141 C  
BRANCH   3   4
HETATM    4  C   UNL     1      -9.271  12.707  68.114  1.00  0.00    -0.209 C  
HETATM    5  C   UNL     1     -10.454  12.656  67.112  1.00  0.00    -0.245 C  
HETATM    6  C   UNL     1     -11.150  11.279  67.043  1.00  0.00    -0.356 C  
HETATM    7  C   UNL     1     -11.490  13.769  67.405  1.00  0.00    -0.372 C  
HETATM    8  C   UNL     1     -11.883  10.863  68.312  1.00  0.00    -0.157 C  
BRANCH   7   9
HETATM    9  C   UNL     1     -10.895  15.169  67.249  1.00  0.00    -0.316 C  
BRANCH   9  10
HETATM   10  C   UNL     1     -10.868  16.048  68.515  1.00  0.00    -0.304 C  
BRANCH  10  11
HETATM   11  C   UNL     1     -10.742  17.546  68.159  1.00  0.00    -0.330 C  
HETATM   12  C   UNL     1      -8.215  17.616  67.743  1.00  0.00    -0.225 C  
HETATM   13  C   UNL     1      -9.393  18.213  68.514  1.00  0.00    -0.321 C  
HETATM   14  C   UNL     1      -9.470  19.717  68.210  1.00  0.00    -0.453 C  
ENDBRANCH  10  11
BRANCH  10  15
HETATM   15  O   UNL     1     -12.110  15.877  69.211  1.00  0.00    -0.329 OA 
HETATM   16  O   UNL     1     -11.841  13.946  70.782  1.00  0.00    -0.288 OA 
HETATM   17  O   UNL     1     -11.352  16.308  71.556  1.00  0.00    -0.338 OA 
HETATM   18  S   UNL     1     -12.101  15.374  70.758  1.00  0.00    -0.405 S  
HETATM   19  O   UNL     1     -13.655  15.497  71.162  1.00  0.00    -0.510 OA 
ENDBRANCH  10  15
ENDBRANCH   9  10
ENDBRANCH   7   9
ENDBRANCH   3   4
ENDBRANCH   2   3
TORSDOF 6
ENDMDL
MODEL      126
REMARK 921   NORMALIZED FREE ENERGY PREDICTED BY IDOCK:   -4.11 KCAL/MOL
REMARK 922        TOTAL FREE ENERGY PREDICTED BY IDOCK:   -6.31 KCAL/MOL
REMARK 923 INTER-LIGAND FREE ENERGY PREDICTED BY IDOCK:   -5.18 KCAL/MOL
REMARK 924 INTRA-LIGAND FREE ENERGY PREDICTED BY IDOCK:   -1.13 KCAL/MOL
REMARK 927      BINDING AFFINITY PREDICTED BY RF-SCORE:    0.00 PKD
ROOT
HETATM    1  C   UNL     1     -12.605  13.771  64.859  1.00  0.00    -0.380 C  
HETATM    2  C   UNL     1     -12.757  12.399  64.220  1.00  0.00    -0.437 C  
ENDROOT
BRANCH   2   3
HETATM    3  C   UNL     1     -11.464  11.976  63.519  1.00  0.00    -0.536 C  
BRANCH   3   4
HETATM    4  C   UNL     1     -10.260  12.065  64.460  1.00  0.00    -0.318 C  
HETATM    5  C   UNL     1      -9.640  10.694  64.832  1.00  0.00    -0.323 C  
HETATM    6  C   UNL     1      -9.231   9.844  63.609  1.00  0.00    -0.283 C  
HETATM    7  C   UNL     1      -8.440  10.861  65.797  1.00  0.00    -0.155 C  
HETATM    8  C   UNL     1      -8.088  10.415  62.780  1.00  0.00    -0.165 C  
BRANCH   7   9
HETATM    9  C   UNL     1      -8.851  11.488  67.129  1.00  0.00    -0.168 C  
BRANCH   9  10
HETATM   10  C   UNL     1      -9.906  10.723  67.951  1.00  0.00    -0.167 C  
BRANCH  10  11
HETATM   11  C   UNL     1      -9.331   9.406  68.521  1.00  0.00    -0.139 C  
HETATM   12  C   UNL     1     -10.534   7.770  66.959  1.00  0.00    -0.419 C  
HETATM   13  C   UNL     1     -10.246   8.166  68.408  1.00  0.00    -0.240 C  
HETATM   14  C   UNL     1      -9.585   6.976  69.121  1.00  0.00    -0.149 C  
ENDBRANCH  10  11
BRANCH  10  15
HETATM   15  O   UNL     1     -10.292  11.538  69.066  1.00  0.00    -0.194 OA 
HETATM   16  O   UNL     1     -11.938  13.231  68.235  1.00  0.00    -0.342 OA 
HETATM   17  O   UNL     1     -12.735  11.012  69.160  1.00  0.00    -0.277 OA 
HETATM   18  S   UNL     1     -11.810  12.114  69.153  1.00  0.00    -0.279 S  
HETATM   19  O   UNL     1     -11.829  12.799  70.610  1.00  0.00    -0.209 OA 
ENDBRANCH  10  15
ENDBRANCH   9  10
ENDBRANCH   7   9
ENDBRANCH   3   4
ENDBRANCH   2   3
TORSDOF 6
ENDMDL
MODEL      127
REMARK 921   NORMALIZED FREE ENERGY PREDICTED BY IDOCK:   -4.10 KCAL/MOL
REMARK 922        TOTAL FREE ENERGY PREDICTED BY IDOCK:   -6.30 KCAL/MOL
REMARK 923 INTER-LIGAND FREE ENERGY PREDICTED BY IDOCK:   -5.62 KCAL/MOL
REMARK 924 INTRA-LIGAND FREE ENERGY PREDICTED BY IDOCK:   -0.68 KCAL/MOL
REMARK 927      BINDING AFFINITY PREDICTED BY RF-SCORE:    0.00 PKD
ROOT
HETATM    1  C   UNL     1      -5.304  14.241  70.651  1.00  0.00    -0.127 C  
HETATM    2  C   UNL     1      -6.286  15.149  69.926  1.00  0.00    -0.154 C  
ENDROOT
BRANCH   2   3
HETATM    3  C   UNL     1      -6.304  14.847  68.426  1.00  0.00    -0.105 C  
BRANCH   3   4
HETATM    4  C   UNL     1      -7.682  15.116  67.816  1.00  0.00    -0.164 C  
HETATM    5  C   UNL     1      -8.236  16.538  68.095  1.00  0.00    -0.181 C  
HETATM    6  C   UNL     1      -7.285  17.672  67.653  1.00  0.00    -0.188 C  
HETATM    7  C   UNL     1      -9.636  16.731  67.462  1.00  0.00    -0.240 C  
HETATM    8  C   UNL     1      -7.067  17.782  66.149  1.00  0.00    -0.347 C  
BRANCH   7   9
HETATM    9  C   UNL     1     -10.674  15.776  68.051  1.00  0.00    -0.296 C  
BRANCH   9  10
HETATM   10  C   UNL     1     -10.839  14.419  67.339  1.00  0.00    -0.292 C  
BRANCH  10  11
HETATM   11  C   UNL     1     -11.292  13.317  68.323  1.00  0.00    -0.335 C  
HETATM   12  C   UNL     1      -9.126  11.949  68.367  1.00  0.00    -0.167 C  
HETATM   13  C   UNL     1     -10.637  11.931  68.130  1.00  0.00    -0.233 C  
HETATM   14  C   UNL     1     -11.275  10.923  69.099  1.00  0.00    -0.318 C  
ENDBRANCH  10  11
BRANCH  10  15
HETATM   15  O   UNL     1     -11.864  14.552  66.345  1.00  0.00    -0.383 OA 
HETATM   16  O   UNL     1     -10.962  15.997  64.511  1.00  0.00    -0.592 OA 
HETATM   17  O   UNL     1     -10.717  13.478  64.399  1.00  0.00    -0.408 OA 
HETATM   18  S   UNL     1     -11.452  14.657  64.775  1.00  0.00    -0.402 S  
HETATM   19  O   UNL     1     -12.886  14.613  64.045  1.00  0.00    -0.690 OA 
ENDBRANCH  10  15
ENDBRANCH   9  10
ENDBRANCH   7   9
ENDBRANCH   3   4
ENDBRANCH   2   3
TORSDOF 6
ENDMDL
MODEL      128
REMARK 921   NORMALIZED FREE ENERGY PREDICTED BY IDOCK:   -4.09 KCAL/MOL
REMARK 922        TOTAL FREE ENERGY PREDICTED BY IDOCK:   -6.29 KCAL/MOL
REMARK 923 INTER-LIGAND FREE ENERGY PREDICTED BY IDOCK:   -5.46 KCAL/MOL
REMARK 924 INTRA-LIGAND FREE ENERGY PREDICTED BY IDOCK:   -0.83 KCAL/MOL
REMARK 927      BINDING AFFINITY PREDICTED BY RF-SCORE:    0.00 PKD
ROOT
HETATM    1  C   UNL     1     -13.160  13.937  71.941  1.00  0.00    -0.469 C  
HETATM    2  C   UNL     1     -12.583  12.754  71.180  1.00  0.00    -0.365 C  
ENDROOT
BRANCH   2   3
HETATM    3  C   UNL     1     -13.268  11.450  71.597  1.00  0.00    -0.413 C  
BRANCH   3   4
HETATM    4  C   UNL     1     -12.306  10.262  71.518  1.00  0.00    -0.488 C  
HETATM    5  C   UNL     1     -12.579   9.151  72.565  1.00  0.00    -0.311 C  
HETATM    6  C   UNL     1     -14.023   8.603  72.529  1.00  0.00    -0.374 C  
HETATM    7  C   UNL     1     -11.560   7.991  72.435  1.00  0.00    -0.450 C  
HETATM    8  C   UNL     1     -14.392   7.844  71.261  1.00  0.00    -0.407 C  
BRANCH   7   9
HETATM    9  C   UNL     1     -10.125   8.449  72.702  1.00  0.00    -0.322 C  
BRANCH   9  10
HETATM   10  C   UNL     1      -9.117   8.251  71.554  1.00  0.00    -0.177 C  
BRANCH  10  11
HETATM   11  C   UNL     1      -9.804   8.365  70.174  1.00  0.00    -0.183 C  
HETATM   12  C   UNL     1     -10.322   5.883  69.813  1.00  0.00    -0.309 C  
HETATM   13  C   UNL     1      -9.660   7.139  69.246  1.00  0.00    -0.155 C  
HETATM   14  C   UNL     1     -10.289   7.453  67.880  1.00  0.00    -0.258 C  
ENDBRANCH  10  11
BRANCH  10  15
HETATM   15  O   UNL     1      -8.135   9.293  71.630  1.00  0.00    -0.317 OA 
HETATM   16  O   UNL     1      -6.051   8.302  72.600  1.00  0.00    -0.057 OA 
HETATM   17  O   UNL     1      -6.398   8.358  70.091  1.00  0.00    -0.037 OA 
HETATM   18  S   UNL     1      -6.565   8.935  71.399  1.00  0.00    -0.073 S  
HETATM   19  O   UNL     1      -5.881  10.393  71.400  1.00  0.00    -0.292 OA 
ENDBRANCH  10  15
ENDBRANCH   9  10
ENDBRANCH   7   9
ENDBRANCH   3   4
ENDBRANCH   2   3
TORSDOF 6
ENDMDL
MODEL      129
REMARK 921   NORMALIZED FREE ENERGY PREDICTED BY IDOCK:   -4.09 KCAL/MOL
REMARK 922        TOTAL FREE ENERGY PREDICTED BY IDOCK:   -6.29 KCAL/MOL
REMARK 923 INTER-LIGAND FREE ENERGY PREDICTED BY IDOCK:   -5.38 KCAL/MOL
REMARK 924 INTRA-LIGAND FREE ENERGY PREDICTED BY IDOCK:   -0.91 KCAL/MOL
REMARK 927      BINDING AFFINITY PREDICTED BY RF-SCORE:    0.00 PKD
ROOT
HETATM    1  C   UNL     1     -12.250  11.484  70.581  1.00  0.00    -0.473 C  
HETATM    2  C   UNL     1     -13.151  10.461  71.257  1.00  0.00    -0.494 C  
ENDROOT
BRANCH   2   3
HETATM    3  C   UNL     1     -12.324   9.427  72.024  1.00  0.00    -0.418 C  
BRANCH   3   4
HETATM    4  C   UNL     1     -11.273   8.771  71.126  1.00  0.00    -0.339 C  
HETATM    5  C   UNL     1      -9.869   8.648  71.772  1.00  0.00    -0.365 C  
HETATM    6  C   UNL     1      -9.873   7.907  73.128  1.00  0.00    -0.357 C  
HETATM    7  C   UNL     1      -8.856   7.991  70.802  1.00  0.00    -0.142 C  
HETATM    8  C   UNL     1     -10.241   6.431  73.054  1.00  0.00    -0.216 C  
BRANCH   7   9
HETATM    9  C   UNL     1      -8.642   8.825  69.538  1.00  0.00    -0.130 C  
BRANCH   9  10
HETATM   10  C   UNL     1      -9.466   8.420  68.301  1.00  0.00    -0.138 C  
BRANCH  10  11
HETATM   11  C   UNL     1      -9.002   9.180  67.039  1.00  0.00    -0.139 C  
HETATM   12  C   UNL     1     -10.757  11.047  67.066  1.00  0.00    -0.319 C  
HETATM   13  C   UNL     1     -10.106   9.924  66.256  1.00  0.00    -0.311 C  
HETATM   14  C   UNL     1      -9.509  10.525  64.974  1.00  0.00    -0.296 C  
ENDBRANCH  10  11
BRANCH  10  15
HETATM   15  O   UNL     1      -9.259   7.022  68.058  1.00  0.00    -0.131 OA 
HETATM   16  O   UNL     1     -11.048   5.764  69.275  1.00  0.00    -0.333 OA 
HETATM   17  O   UNL     1     -11.389   6.472  66.867  1.00  0.00    -0.330 OA 
HETATM   18  S   UNL     1     -10.541   6.027  67.941  1.00  0.00    -0.277 S  
HETATM   19  O   UNL     1      -9.853   4.639  67.502  1.00  0.00    -0.171 OA 
ENDBRANCH  10  15
ENDBRANCH   9  10
ENDBRANCH   7   9
ENDBRANCH   3   4
ENDBRANCH   2   3
TORSDOF 6
ENDMDL
MODEL      130
REMARK 921   NORMALIZED FREE ENERGY PREDICTED BY IDOCK:   -4.08 KCAL/MOL
REMARK 922        TOTAL FREE ENERGY PREDICTED BY IDOCK:   -6.28 KCAL/MOL
REMARK 923 INTER-LIGAND FREE ENERGY PREDICTED BY IDOCK:   -5.70 KCAL/MOL
REMARK 924 INTRA-LIGAND FREE ENERGY PREDICTED BY IDOCK:   -0.58 KCAL/MOL
REMARK 927      BINDING AFFINITY PREDICTED BY RF-SCORE:    0.00 PKD
ROOT
HETATM    1  C   UNL     1      -6.518  14.738  68.665  1.00  0.00    -0.084 C  
HETATM    2  C   UNL     1      -7.533  15.124  67.600  1.00  0.00    -0.202 C  
ENDROOT
BRANCH   2   3
HETATM    3  C   UNL     1      -8.474  16.216  68.112  1.00  0.00    -0.175 C  
BRANCH   3   4
HETATM    4  C   UNL     1      -9.927  15.932  67.723  1.00  0.00    -0.229 C  
HETATM    5  C   UNL     1     -10.611  14.830  68.572  1.00  0.00    -0.248 C  
HETATM    6  C   UNL     1     -10.565  15.099  70.093  1.00  0.00    -0.227 C  
HETATM    7  C   UNL     1     -12.070  14.587  68.112  1.00  0.00    -0.232 C  
HETATM    8  C   UNL     1     -11.371  16.305  70.559  1.00  0.00    -0.318 C  
BRANCH   7   9
HETATM    9  C   UNL     1     -12.146  14.085  66.670  1.00  0.00    -0.487 C  
BRANCH   9  10
HETATM   10  C   UNL     1     -11.664  12.643  66.420  1.00  0.00    -0.405 C  
BRANCH  10  11
HETATM   11  C   UNL     1     -10.720  12.566  65.199  1.00  0.00    -0.323 C  
HETATM   12  C   UNL     1     -12.481  12.095  63.399  1.00  0.00    -0.625 C  
HETATM   13  C   UNL     1     -11.175  11.638  64.051  1.00  0.00    -0.448 C  
HETATM   14  C   UNL     1     -10.081  11.579  62.974  1.00  0.00    -0.330 C  
ENDBRANCH  10  11
BRANCH  10  15
HETATM   15  O   UNL     1     -10.918  12.210  67.565  1.00  0.00    -0.235 OA 
HETATM   16  O   UNL     1     -12.446  10.837  68.994  1.00  0.00    -0.379 OA 
HETATM   17  O   UNL     1     -11.007   9.733  67.226  1.00  0.00    -0.235 OA 
HETATM   18  S   UNL     1     -11.222  10.753  68.219  1.00  0.00    -0.304 S  
HETATM   19  O   UNL     1     -10.062  10.630  69.329  1.00  0.00    -0.217 OA 
ENDBRANCH  10  15
ENDBRANCH   9  10
ENDBRANCH   7   9
ENDBRANCH   3   4
ENDBRANCH   2   3
TORSDOF 6
ENDMDL
MODEL      131
REMARK 921   NORMALIZED FREE ENERGY PREDICTED BY IDOCK:   -4.07 KCAL/MOL
REMARK 922        TOTAL FREE ENERGY PREDICTED BY IDOCK:   -6.26 KCAL/MOL
REMARK 923 INTER-LIGAND FREE ENERGY PREDICTED BY IDOCK:   -6.21 KCAL/MOL
REMARK 924 INTRA-LIGAND FREE ENERGY PREDICTED BY IDOCK:   -0.05 KCAL/MOL
REMARK 927      BINDING AFFINITY PREDICTED BY RF-SCORE:    0.00 PKD
ROOT
HETATM    1  C   UNL     1     -11.511   6.270  72.256  1.00  0.00    -0.351 C  
HETATM    2  C   UNL     1     -11.981   7.716  72.288  1.00  0.00    -0.329 C  
ENDROOT
BRANCH   2   3
HETATM    3  C   UNL     1     -10.873   8.661  71.818  1.00  0.00    -0.395 C  
BRANCH   3   4
HETATM    4  C   UNL     1     -11.196   9.270  70.452  1.00  0.00    -0.290 C  
HETATM    5  C   UNL     1     -10.118   9.014  69.368  1.00  0.00    -0.198 C  
HETATM    6  C   UNL     1      -9.788   7.519  69.161  1.00  0.00    -0.170 C  
HETATM    7  C   UNL     1     -10.505   9.671  68.020  1.00  0.00    -0.276 C  
HETATM    8  C   UNL     1     -10.922   6.683  68.583  1.00  0.00    -0.317 C  
BRANCH   7   9
HETATM    9  C   UNL     1     -10.609  11.193  68.128  1.00  0.00    -0.227 C  
BRANCH   9  10
HETATM   10  C   UNL     1     -10.314  11.993  66.845  1.00  0.00    -0.213 C  
BRANCH  10  11
HETATM   11  C   UNL     1     -11.480  11.893  65.836  1.00  0.00    -0.340 C  
HETATM   12  C   UNL     1     -10.170  10.947  63.848  1.00  0.00    -0.418 C  
HETATM   13  C   UNL     1     -11.100  12.054  64.347  1.00  0.00    -0.399 C  
HETATM   14  C   UNL     1     -12.374  12.049  63.489  1.00  0.00    -0.661 C  
ENDBRANCH  10  11
BRANCH  10  15
HETATM   15  O   UNL     1     -10.171  13.376  67.196  1.00  0.00    -0.243 OA 
HETATM   16  O   UNL     1     -12.185  14.591  66.341  1.00  0.00    -0.373 OA 
HETATM   17  O   UNL     1     -12.156  13.648  68.693  1.00  0.00    -0.360 OA 
HETATM   18  S   UNL     1     -11.489  14.252  67.569  1.00  0.00    -0.364 S  
HETATM   19  O   UNL     1     -10.845  15.646  68.053  1.00  0.00    -0.287 OA 
ENDBRANCH  10  15
ENDBRANCH   9  10
ENDBRANCH   7   9
ENDBRANCH   3   4
ENDBRANCH   2   3
TORSDOF 6
ENDMDL
MODEL      132
REMARK 921   NORMALIZED FREE ENERGY PREDICTED BY IDOCK:   -4.06 KCAL/MOL
REMARK 922        TOTAL FREE ENERGY PREDICTED BY IDOCK:   -6.24 KCAL/MOL
REMARK 923 INTER-LIGAND FREE ENERGY PREDICTED BY IDOCK:   -5.42 KCAL/MOL
REMARK 924 INTRA-LIGAND FREE ENERGY PREDICTED BY IDOCK:   -0.82 KCAL/MOL
REMARK 927      BINDING AFFINITY PREDICTED BY RF-SCORE:    0.00 PKD
ROOT
HETATM    1  C   UNL     1     -12.920  15.514  71.433  1.00  0.00    -0.553 C  
HETATM    2  C   UNL     1     -12.643  14.292  70.571  1.00  0.00    -0.418 C  
ENDROOT
BRANCH   2   3
HETATM    3  C   UNL     1     -11.766  14.657  69.372  1.00  0.00    -0.355 C  
BRANCH   3   4
HETATM    4  C   UNL     1     -11.138  13.414  68.737  1.00  0.00    -0.297 C  
HETATM    5  C   UNL     1     -11.880  12.898  67.477  1.00  0.00    -0.407 C  
HETATM    6  C   UNL     1     -12.048  13.967  66.375  1.00  0.00    -0.489 C  
HETATM    7  C   UNL     1     -11.199  11.632  66.900  1.00  0.00    -0.376 C  
HETATM    8  C   UNL     1     -10.752  14.432  65.725  1.00  0.00    -0.312 C  
BRANCH   7   9
HETATM    9  C   UNL     1     -11.224  10.462  67.885  1.00  0.00    -0.332 C  
BRANCH   9  10
HETATM   10  C   UNL     1      -9.897   9.705  68.083  1.00  0.00    -0.150 C  
BRANCH  10  11
HETATM   11  C   UNL     1      -8.730  10.408  67.353  1.00  0.00    -0.125 C  
HETATM   12  C   UNL     1      -8.893   9.168  65.117  1.00  0.00    -0.241 C  
HETATM   13  C   UNL     1      -7.994   9.564  66.289  1.00  0.00    -0.107 C  
HETATM   14  C   UNL     1      -6.796  10.357  65.744  1.00  0.00    -0.132 C  
ENDBRANCH  10  11
BRANCH  10  15
HETATM   15  O   UNL     1      -9.583   9.699  69.482  1.00  0.00    -0.174 OA 
HETATM   16  O   UNL     1     -11.647   9.017  70.722  1.00  0.00    -0.276 OA 
HETATM   17  O   UNL     1      -9.952   7.279  69.996  1.00  0.00    -0.182 OA 
HETATM   18  S   UNL     1     -10.281   8.602  70.458  1.00  0.00    -0.206 S  
HETATM   19  O   UNL     1      -9.518   8.855  71.854  1.00  0.00    -0.290 OA 
ENDBRANCH  10  15
ENDBRANCH   9  10
ENDBRANCH   7   9
ENDBRANCH   3   4
ENDBRANCH   2   3
TORSDOF 6
ENDMDL
MODEL      133
REMARK 921   NORMALIZED FREE ENERGY PREDICTED BY IDOCK:   -4.05 KCAL/MOL
REMARK 922        TOTAL FREE ENERGY PREDICTED BY IDOCK:   -6.23 KCAL/MOL
REMARK 923 INTER-LIGAND FREE ENERGY PREDICTED BY IDOCK:   -5.79 KCAL/MOL
REMARK 924 INTRA-LIGAND FREE ENERGY PREDICTED BY IDOCK:   -0.44 KCAL/MOL
REMARK 927      BINDING AFFINITY PREDICTED BY RF-SCORE:    0.00 PKD
ROOT
HETATM    1  C   UNL     1     -11.189   9.947  70.206  1.00  0.00    -0.364 C  
HETATM    2  C   UNL     1     -10.669  10.909  69.149  1.00  0.00    -0.265 C  
ENDROOT
BRANCH   2   3
HETATM    3  C   UNL     1     -11.765  11.884  68.712  1.00  0.00    -0.379 C  
BRANCH   3   4
HETATM    4  C   UNL     1     -11.177  13.114  68.017  1.00  0.00    -0.308 C  
HETATM    5  C   UNL     1     -10.487  12.813  66.662  1.00  0.00    -0.270 C  
HETATM    6  C   UNL     1     -11.396  12.079  65.652  1.00  0.00    -0.381 C  
HETATM    7  C   UNL     1      -9.904  14.099  66.027  1.00  0.00    -0.329 C  
HETATM    8  C   UNL     1     -12.584  12.889  65.148  1.00  0.00    -0.536 C  
BRANCH   7   9
HETATM    9  C   UNL     1      -8.817  14.732  66.897  1.00  0.00    -0.274 C  
BRANCH   9  10
HETATM   10  C   UNL     1      -8.689  16.266  66.825  1.00  0.00    -0.231 C  
BRANCH  10  11
HETATM   11  C   UNL     1      -7.317  16.692  66.255  1.00  0.00    -0.116 C  
HETATM   12  C   UNL     1      -6.076  17.009  68.474  1.00  0.00    -0.147 C  
HETATM   13  C   UNL     1      -6.483  17.643  67.143  1.00  0.00    -0.188 C  
HETATM   14  C   UNL     1      -5.212  18.064  66.390  1.00  0.00    -0.194 C  
ENDBRANCH  10  11
BRANCH  10  15
HETATM   15  O   UNL     1      -9.695  16.763  65.933  1.00  0.00    -0.457 OA 
HETATM   16  O   UNL     1     -11.137  18.351  67.224  1.00  0.00    -0.240 OA 
HETATM   17  O   UNL     1      -9.119  19.197  65.948  1.00  0.00    -0.436 OA 
HETATM   18  S   UNL     1     -10.227  18.292  66.094  1.00  0.00    -0.336 S  
HETATM   19  O   UNL     1     -11.186  18.454  64.810  1.00  0.00    -0.344 OA 
ENDBRANCH  10  15
ENDBRANCH   9  10
ENDBRANCH   7   9
ENDBRANCH   3   4
ENDBRANCH   2   3
TORSDOF 6
ENDMDL
MODEL      134
REMARK 921   NORMALIZED FREE ENERGY PREDICTED BY IDOCK:   -4.04 KCAL/MOL
REMARK 922        TOTAL FREE ENERGY PREDICTED BY IDOCK:   -6.22 KCAL/MOL
REMARK 923 INTER-LIGAND FREE ENERGY PREDICTED BY IDOCK:   -5.55 KCAL/MOL
REMARK 924 INTRA-LIGAND FREE ENERGY PREDICTED BY IDOCK:   -0.67 KCAL/MOL
REMARK 927      BINDING AFFINITY PREDICTED BY RF-SCORE:    0.00 PKD
ROOT
HETATM    1  C   UNL     1     -10.066   8.414  66.711  1.00  0.00    -0.373 C  
HETATM    2  C   UNL     1      -9.919   9.843  67.210  1.00  0.00    -0.245 C  
ENDROOT
BRANCH   2   3
HETATM    3  C   UNL     1      -8.828  10.583  66.433  1.00  0.00    -0.165 C  
BRANCH   3   4
HETATM    4  C   UNL     1      -8.936  12.099  66.620  1.00  0.00    -0.198 C  
HETATM    5  C   UNL     1      -8.629  12.588  68.059  1.00  0.00    -0.185 C  
HETATM    6  C   UNL     1      -7.250  12.136  68.588  1.00  0.00    -0.109 C  
HETATM    7  C   UNL     1      -8.774  14.125  68.175  1.00  0.00    -0.181 C  
HETATM    8  C   UNL     1      -6.053  12.738  67.863  1.00  0.00    -0.116 C  
BRANCH   7   9
HETATM    9  C   UNL     1     -10.200  14.595  67.889  1.00  0.00    -0.226 C  
BRANCH   9  10
HETATM   10  C   UNL     1     -10.602  15.963  68.473  1.00  0.00    -0.263 C  
BRANCH  10  11
HETATM   11  C   UNL     1     -10.594  17.065  67.390  1.00  0.00    -0.289 C  
HETATM   12  C   UNL     1      -9.632  18.970  68.807  1.00  0.00    -0.451 C  
HETATM   13  C   UNL     1     -10.774  18.513  67.899  1.00  0.00    -0.337 C  
HETATM   14  C   UNL     1     -10.863  19.470  66.700  1.00  0.00    -0.476 C  
ENDBRANCH  10  11
BRANCH  10  15
HETATM   15  O   UNL     1     -11.942  15.866  68.974  1.00  0.00    -0.378 OA 
HETATM   16  O   UNL     1     -11.989  14.025  70.669  1.00  0.00    -0.318 OA 
HETATM   17  O   UNL     1     -11.544  16.415  71.382  1.00  0.00    -0.418 OA 
HETATM   18  S   UNL     1     -12.192  15.455  70.528  1.00  0.00    -0.422 S  
HETATM   19  O   UNL     1     -13.785  15.642  70.675  1.00  0.00    -0.402 OA 
ENDBRANCH  10  15
ENDBRANCH   9  10
ENDBRANCH   7   9
ENDBRANCH   3   4
ENDBRANCH   2   3
TORSDOF 6
ENDMDL
MODEL      135
REMARK 921   NORMALIZED FREE ENERGY PREDICTED BY IDOCK:   -4.04 KCAL/MOL
REMARK 922        TOTAL FREE ENERGY PREDICTED BY IDOCK:   -6.22 KCAL/MOL
REMARK 923 INTER-LIGAND FREE ENERGY PREDICTED BY IDOCK:   -5.47 KCAL/MOL
REMARK 924 INTRA-LIGAND FREE ENERGY PREDICTED BY IDOCK:   -0.75 KCAL/MOL
REMARK 927      BINDING AFFINITY PREDICTED BY RF-SCORE:    0.00 PKD
ROOT
HETATM    1  C   UNL     1     -13.232  14.593  72.770  1.00  0.00    -0.591 C  
HETATM    2  C   UNL     1     -12.797  13.694  71.623  1.00  0.00    -0.427 C  
ENDROOT
BRANCH   2   3
HETATM    3  C   UNL     1     -13.170  12.236  71.900  1.00  0.00    -0.481 C  
BRANCH   3   4
HETATM    4  C   UNL     1     -12.563  11.294  70.857  1.00  0.00    -0.467 C  
HETATM    5  C   UNL     1     -11.917  10.016  71.451  1.00  0.00    -0.470 C  
HETATM    6  C   UNL     1     -12.874   9.194  72.342  1.00  0.00    -0.438 C  
HETATM    7  C   UNL     1     -11.311   9.121  70.342  1.00  0.00    -0.260 C  
HETATM    8  C   UNL     1     -14.050   8.558  71.610  1.00  0.00    -0.482 C  
BRANCH   7   9
HETATM    9  C   UNL     1     -10.184   9.823  69.584  1.00  0.00    -0.254 C  
BRANCH   9  10
HETATM   10  C   UNL     1      -9.398   8.965  68.575  1.00  0.00    -0.140 C  
BRANCH  10  11
HETATM   11  C   UNL     1     -10.333   8.014  67.793  1.00  0.00    -0.294 C  
HETATM   12  C   UNL     1      -9.923   5.886  69.159  1.00  0.00    -0.214 C  
HETATM   13  C   UNL     1      -9.917   6.526  67.771  1.00  0.00    -0.154 C  
HETATM   14  C   UNL     1     -10.874   5.740  66.861  1.00  0.00    -0.337 C  
ENDBRANCH  10  11
BRANCH  10  15
HETATM   15  O   UNL     1      -8.782   9.839  67.619  1.00  0.00    -0.125 OA 
HETATM   16  O   UNL     1      -6.514  10.441  68.491  1.00  0.00    -0.051 OA 
HETATM   17  O   UNL     1      -6.813   8.442  66.963  1.00  0.00    -0.068 OA 
HETATM   18  S   UNL     1      -7.174   9.769  67.386  1.00  0.00    -0.086 S  
HETATM   19  O   UNL     1      -6.969  10.770  66.141  1.00  0.00    -0.129 OA 
ENDBRANCH  10  15
ENDBRANCH   9  10
ENDBRANCH   7   9
ENDBRANCH   3   4
ENDBRANCH   2   3
TORSDOF 6
ENDMDL
MODEL      136
REMARK 921   NORMALIZED FREE ENERGY PREDICTED BY IDOCK:   -4.03 KCAL/MOL
REMARK 922        TOTAL FREE ENERGY PREDICTED BY IDOCK:   -6.21 KCAL/MOL
REMARK 923 INTER-LIGAND FREE ENERGY PREDICTED BY IDOCK:   -5.32 KCAL/MOL
REMARK 924 INTRA-LIGAND FREE ENERGY PREDICTED BY IDOCK:   -0.89 KCAL/MOL
REMARK 927      BINDING AFFINITY PREDICTED BY RF-SCORE:    0.00 PKD
ROOT
HETATM    1  C   UNL     1     -12.530  13.027  64.993  1.00  0.00    -0.534 C  
HETATM    2  C   UNL     1     -12.003  12.812  63.583  1.00  0.00    -0.616 C  
ENDROOT
BRANCH   2   3
HETATM    3  C   UNL     1     -10.816  11.847  63.584  1.00  0.00    -0.510 C  
BRANCH   3   4
HETATM    4  C   UNL     1     -10.419  11.447  65.007  1.00  0.00    -0.361 C  
HETATM    5  C   UNL     1     -10.000   9.963  65.159  1.00  0.00    -0.278 C  
HETATM    6  C   UNL     1      -8.861   9.538  64.205  1.00  0.00    -0.247 C  
HETATM    7  C   UNL     1      -9.628   9.628  66.625  1.00  0.00    -0.241 C  
HETATM    8  C   UNL     1      -7.516  10.203  64.472  1.00  0.00    -0.127 C  
BRANCH   7   9
HETATM    9  C   UNL     1     -10.811   9.809  67.577  1.00  0.00    -0.286 C  
BRANCH   9  10
HETATM   10  C   UNL     1     -10.507   9.672  69.081  1.00  0.00    -0.214 C  
BRANCH  10  11
HETATM   11  C   UNL     1      -8.986   9.634  69.349  1.00  0.00    -0.186 C  
HETATM   12  C   UNL     1      -8.949   7.673  70.997  1.00  0.00    -0.148 C  
HETATM   13  C   UNL     1      -8.559   9.130  70.746  1.00  0.00    -0.265 C  
HETATM   14  C   UNL     1      -7.036   9.265  70.896  1.00  0.00    -0.107 C  
ENDBRANCH  10  11
BRANCH  10  15
HETATM   15  O   UNL     1     -11.031  10.824  69.755  1.00  0.00    -0.252 OA 
HETATM   16  O   UNL     1     -13.507  10.525  69.960  1.00  0.00     0.105 OA 
HETATM   17  O   UNL     1     -11.962   9.737  71.807  1.00  0.00    -0.392 OA 
HETATM   18  S   UNL     1     -12.301  10.661  70.757  1.00  0.00    -0.409 S  
HETATM   19  O   UNL     1     -12.419  12.134  71.398  1.00  0.00    -0.252 OA 
ENDBRANCH  10  15
ENDBRANCH   9  10
ENDBRANCH   7   9
ENDBRANCH   3   4
ENDBRANCH   2   3
TORSDOF 6
ENDMDL
MODEL      137
REMARK 921   NORMALIZED FREE ENERGY PREDICTED BY IDOCK:   -4.03 KCAL/MOL
REMARK 922        TOTAL FREE ENERGY PREDICTED BY IDOCK:   -6.21 KCAL/MOL
REMARK 923 INTER-LIGAND FREE ENERGY PREDICTED BY IDOCK:   -5.21 KCAL/MOL
REMARK 924 INTRA-LIGAND FREE ENERGY PREDICTED BY IDOCK:   -1.00 KCAL/MOL
REMARK 927      BINDING AFFINITY PREDICTED BY RF-SCORE:    0.00 PKD
ROOT
HETATM    1  C   UNL     1      -6.359  19.295  69.412  1.00  0.00    -0.337 C  
HETATM    2  C   UNL     1      -6.123  18.789  67.997  1.00  0.00    -0.199 C  
ENDROOT
BRANCH   2   3
HETATM    3  C   UNL     1      -7.022  19.520  66.998  1.00  0.00    -0.215 C  
BRANCH   3   4
HETATM    4  C   UNL     1      -8.007  18.561  66.324  1.00  0.00    -0.273 C  
HETATM    5  C   UNL     1      -9.003  17.881  67.298  1.00  0.00    -0.250 C  
HETATM    6  C   UNL     1      -9.813  18.878  68.154  1.00  0.00    -0.420 C  
HETATM    7  C   UNL     1      -9.955  16.916  66.549  1.00  0.00    -0.309 C  
HETATM    8  C   UNL     1     -10.788  19.752  67.376  1.00  0.00    -0.440 C  
BRANCH   7   9
HETATM    9  C   UNL     1      -9.202  15.765  65.878  1.00  0.00    -0.337 C  
BRANCH   9  10
HETATM   10  C   UNL     1      -9.098  14.454  66.681  1.00  0.00    -0.240 C  
BRANCH  10  11
HETATM   11  C   UNL     1      -7.764  14.371  67.456  1.00  0.00    -0.210 C  
HETATM   12  C   UNL     1      -7.949  11.942  68.250  1.00  0.00    -0.148 C  
HETATM   13  C   UNL     1      -7.743  13.402  68.659  1.00  0.00    -0.088 C  
HETATM   14  C   UNL     1      -6.397  13.522  69.391  1.00  0.00    -0.110 C  
ENDBRANCH  10  11
BRANCH  10  15
HETATM   15  O   UNL     1     -10.157  14.430  67.648  1.00  0.00    -0.220 OA 
HETATM   16  O   UNL     1     -12.317  14.199  66.405  1.00  0.00    -0.460 OA 
HETATM   17  O   UNL     1     -11.079  12.144  67.220  1.00  0.00    -0.255 OA 
HETATM   18  S   UNL     1     -11.476  13.519  67.373  1.00  0.00    -0.356 S  
HETATM   19  O   UNL     1     -12.281  13.662  68.761  1.00  0.00    -0.339 OA 
ENDBRANCH  10  15
ENDBRANCH   9  10
ENDBRANCH   7   9
ENDBRANCH   3   4
ENDBRANCH   2   3
TORSDOF 6
ENDMDL
MODEL      138
REMARK 921   NORMALIZED FREE ENERGY PREDICTED BY IDOCK:   -4.03 KCAL/MOL
REMARK 922        TOTAL FREE ENERGY PREDICTED BY IDOCK:   -6.21 KCAL/MOL
REMARK 923 INTER-LIGAND FREE ENERGY PREDICTED BY IDOCK:   -5.12 KCAL/MOL
REMARK 924 INTRA-LIGAND FREE ENERGY PREDICTED BY IDOCK:   -1.09 KCAL/MOL
REMARK 927      BINDING AFFINITY PREDICTED BY RF-SCORE:    0.00 PKD
ROOT
HETATM    1  C   UNL     1      -8.640   8.129  69.307  1.00  0.00    -0.135 C  
HETATM    2  C   UNL     1      -9.933   8.236  68.513  1.00  0.00    -0.206 C  
ENDROOT
BRANCH   2   3
HETATM    3  C   UNL     1      -9.670   8.061  67.015  1.00  0.00    -0.275 C  
BRANCH   3   4
HETATM    4  C   UNL     1     -10.092   9.301  66.223  1.00  0.00    -0.322 C  
HETATM    5  C   UNL     1      -9.342  10.598  66.621  1.00  0.00    -0.189 C  
HETATM    6  C   UNL     1      -7.804  10.476  66.539  1.00  0.00    -0.134 C  
HETATM    7  C   UNL     1      -9.832  11.811  65.791  1.00  0.00    -0.267 C  
HETATM    8  C   UNL     1      -7.247  10.290  65.133  1.00  0.00    -0.125 C  
BRANCH   7   9
HETATM    9  C   UNL     1     -11.311  12.115  66.030  1.00  0.00    -0.410 C  
BRANCH   9  10
HETATM   10  C   UNL     1     -11.681  12.673  67.418  1.00  0.00    -0.369 C  
BRANCH  10  11
HETATM   11  C   UNL     1     -11.918  11.537  68.438  1.00  0.00    -0.268 C  
HETATM   12  C   UNL     1     -12.332  12.983  70.512  1.00  0.00    -0.365 C  
HETATM   13  C   UNL     1     -11.515  11.846  69.897  1.00  0.00    -0.264 C  
HETATM   14  C   UNL     1     -11.701  10.586  70.758  1.00  0.00    -0.454 C  
ENDBRANCH  10  11
BRANCH  10  15
HETATM   15  O   UNL     1     -10.580  13.456  67.899  1.00  0.00    -0.236 OA 
HETATM   16  O   UNL     1     -10.291  15.397  66.346  1.00  0.00    -0.276 OA 
HETATM   17  O   UNL     1     -11.764  15.603  68.397  1.00  0.00    -0.367 OA 
HETATM   18  S   UNL     1     -10.607  15.073  67.725  1.00  0.00    -0.270 S  
HETATM   19  O   UNL     1      -9.295  15.523  68.544  1.00  0.00    -0.186 OA 
ENDBRANCH  10  15
ENDBRANCH   9  10
ENDBRANCH   7   9
ENDBRANCH   3   4
ENDBRANCH   2   3
TORSDOF 6
ENDMDL
MODEL      139
REMARK 921   NORMALIZED FREE ENERGY PREDICTED BY IDOCK:   -4.02 KCAL/MOL
REMARK 922        TOTAL FREE ENERGY PREDICTED BY IDOCK:   -6.19 KCAL/MOL
REMARK 923 INTER-LIGAND FREE ENERGY PREDICTED BY IDOCK:   -5.43 KCAL/MOL
REMARK 924 INTRA-LIGAND FREE ENERGY PREDICTED BY IDOCK:   -0.76 KCAL/MOL
REMARK 927      BINDING AFFINITY PREDICTED BY RF-SCORE:    0.00 PKD
ROOT
HETATM    1  C   UNL     1      -6.785  19.534  69.365  1.00  0.00    -0.372 C  
HETATM    2  C   UNL     1      -6.851  19.833  67.875  1.00  0.00    -0.284 C  
ENDROOT
BRANCH   2   3
HETATM    3  C   UNL     1      -6.634  18.561  67.053  1.00  0.00    -0.203 C  
BRANCH   3   4
HETATM    4  C   UNL     1      -7.664  17.485  67.402  1.00  0.00    -0.213 C  
HETATM    5  C   UNL     1      -7.177  16.033  67.161  1.00  0.00    -0.257 C  
HETATM    6  C   UNL     1      -5.859  15.691  67.890  1.00  0.00    -0.155 C  
HETATM    7  C   UNL     1      -8.275  15.001  67.520  1.00  0.00    -0.199 C  
HETATM    8  C   UNL     1      -5.950  15.670  69.410  1.00  0.00    -0.122 C  
BRANCH   7   9
HETATM    9  C   UNL     1      -9.521  15.155  66.647  1.00  0.00    -0.285 C  
BRANCH   9  10
HETATM   10  C   UNL     1     -10.549  14.009  66.711  1.00  0.00    -0.277 C  
BRANCH  10  11
HETATM   11  C   UNL     1     -10.701  13.309  65.342  1.00  0.00    -0.308 C  
HETATM   12  C   UNL     1     -12.442  14.884  64.315  1.00  0.00    -0.181 C  
HETATM   13  C   UNL     1     -12.086  13.440  64.669  1.00  0.00    -0.456 C  
HETATM   14  C   UNL     1     -12.112  12.597  63.384  1.00  0.00    -0.614 C  
ENDBRANCH  10  11
BRANCH  10  15
HETATM   15  O   UNL     1     -10.074  13.027  67.642  1.00  0.00    -0.211 OA 
HETATM   16  O   UNL     1     -11.500  13.171  69.694  1.00  0.00    -0.256 OA 
HETATM   17  O   UNL     1     -12.108  11.581  67.817  1.00  0.00    -0.626 OA 
HETATM   18  S   UNL     1     -11.130  12.268  68.619  1.00  0.00    -0.266 S  
HETATM   19  O   UNL     1     -10.198  11.167  69.335  1.00  0.00    -0.145 OA 
ENDBRANCH  10  15
ENDBRANCH   9  10
ENDBRANCH   7   9
ENDBRANCH   3   4
ENDBRANCH   2   3
TORSDOF 6
ENDMDL
MODEL      140
REMARK 921   NORMALIZED FREE ENERGY PREDICTED BY IDOCK:   -4.02 KCAL/MOL
REMARK 922        TOTAL FREE ENERGY PREDICTED BY IDOCK:   -6.19 KCAL/MOL
REMARK 923 INTER-LIGAND FREE ENERGY PREDICTED BY IDOCK:   -5.09 KCAL/MOL
REMARK 924 INTRA-LIGAND FREE ENERGY PREDICTED BY IDOCK:   -1.10 KCAL/MOL
REMARK 927      BINDING AFFINITY PREDICTED BY RF-SCORE:    0.00 PKD
ROOT
HETATM    1  C   UNL     1      -7.738  17.849  68.478  1.00  0.00    -0.299 C  
HETATM    2  C   UNL     1      -9.098  17.599  67.845  1.00  0.00    -0.260 C  
ENDROOT
BRANCH   2   3
HETATM    3  C   UNL     1      -9.096  16.297  67.042  1.00  0.00    -0.226 C  
BRANCH   3   4
HETATM    4  C   UNL     1      -9.380  15.086  67.935  1.00  0.00    -0.183 C  
HETATM    5  C   UNL     1      -8.561  13.821  67.574  1.00  0.00    -0.194 C  
HETATM    6  C   UNL     1      -7.034  14.054  67.554  1.00  0.00    -0.167 C  
HETATM    7  C   UNL     1      -8.912  12.635  68.507  1.00  0.00    -0.046 C  
HETATM    8  C   UNL     1      -6.412  14.372  68.908  1.00  0.00    -0.094 C  
BRANCH   7   9
HETATM    9  C   UNL     1     -10.376  12.213  68.379  1.00  0.00    -0.236 C  
BRANCH   9  10
HETATM   10  C   UNL     1     -10.719  11.277  67.205  1.00  0.00    -0.253 C  
BRANCH  10  11
HETATM   11  C   UNL     1     -10.953   9.828  67.688  1.00  0.00    -0.226 C  
HETATM   12  C   UNL     1      -8.535   8.995  67.545  1.00  0.00    -0.116 C  
HETATM   13  C   UNL     1      -9.986   8.764  67.122  1.00  0.00    -0.295 C  
HETATM   14  C   UNL     1     -10.421   7.370  67.600  1.00  0.00    -0.310 C  
ENDBRANCH  10  11
BRANCH  10  15
HETATM   15  O   UNL     1     -11.942  11.730  66.607  1.00  0.00    -0.561 OA 
HETATM   16  O   UNL     1     -11.397  13.705  65.168  1.00  0.00    -0.299 OA 
HETATM   17  O   UNL     1     -11.400  11.367  64.192  1.00  0.00    -0.318 OA 
HETATM   18  S   UNL     1     -11.919  12.352  65.104  1.00  0.00    -0.363 S  
HETATM   19  O   UNL     1     -13.487  12.550  64.796  1.00  0.00    -0.645 OA 
ENDBRANCH  10  15
ENDBRANCH   9  10
ENDBRANCH   7   9
ENDBRANCH   3   4
ENDBRANCH   2   3
TORSDOF 6
ENDMDL
MODEL      141
REMARK 921   NORMALIZED FREE ENERGY PREDICTED BY IDOCK:   -4.02 KCAL/MOL
REMARK 922        TOTAL FREE ENERGY PREDICTED BY IDOCK:   -6.19 KCAL/MOL
REMARK 923 INTER-LIGAND FREE ENERGY PREDICTED BY IDOCK:   -5.60 KCAL/MOL
REMARK 924 INTRA-LIGAND FREE ENERGY PREDICTED BY IDOCK:   -0.59 KCAL/MOL
REMARK 927      BINDING AFFINITY PREDICTED BY RF-SCORE:    0.00 PKD
ROOT
HETATM    1  C   UNL     1     -10.659  16.516  67.042  1.00  0.00    -0.255 C  
HETATM    2  C   UNL     1      -9.989  16.157  65.725  1.00  0.00    -0.370 C  
ENDROOT
BRANCH   2   3
HETATM    3  C   UNL     1     -10.841  15.166  64.930  1.00  0.00    -0.437 C  
BRANCH   3   4
HETATM    4  C   UNL     1     -10.175  13.790  64.852  1.00  0.00    -0.374 C  
HETATM    5  C   UNL     1     -11.020  12.637  65.451  1.00  0.00    -0.320 C  
HETATM    6  C   UNL     1     -12.434  12.521  64.840  1.00  0.00    -0.524 C  
HETATM    7  C   UNL     1     -10.277  11.281  65.351  1.00  0.00    -0.323 C  
HETATM    8  C   UNL     1     -12.470  12.117  63.371  1.00  0.00    -0.625 C  
BRANCH   7   9
HETATM    9  C   UNL     1      -8.973  11.277  66.148  1.00  0.00    -0.210 C  
BRANCH   9  10
HETATM   10  C   UNL     1      -9.079  10.883  67.634  1.00  0.00    -0.148 C  
BRANCH  10  11
HETATM   11  C   UNL     1      -7.702  10.936  68.333  1.00  0.00    -0.116 C  
HETATM   12  C   UNL     1      -7.074  13.345  67.728  1.00  0.00    -0.158 C  
HETATM   13  C   UNL     1      -6.656  11.874  67.691  1.00  0.00    -0.099 C  
HETATM   14  C   UNL     1      -5.314  11.725  68.425  1.00  0.00    -0.042 C  
ENDBRANCH  10  11
BRANCH  10  15
HETATM   15  O   UNL     1      -9.930  11.830  68.294  1.00  0.00    -0.189 OA 
HETATM   16  O   UNL     1     -12.251  10.895  68.298  1.00  0.00    -0.526 OA 
HETATM   17  O   UNL     1     -10.685  10.450  70.239  1.00  0.00    -0.282 OA 
HETATM   18  S   UNL     1     -11.180  11.301  69.190  1.00  0.00    -0.300 S  
HETATM   19  O   UNL     1     -11.720  12.664  69.856  1.00  0.00    -0.301 OA 
ENDBRANCH  10  15
ENDBRANCH   9  10
ENDBRANCH   7   9
ENDBRANCH   3   4
ENDBRANCH   2   3
TORSDOF 6
ENDMDL
MODEL      142
REMARK 921   NORMALIZED FREE ENERGY PREDICTED BY IDOCK:   -4.02 KCAL/MOL
REMARK 922        TOTAL FREE ENERGY PREDICTED BY IDOCK:   -6.19 KCAL/MOL
REMARK 923 INTER-LIGAND FREE ENERGY PREDICTED BY IDOCK:   -5.71 KCAL/MOL
REMARK 924 INTRA-LIGAND FREE ENERGY PREDICTED BY IDOCK:   -0.47 KCAL/MOL
REMARK 927      BINDING AFFINITY PREDICTED BY RF-SCORE:    0.00 PKD
ROOT
HETATM    1  C   UNL     1      -6.989  17.960  69.176  1.00  0.00    -0.208 C  
HETATM    2  C   UNL     1      -5.830  17.973  68.191  1.00  0.00    -0.168 C  
ENDROOT
BRANCH   2   3
HETATM    3  C   UNL     1      -5.987  16.865  67.147  1.00  0.00    -0.208 C  
BRANCH   3   4
HETATM    4  C   UNL     1      -7.236  16.020  67.409  1.00  0.00    -0.219 C  
HETATM    5  C   UNL     1      -6.973  14.493  67.465  1.00  0.00    -0.188 C  
HETATM    6  C   UNL     1      -5.893  14.086  68.492  1.00  0.00    -0.093 C  
HETATM    7  C   UNL     1      -8.281  13.704  67.716  1.00  0.00    -0.179 C  
HETATM    8  C   UNL     1      -6.268  14.325  69.949  1.00  0.00    -0.148 C  
BRANCH   7   9
HETATM    9  C   UNL     1      -9.297  13.894  66.589  1.00  0.00    -0.282 C  
BRANCH   9  10
HETATM   10  C   UNL     1     -10.518  14.777  66.909  1.00  0.00    -0.277 C  
BRANCH  10  11
HETATM   11  C   UNL     1     -10.189  16.278  66.743  1.00  0.00    -0.280 C  
HETATM   12  C   UNL     1     -10.244  16.944  69.216  1.00  0.00    -0.262 C  
HETATM   13  C   UNL     1     -10.783  17.221  67.812  1.00  0.00    -0.333 C  
HETATM   14  C   UNL     1     -10.468  18.679  67.442  1.00  0.00    -0.467 C  
ENDBRANCH  10  11
BRANCH  10  15
HETATM   15  O   UNL     1     -11.561  14.463  65.975  1.00  0.00    -0.350 OA 
HETATM   16  O   UNL     1     -10.795  12.511  64.609  1.00  0.00    -0.283 OA 
HETATM   17  O   UNL     1     -12.132  12.148  66.730  1.00  0.00    -0.609 OA 
HETATM   18  S   UNL     1     -11.822  12.914  65.553  1.00  0.00    -0.436 S  
HETATM   19  O   UNL     1     -13.155  13.028  64.657  1.00  0.00    -0.723 OA 
ENDBRANCH  10  15
ENDBRANCH   9  10
ENDBRANCH   7   9
ENDBRANCH   3   4
ENDBRANCH   2   3
TORSDOF 6
ENDMDL
MODEL      143
REMARK 921   NORMALIZED FREE ENERGY PREDICTED BY IDOCK:   -4.01 KCAL/MOL
REMARK 922        TOTAL FREE ENERGY PREDICTED BY IDOCK:   -6.18 KCAL/MOL
REMARK 923 INTER-LIGAND FREE ENERGY PREDICTED BY IDOCK:   -5.31 KCAL/MOL
REMARK 924 INTRA-LIGAND FREE ENERGY PREDICTED BY IDOCK:   -0.87 KCAL/MOL
REMARK 927      BINDING AFFINITY PREDICTED BY RF-SCORE:    0.00 PKD
ROOT
HETATM    1  C   UNL     1     -12.693  13.886  65.519  1.00  0.00    -0.536 C  
HETATM    2  C   UNL     1     -12.107  13.494  64.171  1.00  0.00    -0.488 C  
ENDROOT
BRANCH   2   3
HETATM    3  C   UNL     1     -10.583  13.376  64.251  1.00  0.00    -0.358 C  
BRANCH   3   4
HETATM    4  C   UNL     1     -10.156  12.311  65.264  1.00  0.00    -0.295 C  
HETATM    5  C   UNL     1     -10.451  10.855  64.821  1.00  0.00    -0.373 C  
HETATM    6  C   UNL     1      -9.841  10.487  63.451  1.00  0.00    -0.323 C  
HETATM    7  C   UNL     1     -10.007   9.836  65.900  1.00  0.00    -0.345 C  
HETATM    8  C   UNL     1      -8.318  10.453  63.411  1.00  0.00    -0.158 C  
BRANCH   7   9
HETATM    9  C   UNL     1     -10.768  10.016  67.214  1.00  0.00    -0.309 C  
BRANCH   9  10
HETATM   10  C   UNL     1     -10.271  11.138  68.146  1.00  0.00    -0.181 C  
BRANCH  10  11
HETATM   11  C   UNL     1     -11.450  11.912  68.777  1.00  0.00    -0.347 C  
HETATM   12  C   UNL     1     -10.680  14.288  68.205  1.00  0.00    -0.253 C  
HETATM   13  C   UNL     1     -11.122  13.325  69.308  1.00  0.00    -0.208 C  
HETATM   14  C   UNL     1     -12.359  13.911  70.006  1.00  0.00    -0.378 C  
ENDBRANCH  10  11
BRANCH  10  15
HETATM   15  O   UNL     1      -9.530  10.540  69.218  1.00  0.00    -0.206 OA 
HETATM   16  O   UNL     1      -7.438   9.567  68.248  1.00  0.00    -0.077 OA 
HETATM   17  O   UNL     1      -7.457  11.938  69.141  1.00  0.00    -0.054 OA 
HETATM   18  S   UNL     1      -7.905  10.571  69.187  1.00  0.00    -0.142 S  
HETATM   19  O   UNL     1      -7.527   9.963  70.630  1.00  0.00    -0.284 OA 
ENDBRANCH  10  15
ENDBRANCH   9  10
ENDBRANCH   7   9
ENDBRANCH   3   4
ENDBRANCH   2   3
TORSDOF 6
ENDMDL
MODEL      144
REMARK 921   NORMALIZED FREE ENERGY PREDICTED BY IDOCK:   -4.01 KCAL/MOL
REMARK 922        TOTAL FREE ENERGY PREDICTED BY IDOCK:   -6.17 KCAL/MOL
REMARK 923 INTER-LIGAND FREE ENERGY PREDICTED BY IDOCK:   -5.36 KCAL/MOL
REMARK 924 INTRA-LIGAND FREE ENERGY PREDICTED BY IDOCK:   -0.81 KCAL/MOL
REMARK 927      BINDING AFFINITY PREDICTED BY RF-SCORE:    0.00 PKD
ROOT
HETATM    1  C   UNL     1     -12.784  13.894  65.462  1.00  0.00    -0.536 C  
HETATM    2  C   UNL     1     -12.131  13.201  64.276  1.00  0.00    -0.477 C  
ENDROOT
BRANCH   2   3
HETATM    3  C   UNL     1     -10.606  13.302  64.356  1.00  0.00    -0.438 C  
BRANCH   3   4
HETATM    4  C   UNL     1     -10.006  12.132  65.139  1.00  0.00    -0.251 C  
HETATM    5  C   UNL     1     -10.287  10.739  64.520  1.00  0.00    -0.401 C  
HETATM    6  C   UNL     1      -9.837  10.612  63.048  1.00  0.00    -0.318 C  
HETATM    7  C   UNL     1      -9.664   9.606  65.373  1.00  0.00    -0.365 C  
HETATM    8  C   UNL     1      -8.332  10.681  62.825  1.00  0.00    -0.188 C  
BRANCH   7   9
HETATM    9  C   UNL     1     -10.262   9.546  66.779  1.00  0.00    -0.313 C  
BRANCH   9  10
HETATM   10  C   UNL     1      -9.969   8.272  67.595  1.00  0.00    -0.190 C  
BRANCH  10  11
HETATM   11  C   UNL     1     -10.618   8.337  68.996  1.00  0.00    -0.167 C  
HETATM   12  C   UNL     1      -8.613   9.271  70.289  1.00  0.00    -0.234 C  
HETATM   13  C   UNL     1      -9.658   8.158  70.193  1.00  0.00    -0.168 C  
HETATM   14  C   UNL     1     -10.466   8.128  71.499  1.00  0.00    -0.276 C  
ENDBRANCH  10  11
BRANCH  10  15
HETATM   15  O   UNL     1     -10.546   7.153  66.909  1.00  0.00    -0.305 OA 
HETATM   16  O   UNL     1      -8.759   6.133  65.483  1.00  0.00    -0.152 OA 
HETATM   17  O   UNL     1      -9.144   5.305  67.846  1.00  0.00    -0.109 OA 
HETATM   18  S   UNL     1      -9.634   5.841  66.603  1.00  0.00    -0.158 S  
HETATM   19  O   UNL     1     -10.715   4.811  65.999  1.00  0.00    -0.319 OA 
ENDBRANCH  10  15
ENDBRANCH   9  10
ENDBRANCH   7   9
ENDBRANCH   3   4
ENDBRANCH   2   3
TORSDOF 6
ENDMDL
MODEL      145
REMARK 921   NORMALIZED FREE ENERGY PREDICTED BY IDOCK:   -4.00 KCAL/MOL
REMARK 922        TOTAL FREE ENERGY PREDICTED BY IDOCK:   -6.17 KCAL/MOL
REMARK 923 INTER-LIGAND FREE ENERGY PREDICTED BY IDOCK:   -4.93 KCAL/MOL
REMARK 924 INTRA-LIGAND FREE ENERGY PREDICTED BY IDOCK:   -1.24 KCAL/MOL
REMARK 927      BINDING AFFINITY PREDICTED BY RF-SCORE:    0.00 PKD
ROOT
HETATM    1  C   UNL     1     -11.515   9.686  71.069  1.00  0.00    -0.444 C  
HETATM    2  C   UNL     1     -10.797   8.656  71.927  1.00  0.00    -0.419 C  
ENDROOT
BRANCH   2   3
HETATM    3  C   UNL     1     -11.603   7.359  72.015  1.00  0.00    -0.321 C  
BRANCH   3   4
HETATM    4  C   UNL     1     -11.662   6.642  70.664  1.00  0.00    -0.452 C  
HETATM    5  C   UNL     1     -10.274   6.349  70.037  1.00  0.00    -0.221 C  
HETATM    6  C   UNL     1      -9.330   5.552  70.963  1.00  0.00    -0.186 C  
HETATM    7  C   UNL     1     -10.413   5.639  68.667  1.00  0.00    -0.277 C  
HETATM    8  C   UNL     1      -9.773   4.124  71.260  1.00  0.00    -0.255 C  
BRANCH   7   9
HETATM    9  C   UNL     1     -11.142   6.504  67.638  1.00  0.00    -0.380 C  
BRANCH   9  10
HETATM   10  C   UNL     1     -10.294   7.564  66.910  1.00  0.00    -0.309 C  
BRANCH  10  11
HETATM   11  C   UNL     1     -10.451   8.957  67.559  1.00  0.00    -0.337 C  
HETATM   12  C   UNL     1     -10.135  10.384  65.455  1.00  0.00    -0.354 C  
HETATM   13  C   UNL     1      -9.671  10.108  66.885  1.00  0.00    -0.233 C  
HETATM   14  C   UNL     1      -9.835  11.392  67.713  1.00  0.00    -0.186 C  
ENDBRANCH  10  11
BRANCH  10  15
HETATM   15  O   UNL     1      -8.912   7.195  67.022  1.00  0.00    -0.123 OA 
HETATM   16  O   UNL     1      -8.535   5.206  65.549  1.00  0.00    -0.126 OA 
HETATM   17  O   UNL     1      -8.177   7.551  64.658  1.00  0.00    -0.126 OA 
HETATM   18  S   UNL     1      -8.134   6.590  65.728  1.00  0.00    -0.135 S  
HETATM   19  O   UNL     1      -6.617   6.493  66.260  1.00  0.00    -0.045 OA 
ENDBRANCH  10  15
ENDBRANCH   9  10
ENDBRANCH   7   9
ENDBRANCH   3   4
ENDBRANCH   2   3
TORSDOF 6
ENDMDL
MODEL      146
REMARK 921   NORMALIZED FREE ENERGY PREDICTED BY IDOCK:   -4.00 KCAL/MOL
REMARK 922        TOTAL FREE ENERGY PREDICTED BY IDOCK:   -6.16 KCAL/MOL
REMARK 923 INTER-LIGAND FREE ENERGY PREDICTED BY IDOCK:   -5.29 KCAL/MOL
REMARK 924 INTRA-LIGAND FREE ENERGY PREDICTED BY IDOCK:   -0.87 KCAL/MOL
REMARK 927      BINDING AFFINITY PREDICTED BY RF-SCORE:    0.00 PKD
ROOT
HETATM    1  C   UNL     1     -12.531  13.866  65.538  1.00  0.00    -0.541 C  
HETATM    2  C   UNL     1     -12.156  12.465  65.079  1.00  0.00    -0.468 C  
ENDROOT
BRANCH   2   3
HETATM    3  C   UNL     1     -10.762  12.081  65.580  1.00  0.00    -0.318 C  
BRANCH   3   4
HETATM    4  C   UNL     1     -10.838  11.223  66.846  1.00  0.00    -0.333 C  
HETATM    5  C   UNL     1      -9.896  11.687  67.987  1.00  0.00    -0.193 C  
HETATM    6  C   UNL     1     -10.096  13.163  68.395  1.00  0.00    -0.231 C  
HETATM    7  C   UNL     1     -10.015  10.765  69.226  1.00  0.00    -0.182 C  
HETATM    8  C   UNL     1     -11.440  13.478  69.040  1.00  0.00    -0.349 C  
BRANCH   7   9
HETATM    9  C   UNL     1      -9.593   9.328  68.920  1.00  0.00    -0.155 C  
BRANCH   9  10
HETATM   10  C   UNL     1     -10.533   8.215  69.422  1.00  0.00    -0.220 C  
BRANCH  10  11
HETATM   11  C   UNL     1     -10.140   6.838  68.843  1.00  0.00    -0.170 C  
HETATM   12  C   UNL     1     -10.309   7.423  66.354  1.00  0.00     0.071 C  
HETATM   13  C   UNL     1     -10.758   6.482  67.472  1.00  0.00    -0.395 C  
HETATM   14  C   UNL     1     -10.368   5.045  67.092  1.00  0.00    -0.217 C  
ENDBRANCH  10  11
BRANCH  10  15
HETATM   15  O   UNL     1     -10.411   8.129  70.849  1.00  0.00    -0.200 OA 
HETATM   16  O   UNL     1     -12.097   9.684  71.852  1.00  0.00    -0.376 OA 
HETATM   17  O   UNL     1     -12.684   7.257  71.424  1.00  0.00    -0.362 OA 
HETATM   18  S   UNL     1     -11.736   8.280  71.780  1.00  0.00    -0.326 S  
HETATM   19  O   UNL     1     -11.159   7.947  73.246  1.00  0.00    -0.328 OA 
ENDBRANCH  10  15
ENDBRANCH   9  10
ENDBRANCH   7   9
ENDBRANCH   3   4
ENDBRANCH   2   3
TORSDOF 6
ENDMDL
MODEL      147
REMARK 921   NORMALIZED FREE ENERGY PREDICTED BY IDOCK:   -4.00 KCAL/MOL
REMARK 922        TOTAL FREE ENERGY PREDICTED BY IDOCK:   -6.16 KCAL/MOL
REMARK 923 INTER-LIGAND FREE ENERGY PREDICTED BY IDOCK:   -5.04 KCAL/MOL
REMARK 924 INTRA-LIGAND FREE ENERGY PREDICTED BY IDOCK:   -1.11 KCAL/MOL
REMARK 927      BINDING AFFINITY PREDICTED BY RF-SCORE:    0.00 PKD
ROOT
HETATM    1  C   UNL     1      -6.923   8.058  70.499  1.00  0.00    -0.041 C  
HETATM    2  C   UNL     1      -7.399   7.806  69.077  1.00  0.00    -0.089 C  
ENDROOT
BRANCH   2   3
HETATM    3  C   UNL     1      -7.529   9.120  68.304  1.00  0.00    -0.083 C  
BRANCH   3   4
HETATM    4  C   UNL     1      -8.922   9.733  68.469  1.00  0.00    -0.124 C  
HETATM    5  C   UNL     1      -9.762   9.767  67.166  1.00  0.00    -0.223 C  
HETATM    6  C   UNL     1      -9.922   8.385  66.494  1.00  0.00    -0.335 C  
HETATM    7  C   UNL     1     -11.149  10.413  67.405  1.00  0.00    -0.297 C  
HETATM    8  C   UNL     1     -10.738   7.373  67.288  1.00  0.00    -0.379 C  
BRANCH   7   9
HETATM    9  C   UNL     1     -11.038  11.873  67.847  1.00  0.00    -0.297 C  
BRANCH   9  10
HETATM   10  C   UNL     1     -10.797  12.910  66.734  1.00  0.00    -0.267 C  
BRANCH  10  11
HETATM   11  C   UNL     1     -11.823  12.758  65.589  1.00  0.00    -0.472 C  
HETATM   12  C   UNL     1     -10.318  11.553  63.901  1.00  0.00    -0.422 C  
HETATM   13  C   UNL     1     -11.240  12.746  64.158  1.00  0.00    -0.435 C  
HETATM   14  C   UNL     1     -12.388  12.710  63.137  1.00  0.00    -0.291 C  
ENDBRANCH  10  11
BRANCH  10  15
HETATM   15  O   UNL     1     -10.969  14.220  67.290  1.00  0.00    -0.286 OA 
HETATM   16  O   UNL     1      -8.764  14.943  68.230  1.00  0.00    -0.155 OA 
HETATM   17  O   UNL     1      -9.391  15.513  65.843  1.00  0.00    -0.338 OA 
HETATM   18  S   UNL     1      -9.746  15.291  67.219  1.00  0.00    -0.213 S  
HETATM   19  O   UNL     1     -10.436  16.631  67.787  1.00  0.00    -0.296 OA 
ENDBRANCH  10  15
ENDBRANCH   9  10
ENDBRANCH   7   9
ENDBRANCH   3   4
ENDBRANCH   2   3
TORSDOF 6
ENDMDL
MODEL      148
REMARK 921   NORMALIZED FREE ENERGY PREDICTED BY IDOCK:   -3.96 KCAL/MOL
REMARK 922        TOTAL FREE ENERGY PREDICTED BY IDOCK:   -6.11 KCAL/MOL
REMARK 923 INTER-LIGAND FREE ENERGY PREDICTED BY IDOCK:   -5.71 KCAL/MOL
REMARK 924 INTRA-LIGAND FREE ENERGY PREDICTED BY IDOCK:   -0.40 KCAL/MOL
REMARK 927      BINDING AFFINITY PREDICTED BY RF-SCORE:    0.00 PKD
ROOT
HETATM    1  C   UNL     1      -6.359  17.744  69.414  1.00  0.00    -0.239 C  
HETATM    2  C   UNL     1      -5.187  16.775  69.441  1.00  0.00    -0.135 C  
ENDROOT
BRANCH   2   3
HETATM    3  C   UNL     1      -5.423  15.606  68.483  1.00  0.00    -0.104 C  
BRANCH   3   4
HETATM    4  C   UNL     1      -6.835  15.034  68.632  1.00  0.00    -0.109 C  
HETATM    5  C   UNL     1      -7.071  13.709  67.863  1.00  0.00    -0.151 C  
HETATM    6  C   UNL     1      -6.062  12.595  68.221  1.00  0.00    -0.068 C  
HETATM    7  C   UNL     1      -8.523  13.201  68.047  1.00  0.00    -0.181 C  
HETATM    8  C   UNL     1      -6.159  12.072  69.649  1.00  0.00    -0.129 C  
BRANCH   7   9
HETATM    9  C   UNL     1      -9.554  14.179  67.484  1.00  0.00    -0.223 C  
BRANCH   9  10
HETATM   10  C   UNL     1     -10.931  13.590  67.122  1.00  0.00    -0.291 C  
BRANCH  10  11
HETATM   11  C   UNL     1     -11.950  13.793  68.265  1.00  0.00    -0.392 C  
HETATM   12  C   UNL     1     -11.562  16.293  68.668  1.00  0.00    -0.216 C  
HETATM   13  C   UNL     1     -11.604  14.897  69.290  1.00  0.00    -0.330 C  
HETATM   14  C   UNL     1     -12.646  14.892  70.419  1.00  0.00    -0.394 C  
ENDBRANCH  10  11
BRANCH  10  15
HETATM   15  O   UNL     1     -11.433  14.287  65.973  1.00  0.00    -0.332 OA 
HETATM   16  O   UNL     1     -10.737  13.004  63.940  1.00  0.00    -0.392 OA 
HETATM   17  O   UNL     1     -12.968  12.542  65.048  1.00  0.00    -0.779 OA 
HETATM   18  S   UNL     1     -11.913  13.444  64.668  1.00  0.00    -0.422 S  
HETATM   19  O   UNL     1     -12.544  14.595  63.735  1.00  0.00    -0.820 OA 
ENDBRANCH  10  15
ENDBRANCH   9  10
ENDBRANCH   7   9
ENDBRANCH   3   4
ENDBRANCH   2   3
TORSDOF 6
ENDMDL
MODEL      149
REMARK 921   NORMALIZED FREE ENERGY PREDICTED BY IDOCK:   -3.96 KCAL/MOL
REMARK 922        TOTAL FREE ENERGY PREDICTED BY IDOCK:   -6.11 KCAL/MOL
REMARK 923 INTER-LIGAND FREE ENERGY PREDICTED BY IDOCK:   -6.14 KCAL/MOL
REMARK 924 INTRA-LIGAND FREE ENERGY PREDICTED BY IDOCK:    0.03 KCAL/MOL
REMARK 927      BINDING AFFINITY PREDICTED BY RF-SCORE:    0.00 PKD
ROOT
HETATM    1  C   UNL     1      -6.454  10.567  67.378  1.00  0.00    -0.062 C  
HETATM    2  C   UNL     1      -6.496   9.386  68.336  1.00  0.00    -0.053 C  
ENDROOT
BRANCH   2   3
HETATM    3  C   UNL     1      -7.471   9.649  69.486  1.00  0.00    -0.096 C  
BRANCH   3   4
HETATM    4  C   UNL     1      -8.656  10.504  69.031  1.00  0.00    -0.160 C  
HETATM    5  C   UNL     1      -9.942   9.696  68.718  1.00  0.00    -0.184 C  
HETATM    6  C   UNL     1     -10.414   8.802  69.886  1.00  0.00    -0.227 C  
HETATM    7  C   UNL     1     -11.091  10.623  68.250  1.00  0.00    -0.334 C  
HETATM    8  C   UNL     1     -10.891   9.555  71.122  1.00  0.00    -0.425 C  
BRANCH   7   9
HETATM    9  C   UNL     1     -10.752  11.354  66.951  1.00  0.00    -0.308 C  
BRANCH   9  10
HETATM   10  C   UNL     1     -11.585  12.611  66.634  1.00  0.00    -0.381 C  
BRANCH  10  11
HETATM   11  C   UNL     1     -10.699  13.754  66.092  1.00  0.00    -0.283 C  
HETATM   12  C   UNL     1     -10.832  15.317  68.117  1.00  0.00    -0.273 C  
HETATM   13  C   UNL     1     -11.034  15.171  66.609  1.00  0.00    -0.318 C  
HETATM   14  C   UNL     1     -10.149  16.202  65.891  1.00  0.00    -0.379 C  
ENDBRANCH  10  11
BRANCH  10  15
HETATM   15  O   UNL     1     -12.531  12.281  65.607  1.00  0.00    -0.591 OA 
HETATM   16  O   UNL     1     -12.294  13.976  63.781  1.00  0.00    -0.684 OA 
HETATM   17  O   UNL     1     -10.965  11.820  63.712  1.00  0.00    -0.361 OA 
HETATM   18  S   UNL     1     -12.155  12.556  64.049  1.00  0.00    -0.514 S  
HETATM   19  O   UNL     1     -13.400  11.887  63.277  1.00  0.00    -0.507 OA 
ENDBRANCH  10  15
ENDBRANCH   9  10
ENDBRANCH   7   9
ENDBRANCH   3   4
ENDBRANCH   2   3
TORSDOF 6
ENDMDL
MODEL      150
REMARK 921   NORMALIZED FREE ENERGY PREDICTED BY IDOCK:   -3.95 KCAL/MOL
REMARK 922        TOTAL FREE ENERGY PREDICTED BY IDOCK:   -6.10 KCAL/MOL
REMARK 923 INTER-LIGAND FREE ENERGY PREDICTED BY IDOCK:   -5.14 KCAL/MOL
REMARK 924 INTRA-LIGAND FREE ENERGY PREDICTED BY IDOCK:   -0.96 KCAL/MOL
REMARK 927      BINDING AFFINITY PREDICTED BY RF-SCORE:    0.00 PKD
ROOT
HETATM    1  C   UNL     1     -14.221   7.780  71.678  1.00  0.00    -0.572 C  
HETATM    2  C   UNL     1     -12.774   7.859  72.142  1.00  0.00    -0.254 C  
ENDROOT
BRANCH   2   3
HETATM    3  C   UNL     1     -11.837   7.210  71.121  1.00  0.00    -0.363 C  
BRANCH   3   4
HETATM    4  C   UNL     1     -11.385   8.214  70.058  1.00  0.00     0.000 C  
HETATM    5  C   UNL     1     -10.579   9.415  70.616  1.00  0.00    -0.354 C  
HETATM    6  C   UNL     1      -9.342   9.002  71.443  1.00  0.00    -0.310 C  
HETATM    7  C   UNL     1     -10.170  10.394  69.487  1.00  0.00    -0.258 C  
HETATM    8  C   UNL     1      -8.239   8.312  70.652  1.00  0.00    -0.112 C  
BRANCH   7   9
HETATM    9  C   UNL     1     -11.383  11.014  68.793  1.00  0.00    -0.349 C  
BRANCH   9  10
HETATM   10  C   UNL     1     -11.713  12.473  69.162  1.00  0.00    -0.321 C  
BRANCH  10  11
HETATM   11  C   UNL     1     -12.517  12.554  70.479  1.00  0.00    -0.266 C  
HETATM   12  C   UNL     1     -13.177  15.027  70.358  1.00  0.00    -0.147 C  
HETATM   13  C   UNL     1     -12.514  13.927  71.188  1.00  0.00    -0.450 C  
HETATM   14  C   UNL     1     -13.251  13.812  72.532  1.00  0.00    -0.599 C  
ENDBRANCH  10  11
BRANCH  10  15
HETATM   15  O   UNL     1     -10.481  13.177  69.370  1.00  0.00     0.116 OA 
HETATM   16  O   UNL     1      -9.250  13.217  67.191  1.00  0.00    -0.218 OA 
HETATM   17  O   UNL     1     -10.819  15.106  67.814  1.00  0.00    -0.275 OA 
HETATM   18  S   UNL     1      -9.865  14.091  68.174  1.00  0.00    -0.240 S  
HETATM   19  O   UNL     1      -8.617  14.803  68.900  1.00  0.00    -0.170 OA 
ENDBRANCH  10  15
ENDBRANCH   9  10
ENDBRANCH   7   9
ENDBRANCH   3   4
ENDBRANCH   2   3
TORSDOF 6
ENDMDL
MODEL      151
REMARK 921   NORMALIZED FREE ENERGY PREDICTED BY IDOCK:   -3.95 KCAL/MOL
REMARK 922        TOTAL FREE ENERGY PREDICTED BY IDOCK:   -6.09 KCAL/MOL
REMARK 923 INTER-LIGAND FREE ENERGY PREDICTED BY IDOCK:   -6.26 KCAL/MOL
REMARK 924 INTRA-LIGAND FREE ENERGY PREDICTED BY IDOCK:    0.17 KCAL/MOL
REMARK 927      BINDING AFFINITY PREDICTED BY RF-SCORE:    0.00 PKD
ROOT
HETATM    1  C   UNL     1     -13.473  15.380  71.433  1.00  0.00    -0.607 C  
HETATM    2  C   UNL     1     -13.275  14.585  72.715  1.00  0.00    -0.600 C  
ENDROOT
BRANCH   2   3
HETATM    3  C   UNL     1     -13.411  13.084  72.453  1.00  0.00    -0.615 C  
BRANCH   3   4
HETATM    4  C   UNL     1     -13.270  12.759  70.964  1.00  0.00     0.074 C  
HETATM    5  C   UNL     1     -12.208  11.675  70.646  1.00  0.00    -0.461 C  
HETATM    6  C   UNL     1     -12.425  10.350  71.409  1.00  0.00    -0.521 C  
HETATM    7  C   UNL     1     -12.110  11.411  69.123  1.00  0.00    -0.331 C  
HETATM    8  C   UNL     1     -13.684   9.582  71.022  1.00  0.00    -0.083 C  
BRANCH   7   9
HETATM    9  C   UNL     1     -11.661  12.650  68.349  1.00  0.00    -0.377 C  
BRANCH   9  10
HETATM   10  C   UNL     1     -10.412  12.489  67.461  1.00  0.00    -0.219 C  
BRANCH  10  11
HETATM   11  C   UNL     1     -10.763  12.624  65.962  1.00  0.00    -0.295 C  
HETATM   12  C   UNL     1     -10.255  10.217  65.245  1.00  0.00    -0.308 C  
HETATM   13  C   UNL     1      -9.981  11.702  65.000  1.00  0.00    -0.297 C  
HETATM   14  C   UNL     1     -10.355  12.039  63.549  1.00  0.00    -0.492 C  
ENDBRANCH  10  11
BRANCH  10  15
HETATM   15  O   UNL     1      -9.490  13.540  67.780  1.00  0.00    -0.201 OA 
HETATM   16  O   UNL     1     -10.646  15.719  67.355  1.00  0.00    -0.301 OA 
HETATM   17  O   UNL     1     -10.731  14.647  69.649  1.00  0.00    -0.225 OA 
HETATM   18  S   UNL     1     -10.046  14.930  68.416  1.00  0.00    -0.230 S  
HETATM   19  O   UNL     1      -8.682  15.713  68.762  1.00  0.00    -0.170 OA 
ENDBRANCH  10  15
ENDBRANCH   9  10
ENDBRANCH   7   9
ENDBRANCH   3   4
ENDBRANCH   2   3
TORSDOF 6
ENDMDL
MODEL      152
REMARK 921   NORMALIZED FREE ENERGY PREDICTED BY IDOCK:   -3.94 KCAL/MOL
REMARK 922        TOTAL FREE ENERGY PREDICTED BY IDOCK:   -6.09 KCAL/MOL
REMARK 923 INTER-LIGAND FREE ENERGY PREDICTED BY IDOCK:   -5.51 KCAL/MOL
REMARK 924 INTRA-LIGAND FREE ENERGY PREDICTED BY IDOCK:   -0.58 KCAL/MOL
REMARK 927      BINDING AFFINITY PREDICTED BY RF-SCORE:    0.00 PKD
ROOT
HETATM    1  C   UNL     1      -7.851  10.990  66.372  1.00  0.00    -0.150 C  
HETATM    2  C   UNL     1      -8.079  11.882  67.582  1.00  0.00    -0.148 C  
ENDROOT
BRANCH   2   3
HETATM    3  C   UNL     1      -7.352  13.219  67.420  1.00  0.00    -0.125 C  
BRANCH   3   4
HETATM    4  C   UNL     1      -8.338  14.382  67.287  1.00  0.00    -0.228 C  
HETATM    5  C   UNL     1      -8.636  15.121  68.617  1.00  0.00    -0.172 C  
HETATM    6  C   UNL     1      -7.372  15.643  69.334  1.00  0.00    -0.216 C  
HETATM    7  C   UNL     1      -9.652  16.271  68.408  1.00  0.00    -0.216 C  
HETATM    8  C   UNL     1      -6.626  16.750  68.599  1.00  0.00    -0.169 C  
BRANCH   7   9
HETATM    9  C   UNL     1     -11.009  15.763  67.921  1.00  0.00    -0.324 C  
BRANCH   9  10
HETATM   10  C   UNL     1     -11.857  14.984  68.944  1.00  0.00    -0.307 C  
BRANCH  10  11
HETATM   11  C   UNL     1     -11.350  13.534  69.111  1.00  0.00    -0.333 C  
HETATM   12  C   UNL     1     -11.741  12.728  66.710  1.00  0.00    -0.459 C  
HETATM   13  C   UNL     1     -12.010  12.479  68.195  1.00  0.00    -0.274 C  
HETATM   14  C   UNL     1     -11.488  11.081  68.563  1.00  0.00    -0.379 C  
ENDBRANCH  10  11
BRANCH  10  15
HETATM   15  O   UNL     1     -11.734  15.628  70.219  1.00  0.00    -0.302 OA 
HETATM   16  O   UNL     1     -14.010  15.701  71.259  1.00  0.00    -0.570 OA 
HETATM   17  O   UNL     1     -12.450  13.758  71.718  1.00  0.00    -0.271 OA 
HETATM   18  S   UNL     1     -12.679  15.154  71.455  1.00  0.00    -0.413 S  
HETATM   19  O   UNL     1     -12.083  16.006  72.684  1.00  0.00    -0.452 OA 
ENDBRANCH  10  15
ENDBRANCH   9  10
ENDBRANCH   7   9
ENDBRANCH   3   4
ENDBRANCH   2   3
TORSDOF 6
ENDMDL
MODEL      153
REMARK 921   NORMALIZED FREE ENERGY PREDICTED BY IDOCK:   -3.94 KCAL/MOL
REMARK 922        TOTAL FREE ENERGY PREDICTED BY IDOCK:   -6.08 KCAL/MOL
REMARK 923 INTER-LIGAND FREE ENERGY PREDICTED BY IDOCK:   -5.85 KCAL/MOL
REMARK 924 INTRA-LIGAND FREE ENERGY PREDICTED BY IDOCK:   -0.23 KCAL/MOL
REMARK 927      BINDING AFFINITY PREDICTED BY RF-SCORE:    0.00 PKD
ROOT
HETATM    1  C   UNL     1      -5.553  17.673  69.771  1.00  0.00    -0.227 C  
HETATM    2  C   UNL     1      -6.874  17.259  69.141  1.00  0.00    -0.234 C  
ENDROOT
BRANCH   2   3
HETATM    3  C   UNL     1      -7.054  17.913  67.770  1.00  0.00    -0.207 C  
BRANCH   3   4
HETATM    4  C   UNL     1      -8.259  17.334  67.025  1.00  0.00    -0.233 C  
HETATM    5  C   UNL     1      -9.611  17.514  67.762  1.00  0.00    -0.269 C  
HETATM    6  C   UNL     1      -9.930  18.981  68.125  1.00  0.00    -0.449 C  
HETATM    7  C   UNL     1     -10.779  16.891  66.959  1.00  0.00    -0.153 C  
HETATM    8  C   UNL     1     -10.174  19.900  66.935  1.00  0.00    -0.600 C  
BRANCH   7   9
HETATM    9  C   UNL     1     -10.619  15.380  66.782  1.00  0.00    -0.309 C  
BRANCH   9  10
HETATM   10  C   UNL     1     -10.378  14.561  68.065  1.00  0.00    -0.229 C  
BRANCH  10  11
HETATM   11  C   UNL     1     -11.690  14.348  68.853  1.00  0.00    -0.357 C  
HETATM   12  C   UNL     1     -11.367  16.183  70.611  1.00  0.00    -0.394 C  
HETATM   13  C   UNL     1     -11.638  14.700  70.357  1.00  0.00    -0.326 C  
HETATM   14  C   UNL     1     -12.973  14.323  71.018  1.00  0.00    -0.411 C  
ENDBRANCH  10  11
BRANCH  10  15
HETATM   15  O   UNL     1      -9.889  13.266  67.690  1.00  0.00    -0.220 OA 
HETATM   16  O   UNL     1     -10.990  11.579  69.176  1.00  0.00    -0.220 OA 
HETATM   17  O   UNL     1     -12.026  12.198  66.948  1.00  0.00    -0.603 OA 
HETATM   18  S   UNL     1     -10.876  11.977  67.784  1.00  0.00    -0.228 S  
HETATM   19  O   UNL     1      -9.981  10.816  67.117  1.00  0.00    -0.184 OA 
ENDBRANCH  10  15
ENDBRANCH   9  10
ENDBRANCH   7   9
ENDBRANCH   3   4
ENDBRANCH   2   3
TORSDOF 6
ENDMDL
MODEL      154
REMARK 921   NORMALIZED FREE ENERGY PREDICTED BY IDOCK:   -3.94 KCAL/MOL
REMARK 922        TOTAL FREE ENERGY PREDICTED BY IDOCK:   -6.08 KCAL/MOL
REMARK 923 INTER-LIGAND FREE ENERGY PREDICTED BY IDOCK:   -5.21 KCAL/MOL
REMARK 924 INTRA-LIGAND FREE ENERGY PREDICTED BY IDOCK:   -0.87 KCAL/MOL
REMARK 927      BINDING AFFINITY PREDICTED BY RF-SCORE:    0.00 PKD
ROOT
HETATM    1  C   UNL     1     -14.370   8.827  72.138  1.00  0.00    -0.481 C  
HETATM    2  C   UNL     1     -13.052   9.544  71.886  1.00  0.00    -0.517 C  
ENDROOT
BRANCH   2   3
HETATM    3  C   UNL     1     -11.867   8.603  72.110  1.00  0.00    -0.447 C  
BRANCH   3   4
HETATM    4  C   UNL     1     -11.242   8.163  70.783  1.00  0.00    -0.275 C  
HETATM    5  C   UNL     1      -9.809   8.704  70.543  1.00  0.00    -0.210 C  
HETATM    6  C   UNL     1      -8.818   8.363  71.677  1.00  0.00    -0.246 C  
HETATM    7  C   UNL     1      -9.249   8.232  69.178  1.00  0.00    -0.151 C  
HETATM    8  C   UNL     1      -8.500   6.881  71.831  1.00  0.00    -0.114 C  
BRANCH   7   9
HETATM    9  C   UNL     1     -10.076   8.754  68.002  1.00  0.00    -0.241 C  
BRANCH   9  10
HETATM   10  C   UNL     1      -9.652  10.114  67.416  1.00  0.00    -0.154 C  
BRANCH  10  11
HETATM   11  C   UNL     1      -8.393   9.979  66.529  1.00  0.00    -0.126 C  
HETATM   12  C   UNL     1      -6.632  10.570  68.294  1.00  0.00    -0.059 C  
HETATM   13  C   UNL     1      -7.200  10.884  66.910  1.00  0.00    -0.124 C  
HETATM   14  C   UNL     1      -6.080  10.720  65.870  1.00  0.00    -0.128 C  
ENDBRANCH  10  11
BRANCH  10  15
HETATM   15  O   UNL     1     -10.712  10.598  66.581  1.00  0.00    -0.239 OA 
HETATM   16  O   UNL     1     -12.243  11.966  68.013  1.00  0.00    -0.491 OA 
HETATM   17  O   UNL     1     -10.323  13.062  66.775  1.00  0.00    -0.249 OA 
HETATM   18  S   UNL     1     -11.356  12.064  66.868  1.00  0.00    -0.338 S  
HETATM   19  O   UNL     1     -12.351  12.248  65.615  1.00  0.00    -0.619 OA 
ENDBRANCH  10  15
ENDBRANCH   9  10
ENDBRANCH   7   9
ENDBRANCH   3   4
ENDBRANCH   2   3
TORSDOF 6
ENDMDL
MODEL      155
REMARK 921   NORMALIZED FREE ENERGY PREDICTED BY IDOCK:   -3.93 KCAL/MOL
REMARK 922        TOTAL FREE ENERGY PREDICTED BY IDOCK:   -6.08 KCAL/MOL
REMARK 923 INTER-LIGAND FREE ENERGY PREDICTED BY IDOCK:   -6.06 KCAL/MOL
REMARK 924 INTRA-LIGAND FREE ENERGY PREDICTED BY IDOCK:   -0.02 KCAL/MOL
REMARK 927      BINDING AFFINITY PREDICTED BY RF-SCORE:    0.00 PKD
ROOT
HETATM    1  C   UNL     1     -13.265  13.867  71.114  1.00  0.00    -0.308 C  
HETATM    2  C   UNL     1     -13.453  12.809  72.190  1.00  0.00    -0.591 C  
ENDROOT
BRANCH   2   3
HETATM    3  C   UNL     1     -12.763  11.501  71.797  1.00  0.00    -0.340 C  
BRANCH   3   4
HETATM    4  C   UNL     1     -12.643  11.364  70.277  1.00  0.00    -0.225 C  
HETATM    5  C   UNL     1     -11.211  11.044  69.776  1.00  0.00    -0.339 C  
HETATM    6  C   UNL     1     -10.594   9.784  70.422  1.00  0.00    -0.365 C  
HETATM    7  C   UNL     1     -11.165  10.936  68.232  1.00  0.00    -0.347 C  
HETATM    8  C   UNL     1     -11.281   8.473  70.061  1.00  0.00    -0.086 C  
BRANCH   7   9
HETATM    9  C   UNL     1     -11.543  12.251  67.548  1.00  0.00    -0.422 C  
BRANCH   9  10
HETATM   10  C   UNL     1     -10.386  13.219  67.237  1.00  0.00    -0.247 C  
BRANCH  10  11
HETATM   11  C   UNL     1      -9.144  12.464  66.712  1.00  0.00    -0.212 C  
HETATM   12  C   UNL     1     -10.128  11.627  64.500  1.00  0.00    -0.321 C  
HETATM   13  C   UNL     1      -9.428  11.246  65.805  1.00  0.00    -0.252 C  
HETATM   14  C   UNL     1      -8.106  10.540  65.467  1.00  0.00    -0.155 C  
ENDBRANCH  10  11
BRANCH  10  15
HETATM   15  O   UNL     1     -10.811  14.114  66.201  1.00  0.00    -0.291 OA 
HETATM   16  O   UNL     1     -10.908  16.417  67.177  1.00  0.00    -0.279 OA 
HETATM   17  O   UNL     1      -8.796  15.588  66.051  1.00  0.00    -0.308 OA 
HETATM   18  S   UNL     1     -10.230  15.633  66.161  1.00  0.00    -0.333 S  
HETATM   19  O   UNL     1     -10.828  16.188  64.773  1.00  0.00    -0.634 OA 
ENDBRANCH  10  15
ENDBRANCH   9  10
ENDBRANCH   7   9
ENDBRANCH   3   4
ENDBRANCH   2   3
TORSDOF 6
ENDMDL
MODEL      156
REMARK 921   NORMALIZED FREE ENERGY PREDICTED BY IDOCK:   -3.90 KCAL/MOL
REMARK 922        TOTAL FREE ENERGY PREDICTED BY IDOCK:   -6.03 KCAL/MOL
REMARK 923 INTER-LIGAND FREE ENERGY PREDICTED BY IDOCK:   -5.20 KCAL/MOL
REMARK 924 INTRA-LIGAND FREE ENERGY PREDICTED BY IDOCK:   -0.83 KCAL/MOL
REMARK 927      BINDING AFFINITY PREDICTED BY RF-SCORE:    0.00 PKD
ROOT
HETATM    1  C   UNL     1     -10.991   7.023  72.406  1.00  0.00    -0.282 C  
HETATM    2  C   UNL     1     -11.034   8.352  71.669  1.00  0.00    -0.345 C  
ENDROOT
BRANCH   2   3
HETATM    3  C   UNL     1      -9.621   8.853  71.363  1.00  0.00    -0.359 C  
BRANCH   3   4
HETATM    4  C   UNL     1      -9.602   9.767  70.136  1.00  0.00    -0.287 C  
HETATM    5  C   UNL     1      -8.664   9.289  68.998  1.00  0.00    -0.135 C  
HETATM    6  C   UNL     1      -8.952   7.849  68.520  1.00  0.00    -0.133 C  
HETATM    7  C   UNL     1      -8.685  10.269  67.799  1.00  0.00    -0.121 C  
HETATM    8  C   UNL     1     -10.296   7.656  67.828  1.00  0.00    -0.282 C  
BRANCH   7   9
HETATM    9  C   UNL     1      -8.175  11.659  68.180  1.00  0.00    -0.151 C  
BRANCH   9  10
HETATM   10  C   UNL     1      -9.208  12.802  68.145  1.00  0.00    -0.212 C  
BRANCH  10  11
HETATM   11  C   UNL     1      -8.524  14.176  67.963  1.00  0.00    -0.171 C  
HETATM   12  C   UNL     1      -9.794  15.463  69.778  1.00  0.00    -0.236 C  
HETATM   13  C   UNL     1      -9.389  15.410  68.304  1.00  0.00    -0.193 C  
HETATM   14  C   UNL     1      -8.613  16.691  67.961  1.00  0.00    -0.193 C  
ENDBRANCH  10  11
BRANCH  10  15
HETATM   15  O   UNL     1     -10.068  12.600  67.015  1.00  0.00    -0.221 OA 
HETATM   16  O   UNL     1     -11.851  10.981  67.696  1.00  0.00    -0.599 OA 
HETATM   17  O   UNL     1     -12.217  13.475  67.949  1.00  0.00    -0.305 OA 
HETATM   18  S   UNL     1     -11.657  12.349  67.250  1.00  0.00    -0.355 S  
HETATM   19  O   UNL     1     -12.227  12.354  65.743  1.00  0.00    -0.620 OA 
ENDBRANCH  10  15
ENDBRANCH   9  10
ENDBRANCH   7   9
ENDBRANCH   3   4
ENDBRANCH   2   3
TORSDOF 6
ENDMDL
MODEL      157
REMARK 921   NORMALIZED FREE ENERGY PREDICTED BY IDOCK:   -3.90 KCAL/MOL
REMARK 922        TOTAL FREE ENERGY PREDICTED BY IDOCK:   -6.03 KCAL/MOL
REMARK 923 INTER-LIGAND FREE ENERGY PREDICTED BY IDOCK:   -5.19 KCAL/MOL
REMARK 924 INTRA-LIGAND FREE ENERGY PREDICTED BY IDOCK:   -0.84 KCAL/MOL
REMARK 927      BINDING AFFINITY PREDICTED BY RF-SCORE:    0.00 PKD
ROOT
HETATM    1  C   UNL     1     -12.455  13.246  71.529  1.00  0.00    -0.224 C  
HETATM    2  C   UNL     1     -13.184  12.022  72.059  1.00  0.00    -0.481 C  
ENDROOT
BRANCH   2   3
HETATM    3  C   UNL     1     -13.019  10.834  71.109  1.00  0.00    -0.467 C  
BRANCH   3   4
HETATM    4  C   UNL     1     -11.571  10.338  71.077  1.00  0.00    -0.430 C  
HETATM    5  C   UNL     1     -11.122   9.769  69.706  1.00  0.00    -0.272 C  
HETATM    6  C   UNL     1     -11.320  10.752  68.531  1.00  0.00    -0.360 C  
HETATM    7  C   UNL     1      -9.656   9.274  69.753  1.00  0.00    -0.203 C  
HETATM    8  C   UNL     1     -10.445  11.998  68.579  1.00  0.00    -0.244 C  
BRANCH   7   9
HETATM    9  C   UNL     1      -9.465   8.125  70.744  1.00  0.00    -0.180 C  
BRANCH   9  10
HETATM   10  C   UNL     1      -9.433   6.704  70.149  1.00  0.00    -0.158 C  
BRANCH  10  11
HETATM   11  C   UNL     1      -9.981   5.661  71.149  1.00  0.00    -0.244 C  
HETATM   12  C   UNL     1     -12.240   6.768  71.637  1.00  0.00    -0.410 C  
HETATM   13  C   UNL     1     -10.947   6.202  72.227  1.00  0.00    -0.302 C  
HETATM   14  C   UNL     1     -11.305   5.073  73.206  1.00  0.00    -0.393 C  
ENDBRANCH  10  11
BRANCH  10  15
HETATM   15  O   UNL     1     -10.284   6.677  68.995  1.00  0.00    -0.162 OA 
HETATM   16  O   UNL     1      -8.819   6.788  66.968  1.00  0.00    -0.112 OA 
HETATM   17  O   UNL     1      -9.506   4.549  67.935  1.00  0.00    -0.139 OA 
HETATM   18  S   UNL     1      -9.779   5.931  67.641  1.00  0.00    -0.121 S  
HETATM   19  O   UNL     1     -11.089   6.001  66.707  1.00  0.00    -0.291 OA 
ENDBRANCH  10  15
ENDBRANCH   9  10
ENDBRANCH   7   9
ENDBRANCH   3   4
ENDBRANCH   2   3
TORSDOF 6
ENDMDL
MODEL      158
REMARK 921   NORMALIZED FREE ENERGY PREDICTED BY IDOCK:   -3.89 KCAL/MOL
REMARK 922        TOTAL FREE ENERGY PREDICTED BY IDOCK:   -6.01 KCAL/MOL
REMARK 923 INTER-LIGAND FREE ENERGY PREDICTED BY IDOCK:   -4.97 KCAL/MOL
REMARK 924 INTRA-LIGAND FREE ENERGY PREDICTED BY IDOCK:   -1.04 KCAL/MOL
REMARK 927      BINDING AFFINITY PREDICTED BY RF-SCORE:    0.00 PKD
ROOT
HETATM    1  C   UNL     1     -11.451   6.259  70.369  1.00  0.00    -0.414 C  
HETATM    2  C   UNL     1     -10.820   7.124  69.289  1.00  0.00    -0.204 C  
ENDROOT
BRANCH   2   3
HETATM    3  C   UNL     1     -10.727   6.363  67.965  1.00  0.00    -0.362 C  
BRANCH   3   4
HETATM    4  C   UNL     1     -10.704   7.319  66.769  1.00  0.00    -0.231 C  
HETATM    5  C   UNL     1      -9.433   8.203  66.684  1.00  0.00    -0.274 C  
HETATM    6  C   UNL     1      -8.115   7.398  66.681  1.00  0.00    -0.123 C  
HETATM    7  C   UNL     1      -9.487   9.153  65.462  1.00  0.00    -0.276 C  
HETATM    8  C   UNL     1      -7.894   6.529  65.449  1.00  0.00    -0.106 C  
BRANCH   7   9
HETATM    9  C   UNL     1     -10.654  10.138  65.546  1.00  0.00     0.057 C  
BRANCH   9  10
HETATM   10  C   UNL     1     -10.378  11.468  66.272  1.00  0.00    -0.239 C  
BRANCH  10  11
HETATM   11  C   UNL     1      -8.925  11.536  66.793  1.00  0.00    -0.181 C  
HETATM   12  C   UNL     1      -9.316  10.523  69.114  1.00  0.00    -0.200 C  
HETATM   13  C   UNL     1      -8.763  11.708  68.320  1.00  0.00    -0.163 C  
HETATM   14  C   UNL     1      -7.274  11.877  68.662  1.00  0.00    -0.109 C  
ENDBRANCH  10  11
BRANCH  10  15
HETATM   15  O   UNL     1     -10.546  12.539  65.334  1.00  0.00    -0.268 OA 
HETATM   16  O   UNL     1     -13.003  12.901  65.025  1.00  0.00    -0.777 OA 
HETATM   17  O   UNL     1     -11.726  14.201  66.785  1.00  0.00    -0.370 OA 
HETATM   18  S   UNL     1     -11.800  13.562  65.498  1.00  0.00    -0.386 S  
HETATM   19  O   UNL     1     -11.487  14.665  64.367  1.00  0.00    -0.342 OA 
ENDBRANCH  10  15
ENDBRANCH   9  10
ENDBRANCH   7   9
ENDBRANCH   3   4
ENDBRANCH   2   3
TORSDOF 6
ENDMDL
MODEL      159
REMARK 921   NORMALIZED FREE ENERGY PREDICTED BY IDOCK:   -3.88 KCAL/MOL
REMARK 922        TOTAL FREE ENERGY PREDICTED BY IDOCK:   -6.00 KCAL/MOL
REMARK 923 INTER-LIGAND FREE ENERGY PREDICTED BY IDOCK:   -5.15 KCAL/MOL
REMARK 924 INTRA-LIGAND FREE ENERGY PREDICTED BY IDOCK:   -0.84 KCAL/MOL
REMARK 927      BINDING AFFINITY PREDICTED BY RF-SCORE:    0.00 PKD
ROOT
HETATM    1  C   UNL     1      -9.107   9.851  63.912  1.00  0.00    -0.298 C  
HETATM    2  C   UNL     1      -9.397  10.971  62.925  1.00  0.00    -0.380 C  
ENDROOT
BRANCH   2   3
HETATM    3  C   UNL     1     -10.342  12.008  63.537  1.00  0.00    -0.492 C  
BRANCH   3   4
HETATM    4  C   UNL     1     -11.087  11.442  64.748  1.00  0.00    -0.258 C  
HETATM    5  C   UNL     1     -10.895  12.256  66.053  1.00  0.00    -0.310 C  
HETATM    6  C   UNL     1     -11.268  13.749  65.914  1.00  0.00    -0.305 C  
HETATM    7  C   UNL     1     -11.664  11.617  67.236  1.00  0.00    -0.255 C  
HETATM    8  C   UNL     1     -12.746  14.024  65.667  1.00  0.00    -0.515 C  
BRANCH   7   9
HETATM    9  C   UNL     1     -11.157  10.212  67.563  1.00  0.00    -0.251 C  
BRANCH   9  10
HETATM   10  C   UNL     1     -10.734   9.959  69.023  1.00  0.00    -0.222 C  
BRANCH  10  11
HETATM   11  C   UNL     1      -9.262  10.365  69.264  1.00  0.00    -0.198 C  
HETATM   12  C   UNL     1      -8.136   8.414  68.043  1.00  0.00    -0.123 C  
HETATM   13  C   UNL     1      -8.247   9.203  69.348  1.00  0.00    -0.118 C  
HETATM   14  C   UNL     1      -6.860   9.760  69.707  1.00  0.00    -0.074 C  
ENDBRANCH  10  11
BRANCH  10  15
HETATM   15  O   UNL     1     -11.547  10.774  69.878  1.00  0.00    -0.274 OA 
HETATM   16  O   UNL     1     -13.493   9.387  70.624  1.00  0.00     0.030 OA 
HETATM   17  O   UNL     1     -11.372   9.472  72.007  1.00  0.00    -0.236 OA 
HETATM   18  S   UNL     1     -12.330  10.093  71.130  1.00  0.00    -0.419 S  
HETATM   19  O   UNL     1     -12.947  11.377  71.882  1.00  0.00    -0.453 OA 
ENDBRANCH  10  15
ENDBRANCH   9  10
ENDBRANCH   7   9
ENDBRANCH   3   4
ENDBRANCH   2   3
TORSDOF 6
ENDMDL
MODEL      160
REMARK 921   NORMALIZED FREE ENERGY PREDICTED BY IDOCK:   -3.85 KCAL/MOL
REMARK 922        TOTAL FREE ENERGY PREDICTED BY IDOCK:   -5.96 KCAL/MOL
REMARK 923 INTER-LIGAND FREE ENERGY PREDICTED BY IDOCK:   -4.66 KCAL/MOL
REMARK 924 INTRA-LIGAND FREE ENERGY PREDICTED BY IDOCK:   -1.30 KCAL/MOL
REMARK 927      BINDING AFFINITY PREDICTED BY RF-SCORE:    0.00 PKD
ROOT
HETATM    1  C   UNL     1      -7.195   6.003  70.992  1.00  0.00    -0.074 C  
HETATM    2  C   UNL     1      -7.227   4.604  70.395  1.00  0.00    -0.049 C  
ENDROOT
BRANCH   2   3
HETATM    3  C   UNL     1      -8.082   4.571  69.126  1.00  0.00    -0.069 C  
BRANCH   3   4
HETATM    4  C   UNL     1      -9.008   5.787  69.042  1.00  0.00    -0.117 C  
HETATM    5  C   UNL     1      -8.898   6.581  67.715  1.00  0.00    -0.113 C  
HETATM    6  C   UNL     1      -9.123   5.718  66.454  1.00  0.00    -0.152 C  
HETATM    7  C   UNL     1      -9.850   7.803  67.708  1.00  0.00    -0.200 C  
HETATM    8  C   UNL     1     -10.534   5.165  66.295  1.00  0.00    -0.341 C  
BRANCH   7   9
HETATM    9  C   UNL     1      -9.507   8.810  68.806  1.00  0.00    -0.142 C  
BRANCH   9  10
HETATM   10  C   UNL     1     -10.551   8.987  69.925  1.00  0.00    -0.228 C  
BRANCH  10  11
HETATM   11  C   UNL     1     -10.053   8.392  71.262  1.00  0.00    -0.260 C  
HETATM   12  C   UNL     1     -11.669   6.409  71.408  1.00  0.00    -0.364 C  
HETATM   13  C   UNL     1     -11.113   7.651  72.107  1.00  0.00    -0.314 C  
HETATM   14  C   UNL     1     -10.494   7.226  73.447  1.00  0.00    -0.423 C  
ENDBRANCH  10  11
BRANCH  10  15
HETATM   15  O   UNL     1     -10.757  10.391  70.134  1.00  0.00    -0.280 OA 
HETATM   16  O   UNL     1     -12.222  11.227  68.285  1.00  0.00    -0.611 OA 
HETATM   17  O   UNL     1     -13.237  10.417  70.460  1.00  0.00    -0.300 OA 
HETATM   18  S   UNL     1     -12.181  11.063  69.726  1.00  0.00    -0.273 S  
HETATM   19  O   UNL     1     -12.020  12.564  70.287  1.00  0.00    -0.347 OA 
ENDBRANCH  10  15
ENDBRANCH   9  10
ENDBRANCH   7   9
ENDBRANCH   3   4
ENDBRANCH   2   3
TORSDOF 6
ENDMDL
MODEL      161
REMARK 921   NORMALIZED FREE ENERGY PREDICTED BY IDOCK:   -3.84 KCAL/MOL
REMARK 922        TOTAL FREE ENERGY PREDICTED BY IDOCK:   -5.95 KCAL/MOL
REMARK 923 INTER-LIGAND FREE ENERGY PREDICTED BY IDOCK:   -5.18 KCAL/MOL
REMARK 924 INTRA-LIGAND FREE ENERGY PREDICTED BY IDOCK:   -0.77 KCAL/MOL
REMARK 927      BINDING AFFINITY PREDICTED BY RF-SCORE:    0.00 PKD
ROOT
HETATM    1  C   UNL     1     -11.489  13.929  64.412  1.00  0.00    -0.376 C  
HETATM    2  C   UNL     1     -11.607  12.589  63.703  1.00  0.00    -0.580 C  
ENDROOT
BRANCH   2   3
HETATM    3  C   UNL     1     -10.233  11.937  63.533  1.00  0.00    -0.485 C  
BRANCH   3   4
HETATM    4  C   UNL     1      -9.672  11.455  64.873  1.00  0.00    -0.283 C  
HETATM    5  C   UNL     1      -9.580   9.913  65.008  1.00  0.00    -0.364 C  
HETATM    6  C   UNL     1      -8.772   9.238  63.878  1.00  0.00    -0.193 C  
HETATM    7  C   UNL     1      -9.020   9.500  66.392  1.00  0.00    -0.182 C  
HETATM    8  C   UNL     1      -7.286   9.574  63.860  1.00  0.00    -0.111 C  
BRANCH   7   9
HETATM    9  C   UNL     1      -9.926   9.948  67.539  1.00  0.00    -0.229 C  
BRANCH   9  10
HETATM   10  C   UNL     1      -9.244  10.704  68.696  1.00  0.00    -0.181 C  
BRANCH  10  11
HETATM   11  C   UNL     1      -9.557  12.217  68.643  1.00  0.00    -0.068 C  
HETATM   12  C   UNL     1     -12.003  12.115  69.396  1.00  0.00    -0.329 C  
HETATM   13  C   UNL     1     -11.021  12.593  68.325  1.00  0.00    -0.275 C  
HETATM   14  C   UNL     1     -11.142  14.119  68.192  1.00  0.00    -0.276 C  
ENDBRANCH  10  11
BRANCH  10  15
HETATM   15  O   UNL     1      -9.766  10.204  69.934  1.00  0.00    -0.222 OA 
HETATM   16  O   UNL     1      -9.199   7.769  70.069  1.00  0.00    -0.153 OA 
HETATM   17  O   UNL     1      -7.637   9.508  71.048  1.00  0.00    -0.311 OA 
HETATM   18  S   UNL     1      -8.960   9.038  70.733  1.00  0.00    -0.250 S  
HETATM   19  O   UNL     1      -9.797   8.927  72.104  1.00  0.00    -0.312 OA 
ENDBRANCH  10  15
ENDBRANCH   9  10
ENDBRANCH   7   9
ENDBRANCH   3   4
ENDBRANCH   2   3
TORSDOF 6
ENDMDL
MODEL      162
REMARK 921   NORMALIZED FREE ENERGY PREDICTED BY IDOCK:   -3.81 KCAL/MOL
REMARK 922        TOTAL FREE ENERGY PREDICTED BY IDOCK:   -5.91 KCAL/MOL
REMARK 923 INTER-LIGAND FREE ENERGY PREDICTED BY IDOCK:   -5.39 KCAL/MOL
REMARK 924 INTRA-LIGAND FREE ENERGY PREDICTED BY IDOCK:   -0.51 KCAL/MOL
REMARK 927      BINDING AFFINITY PREDICTED BY RF-SCORE:    0.00 PKD
ROOT
HETATM    1  C   UNL     1     -12.674  15.731  71.510  1.00  0.00    -0.512 C  
HETATM    2  C   UNL     1     -12.937  14.863  72.730  1.00  0.00    -0.542 C  
ENDROOT
BRANCH   2   3
HETATM    3  C   UNL     1     -13.297  13.434  72.317  1.00  0.00    -0.641 C  
BRANCH   3   4
HETATM    4  C   UNL     1     -13.010  13.190  70.834  1.00  0.00    -0.141 C  
HETATM    5  C   UNL     1     -11.843  12.205  70.564  1.00  0.00    -0.185 C  
HETATM    6  C   UNL     1     -12.016  10.833  71.252  1.00  0.00    -0.286 C  
HETATM    7  C   UNL     1     -11.600  12.020  69.046  1.00  0.00    -0.370 C  
HETATM    8  C   UNL     1     -13.174   9.992  70.729  1.00  0.00    -0.270 C  
BRANCH   7   9
HETATM    9  C   UNL     1     -11.188  13.324  68.362  1.00  0.00    -0.314 C  
BRANCH   9  10
HETATM   10  C   UNL     1      -9.771  13.364  67.759  1.00  0.00    -0.216 C  
BRANCH  10  11
HETATM   11  C   UNL     1      -8.740  12.693  68.693  1.00  0.00     0.049 C  
HETATM   12  C   UNL     1      -6.667  12.963  67.212  1.00  0.00    -0.056 C  
HETATM   13  C   UNL     1      -7.552  11.993  67.995  1.00  0.00    -0.120 C  
HETATM   14  C   UNL     1      -6.689  11.278  69.046  1.00  0.00    -0.089 C  
ENDBRANCH  10  11
BRANCH  10  15
HETATM   15  O   UNL     1      -9.780  12.624  66.531  1.00  0.00    -0.244 OA 
HETATM   16  O   UNL     1     -12.069  12.826  65.538  1.00  0.00    -0.423 OA 
HETATM   17  O   UNL     1     -10.249  14.475  64.915  1.00  0.00    -0.405 OA 
HETATM   18  S   UNL     1     -10.678  13.151  65.281  1.00  0.00    -0.314 S  
HETATM   19  O   UNL     1     -10.250  12.137  64.106  1.00  0.00    -0.311 OA 
ENDBRANCH  10  15
ENDBRANCH   9  10
ENDBRANCH   7   9
ENDBRANCH   3   4
ENDBRANCH   2   3
TORSDOF 6
ENDMDL
MODEL      163
REMARK 921   NORMALIZED FREE ENERGY PREDICTED BY IDOCK:   -3.80 KCAL/MOL
REMARK 922        TOTAL FREE ENERGY PREDICTED BY IDOCK:   -5.90 KCAL/MOL
REMARK 923 INTER-LIGAND FREE ENERGY PREDICTED BY IDOCK:   -5.20 KCAL/MOL
REMARK 924 INTRA-LIGAND FREE ENERGY PREDICTED BY IDOCK:   -0.69 KCAL/MOL
REMARK 927      BINDING AFFINITY PREDICTED BY RF-SCORE:    0.00 PKD
ROOT
HETATM    1  C   UNL     1     -11.994  13.638  64.580  1.00  0.00    -0.441 C  
HETATM    2  C   UNL     1     -11.967  12.350  63.773  1.00  0.00    -0.600 C  
ENDROOT
BRANCH   2   3
HETATM    3  C   UNL     1     -10.533  11.844  63.599  1.00  0.00    -0.493 C  
BRANCH   3   4
HETATM    4  C   UNL     1     -10.013  11.182  64.878  1.00  0.00    -0.331 C  
HETATM    5  C   UNL     1      -9.699   9.671  64.731  1.00  0.00    -0.108 C  
HETATM    6  C   UNL     1      -8.711   9.350  63.588  1.00  0.00    -0.222 C  
HETATM    7  C   UNL     1      -9.194   9.067  66.065  1.00  0.00    -0.284 C  
HETATM    8  C   UNL     1      -7.296   9.878  63.792  1.00  0.00    -0.130 C  
BRANCH   7   9
HETATM    9  C   UNL     1     -10.245   9.151  67.172  1.00  0.00    -0.329 C  
BRANCH   9  10
HETATM   10  C   UNL     1      -9.720   9.403  68.599  1.00  0.00    -0.152 C  
BRANCH  10  11
HETATM   11  C   UNL     1     -10.667   8.805  69.663  1.00  0.00    -0.212 C  
HETATM   12  C   UNL     1     -12.045  10.908  70.155  1.00  0.00    -0.431 C  
HETATM   13  C   UNL     1     -11.181   9.789  70.738  1.00  0.00    -0.419 C  
HETATM   14  C   UNL     1     -12.007   9.022  71.782  1.00  0.00    -0.438 C  
ENDBRANCH  10  11
BRANCH  10  15
HETATM   15  O   UNL     1      -8.453   8.746  68.737  1.00  0.00    -0.126 OA 
HETATM   16  O   UNL     1      -6.669  10.495  68.587  1.00  0.00    -0.052 OA 
HETATM   17  O   UNL     1      -7.631   9.833  70.835  1.00  0.00    -0.319 OA 
HETATM   18  S   UNL     1      -7.230   9.508  69.491  1.00  0.00    -0.083 S  
HETATM   19  O   UNL     1      -6.106   8.357  69.563  1.00  0.00    -0.035 OA 
ENDBRANCH  10  15
ENDBRANCH   9  10
ENDBRANCH   7   9
ENDBRANCH   3   4
ENDBRANCH   2   3
TORSDOF 6
ENDMDL
MODEL      164
REMARK 921   NORMALIZED FREE ENERGY PREDICTED BY IDOCK:   -3.80 KCAL/MOL
REMARK 922        TOTAL FREE ENERGY PREDICTED BY IDOCK:   -5.90 KCAL/MOL
REMARK 923 INTER-LIGAND FREE ENERGY PREDICTED BY IDOCK:   -4.78 KCAL/MOL
REMARK 924 INTRA-LIGAND FREE ENERGY PREDICTED BY IDOCK:   -1.12 KCAL/MOL
REMARK 927      BINDING AFFINITY PREDICTED BY RF-SCORE:    0.00 PKD
ROOT
HETATM    1  C   UNL     1     -10.436   8.061  66.912  1.00  0.00    -0.387 C  
HETATM    2  C   UNL     1      -9.167   8.179  66.082  1.00  0.00    -0.230 C  
ENDROOT
BRANCH   2   3
HETATM    3  C   UNL     1      -7.952   7.682  66.868  1.00  0.00    -0.115 C  
BRANCH   3   4
HETATM    4  C   UNL     1      -7.878   8.327  68.254  1.00  0.00    -0.118 C  
HETATM    5  C   UNL     1      -8.151   7.350  69.427  1.00  0.00    -0.129 C  
HETATM    6  C   UNL     1      -7.233   6.107  69.426  1.00  0.00    -0.074 C  
HETATM    7  C   UNL     1      -8.075   8.074  70.794  1.00  0.00    -0.101 C  
HETATM    8  C   UNL     1      -5.759   6.394  69.681  1.00  0.00    -0.014 C  
BRANCH   7   9
HETATM    9  C   UNL     1      -9.137   9.166  70.929  1.00  0.00    -0.316 C  
BRANCH   9  10
HETATM   10  C   UNL     1     -10.581   8.692  71.182  1.00  0.00    -0.228 C  
BRANCH  10  11
HETATM   11  C   UNL     1     -10.624   7.535  72.206  1.00  0.00    -0.280 C  
HETATM   12  C   UNL     1     -10.893   5.592  70.557  1.00  0.00    -0.315 C  
HETATM   13  C   UNL     1     -11.454   6.299  71.792  1.00  0.00    -0.355 C  
HETATM   14  C   UNL     1     -11.495   5.296  72.956  1.00  0.00    -0.340 C  
ENDBRANCH  10  11
BRANCH  10  15
HETATM   15  O   UNL     1     -11.325   9.783  71.739  1.00  0.00    -0.298 OA 
HETATM   16  O   UNL     1     -12.565  10.892  69.869  1.00  0.00    -0.289 OA 
HETATM   17  O   UNL     1     -13.652   9.034  71.207  1.00  0.00    -0.309 OA 
HETATM   18  S   UNL     1     -12.774  10.171  71.112  1.00  0.00    -0.424 S  
HETATM   19  O   UNL     1     -13.296  11.300  72.136  1.00  0.00    -0.457 OA 
ENDBRANCH  10  15
ENDBRANCH   9  10
ENDBRANCH   7   9
ENDBRANCH   3   4
ENDBRANCH   2   3
TORSDOF 6
ENDMDL
MODEL      165
REMARK 921   NORMALIZED FREE ENERGY PREDICTED BY IDOCK:   -3.80 KCAL/MOL
REMARK 922        TOTAL FREE ENERGY PREDICTED BY IDOCK:   -5.89 KCAL/MOL
REMARK 923 INTER-LIGAND FREE ENERGY PREDICTED BY IDOCK:   -5.04 KCAL/MOL
REMARK 924 INTRA-LIGAND FREE ENERGY PREDICTED BY IDOCK:   -0.85 KCAL/MOL
REMARK 927      BINDING AFFINITY PREDICTED BY RF-SCORE:    0.00 PKD
ROOT
HETATM    1  C   UNL     1     -12.363  13.778  64.013  1.00  0.00    -0.370 C  
HETATM    2  C   UNL     1     -11.650  12.584  63.397  1.00  0.00    -0.547 C  
ENDROOT
BRANCH   2   3
HETATM    3  C   UNL     1     -10.516  12.099  64.302  1.00  0.00    -0.373 C  
BRANCH   3   4
HETATM    4  C   UNL     1     -11.045  11.605  65.651  1.00  0.00    -0.308 C  
HETATM    5  C   UNL     1     -10.226  12.090  66.874  1.00  0.00    -0.230 C  
HETATM    6  C   UNL     1     -10.075  13.626  66.951  1.00  0.00    -0.260 C  
HETATM    7  C   UNL     1     -10.810  11.540  68.199  1.00  0.00    -0.259 C  
HETATM    8  C   UNL     1     -11.369  14.389  67.202  1.00  0.00    -0.356 C  
BRANCH   7   9
HETATM    9  C   UNL     1     -10.757  10.013  68.263  1.00  0.00    -0.280 C  
BRANCH   9  10
HETATM   10  C   UNL     1     -10.048   9.402  69.487  1.00  0.00    -0.205 C  
BRANCH  10  11
HETATM   11  C   UNL     1     -10.802   8.162  70.017  1.00  0.00    -0.233 C  
HETATM   12  C   UNL     1     -10.074   8.307  72.469  1.00  0.00    -0.376 C  
HETATM   13  C   UNL     1     -10.149   7.436  71.214  1.00  0.00    -0.195 C  
HETATM   14  C   UNL     1     -10.950   6.167  71.543  1.00  0.00    -0.328 C  
ENDBRANCH  10  11
BRANCH  10  15
HETATM   15  O   UNL     1      -8.742   8.968  69.083  1.00  0.00    -0.131 OA 
HETATM   16  O   UNL     1      -7.363  11.010  68.645  1.00  0.00    -0.088 OA 
HETATM   17  O   UNL     1      -7.373   9.936  70.939  1.00  0.00    -0.328 OA 
HETATM   18  S   UNL     1      -7.438   9.843  69.505  1.00  0.00    -0.129 S  
HETATM   19  O   UNL     1      -6.226   8.908  69.003  1.00  0.00    -0.043 OA 
ENDBRANCH  10  15
ENDBRANCH   9  10
ENDBRANCH   7   9
ENDBRANCH   3   4
ENDBRANCH   2   3
TORSDOF 6
ENDMDL
MODEL      166
REMARK 921   NORMALIZED FREE ENERGY PREDICTED BY IDOCK:   -3.79 KCAL/MOL
REMARK 922        TOTAL FREE ENERGY PREDICTED BY IDOCK:   -5.88 KCAL/MOL
REMARK 923 INTER-LIGAND FREE ENERGY PREDICTED BY IDOCK:   -5.14 KCAL/MOL
REMARK 924 INTRA-LIGAND FREE ENERGY PREDICTED BY IDOCK:   -0.74 KCAL/MOL
REMARK 927      BINDING AFFINITY PREDICTED BY RF-SCORE:    0.00 PKD
ROOT
HETATM    1  C   UNL     1     -13.920  14.138  71.770  1.00  0.00    -0.505 C  
HETATM    2  C   UNL     1     -12.526  14.678  71.488  1.00  0.00    -0.411 C  
ENDROOT
BRANCH   2   3
HETATM    3  C   UNL     1     -12.302  14.852  69.985  1.00  0.00    -0.358 C  
BRANCH   3   4
HETATM    4  C   UNL     1     -11.548  13.661  69.388  1.00  0.00    -0.368 C  
HETATM    5  C   UNL     1     -12.041  13.234  67.981  1.00  0.00    -0.260 C  
HETATM    6  C   UNL     1     -12.027  14.379  66.945  1.00  0.00    -0.425 C  
HETATM    7  C   UNL     1     -11.245  12.017  67.450  1.00  0.00    -0.368 C  
HETATM    8  C   UNL     1     -10.643  14.897  66.574  1.00  0.00    -0.306 C  
BRANCH   7   9
HETATM    9  C   UNL     1     -11.425  10.779  68.329  1.00  0.00    -0.353 C  
BRANCH   9  10
HETATM   10  C   UNL     1     -10.165   9.932  68.588  1.00  0.00    -0.178 C  
BRANCH  10  11
HETATM   11  C   UNL     1     -10.526   8.537  69.146  1.00  0.00    -0.217 C  
HETATM   12  C   UNL     1     -10.325   9.074  71.643  1.00  0.00    -0.420 C  
HETATM   13  C   UNL     1      -9.879   8.163  70.498  1.00  0.00    -0.194 C  
HETATM   14  C   UNL     1     -10.239   6.712  70.855  1.00  0.00    -0.219 C  
ENDBRANCH  10  11
BRANCH  10  15
HETATM   15  O   UNL     1      -9.490   9.730  67.338  1.00  0.00    -0.148 OA 
HETATM   16  O   UNL     1      -7.685  11.456  67.161  1.00  0.00    -0.136 OA 
HETATM   17  O   UNL     1      -7.195   9.184  68.170  1.00  0.00    -0.077 OA 
HETATM   18  S   UNL     1      -7.894  10.021  67.230  1.00  0.00    -0.102 S  
HETATM   19  O   UNL     1      -7.555   9.503  65.743  1.00  0.00    -0.097 OA 
ENDBRANCH  10  15
ENDBRANCH   9  10
ENDBRANCH   7   9
ENDBRANCH   3   4
ENDBRANCH   2   3
TORSDOF 6
ENDMDL
MODEL      167
REMARK 921   NORMALIZED FREE ENERGY PREDICTED BY IDOCK:   -3.77 KCAL/MOL
REMARK 922        TOTAL FREE ENERGY PREDICTED BY IDOCK:   -5.86 KCAL/MOL
REMARK 923 INTER-LIGAND FREE ENERGY PREDICTED BY IDOCK:   -5.16 KCAL/MOL
REMARK 924 INTRA-LIGAND FREE ENERGY PREDICTED BY IDOCK:   -0.70 KCAL/MOL
REMARK 927      BINDING AFFINITY PREDICTED BY RF-SCORE:    0.00 PKD
ROOT
HETATM    1  C   UNL     1      -8.287  16.536  68.140  1.00  0.00    -0.186 C  
HETATM    2  C   UNL     1      -8.769  15.160  68.572  1.00  0.00    -0.172 C  
ENDROOT
BRANCH   2   3
HETATM    3  C   UNL     1      -8.919  14.230  67.365  1.00  0.00    -0.205 C  
BRANCH   3   4
HETATM    4  C   UNL     1      -9.726  12.978  67.718  1.00  0.00    -0.218 C  
HETATM    5  C   UNL     1     -11.187  13.262  68.151  1.00  0.00    -0.302 C  
HETATM    6  C   UNL     1     -11.994  14.078  67.116  1.00  0.00    -0.465 C  
HETATM    7  C   UNL     1     -11.935  11.954  68.507  1.00  0.00    -0.273 C  
HETATM    8  C   UNL     1     -12.262  13.362  65.799  1.00  0.00    -0.507 C  
BRANCH   7   9
HETATM    9  C   UNL     1     -11.300  11.230  69.695  1.00  0.00    -0.359 C  
BRANCH   9  10
HETATM   10  C   UNL     1     -11.442   9.696  69.718  1.00  0.00    -0.052 C  
BRANCH  10  11
HETATM   11  C   UNL     1     -10.491   9.025  68.701  1.00  0.00    -0.229 C  
HETATM   12  C   UNL     1      -8.270   9.574  69.854  1.00  0.00    -0.169 C  
HETATM   13  C   UNL     1      -9.090   9.662  68.566  1.00  0.00    -0.131 C  
HETATM   14  C   UNL     1      -8.314   8.961  67.440  1.00  0.00    -0.108 C  
ENDBRANCH  10  11
BRANCH  10  15
HETATM   15  O   UNL     1     -11.072   9.226  71.022  1.00  0.00    -0.271 OA 
HETATM   16  O   UNL     1     -13.157   9.085  72.399  1.00  0.00    -0.412 OA 
HETATM   17  O   UNL     1     -12.349   7.076  71.084  1.00  0.00    -0.359 OA 
HETATM   18  S   UNL     1     -12.091   8.267  71.850  1.00  0.00    -0.356 S  
HETATM   19  O   UNL     1     -11.207   7.862  73.133  1.00  0.00    -0.382 OA 
ENDBRANCH  10  15
ENDBRANCH   9  10
ENDBRANCH   7   9
ENDBRANCH   3   4
ENDBRANCH   2   3
TORSDOF 6
ENDMDL
MODEL      168
REMARK 921   NORMALIZED FREE ENERGY PREDICTED BY IDOCK:   -3.77 KCAL/MOL
REMARK 922        TOTAL FREE ENERGY PREDICTED BY IDOCK:   -5.85 KCAL/MOL
REMARK 923 INTER-LIGAND FREE ENERGY PREDICTED BY IDOCK:   -5.31 KCAL/MOL
REMARK 924 INTRA-LIGAND FREE ENERGY PREDICTED BY IDOCK:   -0.54 KCAL/MOL
REMARK 927      BINDING AFFINITY PREDICTED BY RF-SCORE:    0.00 PKD
ROOT
HETATM    1  C   UNL     1     -14.049   7.438  71.565  1.00  0.00    -0.541 C  
HETATM    2  C   UNL     1     -12.592   7.756  71.862  1.00  0.00    -0.339 C  
ENDROOT
BRANCH   2   3
HETATM    3  C   UNL     1     -11.666   7.063  70.861  1.00  0.00    -0.387 C  
BRANCH   3   4
HETATM    4  C   UNL     1     -11.113   8.051  69.831  1.00  0.00    -0.108 C  
HETATM    5  C   UNL     1     -10.353   9.255  70.446  1.00  0.00    -0.291 C  
HETATM    6  C   UNL     1      -9.198   8.845  71.387  1.00  0.00    -0.328 C  
HETATM    7  C   UNL     1      -9.837  10.217  69.348  1.00  0.00    -0.247 C  
HETATM    8  C   UNL     1      -8.032   8.138  70.706  1.00  0.00    -0.097 C  
BRANCH   7   9
HETATM    9  C   UNL     1     -10.978  10.836  68.539  1.00  0.00    -0.291 C  
BRANCH   9  10
HETATM   10  C   UNL     1     -10.610  12.030  67.638  1.00  0.00    -0.210 C  
BRANCH  10  11
HETATM   11  C   UNL     1     -11.842  12.560  66.871  1.00  0.00    -0.404 C  
HETATM   12  C   UNL     1     -10.732  12.920  64.590  1.00  0.00    -0.373 C  
HETATM   13  C   UNL     1     -11.547  13.549  65.721  1.00  0.00    -0.351 C  
HETATM   14  C   UNL     1     -12.871  14.071  65.141  1.00  0.00    -0.368 C  
ENDBRANCH  10  11
BRANCH  10  15
HETATM   15  O   UNL     1     -10.134  13.097  68.470  1.00  0.00    -0.238 OA 
HETATM   16  O   UNL     1      -7.650  12.858  68.667  1.00  0.00    -0.126 OA 
HETATM   17  O   UNL     1      -8.662  14.292  66.840  1.00  0.00    -0.218 OA 
HETATM   18  S   UNL     1      -8.678  13.758  68.176  1.00  0.00    -0.188 S  
HETATM   19  O   UNL     1      -8.649  14.990  69.214  1.00  0.00    -0.206 OA 
ENDBRANCH  10  15
ENDBRANCH   9  10
ENDBRANCH   7   9
ENDBRANCH   3   4
ENDBRANCH   2   3
TORSDOF 6
ENDMDL
MODEL      169
REMARK 921   NORMALIZED FREE ENERGY PREDICTED BY IDOCK:   -3.76 KCAL/MOL
REMARK 922        TOTAL FREE ENERGY PREDICTED BY IDOCK:   -5.85 KCAL/MOL
REMARK 923 INTER-LIGAND FREE ENERGY PREDICTED BY IDOCK:   -5.83 KCAL/MOL
REMARK 924 INTRA-LIGAND FREE ENERGY PREDICTED BY IDOCK:   -0.02 KCAL/MOL
REMARK 927      BINDING AFFINITY PREDICTED BY RF-SCORE:    0.00 PKD
ROOT
HETATM    1  C   UNL     1     -12.533  12.102  63.644  1.00  0.00    -0.658 C  
HETATM    2  C   UNL     1     -11.041  12.042  63.355  1.00  0.00    -0.476 C  
ENDROOT
BRANCH   2   3
HETATM    3  C   UNL     1     -10.364  10.961  64.200  1.00  0.00    -0.432 C  
BRANCH   3   4
HETATM    4  C   UNL     1      -9.477  11.573  65.288  1.00  0.00    -0.206 C  
HETATM    5  C   UNL     1     -10.193  11.790  66.646  1.00  0.00    -0.240 C  
HETATM    6  C   UNL     1     -10.842  10.510  67.218  1.00  0.00    -0.338 C  
HETATM    7  C   UNL     1      -9.242  12.425  67.690  1.00  0.00    -0.185 C  
HETATM    8  C   UNL     1      -9.861   9.419  67.628  1.00  0.00    -0.217 C  
BRANCH   7   9
HETATM    9  C   UNL     1      -8.760  13.813  67.265  1.00  0.00    -0.226 C  
BRANCH   9  10
HETATM   10  C   UNL     1      -9.183  14.990  68.165  1.00  0.00    -0.183 C  
BRANCH  10  11
HETATM   11  C   UNL     1     -10.068  15.998  67.397  1.00  0.00    -0.258 C  
HETATM   12  C   UNL     1      -8.203  17.454  66.415  1.00  0.00    -0.306 C  
HETATM   13  C   UNL     1      -9.489  17.422  67.242  1.00  0.00    -0.251 C  
HETATM   14  C   UNL     1     -10.531  18.328  66.567  1.00  0.00    -0.378 C  
ENDBRANCH  10  11
BRANCH  10  15
HETATM   15  O   UNL     1      -9.967  14.473  69.249  1.00  0.00    -0.159 OA 
HETATM   16  O   UNL     1     -11.837  16.083  69.671  1.00  0.00    -0.312 OA 
HETATM   17  O   UNL     1     -12.152  14.137  68.079  1.00  0.00    -0.351 OA 
HETATM   18  S   UNL     1     -11.575  14.714  69.264  1.00  0.00    -0.321 S  
HETATM   19  O   UNL     1     -12.037  13.834  70.531  1.00  0.00    -0.330 OA 
ENDBRANCH  10  15
ENDBRANCH   9  10
ENDBRANCH   7   9
ENDBRANCH   3   4
ENDBRANCH   2   3
TORSDOF 6
ENDMDL
MODEL      170
REMARK 921   NORMALIZED FREE ENERGY PREDICTED BY IDOCK:   -3.76 KCAL/MOL
REMARK 922        TOTAL FREE ENERGY PREDICTED BY IDOCK:   -5.84 KCAL/MOL
REMARK 923 INTER-LIGAND FREE ENERGY PREDICTED BY IDOCK:   -5.67 KCAL/MOL
REMARK 924 INTRA-LIGAND FREE ENERGY PREDICTED BY IDOCK:   -0.17 KCAL/MOL
REMARK 927      BINDING AFFINITY PREDICTED BY RF-SCORE:    0.00 PKD
ROOT
HETATM    1  C   UNL     1      -8.501   6.762  65.731  1.00  0.00    -0.150 C  
HETATM    2  C   UNL     1      -9.480   5.876  66.485  1.00  0.00    -0.171 C  
ENDROOT
BRANCH   2   3
HETATM    3  C   UNL     1     -10.743   6.654  66.861  1.00  0.00    -0.401 C  
BRANCH   3   4
HETATM    4  C   UNL     1     -10.434   8.129  67.129  1.00  0.00    -0.396 C  
HETATM    5  C   UNL     1     -10.629   8.564  68.604  1.00  0.00    -0.154 C  
HETATM    6  C   UNL     1      -9.826   7.714  69.614  1.00  0.00    -0.181 C  
HETATM    7  C   UNL     1     -10.315  10.068  68.796  1.00  0.00    -0.216 C  
HETATM    8  C   UNL     1      -8.312   7.855  69.513  1.00  0.00    -0.131 C  
BRANCH   7   9
HETATM    9  C   UNL     1     -11.255  10.963  67.988  1.00  0.00    -0.378 C  
BRANCH   9  10
HETATM   10  C   UNL     1     -10.603  11.839  66.902  1.00  0.00    -0.235 C  
BRANCH  10  11
HETATM   11  C   UNL     1     -11.620  12.231  65.806  1.00  0.00    -0.443 C  
HETATM   12  C   UNL     1     -10.486  11.074  63.820  1.00  0.00    -0.408 C  
HETATM   13  C   UNL     1     -11.048  12.382  64.378  1.00  0.00    -0.381 C  
HETATM   14  C   UNL     1     -12.151  12.886  63.435  1.00  0.00    -0.610 C  
ENDBRANCH  10  11
BRANCH  10  15
HETATM   15  O   UNL     1     -10.146  13.053  67.513  1.00  0.00    -0.214 OA 
HETATM   16  O   UNL     1     -11.583  14.919  66.666  1.00  0.00    -0.342 OA 
HETATM   17  O   UNL     1     -12.198  13.690  68.794  1.00  0.00    -0.339 OA 
HETATM   18  S   UNL     1     -11.217  14.220  67.884  1.00  0.00    -0.300 S  
HETATM   19  O   UNL     1     -10.303  15.277  68.684  1.00  0.00    -0.222 OA 
ENDBRANCH  10  15
ENDBRANCH   9  10
ENDBRANCH   7   9
ENDBRANCH   3   4
ENDBRANCH   2   3
TORSDOF 6
ENDMDL
MODEL      171
REMARK 921   NORMALIZED FREE ENERGY PREDICTED BY IDOCK:   -3.76 KCAL/MOL
REMARK 922        TOTAL FREE ENERGY PREDICTED BY IDOCK:   -5.84 KCAL/MOL
REMARK 923 INTER-LIGAND FREE ENERGY PREDICTED BY IDOCK:   -5.11 KCAL/MOL
REMARK 924 INTRA-LIGAND FREE ENERGY PREDICTED BY IDOCK:   -0.73 KCAL/MOL
REMARK 927      BINDING AFFINITY PREDICTED BY RF-SCORE:    0.00 PKD
ROOT
HETATM    1  C   UNL     1      -5.849  20.356  70.046  1.00  0.00    -0.387 C  
HETATM    2  C   UNL     1      -6.402  19.997  68.675  1.00  0.00    -0.332 C  
ENDROOT
BRANCH   2   3
HETATM    3  C   UNL     1      -7.912  19.760  68.740  1.00  0.00    -0.242 C  
BRANCH   3   4
HETATM    4  C   UNL     1      -8.273  18.329  68.334  1.00  0.00    -0.326 C  
HETATM    5  C   UNL     1      -9.791  18.017  68.380  1.00  0.00    -0.369 C  
HETATM    6  C   UNL     1     -10.650  18.985  67.538  1.00  0.00    -0.546 C  
HETATM    7  C   UNL     1     -10.078  16.550  67.974  1.00  0.00    -0.255 C  
HETATM    8  C   UNL     1     -10.426  18.903  66.033  1.00  0.00    -0.507 C  
BRANCH   7   9
HETATM    9  C   UNL     1      -9.434  15.547  68.933  1.00  0.00    -0.223 C  
BRANCH   9  10
HETATM   10  C   UNL     1      -9.422  14.075  68.479  1.00  0.00    -0.191 C  
BRANCH  10  11
HETATM   11  C   UNL     1     -10.405  13.836  67.311  1.00  0.00    -0.253 C  
HETATM   12  C   UNL     1     -11.617  11.789  68.263  1.00  0.00    -0.373 C  
HETATM   13  C   UNL     1     -10.837  12.370  67.083  1.00  0.00    -0.280 C  
HETATM   14  C   UNL     1     -11.713  12.284  65.823  1.00  0.00    -0.445 C  
ENDBRANCH  10  11
BRANCH  10  15
HETATM   15  O   UNL     1      -8.107  13.760  68.001  1.00  0.00    -0.137 OA 
HETATM   16  O   UNL     1      -6.585  13.644  69.985  1.00  0.00    -0.049 OA 
HETATM   17  O   UNL     1      -7.751  11.560  69.138  1.00  0.00    -0.080 OA 
HETATM   18  S   UNL     1      -7.123  12.834  68.907  1.00  0.00    -0.025 S  
HETATM   19  O   UNL     1      -5.869  12.609  67.922  1.00  0.00    -0.084 OA 
ENDBRANCH  10  15
ENDBRANCH   9  10
ENDBRANCH   7   9
ENDBRANCH   3   4
ENDBRANCH   2   3
TORSDOF 6
ENDMDL
MODEL      172
REMARK 921   NORMALIZED FREE ENERGY PREDICTED BY IDOCK:   -3.74 KCAL/MOL
REMARK 922        TOTAL FREE ENERGY PREDICTED BY IDOCK:   -5.82 KCAL/MOL
REMARK 923 INTER-LIGAND FREE ENERGY PREDICTED BY IDOCK:   -4.80 KCAL/MOL
REMARK 924 INTRA-LIGAND FREE ENERGY PREDICTED BY IDOCK:   -1.02 KCAL/MOL
REMARK 927      BINDING AFFINITY PREDICTED BY RF-SCORE:    0.00 PKD
ROOT
HETATM    1  C   UNL     1      -6.839  14.181  69.041  1.00  0.00    -0.110 C  
HETATM    2  C   UNL     1      -7.270  13.868  67.617  1.00  0.00    -0.187 C  
ENDROOT
BRANCH   2   3
HETATM    3  C   UNL     1      -7.974  15.070  66.983  1.00  0.00    -0.197 C  
BRANCH   3   4
HETATM    4  C   UNL     1      -9.419  14.737  66.602  1.00  0.00    -0.293 C  
HETATM    5  C   UNL     1     -10.410  14.745  67.795  1.00  0.00    -0.244 C  
HETATM    6  C   UNL     1     -10.416  16.070  68.589  1.00  0.00    -0.251 C  
HETATM    7  C   UNL     1     -11.846  14.385  67.338  1.00  0.00    -0.430 C  
HETATM    8  C   UNL     1     -10.941  17.278  67.823  1.00  0.00    -0.163 C  
BRANCH   7   9
HETATM    9  C   UNL     1     -11.931  12.973  66.757  1.00  0.00    -0.434 C  
BRANCH   9  10
HETATM   10  C   UNL     1     -11.257  11.854  67.575  1.00  0.00    -0.296 C  
BRANCH  10  11
HETATM   11  C   UNL     1     -12.235  11.236  68.599  1.00  0.00    -0.035 C  
HETATM   12  C   UNL     1     -11.959  12.969  70.466  1.00  0.00    -0.294 C  
HETATM   13  C   UNL     1     -11.902  11.488  70.087  1.00  0.00    -0.440 C  
HETATM   14  C   UNL     1     -12.893  10.716  70.972  1.00  0.00    -0.496 C  
ENDBRANCH  10  11
BRANCH  10  15
HETATM   15  O   UNL     1     -10.865  10.808  66.674  1.00  0.00    -0.237 OA 
HETATM   16  O   UNL     1      -8.410  11.050  66.252  1.00  0.00    -0.160 OA 
HETATM   17  O   UNL     1      -9.250   9.570  68.129  1.00  0.00    -0.130 OA 
HETATM   18  S   UNL     1      -9.390  10.138  66.814  1.00  0.00    -0.164 S  
HETATM   19  O   UNL     1      -9.463   8.934  65.748  1.00  0.00    -0.238 OA 
ENDBRANCH  10  15
ENDBRANCH   9  10
ENDBRANCH   7   9
ENDBRANCH   3   4
ENDBRANCH   2   3
TORSDOF 6
ENDMDL
MODEL      173
REMARK 921   NORMALIZED FREE ENERGY PREDICTED BY IDOCK:   -3.74 KCAL/MOL
REMARK 922        TOTAL FREE ENERGY PREDICTED BY IDOCK:   -5.82 KCAL/MOL
REMARK 923 INTER-LIGAND FREE ENERGY PREDICTED BY IDOCK:   -4.93 KCAL/MOL
REMARK 924 INTRA-LIGAND FREE ENERGY PREDICTED BY IDOCK:   -0.89 KCAL/MOL
REMARK 927      BINDING AFFINITY PREDICTED BY RF-SCORE:    0.00 PKD
ROOT
HETATM    1  C   UNL     1     -11.812  12.899  68.707  1.00  0.00    -0.353 C  
HETATM    2  C   UNL     1     -11.197  11.696  69.405  1.00  0.00    -0.311 C  
ENDROOT
BRANCH   2   3
HETATM    3  C   UNL     1     -12.279  10.825  70.047  1.00  0.00    -0.409 C  
BRANCH   3   4
HETATM    4  C   UNL     1     -11.690   9.541  70.636  1.00  0.00    -0.330 C  
HETATM    5  C   UNL     1     -12.182   9.213  72.069  1.00  0.00    -0.443 C  
HETATM    6  C   UNL     1     -13.720   9.137  72.196  1.00  0.00    -0.531 C  
HETATM    7  C   UNL     1     -11.533   7.912  72.604  1.00  0.00    -0.454 C  
HETATM    8  C   UNL     1     -14.373   7.987  71.440  1.00  0.00    -0.490 C  
BRANCH   7   9
HETATM    9  C   UNL     1     -10.013   8.030  72.721  1.00  0.00    -0.364 C  
BRANCH   9  10
HETATM   10  C   UNL     1      -9.187   6.889  72.097  1.00  0.00    -0.135 C  
BRANCH  10  11
HETATM   11  C   UNL     1      -9.877   6.314  70.840  1.00  0.00    -0.207 C  
HETATM   12  C   UNL     1      -9.364   3.836  71.236  1.00  0.00    -0.215 C  
HETATM   13  C   UNL     1      -9.265   5.016  70.268  1.00  0.00    -0.190 C  
HETATM   14  C   UNL     1      -9.983   4.642  68.962  1.00  0.00    -0.186 C  
ENDBRANCH  10  11
BRANCH  10  15
HETATM   15  O   UNL     1      -7.921   7.420  71.685  1.00  0.00    -0.096 OA 
HETATM   16  O   UNL     1      -6.462   7.570  73.713  1.00  0.00    -0.074 OA 
HETATM   17  O   UNL     1      -6.436   5.492  72.264  1.00  0.00    -0.049 OA 
HETATM   18  S   UNL     1      -6.560   6.917  72.420  1.00  0.00    -0.058 S  
HETATM   19  O   UNL     1      -5.415   7.625  71.536  1.00  0.00    -0.034 OA 
ENDBRANCH  10  15
ENDBRANCH   9  10
ENDBRANCH   7   9
ENDBRANCH   3   4
ENDBRANCH   2   3
TORSDOF 6
ENDMDL
MODEL      174
REMARK 921   NORMALIZED FREE ENERGY PREDICTED BY IDOCK:   -3.74 KCAL/MOL
REMARK 922        TOTAL FREE ENERGY PREDICTED BY IDOCK:   -5.81 KCAL/MOL
REMARK 923 INTER-LIGAND FREE ENERGY PREDICTED BY IDOCK:   -4.81 KCAL/MOL
REMARK 924 INTRA-LIGAND FREE ENERGY PREDICTED BY IDOCK:   -1.00 KCAL/MOL
REMARK 927      BINDING AFFINITY PREDICTED BY RF-SCORE:    0.00 PKD
ROOT
HETATM    1  C   UNL     1     -11.728  12.224  63.872  1.00  0.00    -0.536 C  
HETATM    2  C   UNL     1     -11.640  12.038  65.378  1.00  0.00    -0.343 C  
ENDROOT
BRANCH   2   3
HETATM    3  C   UNL     1     -10.426  12.773  65.950  1.00  0.00    -0.295 C  
BRANCH   3   4
HETATM    4  C   UNL     1     -10.017  12.205  67.312  1.00  0.00    -0.211 C  
HETATM    5  C   UNL     1      -9.289  10.838  67.240  1.00  0.00    -0.165 C  
HETATM    6  C   UNL     1      -8.042  10.846  66.329  1.00  0.00    -0.165 C  
HETATM    7  C   UNL     1      -8.921  10.321  68.653  1.00  0.00    -0.144 C  
HETATM    8  C   UNL     1      -6.890  11.714  66.820  1.00  0.00    -0.086 C  
BRANCH   7   9
HETATM    9  C   UNL     1     -10.157  10.070  69.518  1.00  0.00    -0.248 C  
BRANCH   9  10
HETATM   10  C   UNL     1     -10.521   8.597  69.783  1.00  0.00    -0.220 C  
BRANCH  10  11
HETATM   11  C   UNL     1      -9.541   7.636  69.072  1.00  0.00    -0.151 C  
HETATM   12  C   UNL     1     -11.113   6.803  67.229  1.00  0.00    -0.394 C  
HETATM   13  C   UNL     1     -10.181   6.414  68.377  1.00  0.00    -0.198 C  
HETATM   14  C   UNL     1      -9.074   5.501  67.825  1.00  0.00    -0.107 C  
ENDBRANCH  10  11
BRANCH  10  15
HETATM   15  O   UNL     1     -10.414   8.351  71.192  1.00  0.00    -0.201 OA 
HETATM   16  O   UNL     1     -12.613   8.934  72.235  1.00  0.00    -0.377 OA 
HETATM   17  O   UNL     1     -12.150   6.570  71.451  1.00  0.00    -0.337 OA 
HETATM   18  S   UNL     1     -11.711   7.818  72.016  1.00  0.00    -0.322 S  
HETATM   19  O   UNL     1     -11.089   7.524  73.472  1.00  0.00    -0.312 OA 
ENDBRANCH  10  15
ENDBRANCH   9  10
ENDBRANCH   7   9
ENDBRANCH   3   4
ENDBRANCH   2   3
TORSDOF 6
ENDMDL
MODEL      175
REMARK 921   NORMALIZED FREE ENERGY PREDICTED BY IDOCK:   -3.74 KCAL/MOL
REMARK 922        TOTAL FREE ENERGY PREDICTED BY IDOCK:   -5.81 KCAL/MOL
REMARK 923 INTER-LIGAND FREE ENERGY PREDICTED BY IDOCK:   -5.25 KCAL/MOL
REMARK 924 INTRA-LIGAND FREE ENERGY PREDICTED BY IDOCK:   -0.56 KCAL/MOL
REMARK 927      BINDING AFFINITY PREDICTED BY RF-SCORE:    0.00 PKD
ROOT
HETATM    1  C   UNL     1     -12.689  13.279  64.817  1.00  0.00    -0.338 C  
HETATM    2  C   UNL     1     -12.426  12.228  63.749  1.00  0.00    -0.619 C  
ENDROOT
BRANCH   2   3
HETATM    3  C   UNL     1     -10.924  12.015  63.551  1.00  0.00    -0.514 C  
BRANCH   3   4
HETATM    4  C   UNL     1     -10.153  12.202  64.859  1.00  0.00    -0.280 C  
HETATM    5  C   UNL     1     -10.088  10.934  65.749  1.00  0.00    -0.308 C  
HETATM    6  C   UNL     1      -9.513   9.697  65.025  1.00  0.00    -0.312 C  
HETATM    7  C   UNL     1      -9.309  11.203  67.060  1.00  0.00    -0.182 C  
HETATM    8  C   UNL     1      -8.043   9.802  64.639  1.00  0.00    -0.148 C  
BRANCH   7   9
HETATM    9  C   UNL     1      -9.985  12.265  67.927  1.00  0.00    -0.202 C  
BRANCH   9  10
HETATM   10  C   UNL     1     -10.591  11.779  69.258  1.00  0.00    -0.008 C  
BRANCH  10  11
HETATM   11  C   UNL     1     -11.865  12.575  69.621  1.00  0.00    -0.382 C  
HETATM   12  C   UNL     1     -10.942  14.937  69.260  1.00  0.00    -0.279 C  
HETATM   13  C   UNL     1     -11.635  13.977  70.228  1.00  0.00    -0.240 C  
HETATM   14  C   UNL     1     -12.985  14.584  70.642  1.00  0.00    -0.358 C  
ENDBRANCH  10  11
BRANCH  10  15
HETATM   15  O   UNL     1     -10.974  10.406  69.106  1.00  0.00    -0.214 OA 
HETATM   16  O   UNL     1      -9.056   8.992  69.871  1.00  0.00    -0.151 OA 
HETATM   17  O   UNL     1     -10.881   9.666  71.494  1.00  0.00    -0.329 OA 
HETATM   18  S   UNL     1     -10.442   9.300  70.173  1.00  0.00    -0.248 S  
HETATM   19  O   UNL     1     -11.244   7.979  69.721  1.00  0.00    -0.134 OA 
ENDBRANCH  10  15
ENDBRANCH   9  10
ENDBRANCH   7   9
ENDBRANCH   3   4
ENDBRANCH   2   3
TORSDOF 6
ENDMDL
MODEL      176
REMARK 921   NORMALIZED FREE ENERGY PREDICTED BY IDOCK:   -3.74 KCAL/MOL
REMARK 922        TOTAL FREE ENERGY PREDICTED BY IDOCK:   -5.81 KCAL/MOL
REMARK 923 INTER-LIGAND FREE ENERGY PREDICTED BY IDOCK:   -5.88 KCAL/MOL
REMARK 924 INTRA-LIGAND FREE ENERGY PREDICTED BY IDOCK:    0.07 KCAL/MOL
REMARK 927      BINDING AFFINITY PREDICTED BY RF-SCORE:    0.00 PKD
ROOT
HETATM    1  C   UNL     1     -13.040  15.572  71.520  1.00  0.00    -0.573 C  
HETATM    2  C   UNL     1     -11.562  15.851  71.299  1.00  0.00    -0.509 C  
ENDROOT
BRANCH   2   3
HETATM    3  C   UNL     1     -11.268  16.100  69.818  1.00  0.00    -0.343 C  
BRANCH   3   4
HETATM    4  C   UNL     1     -10.841  14.814  69.106  1.00  0.00    -0.267 C  
HETATM    5  C   UNL     1     -11.197  14.772  67.598  1.00  0.00    -0.332 C  
HETATM    6  C   UNL     1     -10.645  15.970  66.795  1.00  0.00    -0.297 C  
HETATM    7  C   UNL     1     -10.751  13.438  66.950  1.00  0.00    -0.274 C  
HETATM    8  C   UNL     1      -9.127  16.030  66.689  1.00  0.00    -0.282 C  
BRANCH   7   9
HETATM    9  C   UNL     1     -11.461  12.230  67.563  1.00  0.00    -0.414 C  
BRANCH   9  10
HETATM   10  C   UNL     1     -11.085  10.850  66.991  1.00  0.00    -0.202 C  
BRANCH  10  11
HETATM   11  C   UNL     1      -9.692  10.876  66.322  1.00  0.00    -0.245 C  
HETATM   12  C   UNL     1     -10.455  11.141  63.890  1.00  0.00    -0.445 C  
HETATM   13  C   UNL     1      -9.625  10.323  64.881  1.00  0.00    -0.365 C  
HETATM   14  C   UNL     1      -8.164  10.308  64.405  1.00  0.00    -0.159 C  
ENDBRANCH  10  11
BRANCH  10  15
HETATM   15  O   UNL     1     -11.021   9.913  68.074  1.00  0.00    -0.257 OA 
HETATM   16  O   UNL     1      -9.112  10.584  69.547  1.00  0.00    -0.152 OA 
HETATM   17  O   UNL     1     -11.449  11.451  70.000  1.00  0.00    -0.288 OA 
HETATM   18  S   UNL     1     -10.554  10.418  69.548  1.00  0.00    -0.253 S  
HETATM   19  O   UNL     1     -10.798   9.106  70.449  1.00  0.00    -0.220 OA 
ENDBRANCH  10  15
ENDBRANCH   9  10
ENDBRANCH   7   9
ENDBRANCH   3   4
ENDBRANCH   2   3
TORSDOF 6
ENDMDL
MODEL      177
REMARK 921   NORMALIZED FREE ENERGY PREDICTED BY IDOCK:   -3.73 KCAL/MOL
REMARK 922        TOTAL FREE ENERGY PREDICTED BY IDOCK:   -5.80 KCAL/MOL
REMARK 923 INTER-LIGAND FREE ENERGY PREDICTED BY IDOCK:   -4.78 KCAL/MOL
REMARK 924 INTRA-LIGAND FREE ENERGY PREDICTED BY IDOCK:   -1.03 KCAL/MOL
REMARK 927      BINDING AFFINITY PREDICTED BY RF-SCORE:    0.00 PKD
ROOT
HETATM    1  C   UNL     1      -5.146  14.285  70.795  1.00  0.00    -0.112 C  
HETATM    2  C   UNL     1      -6.457  14.959  70.422  1.00  0.00    -0.075 C  
ENDROOT
BRANCH   2   3
HETATM    3  C   UNL     1      -6.548  15.178  68.911  1.00  0.00    -0.104 C  
BRANCH   3   4
HETATM    4  C   UNL     1      -7.921  14.773  68.367  1.00  0.00    -0.138 C  
HETATM    5  C   UNL     1      -8.991  15.893  68.438  1.00  0.00    -0.189 C  
HETATM    6  C   UNL     1      -8.565  17.204  67.741  1.00  0.00    -0.216 C  
HETATM    7  C   UNL     1     -10.354  15.407  67.887  1.00  0.00    -0.247 C  
HETATM    8  C   UNL     1      -8.410  17.108  66.229  1.00  0.00    -0.298 C  
BRANCH   7   9
HETATM    9  C   UNL     1     -10.930  14.251  68.706  1.00  0.00    -0.271 C  
BRANCH   9  10
HETATM   10  C   UNL     1     -11.044  12.893  67.987  1.00  0.00    -0.253 C  
BRANCH  10  11
HETATM   11  C   UNL     1     -10.587  12.992  66.515  1.00  0.00    -0.292 C  
HETATM   12  C   UNL     1     -12.772  13.870  65.507  1.00  0.00    -0.536 C  
HETATM   13  C   UNL     1     -11.689  12.792  65.451  1.00  0.00    -0.425 C  
HETATM   14  C   UNL     1     -11.057  12.802  64.050  1.00  0.00    -0.458 C  
ENDBRANCH  10  11
BRANCH  10  15
HETATM   15  O   UNL     1     -10.175  11.959  68.643  1.00  0.00    -0.216 OA 
HETATM   16  O   UNL     1     -11.586  10.515  70.122  1.00  0.00    -0.275 OA 
HETATM   17  O   UNL     1     -11.088   9.813  67.739  1.00  0.00    -0.245 OA 
HETATM   18  S   UNL     1     -10.707  10.457  68.968  1.00  0.00    -0.244 S  
HETATM   19  O   UNL     1      -9.376   9.740  69.525  1.00  0.00    -0.185 OA 
ENDBRANCH  10  15
ENDBRANCH   9  10
ENDBRANCH   7   9
ENDBRANCH   3   4
ENDBRANCH   2   3
TORSDOF 6
ENDMDL
MODEL      178
REMARK 921   NORMALIZED FREE ENERGY PREDICTED BY IDOCK:   -3.72 KCAL/MOL
REMARK 922        TOTAL FREE ENERGY PREDICTED BY IDOCK:   -5.78 KCAL/MOL
REMARK 923 INTER-LIGAND FREE ENERGY PREDICTED BY IDOCK:   -4.91 KCAL/MOL
REMARK 924 INTRA-LIGAND FREE ENERGY PREDICTED BY IDOCK:   -0.87 KCAL/MOL
REMARK 927      BINDING AFFINITY PREDICTED BY RF-SCORE:    0.00 PKD
ROOT
HETATM    1  C   UNL     1     -12.571  13.614  65.379  1.00  0.00    -0.533 C  
HETATM    2  C   UNL     1     -11.702  12.368  65.449  1.00  0.00    -0.452 C  
ENDROOT
BRANCH   2   3
HETATM    3  C   UNL     1     -10.411  12.644  66.221  1.00  0.00    -0.269 C  
BRANCH   3   4
HETATM    4  C   UNL     1     -10.071  11.497  67.176  1.00  0.00    -0.223 C  
HETATM    5  C   UNL     1      -9.605  10.197  66.471  1.00  0.00    -0.236 C  
HETATM    6  C   UNL     1      -8.404  10.403  65.521  1.00  0.00    -0.168 C  
HETATM    7  C   UNL     1      -9.295   9.079  67.496  1.00  0.00    -0.159 C  
HETATM    8  C   UNL     1      -7.101  10.794  66.206  1.00  0.00    -0.134 C  
BRANCH   7   9
HETATM    9  C   UNL     1     -10.531   8.675  68.302  1.00  0.00    -0.234 C  
BRANCH   9  10
HETATM   10  C   UNL     1     -10.322   8.453  69.812  1.00  0.00    -0.216 C  
BRANCH  10  11
HETATM   11  C   UNL     1     -11.659   8.526  70.584  1.00  0.00    -0.214 C  
HETATM   12  C   UNL     1     -12.111  11.033  70.303  1.00  0.00    -0.448 C  
HETATM   13  C   UNL     1     -11.961   9.870  71.285  1.00  0.00    -0.489 C  
HETATM   14  C   UNL     1     -13.257   9.743  72.100  1.00  0.00    -0.530 C  
ENDBRANCH  10  11
BRANCH  10  15
HETATM   15  O   UNL     1      -9.788   7.137  70.007  1.00  0.00    -0.177 OA 
HETATM   16  O   UNL     1      -7.295   7.296  69.848  1.00  0.00    -0.079 OA 
HETATM   17  O   UNL     1      -8.455   7.518  72.089  1.00  0.00    -0.106 OA 
HETATM   18  S   UNL     1      -8.363   6.952  70.769  1.00  0.00    -0.128 S  
HETATM   19  O   UNL     1      -8.259   5.352  70.910  1.00  0.00    -0.112 OA 
ENDBRANCH  10  15
ENDBRANCH   9  10
ENDBRANCH   7   9
ENDBRANCH   3   4
ENDBRANCH   2   3
TORSDOF 6
ENDMDL
MODEL      179
REMARK 921   NORMALIZED FREE ENERGY PREDICTED BY IDOCK:   -3.71 KCAL/MOL
REMARK 922        TOTAL FREE ENERGY PREDICTED BY IDOCK:   -5.77 KCAL/MOL
REMARK 923 INTER-LIGAND FREE ENERGY PREDICTED BY IDOCK:   -4.65 KCAL/MOL
REMARK 924 INTRA-LIGAND FREE ENERGY PREDICTED BY IDOCK:   -1.12 KCAL/MOL
REMARK 927      BINDING AFFINITY PREDICTED BY RF-SCORE:    0.00 PKD
ROOT
HETATM    1  C   UNL     1     -12.694   7.239  71.489  1.00  0.00    -0.422 C  
HETATM    2  C   UNL     1     -11.226   7.053  71.139  1.00  0.00    -0.304 C  
ENDROOT
BRANCH   2   3
HETATM    3  C   UNL     1     -11.047   5.925  70.120  1.00  0.00    -0.395 C  
BRANCH   3   4
HETATM    4  C   UNL     1     -10.705   6.472  68.732  1.00  0.00    -0.320 C  
HETATM    5  C   UNL     1      -9.445   7.375  68.694  1.00  0.00    -0.139 C  
HETATM    6  C   UNL     1      -8.181   6.701  69.269  1.00  0.00    -0.124 C  
HETATM    7  C   UNL     1      -9.172   7.903  67.264  1.00  0.00    -0.167 C  
HETATM    8  C   UNL     1      -7.659   5.517  68.465  1.00  0.00    -0.084 C  
BRANCH   7   9
HETATM    9  C   UNL     1     -10.310   8.783  66.745  1.00  0.00    -0.328 C  
BRANCH   9  10
HETATM   10  C   UNL     1     -10.426  10.189  67.364  1.00  0.00    -0.256 C  
BRANCH  10  11
HETATM   11  C   UNL     1     -11.376  10.194  68.582  1.00  0.00    -0.172 C  
HETATM   12  C   UNL     1     -11.724  12.725  68.771  1.00  0.00    -0.363 C  
HETATM   13  C   UNL     1     -11.304  11.442  69.490  1.00  0.00    -0.357 C  
HETATM   14  C   UNL     1     -12.215  11.242  70.711  1.00  0.00    -0.479 C  
ENDBRANCH  10  11
BRANCH  10  15
HETATM   15  O   UNL     1      -9.130  10.587  67.832  1.00  0.00    -0.134 OA 
HETATM   16  O   UNL     1      -7.639  10.820  65.835  1.00  0.00    -0.149 OA 
HETATM   17  O   UNL     1      -8.932  12.815  66.712  1.00  0.00    -0.218 OA 
HETATM   18  S   UNL     1      -8.219  11.583  66.925  1.00  0.00    -0.168 S  
HETATM   19  O   UNL     1      -6.972  11.883  67.900  1.00  0.00    -0.074 OA 
ENDBRANCH  10  15
ENDBRANCH   9  10
ENDBRANCH   7   9
ENDBRANCH   3   4
ENDBRANCH   2   3
TORSDOF 6
ENDMDL
MODEL      180
REMARK 921   NORMALIZED FREE ENERGY PREDICTED BY IDOCK:   -3.71 KCAL/MOL
REMARK 922        TOTAL FREE ENERGY PREDICTED BY IDOCK:   -5.77 KCAL/MOL
REMARK 923 INTER-LIGAND FREE ENERGY PREDICTED BY IDOCK:   -4.76 KCAL/MOL
REMARK 924 INTRA-LIGAND FREE ENERGY PREDICTED BY IDOCK:   -1.01 KCAL/MOL
REMARK 927      BINDING AFFINITY PREDICTED BY RF-SCORE:    0.00 PKD
ROOT
HETATM    1  C   UNL     1     -12.446  14.180  65.428  1.00  0.00    -0.488 C  
HETATM    2  C   UNL     1     -12.406  12.680  65.184  1.00  0.00    -0.547 C  
ENDROOT
BRANCH   2   3
HETATM    3  C   UNL     1     -10.971  12.152  65.258  1.00  0.00    -0.349 C  
BRANCH   3   4
HETATM    4  C   UNL     1     -10.894  10.846  66.053  1.00  0.00    -0.155 C  
HETATM    5  C   UNL     1     -10.006  10.923  67.321  1.00  0.00    -0.216 C  
HETATM    6  C   UNL     1     -10.409  12.053  68.294  1.00  0.00    -0.211 C  
HETATM    7  C   UNL     1      -9.963   9.563  68.063  1.00  0.00    -0.198 C  
HETATM    8  C   UNL     1     -11.770  11.879  68.956  1.00  0.00    -0.391 C  
BRANCH   7   9
HETATM    9  C   UNL     1      -9.343   8.458  67.207  1.00  0.00    -0.181 C  
BRANCH   9  10
HETATM   10  C   UNL     1      -9.582   7.011  67.680  1.00  0.00    -0.131 C  
BRANCH  10  11
HETATM   11  C   UNL     1     -10.534   6.963  68.896  1.00  0.00    -0.225 C  
HETATM   12  C   UNL     1      -8.764   6.856  70.746  1.00  0.00    -0.145 C  
HETATM   13  C   UNL     1     -10.007   6.206  70.136  1.00  0.00    -0.218 C  
HETATM   14  C   UNL     1     -11.108   6.147  71.206  1.00  0.00    -0.351 C  
ENDBRANCH  10  11
BRANCH  10  15
HETATM   15  O   UNL     1     -10.213   6.285  66.616  1.00  0.00    -0.188 OA 
HETATM   16  O   UNL     1      -8.426   5.043  65.378  1.00  0.00    -0.126 OA 
HETATM   17  O   UNL     1      -9.657   3.945  67.301  1.00  0.00    -0.193 OA 
HETATM   18  S   UNL     1      -9.624   4.836  66.172  1.00  0.00    -0.199 S  
HETATM   19  O   UNL     1     -10.720   4.338  65.102  1.00  0.00    -0.251 OA 
ENDBRANCH  10  15
ENDBRANCH   9  10
ENDBRANCH   7   9
ENDBRANCH   3   4
ENDBRANCH   2   3
TORSDOF 6
ENDMDL
MODEL      181
REMARK 921   NORMALIZED FREE ENERGY PREDICTED BY IDOCK:   -3.69 KCAL/MOL
REMARK 922        TOTAL FREE ENERGY PREDICTED BY IDOCK:   -5.75 KCAL/MOL
REMARK 923 INTER-LIGAND FREE ENERGY PREDICTED BY IDOCK:   -4.78 KCAL/MOL
REMARK 924 INTRA-LIGAND FREE ENERGY PREDICTED BY IDOCK:   -0.97 KCAL/MOL
REMARK 927      BINDING AFFINITY PREDICTED BY RF-SCORE:    0.00 PKD
ROOT
HETATM    1  C   UNL     1     -11.960  12.733  63.773  1.00  0.00    -0.585 C  
HETATM    2  C   UNL     1     -11.096  11.496  63.582  1.00  0.00    -0.469 C  
ENDROOT
BRANCH   2   3
HETATM    3  C   UNL     1     -10.061  11.374  64.702  1.00  0.00    -0.330 C  
BRANCH   3   4
HETATM    4  C   UNL     1     -10.724  11.367  66.081  1.00  0.00    -0.320 C  
HETATM    5  C   UNL     1      -9.813  11.872  67.230  1.00  0.00    -0.197 C  
HETATM    6  C   UNL     1      -9.229  13.281  66.985  1.00  0.00    -0.237 C  
HETATM    7  C   UNL     1     -10.545  11.821  68.594  1.00  0.00    -0.250 C  
HETATM    8  C   UNL     1     -10.253  14.409  66.968  1.00  0.00    -0.263 C  
BRANCH   7   9
HETATM    9  C   UNL     1     -10.933  10.396  68.989  1.00  0.00    -0.282 C  
BRANCH   9  10
HETATM   10  C   UNL     1      -9.829   9.540  69.640  1.00  0.00    -0.205 C  
BRANCH  10  11
HETATM   11  C   UNL     1      -8.473  10.281  69.653  1.00  0.00    -0.132 C  
HETATM   12  C   UNL     1      -7.541   9.384  67.441  1.00  0.00    -0.095 C  
HETATM   13  C   UNL     1      -7.305   9.562  68.942  1.00  0.00    -0.073 C  
HETATM   14  C   UNL     1      -6.010  10.365  69.144  1.00  0.00    -0.037 C  
ENDBRANCH  10  11
BRANCH  10  15
HETATM   15  O   UNL     1     -10.193   9.294  71.005  1.00  0.00    -0.271 OA 
HETATM   16  O   UNL     1     -11.802   7.377  71.029  1.00  0.00    -0.295 OA 
HETATM   17  O   UNL     1      -9.314   6.967  71.272  1.00  0.00    -0.164 OA 
HETATM   18  S   UNL     1     -10.486   7.771  71.497  1.00  0.00    -0.207 S  
HETATM   19  O   UNL     1     -10.675   7.958  73.085  1.00  0.00    -0.368 OA 
ENDBRANCH  10  15
ENDBRANCH   9  10
ENDBRANCH   7   9
ENDBRANCH   3   4
ENDBRANCH   2   3
TORSDOF 6
ENDMDL
MODEL      182
REMARK 921   NORMALIZED FREE ENERGY PREDICTED BY IDOCK:   -3.69 KCAL/MOL
REMARK 922        TOTAL FREE ENERGY PREDICTED BY IDOCK:   -5.74 KCAL/MOL
REMARK 923 INTER-LIGAND FREE ENERGY PREDICTED BY IDOCK:   -6.13 KCAL/MOL
REMARK 924 INTRA-LIGAND FREE ENERGY PREDICTED BY IDOCK:    0.39 KCAL/MOL
REMARK 927      BINDING AFFINITY PREDICTED BY RF-SCORE:    0.00 PKD
ROOT
HETATM    1  C   UNL     1      -6.323  19.926  70.277  1.00  0.00    -0.328 C  
HETATM    2  C   UNL     1      -6.484  20.458  68.862  1.00  0.00    -0.293 C  
ENDROOT
BRANCH   2   3
HETATM    3  C   UNL     1      -6.759  19.319  67.878  1.00  0.00    -0.254 C  
BRANCH   3   4
HETATM    4  C   UNL     1      -7.752  18.307  68.454  1.00  0.00    -0.312 C  
HETATM    5  C   UNL     1      -7.465  16.836  68.058  1.00  0.00    -0.172 C  
HETATM    6  C   UNL     1      -6.038  16.364  68.414  1.00  0.00    -0.119 C  
HETATM    7  C   UNL     1      -8.517  15.874  68.662  1.00  0.00    -0.200 C  
HETATM    8  C   UNL     1      -5.740  16.281  69.906  1.00  0.00    -0.181 C  
BRANCH   7   9
HETATM    9  C   UNL     1      -9.927  16.159  68.144  1.00  0.00    -0.230 C  
BRANCH   9  10
HETATM   10  C   UNL     1     -10.722  14.949  67.616  1.00  0.00    -0.270 C  
BRANCH  10  11
HETATM   11  C   UNL     1     -11.844  14.539  68.596  1.00  0.00    -0.355 C  
HETATM   12  C   UNL     1     -11.323  16.205  70.472  1.00  0.00    -0.392 C  
HETATM   13  C   UNL     1     -11.535  14.738  70.097  1.00  0.00    -0.313 C  
HETATM   14  C   UNL     1     -12.693  14.177  70.937  1.00  0.00    -0.432 C  
ENDBRANCH  10  11
BRANCH  10  15
HETATM   15  O   UNL     1     -11.348  15.321  66.381  1.00  0.00    -0.284 OA 
HETATM   16  O   UNL     1     -10.313  13.951  64.560  1.00  0.00    -0.436 OA 
HETATM   17  O   UNL     1     -12.395  13.138  65.753  1.00  0.00    -0.443 OA 
HETATM   18  S   UNL     1     -11.578  14.200  65.226  1.00  0.00    -0.357 S  
HETATM   19  O   UNL     1     -12.443  15.010  64.135  1.00  0.00    -0.756 OA 
ENDBRANCH  10  15
ENDBRANCH   9  10
ENDBRANCH   7   9
ENDBRANCH   3   4
ENDBRANCH   2   3
TORSDOF 6
ENDMDL
MODEL      183
REMARK 921   NORMALIZED FREE ENERGY PREDICTED BY IDOCK:   -3.69 KCAL/MOL
REMARK 922        TOTAL FREE ENERGY PREDICTED BY IDOCK:   -5.74 KCAL/MOL
REMARK 923 INTER-LIGAND FREE ENERGY PREDICTED BY IDOCK:   -4.73 KCAL/MOL
REMARK 924 INTRA-LIGAND FREE ENERGY PREDICTED BY IDOCK:   -1.01 KCAL/MOL
REMARK 927      BINDING AFFINITY PREDICTED BY RF-SCORE:    0.00 PKD
ROOT
HETATM    1  C   UNL     1     -12.152  10.575  70.547  1.00  0.00    -0.437 C  
HETATM    2  C   UNL     1     -12.075  11.625  69.449  1.00  0.00    -0.328 C  
ENDROOT
BRANCH   2   3
HETATM    3  C   UNL     1     -11.432  11.049  68.186  1.00  0.00    -0.374 C  
BRANCH   3   4
HETATM    4  C   UNL     1     -10.202  10.202  68.519  1.00  0.00    -0.194 C  
HETATM    5  C   UNL     1      -9.979   8.999  67.567  1.00  0.00    -0.262 C  
HETATM    6  C   UNL     1      -9.900   9.394  66.076  1.00  0.00    -0.366 C  
HETATM    7  C   UNL     1      -8.728   8.181  67.974  1.00  0.00    -0.128 C  
HETATM    8  C   UNL     1      -8.690  10.238  65.695  1.00  0.00    -0.176 C  
BRANCH   7   9
HETATM    9  C   UNL     1      -8.868   7.566  69.367  1.00  0.00    -0.136 C  
BRANCH   9  10
HETATM   10  C   UNL     1      -9.813   6.356  69.491  1.00  0.00    -0.154 C  
BRANCH  10  11
HETATM   11  C   UNL     1     -11.236   6.792  69.908  1.00  0.00    -0.379 C  
HETATM   12  C   UNL     1     -10.673   7.719  72.229  1.00  0.00    -0.325 C  
HETATM   13  C   UNL     1     -11.538   6.749  71.423  1.00  0.00    -0.350 C  
HETATM   14  C   UNL     1     -13.016   7.093  71.662  1.00  0.00    -0.415 C  
ENDBRANCH  10  11
BRANCH  10  15
HETATM   15  O   UNL     1      -9.919   5.730  68.205  1.00  0.00    -0.131 OA 
HETATM   16  O   UNL     1      -7.712   4.664  67.696  1.00  0.00    -0.084 OA 
HETATM   17  O   UNL     1      -9.538   3.345  68.856  1.00  0.00    -0.163 OA 
HETATM   18  S   UNL     1      -9.112   4.348  67.916  1.00  0.00    -0.135 S  
HETATM   19  O   UNL     1      -9.655   3.938  66.456  1.00  0.00    -0.195 OA 
ENDBRANCH  10  15
ENDBRANCH   9  10
ENDBRANCH   7   9
ENDBRANCH   3   4
ENDBRANCH   2   3
TORSDOF 6
ENDMDL
MODEL      184
REMARK 921   NORMALIZED FREE ENERGY PREDICTED BY IDOCK:   -3.68 KCAL/MOL
REMARK 922        TOTAL FREE ENERGY PREDICTED BY IDOCK:   -5.73 KCAL/MOL
REMARK 923 INTER-LIGAND FREE ENERGY PREDICTED BY IDOCK:   -4.91 KCAL/MOL
REMARK 924 INTRA-LIGAND FREE ENERGY PREDICTED BY IDOCK:   -0.82 KCAL/MOL
REMARK 927      BINDING AFFINITY PREDICTED BY RF-SCORE:    0.00 PKD
ROOT
HETATM    1  C   UNL     1     -10.655  12.306  68.617  1.00  0.00    -0.249 C  
HETATM    2  C   UNL     1     -11.630  13.111  67.771  1.00  0.00    -0.379 C  
ENDROOT
BRANCH   2   3
HETATM    3  C   UNL     1     -10.884  13.961  66.740  1.00  0.00    -0.286 C  
BRANCH   3   4
HETATM    4  C   UNL     1     -10.161  13.089  65.711  1.00  0.00    -0.297 C  
HETATM    5  C   UNL     1     -10.987  11.877  65.209  1.00  0.00    -0.354 C  
HETATM    6  C   UNL     1     -12.366  12.263  64.628  1.00  0.00    -0.449 C  
HETATM    7  C   UNL     1     -10.188  11.034  64.185  1.00  0.00    -0.419 C  
HETATM    8  C   UNL     1     -12.317  13.078  63.341  1.00  0.00    -0.478 C  
BRANCH   7   9
HETATM    9  C   UNL     1      -8.923  10.430  64.795  1.00  0.00    -0.228 C  
BRANCH   9  10
HETATM   10  C   UNL     1      -9.048   9.881  66.230  1.00  0.00    -0.155 C  
BRANCH  10  11
HETATM   11  C   UNL     1      -9.975   8.646  66.283  1.00  0.00    -0.287 C  
HETATM   12  C   UNL     1     -10.426   8.631  68.805  1.00  0.00    -0.209 C  
HETATM   13  C   UNL     1      -9.939   7.832  67.596  1.00  0.00    -0.230 C  
HETATM   14  C   UNL     1     -10.818   6.580  67.447  1.00  0.00    -0.449 C  
ENDBRANCH  10  11
BRANCH  10  15
HETATM   15  O   UNL     1      -7.750   9.460  66.669  1.00  0.00    -0.096 OA 
HETATM   16  O   UNL     1      -6.279  11.484  66.746  1.00  0.00    -0.133 OA 
HETATM   17  O   UNL     1      -7.573  10.758  68.800  1.00  0.00    -0.096 OA 
HETATM   18  S   UNL     1      -6.852  10.453  67.592  1.00  0.00    -0.075 S  
HETATM   19  O   UNL     1      -5.598   9.518  67.974  1.00  0.00    -0.040 OA 
ENDBRANCH  10  15
ENDBRANCH   9  10
ENDBRANCH   7   9
ENDBRANCH   3   4
ENDBRANCH   2   3
TORSDOF 6
ENDMDL
MODEL      185
REMARK 921   NORMALIZED FREE ENERGY PREDICTED BY IDOCK:   -3.67 KCAL/MOL
REMARK 922        TOTAL FREE ENERGY PREDICTED BY IDOCK:   -5.72 KCAL/MOL
REMARK 923 INTER-LIGAND FREE ENERGY PREDICTED BY IDOCK:   -4.87 KCAL/MOL
REMARK 924 INTRA-LIGAND FREE ENERGY PREDICTED BY IDOCK:   -0.86 KCAL/MOL
REMARK 927      BINDING AFFINITY PREDICTED BY RF-SCORE:    0.00 PKD
ROOT
HETATM    1  C   UNL     1     -11.285  12.202  67.509  1.00  0.00    -0.357 C  
HETATM    2  C   UNL     1     -11.194  12.434  69.009  1.00  0.00    -0.320 C  
ENDROOT
BRANCH   2   3
HETATM    3  C   UNL     1     -12.215  11.576  69.758  1.00  0.00    -0.310 C  
BRANCH   3   4
HETATM    4  C   UNL     1     -11.646  10.197  70.101  1.00  0.00    -0.350 C  
HETATM    5  C   UNL     1     -11.730   9.828  71.604  1.00  0.00    -0.390 C  
HETATM    6  C   UNL     1     -13.157   9.916  72.187  1.00  0.00    -0.497 C  
HETATM    7  C   UNL     1     -11.122   8.429  71.877  1.00  0.00    -0.378 C  
HETATM    8  C   UNL     1     -14.145   8.900  71.629  1.00  0.00    -0.395 C  
BRANCH   7   9
HETATM    9  C   UNL     1      -9.633   8.368  71.533  1.00  0.00    -0.273 C  
BRANCH   9  10
HETATM   10  C   UNL     1      -9.199   7.252  70.564  1.00  0.00    -0.158 C  
BRANCH  10  11
HETATM   11  C   UNL     1      -9.481   5.851  71.154  1.00  0.00    -0.183 C  
HETATM   12  C   UNL     1      -7.295   4.710  70.458  1.00  0.00    -0.050 C  
HETATM   13  C   UNL     1      -8.823   4.664  70.416  1.00  0.00    -0.137 C  
HETATM   14  C   UNL     1      -9.293   3.344  71.048  1.00  0.00    -0.212 C  
ENDBRANCH  10  11
BRANCH  10  15
HETATM   15  O   UNL     1      -9.969   7.371  69.361  1.00  0.00    -0.170 OA 
HETATM   16  O   UNL     1      -9.064   9.314  68.068  1.00  0.00    -0.128 OA 
HETATM   17  O   UNL     1      -8.177   6.977  67.661  1.00  0.00    -0.115 OA 
HETATM   18  S   UNL     1      -9.250   7.877  67.992  1.00  0.00    -0.130 S  
HETATM   19  O   UNL     1     -10.422   7.689  66.904  1.00  0.00    -0.315 OA 
ENDBRANCH  10  15
ENDBRANCH   9  10
ENDBRANCH   7   9
ENDBRANCH   3   4
ENDBRANCH   2   3
TORSDOF 6
ENDMDL
MODEL      186
REMARK 921   NORMALIZED FREE ENERGY PREDICTED BY IDOCK:   -3.67 KCAL/MOL
REMARK 922        TOTAL FREE ENERGY PREDICTED BY IDOCK:   -5.72 KCAL/MOL
REMARK 923 INTER-LIGAND FREE ENERGY PREDICTED BY IDOCK:   -4.67 KCAL/MOL
REMARK 924 INTRA-LIGAND FREE ENERGY PREDICTED BY IDOCK:   -1.05 KCAL/MOL
REMARK 927      BINDING AFFINITY PREDICTED BY RF-SCORE:    0.00 PKD
ROOT
HETATM    1  C   UNL     1     -12.052  11.997  63.579  1.00  0.00    -0.628 C  
HETATM    2  C   UNL     1     -11.912  13.471  63.924  1.00  0.00    -0.491 C  
ENDROOT
BRANCH   2   3
HETATM    3  C   UNL     1     -10.603  13.736  64.669  1.00  0.00    -0.443 C  
BRANCH   3   4
HETATM    4  C   UNL     1     -10.280  12.610  65.655  1.00  0.00    -0.290 C  
HETATM    5  C   UNL     1      -9.704  13.094  67.010  1.00  0.00    -0.241 C  
HETATM    6  C   UNL     1     -10.599  14.123  67.734  1.00  0.00    -0.243 C  
HETATM    7  C   UNL     1      -9.387  11.902  67.947  1.00  0.00    -0.187 C  
HETATM    8  C   UNL     1     -11.941  13.585  68.215  1.00  0.00    -0.377 C  
BRANCH   7   9
HETATM    9  C   UNL     1      -8.318  10.977  67.365  1.00  0.00    -0.126 C  
BRANCH   9  10
HETATM   10  C   UNL     1      -8.735   9.513  67.123  1.00  0.00    -0.132 C  
BRANCH  10  11
HETATM   11  C   UNL     1      -7.732   8.785  66.201  1.00  0.00    -0.101 C  
HETATM   12  C   UNL     1      -8.724   9.490  63.946  1.00  0.00    -0.238 C  
HETATM   13  C   UNL     1      -8.285   8.325  64.833  1.00  0.00    -0.154 C  
HETATM   14  C   UNL     1      -7.208   7.519  64.090  1.00  0.00    -0.080 C  
ENDBRANCH  10  11
BRANCH  10  15
HETATM   15  O   UNL     1      -8.732   8.828  68.383  1.00  0.00    -0.133 OA 
HETATM   16  O   UNL     1     -10.917   9.298  69.510  1.00  0.00    -0.227 OA 
HETATM   17  O   UNL     1     -10.650   7.262  68.026  1.00  0.00    -0.208 OA 
HETATM   18  S   UNL     1     -10.120   8.213  68.967  1.00  0.00    -0.209 S  
HETATM   19  O   UNL     1      -9.614   7.409  70.267  1.00  0.00    -0.166 OA 
ENDBRANCH  10  15
ENDBRANCH   9  10
ENDBRANCH   7   9
ENDBRANCH   3   4
ENDBRANCH   2   3
TORSDOF 6
ENDMDL
MODEL      187
REMARK 921   NORMALIZED FREE ENERGY PREDICTED BY IDOCK:   -3.67 KCAL/MOL
REMARK 922        TOTAL FREE ENERGY PREDICTED BY IDOCK:   -5.72 KCAL/MOL
REMARK 923 INTER-LIGAND FREE ENERGY PREDICTED BY IDOCK:   -4.99 KCAL/MOL
REMARK 924 INTRA-LIGAND FREE ENERGY PREDICTED BY IDOCK:   -0.73 KCAL/MOL
REMARK 927      BINDING AFFINITY PREDICTED BY RF-SCORE:    0.00 PKD
ROOT
HETATM    1  C   UNL     1      -6.803   7.479  71.309  1.00  0.00    -0.050 C  
HETATM    2  C   UNL     1      -7.509   6.905  70.091  1.00  0.00    -0.090 C  
ENDROOT
BRANCH   2   3
HETATM    3  C   UNL     1      -7.648   7.961  68.992  1.00  0.00    -0.099 C  
BRANCH   3   4
HETATM    4  C   UNL     1      -8.863   8.861  69.228  1.00  0.00    -0.139 C  
HETATM    5  C   UNL     1     -10.020   8.649  68.217  1.00  0.00    -0.207 C  
HETATM    6  C   UNL     1     -10.513   7.188  68.135  1.00  0.00    -0.244 C  
HETATM    7  C   UNL     1     -11.205   9.603  68.508  1.00  0.00    -0.005 C  
HETATM    8  C   UNL     1     -11.189   6.664  69.396  1.00  0.00    -0.356 C  
BRANCH   7   9
HETATM    9  C   UNL     1     -10.813  11.074  68.364  1.00  0.00    -0.264 C  
BRANCH   9  10
HETATM   10  C   UNL     1     -10.596  11.588  66.928  1.00  0.00    -0.247 C  
BRANCH  10  11
HETATM   11  C   UNL     1     -10.292  10.429  65.952  1.00  0.00    -0.261 C  
HETATM   12  C   UNL     1      -7.733  10.538  66.034  1.00  0.00    -0.147 C  
HETATM   13  C   UNL     1      -8.979  10.552  65.147  1.00  0.00    -0.214 C  
HETATM   14  C   UNL     1      -8.882   9.391  64.145  1.00  0.00    -0.216 C  
ENDBRANCH  10  11
BRANCH  10  15
HETATM   15  O   UNL     1     -11.807  12.214  66.483  1.00  0.00    -0.569 OA 
HETATM   16  O   UNL     1     -11.718  14.618  67.171  1.00  0.00    -0.378 OA 
HETATM   17  O   UNL     1     -10.863  13.902  64.897  1.00  0.00    -0.358 OA 
HETATM   18  S   UNL     1     -11.779  13.766  65.998  1.00  0.00    -0.382 S  
HETATM   19  O   UNL     1     -13.276  13.973  65.440  1.00  0.00    -0.761 OA 
ENDBRANCH  10  15
ENDBRANCH   9  10
ENDBRANCH   7   9
ENDBRANCH   3   4
ENDBRANCH   2   3
TORSDOF 6
ENDMDL
MODEL      188
REMARK 921   NORMALIZED FREE ENERGY PREDICTED BY IDOCK:   -3.67 KCAL/MOL
REMARK 922        TOTAL FREE ENERGY PREDICTED BY IDOCK:   -5.71 KCAL/MOL
REMARK 923 INTER-LIGAND FREE ENERGY PREDICTED BY IDOCK:   -4.85 KCAL/MOL
REMARK 924 INTRA-LIGAND FREE ENERGY PREDICTED BY IDOCK:   -0.87 KCAL/MOL
REMARK 927      BINDING AFFINITY PREDICTED BY RF-SCORE:    0.00 PKD
ROOT
HETATM    1  C   UNL     1      -8.881   9.723  63.473  1.00  0.00    -0.260 C  
HETATM    2  C   UNL     1      -9.779  10.667  62.689  1.00  0.00    -0.228 C  
ENDROOT
BRANCH   2   3
HETATM    3  C   UNL     1     -10.492  11.646  63.623  1.00  0.00    -0.483 C  
BRANCH   3   4
HETATM    4  C   UNL     1     -10.407  11.192  65.083  1.00  0.00    -0.354 C  
HETATM    5  C   UNL     1      -9.760  12.228  66.037  1.00  0.00    -0.254 C  
HETATM    6  C   UNL     1     -10.443  13.613  66.004  1.00  0.00    -0.300 C  
HETATM    7  C   UNL     1      -9.694  11.694  67.489  1.00  0.00    -0.185 C  
HETATM    8  C   UNL     1     -11.869  13.641  66.540  1.00  0.00    -0.441 C  
BRANCH   7   9
HETATM    9  C   UNL     1      -8.821  10.444  67.606  1.00  0.00    -0.124 C  
BRANCH   9  10
HETATM   10  C   UNL     1      -9.061   9.553  68.840  1.00  0.00    -0.141 C  
BRANCH  10  11
HETATM   11  C   UNL     1     -10.018   8.384  68.515  1.00  0.00    -0.203 C  
HETATM   12  C   UNL     1     -11.235   8.267  70.767  1.00  0.00    -0.284 C  
HETATM   13  C   UNL     1     -10.434   7.501  69.713  1.00  0.00    -0.232 C  
HETATM   14  C   UNL     1     -11.283   6.323  69.210  1.00  0.00    -0.458 C  
ENDBRANCH  10  11
BRANCH  10  15
HETATM   15  O   UNL     1      -7.807   8.981  69.237  1.00  0.00    -0.091 OA 
HETATM   16  O   UNL     1      -6.552  10.720  70.528  1.00  0.00    -0.310 OA 
HETATM   17  O   UNL     1      -8.060   9.071  71.724  1.00  0.00    -0.348 OA 
HETATM   18  S   UNL     1      -7.146   9.402  70.662  1.00  0.00    -0.118 S  
HETATM   19  O   UNL     1      -5.882   8.409  70.755  1.00  0.00    -0.032 OA 
ENDBRANCH  10  15
ENDBRANCH   9  10
ENDBRANCH   7   9
ENDBRANCH   3   4
ENDBRANCH   2   3
TORSDOF 6
ENDMDL
MODEL      189
REMARK 921   NORMALIZED FREE ENERGY PREDICTED BY IDOCK:   -3.66 KCAL/MOL
REMARK 922        TOTAL FREE ENERGY PREDICTED BY IDOCK:   -5.70 KCAL/MOL
REMARK 923 INTER-LIGAND FREE ENERGY PREDICTED BY IDOCK:   -4.97 KCAL/MOL
REMARK 924 INTRA-LIGAND FREE ENERGY PREDICTED BY IDOCK:   -0.74 KCAL/MOL
REMARK 927      BINDING AFFINITY PREDICTED BY RF-SCORE:    0.00 PKD
ROOT
HETATM    1  C   UNL     1      -7.774  10.728  66.164  1.00  0.00    -0.149 C  
HETATM    2  C   UNL     1      -7.663  11.503  67.468  1.00  0.00    -0.132 C  
ENDROOT
BRANCH   2   3
HETATM    3  C   UNL     1      -7.090  12.901  67.226  1.00  0.00    -0.071 C  
BRANCH   3   4
HETATM    4  C   UNL     1      -8.198  13.952  67.127  1.00  0.00    -0.128 C  
HETATM    5  C   UNL     1      -8.872  14.298  68.480  1.00  0.00    -0.176 C  
HETATM    6  C   UNL     1      -7.877  14.751  69.571  1.00  0.00    -0.042 C  
HETATM    7  C   UNL     1      -9.991  15.353  68.300  1.00  0.00    -0.214 C  
HETATM    8  C   UNL     1      -7.179  16.077  69.297  1.00  0.00    -0.226 C  
BRANCH   7   9
HETATM    9  C   UNL     1     -11.125  14.848  67.407  1.00  0.00    -0.325 C  
BRANCH   9  10
HETATM   10  C   UNL     1     -11.319  13.321  67.344  1.00  0.00    -0.303 C  
BRANCH  10  11
HETATM   11  C   UNL     1     -11.820  12.759  68.694  1.00  0.00    -0.341 C  
HETATM   12  C   UNL     1     -10.628  10.493  68.617  1.00  0.00    -0.226 C  
HETATM   13  C   UNL     1     -11.962  11.223  68.774  1.00  0.00    -0.350 C  
HETATM   14  C   UNL     1     -12.579  10.835  70.127  1.00  0.00    -0.309 C  
ENDBRANCH  10  11
BRANCH  10  15
HETATM   15  O   UNL     1     -12.323  13.032  66.362  1.00  0.00    -0.417 OA 
HETATM   16  O   UNL     1     -11.306  13.394  64.104  1.00  0.00    -0.378 OA 
HETATM   17  O   UNL     1     -11.239  11.106  65.191  1.00  0.00    -0.091 OA 
HETATM   18  S   UNL     1     -11.892  12.364  64.943  1.00  0.00    -0.378 S  
HETATM   19  O   UNL     1     -13.320  12.068  64.260  1.00  0.00    -0.709 OA 
ENDBRANCH  10  15
ENDBRANCH   9  10
ENDBRANCH   7   9
ENDBRANCH   3   4
ENDBRANCH   2   3
TORSDOF 6
ENDMDL
MODEL      190
REMARK 921   NORMALIZED FREE ENERGY PREDICTED BY IDOCK:   -3.66 KCAL/MOL
REMARK 922        TOTAL FREE ENERGY PREDICTED BY IDOCK:   -5.70 KCAL/MOL
REMARK 923 INTER-LIGAND FREE ENERGY PREDICTED BY IDOCK:   -4.78 KCAL/MOL
REMARK 924 INTRA-LIGAND FREE ENERGY PREDICTED BY IDOCK:   -0.93 KCAL/MOL
REMARK 927      BINDING AFFINITY PREDICTED BY RF-SCORE:    0.00 PKD
ROOT
HETATM    1  C   UNL     1     -14.408   7.401  71.294  1.00  0.00    -0.408 C  
HETATM    2  C   UNL     1     -13.037   7.820  71.801  1.00  0.00    -0.353 C  
ENDROOT
BRANCH   2   3
HETATM    3  C   UNL     1     -12.816   9.321  71.599  1.00  0.00    -0.447 C  
BRANCH   3   4
HETATM    4  C   UNL     1     -11.365   9.629  71.222  1.00  0.00    -0.458 C  
HETATM    5  C   UNL     1     -11.151   9.960  69.723  1.00  0.00    -0.294 C  
HETATM    6  C   UNL     1     -12.036  11.119  69.211  1.00  0.00    -0.421 C  
HETATM    7  C   UNL     1      -9.660  10.244  69.414  1.00  0.00    -0.237 C  
HETATM    8  C   UNL     1     -11.723  12.483  69.813  1.00  0.00    -0.355 C  
BRANCH   7   9
HETATM    9  C   UNL     1      -8.772   9.029  69.684  1.00  0.00    -0.143 C  
BRANCH   9  10
HETATM   10  C   UNL     1      -8.163   8.337  68.450  1.00  0.00    -0.132 C  
BRANCH  10  11
HETATM   11  C   UNL     1      -8.252   6.798  68.564  1.00  0.00    -0.120 C  
HETATM   12  C   UNL     1     -10.803   6.580  68.651  1.00  0.00    -0.357 C  
HETATM   13  C   UNL     1      -9.474   6.248  69.332  1.00  0.00    -0.148 C  
HETATM   14  C   UNL     1      -9.355   4.721  69.459  1.00  0.00    -0.198 C  
ENDBRANCH  10  11
BRANCH  10  15
HETATM   15  O   UNL     1      -8.919   8.723  67.295  1.00  0.00    -0.130 OA 
HETATM   16  O   UNL     1      -7.882  10.805  66.368  1.00  0.00    -0.137 OA 
HETATM   17  O   UNL     1      -7.151   8.526  65.537  1.00  0.00    -0.079 OA 
HETATM   18  S   UNL     1      -8.163   9.420  66.035  1.00  0.00    -0.113 S  
HETATM   19  O   UNL     1      -9.341   9.511  64.941  1.00  0.00    -0.246 OA 
ENDBRANCH  10  15
ENDBRANCH   9  10
ENDBRANCH   7   9
ENDBRANCH   3   4
ENDBRANCH   2   3
TORSDOF 6
ENDMDL
MODEL      191
REMARK 921   NORMALIZED FREE ENERGY PREDICTED BY IDOCK:   -3.66 KCAL/MOL
REMARK 922        TOTAL FREE ENERGY PREDICTED BY IDOCK:   -5.70 KCAL/MOL
REMARK 923 INTER-LIGAND FREE ENERGY PREDICTED BY IDOCK:   -5.81 KCAL/MOL
REMARK 924 INTRA-LIGAND FREE ENERGY PREDICTED BY IDOCK:    0.11 KCAL/MOL
REMARK 927      BINDING AFFINITY PREDICTED BY RF-SCORE:    0.00 PKD
ROOT
HETATM    1  C   UNL     1      -8.085   8.205  62.892  1.00  0.00    -0.143 C  
HETATM    2  C   UNL     1      -8.368   9.117  64.076  1.00  0.00    -0.183 C  
ENDROOT
BRANCH   2   3
HETATM    3  C   UNL     1      -8.025   8.421  65.395  1.00  0.00    -0.122 C  
BRANCH   3   4
HETATM    4  C   UNL     1      -8.605   9.175  66.594  1.00  0.00    -0.135 C  
HETATM    5  C   UNL     1     -10.127   8.963  66.805  1.00  0.00    -0.350 C  
HETATM    6  C   UNL     1     -10.536   7.479  66.927  1.00  0.00    -0.385 C  
HETATM    7  C   UNL     1     -10.645   9.767  68.023  1.00  0.00    -0.291 C  
HETATM    8  C   UNL     1     -10.013   6.766  68.168  1.00  0.00    -0.161 C  
BRANCH   7   9
HETATM    9  C   UNL     1     -10.474  11.275  67.836  1.00  0.00    -0.218 C  
BRANCH   9  10
HETATM   10  C   UNL     1     -11.669  12.157  68.245  1.00  0.00    -0.342 C  
BRANCH  10  11
HETATM   11  C   UNL     1     -11.206  13.550  68.725  1.00  0.00    -0.311 C  
HETATM   12  C   UNL     1     -12.391  13.573  70.996  1.00  0.00    -0.422 C  
HETATM   13  C   UNL     1     -12.177  14.297  69.667  1.00  0.00    -0.371 C  
HETATM   14  C   UNL     1     -11.630  15.704  69.955  1.00  0.00    -0.360 C  
ENDBRANCH  10  11
BRANCH  10  15
HETATM   15  O   UNL     1     -12.500  12.356  67.094  1.00  0.00    -0.202 OA 
HETATM   16  O   UNL     1     -11.761  14.473  65.981  1.00  0.00    -0.362 OA 
HETATM   17  O   UNL     1     -10.770  12.246  65.290  1.00  0.00    -0.275 OA 
HETATM   18  S   UNL     1     -11.873  13.043  65.759  1.00  0.00    -0.427 S  
HETATM   19  O   UNL     1     -13.083  12.902  64.706  1.00  0.00    -0.754 OA 
ENDBRANCH  10  15
ENDBRANCH   9  10
ENDBRANCH   7   9
ENDBRANCH   3   4
ENDBRANCH   2   3
TORSDOF 6
ENDMDL
MODEL      192
REMARK 921   NORMALIZED FREE ENERGY PREDICTED BY IDOCK:   -3.65 KCAL/MOL
REMARK 922        TOTAL FREE ENERGY PREDICTED BY IDOCK:   -5.69 KCAL/MOL
REMARK 923 INTER-LIGAND FREE ENERGY PREDICTED BY IDOCK:   -4.55 KCAL/MOL
REMARK 924 INTRA-LIGAND FREE ENERGY PREDICTED BY IDOCK:   -1.14 KCAL/MOL
REMARK 927      BINDING AFFINITY PREDICTED BY RF-SCORE:    0.00 PKD
ROOT
HETATM    1  C   UNL     1     -10.848  14.524  64.765  1.00  0.00    -0.410 C  
HETATM    2  C   UNL     1     -11.697  13.301  65.073  1.00  0.00    -0.362 C  
ENDROOT
BRANCH   2   3
HETATM    3  C   UNL     1     -10.866  12.220  65.768  1.00  0.00    -0.313 C  
BRANCH   3   4
HETATM    4  C   UNL     1     -11.526  11.753  67.067  1.00  0.00    -0.368 C  
HETATM    5  C   UNL     1     -10.762  12.159  68.353  1.00  0.00    -0.252 C  
HETATM    6  C   UNL     1     -10.500  13.677  68.466  1.00  0.00    -0.249 C  
HETATM    7  C   UNL     1     -11.479  11.639  69.624  1.00  0.00    -0.359 C  
HETATM    8  C   UNL     1     -11.748  14.535  68.639  1.00  0.00    -0.364 C  
BRANCH   7   9
HETATM    9  C   UNL     1     -11.547  10.112  69.666  1.00  0.00    -0.216 C  
BRANCH   9  10
HETATM   10  C   UNL     1     -10.216   9.361  69.469  1.00  0.00    -0.209 C  
BRANCH  10  11
HETATM   11  C   UNL     1      -9.451   9.208  70.803  1.00  0.00    -0.334 C  
HETATM   12  C   UNL     1      -7.233  10.267  70.079  1.00  0.00    -0.164 C  
HETATM   13  C   UNL     1      -7.919   9.042  70.686  1.00  0.00    -0.159 C  
HETATM   14  C   UNL     1      -7.324   8.785  72.080  1.00  0.00    -0.022 C  
ENDBRANCH  10  11
BRANCH  10  15
HETATM   15  O   UNL     1     -10.508   8.041  68.991  1.00  0.00    -0.218 OA 
HETATM   16  O   UNL     1     -10.718   8.163  66.499  1.00  0.00    -0.081 OA 
HETATM   17  O   UNL     1      -8.485   7.638  67.576  1.00  0.00    -0.116 OA 
HETATM   18  S   UNL     1      -9.922   7.559  67.552  1.00  0.00    -0.193 S  
HETATM   19  O   UNL     1     -10.343   6.005  67.519  1.00  0.00    -0.161 OA 
ENDBRANCH  10  15
ENDBRANCH   9  10
ENDBRANCH   7   9
ENDBRANCH   3   4
ENDBRANCH   2   3
TORSDOF 6
ENDMDL
MODEL      193
REMARK 921   NORMALIZED FREE ENERGY PREDICTED BY IDOCK:   -3.65 KCAL/MOL
REMARK 922        TOTAL FREE ENERGY PREDICTED BY IDOCK:   -5.69 KCAL/MOL
REMARK 923 INTER-LIGAND FREE ENERGY PREDICTED BY IDOCK:   -5.71 KCAL/MOL
REMARK 924 INTRA-LIGAND FREE ENERGY PREDICTED BY IDOCK:    0.03 KCAL/MOL
REMARK 927      BINDING AFFINITY PREDICTED BY RF-SCORE:    0.00 PKD
ROOT
HETATM    1  C   UNL     1     -11.009   5.977  67.391  1.00  0.00    -0.344 C  
HETATM    2  C   UNL     1     -10.065   5.427  68.449  1.00  0.00    -0.235 C  
ENDROOT
BRANCH   2   3
HETATM    3  C   UNL     1     -10.545   5.796  69.854  1.00  0.00    -0.388 C  
BRANCH   3   4
HETATM    4  C   UNL     1     -10.204   7.247  70.200  1.00  0.00    -0.209 C  
HETATM    5  C   UNL     1     -11.189   7.915  71.193  1.00  0.00    -0.284 C  
HETATM    6  C   UNL     1     -11.364   7.134  72.515  1.00  0.00    -0.318 C  
HETATM    7  C   UNL     1     -10.791   9.383  71.483  1.00  0.00    -0.398 C  
HETATM    8  C   UNL     1     -10.124   7.078  73.398  1.00  0.00    -0.320 C  
BRANCH   7   9
HETATM    9  C   UNL     1     -10.837  10.254  70.227  1.00  0.00    -0.349 C  
BRANCH   9  10
HETATM   10  C   UNL     1     -12.224  10.464  69.590  1.00  0.00    -0.048 C  
BRANCH  10  11
HETATM   11  C   UNL     1     -13.133  11.334  70.488  1.00  0.00     0.102 C  
HETATM   12  C   UNL     1     -11.905  13.565  70.205  1.00  0.00    -0.348 C  
HETATM   13  C   UNL     1     -12.445  12.527  71.190  1.00  0.00    -0.322 C  
HETATM   14  C   UNL     1     -13.445  13.215  72.131  1.00  0.00    -0.653 C  
ENDBRANCH  10  11
BRANCH  10  15
HETATM   15  O   UNL     1     -12.052  11.165  68.351  1.00  0.00    -0.605 OA 
HETATM   16  O   UNL     1      -9.616  11.685  68.104  1.00  0.00    -0.177 OA 
HETATM   17  O   UNL     1     -10.577   9.547  67.142  1.00  0.00    -0.257 OA 
HETATM   18  S   UNL     1     -10.696  10.941  67.482  1.00  0.00    -0.272 S  
HETATM   19  O   UNL     1     -11.016  11.764  66.136  1.00  0.00    -0.288 OA 
ENDBRANCH  10  15
ENDBRANCH   9  10
ENDBRANCH   7   9
ENDBRANCH   3   4
ENDBRANCH   2   3
TORSDOF 6
ENDMDL
MODEL      194
REMARK 921   NORMALIZED FREE ENERGY PREDICTED BY IDOCK:   -3.63 KCAL/MOL
REMARK 922        TOTAL FREE ENERGY PREDICTED BY IDOCK:   -5.67 KCAL/MOL
REMARK 923 INTER-LIGAND FREE ENERGY PREDICTED BY IDOCK:   -4.66 KCAL/MOL
REMARK 924 INTRA-LIGAND FREE ENERGY PREDICTED BY IDOCK:   -1.01 KCAL/MOL
REMARK 927      BINDING AFFINITY PREDICTED BY RF-SCORE:    0.00 PKD
ROOT
HETATM    1  C   UNL     1     -11.800  14.676  69.760  1.00  0.00    -0.366 C  
HETATM    2  C   UNL     1     -11.770  15.199  68.332  1.00  0.00    -0.338 C  
ENDROOT
BRANCH   2   3
HETATM    3  C   UNL     1     -11.926  14.055  67.328  1.00  0.00    -0.448 C  
BRANCH   3   4
HETATM    4  C   UNL     1     -11.324  12.753  67.863  1.00  0.00    -0.339 C  
HETATM    5  C   UNL     1     -10.102  12.238  67.059  1.00  0.00    -0.225 C  
HETATM    6  C   UNL     1      -8.965  13.274  66.928  1.00  0.00    -0.212 C  
HETATM    7  C   UNL     1      -9.559  10.912  67.647  1.00  0.00    -0.177 C  
HETATM    8  C   UNL     1      -8.267  13.635  68.233  1.00  0.00    -0.156 C  
BRANCH   7   9
HETATM    9  C   UNL     1     -10.587   9.783  67.576  1.00  0.00    -0.335 C  
BRANCH   9  10
HETATM   10  C   UNL     1     -10.324   8.559  68.474  1.00  0.00    -0.198 C  
BRANCH  10  11
HETATM   11  C   UNL     1     -11.084   8.668  69.815  1.00  0.00    -0.073 C  
HETATM   12  C   UNL     1      -9.058   8.747  71.382  1.00  0.00    -0.313 C  
HETATM   13  C   UNL     1     -10.377   8.051  71.043  1.00  0.00    -0.228 C  
HETATM   14  C   UNL     1     -11.305   8.134  72.265  1.00  0.00    -0.429 C  
ENDBRANCH  10  11
BRANCH  10  15
HETATM   15  O   UNL     1     -10.813   7.390  67.801  1.00  0.00    -0.194 OA 
HETATM   16  O   UNL     1      -9.062   6.669  66.163  1.00  0.00    -0.157 OA 
HETATM   17  O   UNL     1      -9.086   5.728  68.516  1.00  0.00    -0.115 OA 
HETATM   18  S   UNL     1      -9.769   6.226  67.352  1.00  0.00    -0.127 S  
HETATM   19  O   UNL     1     -10.758   5.075  66.813  1.00  0.00    -0.225 OA 
ENDBRANCH  10  15
ENDBRANCH   9  10
ENDBRANCH   7   9
ENDBRANCH   3   4
ENDBRANCH   2   3
TORSDOF 6
ENDMDL
MODEL      195
REMARK 921   NORMALIZED FREE ENERGY PREDICTED BY IDOCK:   -3.62 KCAL/MOL
REMARK 922        TOTAL FREE ENERGY PREDICTED BY IDOCK:   -5.65 KCAL/MOL
REMARK 923 INTER-LIGAND FREE ENERGY PREDICTED BY IDOCK:   -4.68 KCAL/MOL
REMARK 924 INTRA-LIGAND FREE ENERGY PREDICTED BY IDOCK:   -0.98 KCAL/MOL
REMARK 927      BINDING AFFINITY PREDICTED BY RF-SCORE:    0.00 PKD
ROOT
HETATM    1  C   UNL     1     -12.177  13.062  65.848  1.00  0.00    -0.493 C  
HETATM    2  C   UNL     1     -11.698  13.509  67.221  1.00  0.00    -0.423 C  
ENDROOT
BRANCH   2   3
HETATM    3  C   UNL     1     -11.705  12.341  68.209  1.00  0.00    -0.392 C  
BRANCH   3   4
HETATM    4  C   UNL     1     -10.300  11.771  68.415  1.00  0.00    -0.223 C  
HETATM    5  C   UNL     1     -10.203  10.233  68.247  1.00  0.00    -0.184 C  
HETATM    6  C   UNL     1     -10.733   9.722  66.889  1.00  0.00    -0.192 C  
HETATM    7  C   UNL     1      -8.759   9.728  68.486  1.00  0.00    -0.120 C  
HETATM    8  C   UNL     1      -9.919  10.154  65.676  1.00  0.00    -0.348 C  
BRANCH   7   9
HETATM    9  C   UNL     1      -8.277  10.005  69.911  1.00  0.00    -0.175 C  
BRANCH   9  10
HETATM   10  C   UNL     1      -8.596   8.926  70.964  1.00  0.00    -0.206 C  
BRANCH  10  11
HETATM   11  C   UNL     1      -9.593   7.880  70.417  1.00  0.00    -0.171 C  
HETATM   12  C   UNL     1     -11.767   9.032  71.132  1.00  0.00    -0.366 C  
HETATM   13  C   UNL     1     -10.928   7.755  71.185  1.00  0.00    -0.259 C  
HETATM   14  C   UNL     1     -11.752   6.600  70.595  1.00  0.00    -0.452 C  
ENDBRANCH  10  11
BRANCH  10  15
HETATM   15  O   UNL     1      -7.382   8.233  71.283  1.00  0.00    -0.065 OA 
HETATM   16  O   UNL     1      -5.649   9.951  71.840  1.00  0.00    -0.221 OA 
HETATM   17  O   UNL     1      -7.092   8.947  73.663  1.00  0.00    -0.360 OA 
HETATM   18  S   UNL     1      -6.384   8.840  72.415  1.00  0.00     0.013 S  
HETATM   19  O   UNL     1      -5.283   7.673  72.556  1.00  0.00    -0.036 OA 
ENDBRANCH  10  15
ENDBRANCH   9  10
ENDBRANCH   7   9
ENDBRANCH   3   4
ENDBRANCH   2   3
TORSDOF 6
ENDMDL
MODEL      196
REMARK 921   NORMALIZED FREE ENERGY PREDICTED BY IDOCK:   -3.62 KCAL/MOL
REMARK 922        TOTAL FREE ENERGY PREDICTED BY IDOCK:   -5.65 KCAL/MOL
REMARK 923 INTER-LIGAND FREE ENERGY PREDICTED BY IDOCK:   -5.47 KCAL/MOL
REMARK 924 INTRA-LIGAND FREE ENERGY PREDICTED BY IDOCK:   -0.18 KCAL/MOL
REMARK 927      BINDING AFFINITY PREDICTED BY RF-SCORE:    0.00 PKD
ROOT
HETATM    1  C   UNL     1      -5.761  16.366  68.066  1.00  0.00    -0.121 C  
HETATM    2  C   UNL     1      -5.818  17.394  66.946  1.00  0.00    -0.203 C  
ENDROOT
BRANCH   2   3
HETATM    3  C   UNL     1      -7.173  18.106  66.927  1.00  0.00    -0.229 C  
BRANCH   3   4
HETATM    4  C   UNL     1      -8.282  17.188  66.408  1.00  0.00    -0.327 C  
HETATM    5  C   UNL     1      -9.347  16.811  67.469  1.00  0.00    -0.231 C  
HETATM    6  C   UNL     1     -10.011  18.031  68.143  1.00  0.00    -0.356 C  
HETATM    7  C   UNL     1     -10.425  15.869  66.877  1.00  0.00    -0.309 C  
HETATM    8  C   UNL     1     -10.872  18.887  67.223  1.00  0.00    -0.448 C  
BRANCH   7   9
HETATM    9  C   UNL     1      -9.837  14.537  66.411  1.00  0.00    -0.306 C  
BRANCH   9  10
HETATM   10  C   UNL     1     -10.654  13.274  66.743  1.00  0.00    -0.276 C  
BRANCH  10  11
HETATM   11  C   UNL     1     -11.718  12.989  65.659  1.00  0.00    -0.418 C  
HETATM   12  C   UNL     1     -10.203  11.831  63.948  1.00  0.00    -0.411 C  
HETATM   13  C   UNL     1     -11.206  12.957  64.202  1.00  0.00    -0.432 C  
HETATM   14  C   UNL     1     -12.395  12.783  63.244  1.00  0.00    -0.437 C  
ENDBRANCH  10  11
BRANCH  10  15
HETATM   15  O   UNL     1      -9.761  12.151  66.769  1.00  0.00    -0.199 OA 
HETATM   16  O   UNL     1      -9.942  11.090  69.029  1.00  0.00    -0.205 OA 
HETATM   17  O   UNL     1     -11.407  10.300  67.119  1.00  0.00    -0.230 OA 
HETATM   18  S   UNL     1     -10.164  10.825  67.620  1.00  0.00    -0.198 S  
HETATM   19  O   UNL     1      -8.986   9.799  67.224  1.00  0.00    -0.134 OA 
ENDBRANCH  10  15
ENDBRANCH   9  10
ENDBRANCH   7   9
ENDBRANCH   3   4
ENDBRANCH   2   3
TORSDOF 6
ENDMDL
MODEL      197
REMARK 921   NORMALIZED FREE ENERGY PREDICTED BY IDOCK:   -3.61 KCAL/MOL
REMARK 922        TOTAL FREE ENERGY PREDICTED BY IDOCK:   -5.63 KCAL/MOL
REMARK 923 INTER-LIGAND FREE ENERGY PREDICTED BY IDOCK:   -5.26 KCAL/MOL
REMARK 924 INTRA-LIGAND FREE ENERGY PREDICTED BY IDOCK:   -0.37 KCAL/MOL
REMARK 927      BINDING AFFINITY PREDICTED BY RF-SCORE:    0.00 PKD
ROOT
HETATM    1  C   UNL     1     -10.487   3.652  63.927  1.00  0.00    -0.276 C  
HETATM    2  C   UNL     1      -9.623   4.118  65.088  1.00  0.00    -0.185 C  
ENDROOT
BRANCH   2   3
HETATM    3  C   UNL     1     -10.463   4.853  66.134  1.00  0.00    -0.346 C  
BRANCH   3   4
HETATM    4  C   UNL     1      -9.910   6.253  66.414  1.00  0.00    -0.128 C  
HETATM    5  C   UNL     1     -10.844   7.147  67.270  1.00  0.00    -0.382 C  
HETATM    6  C   UNL     1     -11.247   6.512  68.619  1.00  0.00    -0.302 C  
HETATM    7  C   UNL     1     -10.227   8.550  67.499  1.00  0.00    -0.307 C  
HETATM    8  C   UNL     1     -10.106   6.325  69.611  1.00  0.00    -0.215 C  
BRANCH   7   9
HETATM    9  C   UNL     1     -10.031   9.316  66.190  1.00  0.00    -0.348 C  
BRANCH   9  10
HETATM   10  C   UNL     1     -10.192  10.846  66.260  1.00  0.00    -0.247 C  
BRANCH  10  11
HETATM   11  C   UNL     1     -11.244  11.350  65.247  1.00  0.00    -0.144 C  
HETATM   12  C   UNL     1      -9.725  11.520  63.191  1.00  0.00    -0.412 C  
HETATM   13  C   UNL     1     -10.709  12.247  64.108  1.00  0.00    -0.412 C  
HETATM   14  C   UNL     1     -11.885  12.759  63.262  1.00  0.00    -0.493 C  
ENDBRANCH  10  11
BRANCH  10  15
HETATM   15  O   UNL     1     -10.662  11.192  67.570  1.00  0.00    -0.207 OA 
HETATM   16  O   UNL     1      -9.012  12.787  68.572  1.00  0.00    -0.152 OA 
HETATM   17  O   UNL     1     -11.006  13.652  67.269  1.00  0.00    -0.280 OA 
HETATM   18  S   UNL     1     -10.398  12.689  68.149  1.00  0.00    -0.238 S  
HETATM   19  O   UNL     1     -11.228  12.670  69.529  1.00  0.00    -0.190 OA 
ENDBRANCH  10  15
ENDBRANCH   9  10
ENDBRANCH   7   9
ENDBRANCH   3   4
ENDBRANCH   2   3
TORSDOF 6
ENDMDL
MODEL      198
REMARK 921   NORMALIZED FREE ENERGY PREDICTED BY IDOCK:   -3.57 KCAL/MOL
REMARK 922        TOTAL FREE ENERGY PREDICTED BY IDOCK:   -5.59 KCAL/MOL
REMARK 923 INTER-LIGAND FREE ENERGY PREDICTED BY IDOCK:   -4.53 KCAL/MOL
REMARK 924 INTRA-LIGAND FREE ENERGY PREDICTED BY IDOCK:   -1.06 KCAL/MOL
REMARK 927      BINDING AFFINITY PREDICTED BY RF-SCORE:    0.00 PKD
ROOT
HETATM    1  C   UNL     1      -6.803  17.879  65.877  1.00  0.00    -0.315 C  
HETATM    2  C   UNL     1      -5.358  17.593  66.257  1.00  0.00    -0.229 C  
ENDROOT
BRANCH   2   3
HETATM    3  C   UNL     1      -5.280  16.502  67.327  1.00  0.00    -0.147 C  
BRANCH   3   4
HETATM    4  C   UNL     1      -6.668  15.966  67.685  1.00  0.00    -0.195 C  
HETATM    5  C   UNL     1      -6.766  14.419  67.720  1.00  0.00    -0.191 C  
HETATM    6  C   UNL     1      -5.738  13.754  68.660  1.00  0.00    -0.084 C  
HETATM    7  C   UNL     1      -8.200  13.952  68.072  1.00  0.00    -0.161 C  
HETATM    8  C   UNL     1      -5.935  14.047  70.142  1.00  0.00    -0.151 C  
BRANCH   7   9
HETATM    9  C   UNL     1      -9.225  14.393  67.027  1.00  0.00    -0.246 C  
BRANCH   9  10
HETATM   10  C   UNL     1     -10.024  13.273  66.334  1.00  0.00    -0.288 C  
BRANCH  10  11
HETATM   11  C   UNL     1      -9.873  11.928  67.080  1.00  0.00    -0.206 C  
HETATM   12  C   UNL     1      -7.887  10.993  65.759  1.00  0.00     0.011 C  
HETATM   13  C   UNL     1      -9.317  10.753  66.245  1.00  0.00    -0.205 C  
HETATM   14  C   UNL     1      -9.340   9.469  67.089  1.00  0.00    -0.174 C  
ENDBRANCH  10  11
BRANCH  10  15
HETATM   15  O   UNL     1     -11.415  13.624  66.363  1.00  0.00    -0.318 OA 
HETATM   16  O   UNL     1     -11.962  14.743  64.193  1.00  0.00    -0.393 OA 
HETATM   17  O   UNL     1     -12.248  12.239  64.454  1.00  0.00    -0.410 OA 
HETATM   18  S   UNL     1     -12.285  13.574  64.991  1.00  0.00    -0.437 S  
HETATM   19  O   UNL     1     -13.776  13.864  65.525  1.00  0.00    -0.389 OA 
ENDBRANCH  10  15
ENDBRANCH   9  10
ENDBRANCH   7   9
ENDBRANCH   3   4
ENDBRANCH   2   3
TORSDOF 6
ENDMDL
MODEL      199
REMARK 921   NORMALIZED FREE ENERGY PREDICTED BY IDOCK:   -3.57 KCAL/MOL
REMARK 922        TOTAL FREE ENERGY PREDICTED BY IDOCK:   -5.58 KCAL/MOL
REMARK 923 INTER-LIGAND FREE ENERGY PREDICTED BY IDOCK:   -4.65 KCAL/MOL
REMARK 924 INTRA-LIGAND FREE ENERGY PREDICTED BY IDOCK:   -0.93 KCAL/MOL
REMARK 927      BINDING AFFINITY PREDICTED BY RF-SCORE:    0.00 PKD
ROOT
HETATM    1  C   UNL     1     -11.731  15.030  69.743  1.00  0.00    -0.341 C  
HETATM    2  C   UNL     1     -11.847  15.373  68.266  1.00  0.00    -0.225 C  
ENDROOT
BRANCH   2   3
HETATM    3  C   UNL     1     -12.101  14.116  67.431  1.00  0.00    -0.379 C  
BRANCH   3   4
HETATM    4  C   UNL     1     -11.446  12.884  68.060  1.00  0.00    -0.361 C  
HETATM    5  C   UNL     1     -10.410  12.177  67.148  1.00  0.00    -0.233 C  
HETATM    6  C   UNL     1      -9.289  13.111  66.642  1.00  0.00    -0.242 C  
HETATM    7  C   UNL     1      -9.802  10.933  67.843  1.00  0.00    -0.189 C  
HETATM    8  C   UNL     1      -8.350  13.635  67.721  1.00  0.00    -0.181 C  
BRANCH   7   9
HETATM    9  C   UNL     1     -10.857   9.869  68.150  1.00  0.00    -0.282 C  
BRANCH   9  10
HETATM   10  C   UNL     1     -10.357   8.589  68.846  1.00  0.00    -0.210 C  
BRANCH  10  11
HETATM   11  C   UNL     1      -9.385   7.797  67.942  1.00  0.00    -0.148 C  
HETATM   12  C   UNL     1     -11.090   6.225  66.854  1.00  0.00    -0.329 C  
HETATM   13  C   UNL     1      -9.784   6.335  67.641  1.00  0.00    -0.126 C  
HETATM   14  C   UNL     1      -8.666   5.654  66.837  1.00  0.00    -0.113 C  
ENDBRANCH  10  11
BRANCH  10  15
HETATM   15  O   UNL     1      -9.632   8.967  70.024  1.00  0.00    -0.169 OA 
HETATM   16  O   UNL     1     -11.229   8.915  71.950  1.00  0.00    -0.338 OA 
HETATM   17  O   UNL     1      -9.858   6.867  71.363  1.00  0.00    -0.178 OA 
HETATM   18  S   UNL     1     -10.014   8.295  71.454  1.00  0.00    -0.209 S  
HETATM   19  O   UNL     1      -8.859   8.870  72.418  1.00  0.00    -0.396 OA 
ENDBRANCH  10  15
ENDBRANCH   9  10
ENDBRANCH   7   9
ENDBRANCH   3   4
ENDBRANCH   2   3
TORSDOF 6
ENDMDL
MODEL      200
REMARK 921   NORMALIZED FREE ENERGY PREDICTED BY IDOCK:   -3.56 KCAL/MOL
REMARK 922        TOTAL FREE ENERGY PREDICTED BY IDOCK:   -5.57 KCAL/MOL
REMARK 923 INTER-LIGAND FREE ENERGY PREDICTED BY IDOCK:   -5.02 KCAL/MOL
REMARK 924 INTRA-LIGAND FREE ENERGY PREDICTED BY IDOCK:   -0.55 KCAL/MOL
REMARK 927      BINDING AFFINITY PREDICTED BY RF-SCORE:    0.00 PKD
ROOT
HETATM    1  C   UNL     1     -12.244  11.718  63.528  1.00  0.00    -0.489 C  
HETATM    2  C   UNL     1     -10.724  11.696  63.571  1.00  0.00    -0.495 C  
ENDROOT
BRANCH   2   3
HETATM    3  C   UNL     1     -10.218  10.518  64.407  1.00  0.00    -0.337 C  
BRANCH   3   4
HETATM    4  C   UNL     1      -9.255  10.981  65.503  1.00  0.00    -0.235 C  
HETATM    5  C   UNL     1      -9.952  11.571  66.757  1.00  0.00    -0.235 C  
HETATM    6  C   UNL     1     -10.987  10.620  67.397  1.00  0.00    -0.361 C  
HETATM    7  C   UNL     1      -8.917  12.031  67.813  1.00  0.00    -0.176 C  
HETATM    8  C   UNL     1     -10.405   9.353  68.011  1.00  0.00    -0.267 C  
BRANCH   7   9
HETATM    9  C   UNL     1      -8.016  13.151  67.292  1.00  0.00    -0.140 C  
BRANCH   9  10
HETATM   10  C   UNL     1      -8.687  14.520  67.065  1.00  0.00    -0.234 C  
BRANCH  10  11
HETATM   11  C   UNL     1      -7.672  15.569  66.557  1.00  0.00     0.189 C  
HETATM   12  C   UNL     1      -7.042  16.598  68.818  1.00  0.00    -0.194 C  
HETATM   13  C   UNL     1      -7.556  16.858  67.401  1.00  0.00    -0.185 C  
HETATM   14  C   UNL     1      -6.603  17.842  66.705  1.00  0.00    -0.239 C  
ENDBRANCH  10  11
BRANCH  10  15
HETATM   15  O   UNL     1      -9.690  14.370  66.051  1.00  0.00    -0.300 OA 
HETATM   16  O   UNL     1     -11.926  14.573  67.158  1.00  0.00    -0.406 OA 
HETATM   17  O   UNL     1     -10.782  16.617  66.192  1.00  0.00    -0.249 OA 
HETATM   18  S   UNL     1     -11.079  15.209  66.165  1.00  0.00    -0.270 S  
HETATM   19  O   UNL     1     -11.796  14.869  64.764  1.00  0.00    -0.400 OA 
ENDBRANCH  10  15
ENDBRANCH   9  10
ENDBRANCH   7   9
ENDBRANCH   3   4
ENDBRANCH   2   3
TORSDOF 6
ENDMDL
MODEL      201
REMARK 921   NORMALIZED FREE ENERGY PREDICTED BY IDOCK:   -3.54 KCAL/MOL
REMARK 922        TOTAL FREE ENERGY PREDICTED BY IDOCK:   -5.55 KCAL/MOL
REMARK 923 INTER-LIGAND FREE ENERGY PREDICTED BY IDOCK:   -4.50 KCAL/MOL
REMARK 924 INTRA-LIGAND FREE ENERGY PREDICTED BY IDOCK:   -1.05 KCAL/MOL
REMARK 927      BINDING AFFINITY PREDICTED BY RF-SCORE:    0.00 PKD
ROOT
HETATM    1  C   UNL     1     -12.203  10.982  70.808  1.00  0.00    -0.480 C  
HETATM    2  C   UNL     1     -11.944  12.045  69.751  1.00  0.00    -0.370 C  
ENDROOT
BRANCH   2   3
HETATM    3  C   UNL     1     -10.985  11.526  68.678  1.00  0.00    -0.270 C  
BRANCH   3   4
HETATM    4  C   UNL     1      -9.846  10.707  69.291  1.00  0.00    -0.201 C  
HETATM    5  C   UNL     1      -9.239   9.646  68.338  1.00  0.00    -0.133 C  
HETATM    6  C   UNL     1      -8.743  10.228  66.996  1.00  0.00    -0.133 C  
HETATM    7  C   UNL     1      -8.106   8.848  69.031  1.00  0.00    -0.115 C  
HETATM    8  C   UNL     1      -7.553  11.173  67.104  1.00  0.00    -0.125 C  
BRANCH   7   9
HETATM    9  C   UNL     1      -8.611   8.058  70.239  1.00  0.00    -0.132 C  
BRANCH   9  10
HETATM   10  C   UNL     1      -9.734   7.038  69.970  1.00  0.00    -0.170 C  
BRANCH  10  11
HETATM   11  C   UNL     1      -9.275   5.940  68.983  1.00  0.00    -0.132 C  
HETATM   12  C   UNL     1     -10.918   6.444  67.082  1.00  0.00    -0.476 C  
HETATM   13  C   UNL     1     -10.365   5.386  68.038  1.00  0.00    -0.215 C  
HETATM   14  C   UNL     1      -9.784   4.230  67.209  1.00  0.00    -0.216 C  
ENDBRANCH  10  11
BRANCH  10  15
HETATM   15  O   UNL     1     -10.062   6.390  71.206  1.00  0.00    -0.185 OA 
HETATM   16  O   UNL     1     -10.770   8.160  72.828  1.00  0.00    -0.345 OA 
HETATM   17  O   UNL     1     -12.485   6.989  71.376  1.00  0.00    -0.351 OA 
HETATM   18  S   UNL     1     -11.260   6.984  72.132  1.00  0.00    -0.265 S  
HETATM   19  O   UNL     1     -11.382   5.868  73.286  1.00  0.00    -0.183 OA 
ENDBRANCH  10  15
ENDBRANCH   9  10
ENDBRANCH   7   9
ENDBRANCH   3   4
ENDBRANCH   2   3
TORSDOF 6
ENDMDL
MODEL      202
REMARK 921   NORMALIZED FREE ENERGY PREDICTED BY IDOCK:   -3.54 KCAL/MOL
REMARK 922        TOTAL FREE ENERGY PREDICTED BY IDOCK:   -5.54 KCAL/MOL
REMARK 923 INTER-LIGAND FREE ENERGY PREDICTED BY IDOCK:   -5.67 KCAL/MOL
REMARK 924 INTRA-LIGAND FREE ENERGY PREDICTED BY IDOCK:    0.13 KCAL/MOL
REMARK 927      BINDING AFFINITY PREDICTED BY RF-SCORE:    0.00 PKD
ROOT
HETATM    1  C   UNL     1     -13.508  14.788  71.606  1.00  0.00    -0.468 C  
HETATM    2  C   UNL     1     -12.514  15.382  70.620  1.00  0.00    -0.478 C  
ENDROOT
BRANCH   2   3
HETATM    3  C   UNL     1     -12.388  14.503  69.374  1.00  0.00    -0.213 C  
BRANCH   3   4
HETATM    4  C   UNL     1     -11.544  13.256  69.651  1.00  0.00    -0.329 C  
HETATM    5  C   UNL     1     -11.811  12.077  68.680  1.00  0.00    -0.366 C  
HETATM    6  C   UNL     1     -11.645  12.449  67.190  1.00  0.00    -0.435 C  
HETATM    7  C   UNL     1     -10.935  10.848  69.030  1.00  0.00    -0.285 C  
HETATM    8  C   UNL     1     -10.224  12.798  66.768  1.00  0.00    -0.245 C  
BRANCH   7   9
HETATM    9  C   UNL     1     -11.242  10.297  70.423  1.00  0.00    -0.407 C  
BRANCH   9  10
HETATM   10  C   UNL     1     -10.362   9.129  70.907  1.00  0.00    -0.280 C  
BRANCH  10  11
HETATM   11  C   UNL     1     -10.315   7.988  69.866  1.00  0.00    -0.221 C  
HETATM   12  C   UNL     1     -12.134   6.492  70.875  1.00  0.00    -0.293 C  
HETATM   13  C   UNL     1     -10.687   6.582  70.388  1.00  0.00    -0.306 C  
HETATM   14  C   UNL     1     -10.478   5.548  69.271  1.00  0.00    -0.336 C  
ENDBRANCH  10  11
BRANCH  10  15
HETATM   15  O   UNL     1      -9.021   9.610  71.073  1.00  0.00    -0.197 OA 
HETATM   16  O   UNL     1      -8.071   8.524  73.117  1.00  0.00    -0.364 OA 
HETATM   17  O   UNL     1      -7.760   7.463  70.837  1.00  0.00    -0.085 OA 
HETATM   18  S   UNL     1      -7.882   8.623  71.681  1.00  0.00    -0.077 S  
HETATM   19  O   UNL     1      -6.546   9.508  71.522  1.00  0.00    -0.285 OA 
ENDBRANCH  10  15
ENDBRANCH   9  10
ENDBRANCH   7   9
ENDBRANCH   3   4
ENDBRANCH   2   3
TORSDOF 6
ENDMDL
MODEL      203
REMARK 921   NORMALIZED FREE ENERGY PREDICTED BY IDOCK:   -3.53 KCAL/MOL
REMARK 922        TOTAL FREE ENERGY PREDICTED BY IDOCK:   -5.52 KCAL/MOL
REMARK 923 INTER-LIGAND FREE ENERGY PREDICTED BY IDOCK:   -4.71 KCAL/MOL
REMARK 924 INTRA-LIGAND FREE ENERGY PREDICTED BY IDOCK:   -0.82 KCAL/MOL
REMARK 927      BINDING AFFINITY PREDICTED BY RF-SCORE:    0.00 PKD
ROOT
HETATM    1  C   UNL     1      -9.771   6.347  67.486  1.00  0.00    -0.137 C  
HETATM    2  C   UNL     1      -8.310   6.707  67.268  1.00  0.00    -0.120 C  
ENDROOT
BRANCH   2   3
HETATM    3  C   UNL     1      -8.095   7.299  65.874  1.00  0.00    -0.125 C  
BRANCH   3   4
HETATM    4  C   UNL     1      -9.224   8.259  65.491  1.00  0.00    -0.000 C  
HETATM    5  C   UNL     1      -8.742   9.601  64.883  1.00  0.00    -0.207 C  
HETATM    6  C   UNL     1      -7.821   9.431  63.655  1.00  0.00    -0.131 C  
HETATM    7  C   UNL     1      -9.936  10.525  64.537  1.00  0.00    -0.413 C  
HETATM    8  C   UNL     1      -8.490   8.829  62.426  1.00  0.00    -0.204 C  
BRANCH   7   9
HETATM    9  C   UNL     1     -10.744  10.915  65.776  1.00  0.00    -0.179 C  
BRANCH   9  10
HETATM   10  C   UNL     1     -10.534  12.345  66.309  1.00  0.00    -0.245 C  
BRANCH  10  11
HETATM   11  C   UNL     1      -9.037  12.644  66.549  1.00  0.00    -0.163 C  
HETATM   12  C   UNL     1      -8.678  11.127  68.582  1.00  0.00    -0.153 C  
HETATM   13  C   UNL     1      -8.555  12.541  68.013  1.00  0.00    -0.185 C  
HETATM   14  C   UNL     1      -7.085  12.981  68.101  1.00  0.00    -0.107 C  
ENDBRANCH  10  11
BRANCH  10  15
HETATM   15  O   UNL     1     -11.000  13.271  65.318  1.00  0.00    -0.283 OA 
HETATM   16  O   UNL     1     -13.276  12.524  64.591  1.00  0.00    -0.848 OA 
HETATM   17  O   UNL     1     -13.014  14.179  66.491  1.00  0.00     0.008 OA 
HETATM   18  S   UNL     1     -12.585  13.627  65.233  1.00  0.00    -0.432 S  
HETATM   19  O   UNL     1     -12.610  14.800  64.130  1.00  0.00    -0.784 OA 
ENDBRANCH  10  15
ENDBRANCH   9  10
ENDBRANCH   7   9
ENDBRANCH   3   4
ENDBRANCH   2   3
TORSDOF 6
ENDMDL
MODEL      204
REMARK 921   NORMALIZED FREE ENERGY PREDICTED BY IDOCK:   -3.52 KCAL/MOL
REMARK 922        TOTAL FREE ENERGY PREDICTED BY IDOCK:   -5.52 KCAL/MOL
REMARK 923 INTER-LIGAND FREE ENERGY PREDICTED BY IDOCK:   -4.58 KCAL/MOL
REMARK 924 INTRA-LIGAND FREE ENERGY PREDICTED BY IDOCK:   -0.94 KCAL/MOL
REMARK 927      BINDING AFFINITY PREDICTED BY RF-SCORE:    0.00 PKD
ROOT
HETATM    1  C   UNL     1     -10.191  12.012  65.982  1.00  0.00    -0.256 C  
HETATM    2  C   UNL     1     -10.632  10.593  66.307  1.00  0.00    -0.229 C  
ENDROOT
BRANCH   2   3
HETATM    3  C   UNL     1      -9.428   9.652  66.389  1.00  0.00    -0.244 C  
BRANCH   3   4
HETATM    4  C   UNL     1      -9.642   8.558  67.438  1.00  0.00    -0.204 C  
HETATM    5  C   UNL     1      -9.797   7.132  66.849  1.00  0.00    -0.271 C  
HETATM    6  C   UNL     1      -8.623   6.704  65.941  1.00  0.00    -0.153 C  
HETATM    7  C   UNL     1     -10.025   6.082  67.965  1.00  0.00    -0.162 C  
HETATM    8  C   UNL     1      -7.287   6.533  66.653  1.00  0.00    -0.078 C  
BRANCH   7   9
HETATM    9  C   UNL     1     -11.318   6.336  68.742  1.00  0.00    -0.224 C  
BRANCH   9  10
HETATM   10  C   UNL     1     -11.165   6.656  70.241  1.00  0.00    -0.353 C  
BRANCH  10  11
HETATM   11  C   UNL     1      -9.718   6.412  70.726  1.00  0.00    -0.197 C  
HETATM   12  C   UNL     1      -9.927   3.918  71.273  1.00  0.00    -0.183 C  
HETATM   13  C   UNL     1      -9.540   5.304  71.789  1.00  0.00    -0.192 C  
HETATM   14  C   UNL     1      -8.075   5.267  72.250  1.00  0.00    -0.110 C  
ENDBRANCH  10  11
BRANCH  10  15
HETATM   15  O   UNL     1     -11.452   8.047  70.439  1.00  0.00    -0.241 OA 
HETATM   16  O   UNL     1     -13.667   8.209  71.593  1.00  0.00    -0.352 OA 
HETATM   17  O   UNL     1     -11.522   8.121  72.939  1.00  0.00    -0.389 OA 
HETATM   18  S   UNL     1     -12.260   8.520  71.769  1.00  0.00    -0.358 S  
HETATM   19  O   UNL     1     -12.195  10.124  71.653  1.00  0.00    -0.382 OA 
ENDBRANCH  10  15
ENDBRANCH   9  10
ENDBRANCH   7   9
ENDBRANCH   3   4
ENDBRANCH   2   3
TORSDOF 6
ENDMDL
MODEL      205
REMARK 921   NORMALIZED FREE ENERGY PREDICTED BY IDOCK:   -3.51 KCAL/MOL
REMARK 922        TOTAL FREE ENERGY PREDICTED BY IDOCK:   -5.50 KCAL/MOL
REMARK 923 INTER-LIGAND FREE ENERGY PREDICTED BY IDOCK:   -5.49 KCAL/MOL
REMARK 924 INTRA-LIGAND FREE ENERGY PREDICTED BY IDOCK:   -0.02 KCAL/MOL
REMARK 927      BINDING AFFINITY PREDICTED BY RF-SCORE:    0.00 PKD
ROOT
HETATM    1  C   UNL     1      -5.381  12.273  67.255  1.00  0.00    -0.099 C  
HETATM    2  C   UNL     1      -5.960  11.029  66.598  1.00  0.00    -0.114 C  
ENDROOT
BRANCH   2   3
HETATM    3  C   UNL     1      -6.935  10.319  67.539  1.00  0.00    -0.085 C  
BRANCH   3   4
HETATM    4  C   UNL     1      -8.257  11.082  67.658  1.00  0.00    -0.117 C  
HETATM    5  C   UNL     1      -9.108  11.089  66.361  1.00  0.00    -0.191 C  
HETATM    6  C   UNL     1      -9.415   9.679  65.813  1.00  0.00    -0.308 C  
HETATM    7  C   UNL     1     -10.419  11.892  66.552  1.00  0.00    -0.256 C  
HETATM    8  C   UNL     1     -10.318   8.827  66.696  1.00  0.00    -0.298 C  
BRANCH   7   9
HETATM    9  C   UNL     1     -10.155  13.365  66.865  1.00  0.00    -0.255 C  
BRANCH   9  10
HETATM   10  C   UNL     1     -11.393  14.237  67.150  1.00  0.00    -0.337 C  
BRANCH  10  11
HETATM   11  C   UNL     1     -11.250  15.000  68.487  1.00  0.00    -0.298 C  
HETATM   12  C   UNL     1     -12.011  13.130  70.064  1.00  0.00    -0.391 C  
HETATM   13  C   UNL     1     -12.219  14.576  69.613  1.00  0.00    -0.336 C  
HETATM   14  C   UNL     1     -12.033  15.501  70.825  1.00  0.00    -0.420 C  
ENDBRANCH  10  11
BRANCH  10  15
HETATM   15  O   UNL     1     -11.507  15.217  66.109  1.00  0.00    -0.285 OA 
HETATM   16  O   UNL     1     -10.893  17.438  67.085  1.00  0.00    -0.238 OA 
HETATM   17  O   UNL     1      -9.131  15.989  65.983  1.00  0.00    -0.331 OA 
HETATM   18  S   UNL     1     -10.481  16.478  66.077  1.00  0.00    -0.274 S  
HETATM   19  O   UNL     1     -10.860  17.188  64.682  1.00  0.00    -0.852 OA 
ENDBRANCH  10  15
ENDBRANCH   9  10
ENDBRANCH   7   9
ENDBRANCH   3   4
ENDBRANCH   2   3
TORSDOF 6
ENDMDL
MODEL      206
REMARK 921   NORMALIZED FREE ENERGY PREDICTED BY IDOCK:   -3.51 KCAL/MOL
REMARK 922        TOTAL FREE ENERGY PREDICTED BY IDOCK:   -5.50 KCAL/MOL
REMARK 923 INTER-LIGAND FREE ENERGY PREDICTED BY IDOCK:   -4.66 KCAL/MOL
REMARK 924 INTRA-LIGAND FREE ENERGY PREDICTED BY IDOCK:   -0.84 KCAL/MOL
REMARK 927      BINDING AFFINITY PREDICTED BY RF-SCORE:    0.00 PKD
ROOT
HETATM    1  C   UNL     1     -11.690  12.478  63.831  1.00  0.00    -0.530 C  
HETATM    2  C   UNL     1     -12.333  13.846  64.001  1.00  0.00    -0.355 C  
ENDROOT
BRANCH   2   3
HETATM    3  C   UNL     1     -11.902  14.493  65.319  1.00  0.00    -0.358 C  
BRANCH   3   4
HETATM    4  C   UNL     1     -11.450  13.443  66.337  1.00  0.00    -0.359 C  
HETATM    5  C   UNL     1     -10.326  13.924  67.292  1.00  0.00    -0.257 C  
HETATM    6  C   UNL     1     -10.674  15.219  68.058  1.00  0.00    -0.268 C  
HETATM    7  C   UNL     1      -9.910  12.807  68.281  1.00  0.00    -0.224 C  
HETATM    8  C   UNL     1     -11.811  15.087  69.063  1.00  0.00    -0.330 C  
BRANCH   7   9
HETATM    9  C   UNL     1      -9.332  11.586  67.565  1.00  0.00    -0.166 C  
BRANCH   9  10
HETATM   10  C   UNL     1      -9.376  10.253  68.337  1.00  0.00    -0.143 C  
BRANCH  10  11
HETATM   11  C   UNL     1     -10.204   9.190  67.582  1.00  0.00    -0.293 C  
HETATM   12  C   UNL     1     -10.964   7.809  69.602  1.00  0.00    -0.128 C  
HETATM   13  C   UNL     1     -10.269   7.793  68.239  1.00  0.00    -0.236 C  
HETATM   14  C   UNL     1     -11.023   6.825  67.314  1.00  0.00    -0.433 C  
ENDBRANCH  10  11
BRANCH  10  15
HETATM   15  O   UNL     1      -8.038   9.751  68.451  1.00  0.00    -0.102 OA 
HETATM   16  O   UNL     1      -6.822  11.193  70.096  1.00  0.00    -0.159 OA 
HETATM   17  O   UNL     1      -8.025   9.101  70.866  1.00  0.00    -0.153 OA 
HETATM   18  S   UNL     1      -7.269   9.829  69.882  1.00  0.00    -0.134 S  
HETATM   19  O   UNL     1      -5.912   9.014  69.582  1.00  0.00    -0.032 OA 
ENDBRANCH  10  15
ENDBRANCH   9  10
ENDBRANCH   7   9
ENDBRANCH   3   4
ENDBRANCH   2   3
TORSDOF 6
ENDMDL
MODEL      207
REMARK 921   NORMALIZED FREE ENERGY PREDICTED BY IDOCK:   -3.51 KCAL/MOL
REMARK 922        TOTAL FREE ENERGY PREDICTED BY IDOCK:   -5.50 KCAL/MOL
REMARK 923 INTER-LIGAND FREE ENERGY PREDICTED BY IDOCK:   -5.54 KCAL/MOL
REMARK 924 INTRA-LIGAND FREE ENERGY PREDICTED BY IDOCK:    0.03 KCAL/MOL
REMARK 927      BINDING AFFINITY PREDICTED BY RF-SCORE:    0.00 PKD
ROOT
HETATM    1  C   UNL     1      -9.916   6.171  71.775  1.00  0.00    -0.197 C  
HETATM    2  C   UNL     1     -11.132   7.084  71.800  1.00  0.00    -0.270 C  
ENDROOT
BRANCH   2   3
HETATM    3  C   UNL     1     -10.776   8.452  72.384  1.00  0.00    -0.405 C  
BRANCH   3   4
HETATM    4  C   UNL     1     -10.600   9.503  71.284  1.00  0.00    -0.358 C  
HETATM    5  C   UNL     1     -11.827   9.660  70.350  1.00  0.00    -0.219 C  
HETATM    6  C   UNL     1     -13.143   9.965  71.100  1.00  0.00    -0.453 C  
HETATM    7  C   UNL     1     -11.571  10.725  69.255  1.00  0.00    -0.376 C  
HETATM    8  C   UNL     1     -13.188  11.319  71.797  1.00  0.00    -0.480 C  
BRANCH   7   9
HETATM    9  C   UNL     1     -10.414  10.340  68.333  1.00  0.00    -0.228 C  
BRANCH   9  10
HETATM   10  C   UNL     1     -10.763  10.126  66.848  1.00  0.00    -0.161 C  
BRANCH  10  11
HETATM   11  C   UNL     1     -10.182  11.252  65.963  1.00  0.00    -0.295 C  
HETATM   12  C   UNL     1     -12.310  12.655  65.704  1.00  0.00    -0.390 C  
HETATM   13  C   UNL     1     -11.174  11.923  64.987  1.00  0.00    -0.350 C  
HETATM   14  C   UNL     1     -10.421  12.929  64.103  1.00  0.00    -0.429 C  
ENDBRANCH  10  11
BRANCH  10  15
HETATM   15  O   UNL     1     -10.170   8.894  66.416  1.00  0.00    -0.283 OA 
HETATM   16  O   UNL     1      -8.962   9.343  64.270  1.00  0.00    -0.219 OA 
HETATM   17  O   UNL     1      -7.752   9.531  66.488  1.00  0.00    -0.097 OA 
HETATM   18  S   UNL     1      -8.741   8.918  65.641  1.00  0.00    -0.192 S  
HETATM   19  O   UNL     1      -8.397   7.350  65.515  1.00  0.00    -0.134 OA 
ENDBRANCH  10  15
ENDBRANCH   9  10
ENDBRANCH   7   9
ENDBRANCH   3   4
ENDBRANCH   2   3
TORSDOF 6
ENDMDL
MODEL      208
REMARK 921   NORMALIZED FREE ENERGY PREDICTED BY IDOCK:   -3.49 KCAL/MOL
REMARK 922        TOTAL FREE ENERGY PREDICTED BY IDOCK:   -5.48 KCAL/MOL
REMARK 923 INTER-LIGAND FREE ENERGY PREDICTED BY IDOCK:   -5.47 KCAL/MOL
REMARK 924 INTRA-LIGAND FREE ENERGY PREDICTED BY IDOCK:   -0.01 KCAL/MOL
REMARK 927      BINDING AFFINITY PREDICTED BY RF-SCORE:    0.00 PKD
ROOT
HETATM    1  C   UNL     1     -10.775  12.239  63.628  1.00  0.00    -0.513 C  
HETATM    2  C   UNL     1     -10.030  10.937  63.378  1.00  0.00    -0.414 C  
ENDROOT
BRANCH   2   3
HETATM    3  C   UNL     1      -9.209  10.534  64.605  1.00  0.00    -0.274 C  
BRANCH   3   4
HETATM    4  C   UNL     1      -9.527  11.421  65.810  1.00  0.00    -0.256 C  
HETATM    5  C   UNL     1      -9.035  10.856  67.167  1.00  0.00    -0.141 C  
HETATM    6  C   UNL     1      -7.525  10.533  67.194  1.00  0.00    -0.097 C  
HETATM    7  C   UNL     1      -9.406  11.797  68.340  1.00  0.00    -0.185 C  
HETATM    8  C   UNL     1      -6.605  11.743  67.083  1.00  0.00    -0.143 C  
BRANCH   7   9
HETATM    9  C   UNL     1     -10.919  11.955  68.498  1.00  0.00    -0.277 C  
BRANCH   9  10
HETATM   10  C   UNL     1     -11.434  13.381  68.770  1.00  0.00    -0.305 C  
BRANCH  10  11
HETATM   11  C   UNL     1     -11.880  13.550  70.240  1.00  0.00    -0.327 C  
HETATM   12  C   UNL     1     -12.315  11.083  70.779  1.00  0.00    -0.496 C  
HETATM   13  C   UNL     1     -12.887  12.501  70.764  1.00  0.00    -0.099 C  
HETATM   14  C   UNL     1     -13.319  12.874  72.191  1.00  0.00    -0.615 C  
ENDBRANCH  10  11
BRANCH  10  15
HETATM   15  O   UNL     1     -10.360  14.303  68.542  1.00  0.00    -0.232 OA 
HETATM   16  O   UNL     1     -10.758  15.403  66.329  1.00  0.00    -0.305 OA 
HETATM   17  O   UNL     1     -11.642  16.449  68.460  1.00  0.00    -0.302 OA 
HETATM   18  S   UNL     1     -10.647  15.692  67.747  1.00  0.00    -0.288 S  
HETATM   19  O   UNL     1      -9.237  16.458  67.881  1.00  0.00    -0.200 OA 
ENDBRANCH  10  15
ENDBRANCH   9  10
ENDBRANCH   7   9
ENDBRANCH   3   4
ENDBRANCH   2   3
TORSDOF 6
ENDMDL
MODEL      209
REMARK 921   NORMALIZED FREE ENERGY PREDICTED BY IDOCK:   -3.49 KCAL/MOL
REMARK 922        TOTAL FREE ENERGY PREDICTED BY IDOCK:   -5.47 KCAL/MOL
REMARK 923 INTER-LIGAND FREE ENERGY PREDICTED BY IDOCK:   -4.71 KCAL/MOL
REMARK 924 INTRA-LIGAND FREE ENERGY PREDICTED BY IDOCK:   -0.76 KCAL/MOL
REMARK 927      BINDING AFFINITY PREDICTED BY RF-SCORE:    0.00 PKD
ROOT
HETATM    1  C   UNL     1      -7.517  17.619  68.852  1.00  0.00    -0.227 C  
HETATM    2  C   UNL     1      -8.345  17.347  67.606  1.00  0.00    -0.214 C  
ENDROOT
BRANCH   2   3
HETATM    3  C   UNL     1      -7.804  16.137  66.843  1.00  0.00    -0.283 C  
BRANCH   3   4
HETATM    4  C   UNL     1      -8.461  14.837  67.312  1.00  0.00    -0.234 C  
HETATM    5  C   UNL     1      -7.472  13.662  67.525  1.00  0.00    -0.181 C  
HETATM    6  C   UNL     1      -6.315  13.992  68.494  1.00  0.00    -0.093 C  
HETATM    7  C   UNL     1      -8.209  12.379  67.983  1.00  0.00    -0.168 C  
HETATM    8  C   UNL     1      -6.733  14.228  69.940  1.00  0.00    -0.068 C  
BRANCH   7   9
HETATM    9  C   UNL     1      -9.204  11.879  66.936  1.00  0.00    -0.193 C  
BRANCH   9  10
HETATM   10  C   UNL     1     -10.546  11.340  67.468  1.00  0.00    -0.218 C  
BRANCH  10  11
HETATM   11  C   UNL     1     -11.729  12.227  67.018  1.00  0.00    -0.399 C  
HETATM   12  C   UNL     1     -11.302  12.158  64.492  1.00  0.00    -0.393 C  
HETATM   13  C   UNL     1     -11.507  13.042  65.723  1.00  0.00    -0.367 C  
HETATM   14  C   UNL     1     -12.718  13.955  65.478  1.00  0.00    -0.536 C  
ENDBRANCH  10  11
BRANCH  10  15
HETATM   15  O   UNL     1     -10.760  10.033  66.918  1.00  0.00    -0.212 OA 
HETATM   16  O   UNL     1      -8.745   8.646  67.449  1.00  0.00    -0.132 OA 
HETATM   17  O   UNL     1     -10.735   8.674  69.017  1.00  0.00    -0.198 OA 
HETATM   18  S   UNL     1     -10.174   8.729  67.693  1.00  0.00    -0.254 S  
HETATM   19  O   UNL     1     -10.790   7.517  66.831  1.00  0.00    -0.345 OA 
ENDBRANCH  10  15
ENDBRANCH   9  10
ENDBRANCH   7   9
ENDBRANCH   3   4
ENDBRANCH   2   3
TORSDOF 6
ENDMDL
MODEL      210
REMARK 921   NORMALIZED FREE ENERGY PREDICTED BY IDOCK:   -3.48 KCAL/MOL
REMARK 922        TOTAL FREE ENERGY PREDICTED BY IDOCK:   -5.46 KCAL/MOL
REMARK 923 INTER-LIGAND FREE ENERGY PREDICTED BY IDOCK:   -5.32 KCAL/MOL
REMARK 924 INTRA-LIGAND FREE ENERGY PREDICTED BY IDOCK:   -0.14 KCAL/MOL
REMARK 927      BINDING AFFINITY PREDICTED BY RF-SCORE:    0.00 PKD
ROOT
HETATM    1  C   UNL     1      -9.082   4.684  66.421  1.00  0.00    -0.120 C  
HETATM    2  C   UNL     1     -10.408   5.356  66.100  1.00  0.00    -0.191 C  
ENDROOT
BRANCH   2   3
HETATM    3  C   UNL     1     -10.933   6.134  67.308  1.00  0.00    -0.418 C  
BRANCH   3   4
HETATM    4  C   UNL     1     -10.569   7.618  67.221  1.00  0.00    -0.388 C  
HETATM    5  C   UNL     1     -10.301   8.290  68.592  1.00  0.00    -0.225 C  
HETATM    6  C   UNL     1      -9.217   7.579  69.431  1.00  0.00    -0.149 C  
HETATM    7  C   UNL     1      -9.956   9.791  68.426  1.00  0.00    -0.176 C  
HETATM    8  C   UNL     1      -7.811   7.636  68.849  1.00  0.00    -0.123 C  
BRANCH   7   9
HETATM    9  C   UNL     1     -11.108  10.585  67.810  1.00  0.00    -0.382 C  
BRANCH   9  10
HETATM   10  C   UNL     1     -10.718  11.731  66.857  1.00  0.00    -0.250 C  
BRANCH  10  11
HETATM   11  C   UNL     1      -9.184  11.857  66.723  1.00  0.00    -0.194 C  
HETATM   12  C   UNL     1      -8.850  10.238  64.766  1.00  0.00    -0.217 C  
HETATM   13  C   UNL     1      -8.448  10.606  66.195  1.00  0.00    -0.159 C  
HETATM   14  C   UNL     1      -6.931  10.849  66.233  1.00  0.00    -0.120 C  
ENDBRANCH  10  11
BRANCH  10  15
HETATM   15  O   UNL     1     -11.238  11.433  65.554  1.00  0.00    -0.199 OA 
HETATM   16  O   UNL     1     -13.260  12.863  65.196  1.00  0.00    -0.702 OA 
HETATM   17  O   UNL     1     -10.973  13.668  64.463  1.00  0.00    -0.375 OA 
HETATM   18  S   UNL     1     -11.929  12.613  64.675  1.00  0.00    -0.428 S  
HETATM   19  O   UNL     1     -12.191  11.877  63.266  1.00  0.00    -0.506 OA 
ENDBRANCH  10  15
ENDBRANCH   9  10
ENDBRANCH   7   9
ENDBRANCH   3   4
ENDBRANCH   2   3
TORSDOF 6
ENDMDL
MODEL      211
REMARK 921   NORMALIZED FREE ENERGY PREDICTED BY IDOCK:   -3.47 KCAL/MOL
REMARK 922        TOTAL FREE ENERGY PREDICTED BY IDOCK:   -5.44 KCAL/MOL
REMARK 923 INTER-LIGAND FREE ENERGY PREDICTED BY IDOCK:   -4.65 KCAL/MOL
REMARK 924 INTRA-LIGAND FREE ENERGY PREDICTED BY IDOCK:   -0.79 KCAL/MOL
REMARK 927      BINDING AFFINITY PREDICTED BY RF-SCORE:    0.00 PKD
ROOT
HETATM    1  C   UNL     1     -12.487  15.508  70.495  1.00  0.00    -0.472 C  
HETATM    2  C   UNL     1     -11.130  15.655  69.824  1.00  0.00    -0.315 C  
ENDROOT
BRANCH   2   3
HETATM    3  C   UNL     1     -11.283  15.817  68.311  1.00  0.00    -0.356 C  
BRANCH   3   4
HETATM    4  C   UNL     1     -10.491  14.751  67.549  1.00  0.00    -0.245 C  
HETATM    5  C   UNL     1     -11.366  13.651  66.895  1.00  0.00    -0.345 C  
HETATM    6  C   UNL     1     -12.456  14.204  65.951  1.00  0.00    -0.479 C  
HETATM    7  C   UNL     1     -10.496  12.602  66.159  1.00  0.00    -0.278 C  
HETATM    8  C   UNL     1     -11.933  14.885  64.692  1.00  0.00    -0.407 C  
BRANCH   7   9
HETATM    9  C   UNL     1      -9.561  11.855  67.110  1.00  0.00    -0.192 C  
BRANCH   9  10
HETATM   10  C   UNL     1      -9.019  10.501  66.615  1.00  0.00    -0.141 C  
BRANCH  10  11
HETATM   11  C   UNL     1      -7.868  10.689  65.601  1.00  0.00    -0.123 C  
HETATM   12  C   UNL     1      -9.241  10.495  63.446  1.00  0.00    -0.299 C  
HETATM   13  C   UNL     1      -8.044   9.974  64.242  1.00  0.00    -0.156 C  
HETATM   14  C   UNL     1      -6.773  10.159  63.398  1.00  0.00    -0.128 C  
ENDBRANCH  10  11
BRANCH  10  15
HETATM   15  O   UNL     1      -8.484   9.789  67.740  1.00  0.00    -0.120 OA 
HETATM   16  O   UNL     1     -10.403   8.746  68.962  1.00  0.00    -0.207 OA 
HETATM   17  O   UNL     1      -9.185   7.461  67.149  1.00  0.00    -0.128 OA 
HETATM   18  S   UNL     1      -9.195   8.411  68.231  1.00  0.00    -0.134 S  
HETATM   19  O   UNL     1      -8.179   7.893  69.368  1.00  0.00    -0.126 OA 
ENDBRANCH  10  15
ENDBRANCH   9  10
ENDBRANCH   7   9
ENDBRANCH   3   4
ENDBRANCH   2   3
TORSDOF 6
ENDMDL
MODEL      212
REMARK 921   NORMALIZED FREE ENERGY PREDICTED BY IDOCK:   -3.46 KCAL/MOL
REMARK 922        TOTAL FREE ENERGY PREDICTED BY IDOCK:   -5.44 KCAL/MOL
REMARK 923 INTER-LIGAND FREE ENERGY PREDICTED BY IDOCK:   -4.99 KCAL/MOL
REMARK 924 INTRA-LIGAND FREE ENERGY PREDICTED BY IDOCK:   -0.45 KCAL/MOL
REMARK 927      BINDING AFFINITY PREDICTED BY RF-SCORE:    0.00 PKD
ROOT
HETATM    1  C   UNL     1      -8.990   9.099  64.443  1.00  0.00    -0.104 C  
HETATM    2  C   UNL     1      -7.693   9.880  64.588  1.00  0.00    -0.142 C  
ENDROOT
BRANCH   2   3
HETATM    3  C   UNL     1      -7.231   9.907  66.046  1.00  0.00    -0.106 C  
BRANCH   3   4
HETATM    4  C   UNL     1      -7.505  11.265  66.696  1.00  0.00    -0.133 C  
HETATM    5  C   UNL     1      -9.000  11.536  67.003  1.00  0.00    -0.174 C  
HETATM    6  C   UNL     1      -9.663  10.445  67.872  1.00  0.00    -0.168 C  
HETATM    7  C   UNL     1      -9.202  12.932  67.643  1.00  0.00    -0.193 C  
HETATM    8  C   UNL     1      -9.133  10.347  69.297  1.00  0.00    -0.188 C  
BRANCH   7   9
HETATM    9  C   UNL     1      -8.775  14.064  66.708  1.00  0.00    -0.134 C  
BRANCH   9  10
HETATM   10  C   UNL     1      -9.865  15.082  66.322  1.00  0.00    -0.285 C  
BRANCH  10  11
HETATM   11  C   UNL     1     -10.543  14.704  64.986  1.00  0.00    -0.461 C  
HETATM   12  C   UNL     1     -12.517  13.376  65.936  1.00  0.00    -0.468 C  
HETATM   13  C   UNL     1     -11.324  13.371  64.979  1.00  0.00    -0.330 C  
HETATM   14  C   UNL     1     -11.834  13.083  63.559  1.00  0.00    -0.582 C  
ENDBRANCH  10  11
BRANCH  10  15
HETATM   15  O   UNL     1     -10.879  15.066  67.335  1.00  0.00    -0.290 OA 
HETATM   16  O   UNL     1      -9.819  15.789  69.484  1.00  0.00    -0.259 OA 
HETATM   17  O   UNL     1     -10.909  17.489  67.955  1.00  0.00    -0.374 OA 
HETATM   18  S   UNL     1     -10.842  16.171  68.528  1.00  0.00    -0.330 S  
HETATM   19  O   UNL     1     -12.226  15.884  69.299  1.00  0.00    -0.273 OA 
ENDBRANCH  10  15
ENDBRANCH   9  10
ENDBRANCH   7   9
ENDBRANCH   3   4
ENDBRANCH   2   3
TORSDOF 6
ENDMDL
MODEL      213
REMARK 921   NORMALIZED FREE ENERGY PREDICTED BY IDOCK:   -3.45 KCAL/MOL
REMARK 922        TOTAL FREE ENERGY PREDICTED BY IDOCK:   -5.42 KCAL/MOL
REMARK 923 INTER-LIGAND FREE ENERGY PREDICTED BY IDOCK:   -4.95 KCAL/MOL
REMARK 924 INTRA-LIGAND FREE ENERGY PREDICTED BY IDOCK:   -0.47 KCAL/MOL
REMARK 927      BINDING AFFINITY PREDICTED BY RF-SCORE:    0.00 PKD
ROOT
HETATM    1  C   UNL     1     -10.544  12.660  63.928  1.00  0.00    -0.460 C  
HETATM    2  C   UNL     1     -11.025  11.244  64.204  1.00  0.00    -0.376 C  
ENDROOT
BRANCH   2   3
HETATM    3  C   UNL     1      -9.854  10.332  64.577  1.00  0.00    -0.384 C  
BRANCH   3   4
HETATM    4  C   UNL     1      -9.743  10.155  66.093  1.00  0.00    -0.275 C  
HETATM    5  C   UNL     1      -9.355   8.722  66.541  1.00  0.00    -0.260 C  
HETATM    6  C   UNL     1      -8.049   8.203  65.900  1.00  0.00    -0.115 C  
HETATM    7  C   UNL     1      -9.277   8.615  68.085  1.00  0.00    -0.142 C  
HETATM    8  C   UNL     1      -6.786   8.943  66.320  1.00  0.00    -0.074 C  
BRANCH   7   9
HETATM    9  C   UNL     1     -10.624   8.891  68.753  1.00  0.00    -0.185 C  
BRANCH   9  10
HETATM   10  C   UNL     1     -10.663   8.782  70.289  1.00  0.00    -0.227 C  
BRANCH  10  11
HETATM   11  C   UNL     1      -9.269   8.450  70.867  1.00  0.00    -0.192 C  
HETATM   12  C   UNL     1     -10.027   7.102  72.909  1.00  0.00    -0.233 C  
HETATM   13  C   UNL     1      -9.197   8.282  72.401  1.00  0.00    -0.326 C  
HETATM   14  C   UNL     1      -7.735   8.075  72.827  1.00  0.00    -0.169 C  
ENDBRANCH  10  11
BRANCH  10  15
HETATM   15  O   UNL     1     -11.054  10.054  70.824  1.00  0.00    -0.311 OA 
HETATM   16  O   UNL     1     -12.900  10.947  69.388  1.00  0.00    -0.201 OA 
HETATM   17  O   UNL     1     -13.427   9.552  71.436  1.00  0.00    -0.374 OA 
HETATM   18  S   UNL     1     -12.612  10.515  70.743  1.00  0.00    -0.396 S  
HETATM   19  O   UNL     1     -12.606  11.880  71.597  1.00  0.00    -0.248 OA 
ENDBRANCH  10  15
ENDBRANCH   9  10
ENDBRANCH   7   9
ENDBRANCH   3   4
ENDBRANCH   2   3
TORSDOF 6
ENDMDL
MODEL      214
REMARK 921   NORMALIZED FREE ENERGY PREDICTED BY IDOCK:   -3.44 KCAL/MOL
REMARK 922        TOTAL FREE ENERGY PREDICTED BY IDOCK:   -5.41 KCAL/MOL
REMARK 923 INTER-LIGAND FREE ENERGY PREDICTED BY IDOCK:   -4.76 KCAL/MOL
REMARK 924 INTRA-LIGAND FREE ENERGY PREDICTED BY IDOCK:   -0.65 KCAL/MOL
REMARK 927      BINDING AFFINITY PREDICTED BY RF-SCORE:    0.00 PKD
ROOT
HETATM    1  C   UNL     1     -11.772   6.490  70.547  1.00  0.00    -0.438 C  
HETATM    2  C   UNL     1     -10.882   7.101  69.476  1.00  0.00    -0.244 C  
ENDROOT
BRANCH   2   3
HETATM    3  C   UNL     1     -10.956   6.295  68.178  1.00  0.00    -0.412 C  
BRANCH   3   4
HETATM    4  C   UNL     1     -10.563   7.144  66.966  1.00  0.00    -0.413 C  
HETATM    5  C   UNL     1      -9.214   7.892  67.122  1.00  0.00    -0.175 C  
HETATM    6  C   UNL     1      -8.027   6.966  67.465  1.00  0.00    -0.112 C  
HETATM    7  C   UNL     1      -8.891   8.740  65.867  1.00  0.00    -0.222 C  
HETATM    8  C   UNL     1      -7.638   5.983  66.368  1.00  0.00    -0.094 C  
BRANCH   7   9
HETATM    9  C   UNL     1      -9.930   9.836  65.627  1.00  0.00    -0.352 C  
BRANCH   9  10
HETATM   10  C   UNL     1      -9.597  11.232  66.186  1.00  0.00    -0.214 C  
BRANCH  10  11
HETATM   11  C   UNL     1     -10.875  12.069  66.415  1.00  0.00    -0.314 C  
HETATM   12  C   UNL     1     -10.315  14.031  64.866  1.00  0.00    -0.434 C  
HETATM   13  C   UNL     1     -10.713  13.600  66.278  1.00  0.00    -0.285 C  
HETATM   14  C   UNL     1     -12.034  14.291  66.650  1.00  0.00    -0.454 C  
ENDBRANCH  10  11
BRANCH  10  15
HETATM   15  O   UNL     1      -8.959  11.069  67.460  1.00  0.00    -0.137 OA 
HETATM   16  O   UNL     1      -6.500  10.835  67.055  1.00  0.00    -0.072 OA 
HETATM   17  O   UNL     1      -7.519  13.114  67.486  1.00  0.00    -0.149 OA 
HETATM   18  S   UNL     1      -7.476  11.692  67.703  1.00  0.00    -0.126 S  
HETATM   19  O   UNL     1      -7.250  11.426  69.275  1.00  0.00    -0.118 OA 
ENDBRANCH  10  15
ENDBRANCH   9  10
ENDBRANCH   7   9
ENDBRANCH   3   4
ENDBRANCH   2   3
TORSDOF 6
ENDMDL
MODEL      215
REMARK 921   NORMALIZED FREE ENERGY PREDICTED BY IDOCK:   -3.44 KCAL/MOL
REMARK 922        TOTAL FREE ENERGY PREDICTED BY IDOCK:   -5.41 KCAL/MOL
REMARK 923 INTER-LIGAND FREE ENERGY PREDICTED BY IDOCK:   -4.53 KCAL/MOL
REMARK 924 INTRA-LIGAND FREE ENERGY PREDICTED BY IDOCK:   -0.87 KCAL/MOL
REMARK 927      BINDING AFFINITY PREDICTED BY RF-SCORE:    0.00 PKD
ROOT
HETATM    1  C   UNL     1     -11.298  12.600  67.743  1.00  0.00    -0.349 C  
HETATM    2  C   UNL     1     -11.386  12.358  69.242  1.00  0.00    -0.315 C  
ENDROOT
BRANCH   2   3
HETATM    3  C   UNL     1     -12.394  11.252  69.560  1.00  0.00    -0.243 C  
BRANCH   3   4
HETATM    4  C   UNL     1     -11.700   9.997  70.096  1.00  0.00    -0.285 C  
HETATM    5  C   UNL     1     -11.860   9.784  71.623  1.00  0.00    -0.429 C  
HETATM    6  C   UNL     1     -13.331   9.758  72.096  1.00  0.00    -0.527 C  
HETATM    7  C   UNL     1     -11.120   8.508  72.095  1.00  0.00    -0.436 C  
HETATM    8  C   UNL     1     -14.148   8.574  71.594  1.00  0.00    -0.482 C  
BRANCH   7   9
HETATM    9  C   UNL     1      -9.612   8.594  71.860  1.00  0.00    -0.377 C  
BRANCH   9  10
HETATM   10  C   UNL     1      -9.037   7.688  70.754  1.00  0.00    -0.153 C  
BRANCH  10  11
HETATM   11  C   UNL     1      -8.376   8.519  69.631  1.00  0.00    -0.121 C  
HETATM   12  C   UNL     1      -8.863   6.943  67.670  1.00  0.00    -0.118 C  
HETATM   13  C   UNL     1      -7.794   7.712  68.448  1.00  0.00    -0.121 C  
HETATM   14  C   UNL     1      -7.072   8.665  67.483  1.00  0.00    -0.080 C  
ENDBRANCH  10  11
BRANCH  10  15
HETATM   15  O   UNL     1      -8.018   6.860  71.330  1.00  0.00    -0.106 OA 
HETATM   16  O   UNL     1      -9.131   5.278  72.919  1.00  0.00    -0.123 OA 
HETATM   17  O   UNL     1      -8.763   4.621  70.500  1.00  0.00    -0.097 OA 
HETATM   18  S   UNL     1      -8.352   5.311  71.694  1.00  0.00    -0.119 S  
HETATM   19  O   UNL     1      -6.909   4.747  72.133  1.00  0.00    -0.051 OA 
ENDBRANCH  10  15
ENDBRANCH   9  10
ENDBRANCH   7   9
ENDBRANCH   3   4
ENDBRANCH   2   3
TORSDOF 6
ENDMDL
MODEL      216
REMARK 921   NORMALIZED FREE ENERGY PREDICTED BY IDOCK:   -3.43 KCAL/MOL
REMARK 922        TOTAL FREE ENERGY PREDICTED BY IDOCK:   -5.39 KCAL/MOL
REMARK 923 INTER-LIGAND FREE ENERGY PREDICTED BY IDOCK:   -4.86 KCAL/MOL
REMARK 924 INTRA-LIGAND FREE ENERGY PREDICTED BY IDOCK:   -0.53 KCAL/MOL
REMARK 927      BINDING AFFINITY PREDICTED BY RF-SCORE:    0.00 PKD
ROOT
HETATM    1  C   UNL     1     -11.387   6.640  69.889  1.00  0.00    -0.422 C  
HETATM    2  C   UNL     1     -10.351   5.825  69.131  1.00  0.00    -0.316 C  
ENDROOT
BRANCH   2   3
HETATM    3  C   UNL     1     -10.843   5.493  67.721  1.00  0.00    -0.078 C  
BRANCH   3   4
HETATM    4  C   UNL     1     -10.628   6.665  66.760  1.00  0.00    -0.315 C  
HETATM    5  C   UNL     1      -9.170   7.191  66.712  1.00  0.00    -0.188 C  
HETATM    6  C   UNL     1      -8.128   6.100  66.379  1.00  0.00    -0.111 C  
HETATM    7  C   UNL     1      -9.033   8.384  65.733  1.00  0.00    -0.207 C  
HETATM    8  C   UNL     1      -8.228   5.520  64.975  1.00  0.00    -0.139 C  
BRANCH   7   9
HETATM    9  C   UNL     1      -9.876   9.584  66.163  1.00  0.00    -0.343 C  
BRANCH   9  10
HETATM   10  C   UNL     1      -9.790   9.987  67.648  1.00  0.00    -0.162 C  
BRANCH  10  11
HETATM   11  C   UNL     1      -8.395   9.676  68.237  1.00  0.00    -0.117 C  
HETATM   12  C   UNL     1      -9.112   9.193  70.649  1.00  0.00    -0.307 C  
HETATM   13  C   UNL     1      -8.204  10.014  69.733  1.00  0.00    -0.191 C  
HETATM   14  C   UNL     1      -6.742   9.760  70.133  1.00  0.00    -0.100 C  
ENDBRANCH  10  11
BRANCH  10  15
HETATM   15  O   UNL     1      -9.988  11.404  67.746  1.00  0.00    -0.173 OA 
HETATM   16  O   UNL     1     -11.980  11.991  66.348  1.00  0.00    -0.611 OA 
HETATM   17  O   UNL     1     -12.252  11.449  68.808  1.00  0.00    -0.502 OA 
HETATM   18  S   UNL     1     -11.498  12.008  67.717  1.00  0.00    -0.329 S  
HETATM   19  O   UNL     1     -11.244  13.568  68.024  1.00  0.00    -0.250 OA 
ENDBRANCH  10  15
ENDBRANCH   9  10
ENDBRANCH   7   9
ENDBRANCH   3   4
ENDBRANCH   2   3
TORSDOF 6
ENDMDL
MODEL      217
REMARK 921   NORMALIZED FREE ENERGY PREDICTED BY IDOCK:   -3.42 KCAL/MOL
REMARK 922        TOTAL FREE ENERGY PREDICTED BY IDOCK:   -5.38 KCAL/MOL
REMARK 923 INTER-LIGAND FREE ENERGY PREDICTED BY IDOCK:   -4.88 KCAL/MOL
REMARK 924 INTRA-LIGAND FREE ENERGY PREDICTED BY IDOCK:   -0.50 KCAL/MOL
REMARK 927      BINDING AFFINITY PREDICTED BY RF-SCORE:    0.00 PKD
ROOT
HETATM    1  C   UNL     1      -7.292   5.696  67.284  1.00  0.00    -0.077 C  
HETATM    2  C   UNL     1      -6.761   7.107  67.084  1.00  0.00    -0.067 C  
ENDROOT
BRANCH   2   3
HETATM    3  C   UNL     1      -7.726   7.938  66.234  1.00  0.00    -0.092 C  
BRANCH   3   4
HETATM    4  C   UNL     1      -8.551   8.896  67.097  1.00  0.00    -0.112 C  
HETATM    5  C   UNL     1     -10.085   8.743  66.931  1.00  0.00    -0.348 C  
HETATM    6  C   UNL     1     -10.597   7.308  67.184  1.00  0.00    -0.416 C  
HETATM    7  C   UNL     1     -10.852   9.754  67.820  1.00  0.00    -0.306 C  
HETATM    8  C   UNL     1     -10.454   6.816  68.618  1.00  0.00    -0.232 C  
BRANCH   7   9
HETATM    9  C   UNL     1     -10.551  11.204  67.439  1.00  0.00    -0.272 C  
BRANCH   9  10
HETATM   10  C   UNL     1     -11.381  12.287  68.154  1.00  0.00    -0.295 C  
BRANCH  10  11
HETATM   11  C   UNL     1     -12.241  11.682  69.287  1.00  0.00    -0.228 C  
HETATM   12  C   UNL     1     -12.604  13.818  70.655  1.00  0.00    -0.386 C  
HETATM   13  C   UNL     1     -12.118  12.368  70.666  1.00  0.00    -0.317 C  
HETATM   14  C   UNL     1     -12.936  11.584  71.704  1.00  0.00    -0.499 C  
ENDBRANCH  10  11
BRANCH  10  15
HETATM   15  O   UNL     1     -10.479  13.224  68.757  1.00  0.00    -0.232 OA 
HETATM   16  O   UNL     1      -9.192  14.331  66.917  1.00  0.00    -0.233 OA 
HETATM   17  O   UNL     1     -11.348  15.353  67.771  1.00  0.00    -0.328 OA 
HETATM   18  S   UNL     1     -10.132  14.614  67.987  1.00  0.00    -0.231 S  
HETATM   19  O   UNL     1      -9.252  15.398  69.084  1.00  0.00    -0.209 OA 
ENDBRANCH  10  15
ENDBRANCH   9  10
ENDBRANCH   7   9
ENDBRANCH   3   4
ENDBRANCH   2   3
TORSDOF 6
ENDMDL
MODEL      218
REMARK 921   NORMALIZED FREE ENERGY PREDICTED BY IDOCK:   -3.39 KCAL/MOL
REMARK 922        TOTAL FREE ENERGY PREDICTED BY IDOCK:   -5.34 KCAL/MOL
REMARK 923 INTER-LIGAND FREE ENERGY PREDICTED BY IDOCK:   -4.79 KCAL/MOL
REMARK 924 INTRA-LIGAND FREE ENERGY PREDICTED BY IDOCK:   -0.55 KCAL/MOL
REMARK 927      BINDING AFFINITY PREDICTED BY RF-SCORE:    0.00 PKD
ROOT
HETATM    1  C   UNL     1     -10.881   6.177  66.878  1.00  0.00    -0.411 C  
HETATM    2  C   UNL     1     -10.621   5.518  68.225  1.00  0.00    -0.207 C  
ENDROOT
BRANCH   2   3
HETATM    3  C   UNL     1     -11.081   6.421  69.371  1.00  0.00    -0.450 C  
BRANCH   3   4
HETATM    4  C   UNL     1     -10.462   7.817  69.270  1.00  0.00    -0.221 C  
HETATM    5  C   UNL     1     -11.203   8.905  70.089  1.00  0.00    -0.175 C  
HETATM    6  C   UNL     1     -11.359   8.557  71.586  1.00  0.00    -0.362 C  
HETATM    7  C   UNL     1     -10.531  10.291  69.925  1.00  0.00    -0.304 C  
HETATM    8  C   UNL     1     -10.056   8.500  72.373  1.00  0.00    -0.365 C  
BRANCH   7   9
HETATM    9  C   UNL     1     -10.570  10.785  68.478  1.00  0.00    -0.223 C  
BRANCH   9  10
HETATM   10  C   UNL     1      -9.276  11.423  67.937  1.00  0.00    -0.164 C  
BRANCH  10  11
HETATM   11  C   UNL     1      -8.332  10.360  67.333  1.00  0.00    -0.121 C  
HETATM   12  C   UNL     1      -6.988   9.814  69.445  1.00  0.00    -0.059 C  
HETATM   13  C   UNL     1      -6.933  10.252  67.981  1.00  0.00    -0.082 C  
HETATM   14  C   UNL     1      -6.080   9.243  67.197  1.00  0.00    -0.057 C  
ENDBRANCH  10  11
BRANCH  10  15
HETATM   15  O   UNL     1      -9.625  12.332  66.885  1.00  0.00    -0.202 OA 
HETATM   16  O   UNL     1     -12.123  12.467  66.794  1.00  0.00    -0.578 OA 
HETATM   17  O   UNL     1     -10.800  14.097  68.212  1.00  0.00    -0.237 OA 
HETATM   18  S   UNL     1     -10.942  13.274  67.040  1.00  0.00    -0.280 S  
HETATM   19  O   UNL     1     -10.836  14.220  65.741  1.00  0.00    -0.291 OA 
ENDBRANCH  10  15
ENDBRANCH   9  10
ENDBRANCH   7   9
ENDBRANCH   3   4
ENDBRANCH   2   3
TORSDOF 6
ENDMDL
MODEL      219
REMARK 921   NORMALIZED FREE ENERGY PREDICTED BY IDOCK:   -3.39 KCAL/MOL
REMARK 922        TOTAL FREE ENERGY PREDICTED BY IDOCK:   -5.34 KCAL/MOL
REMARK 923 INTER-LIGAND FREE ENERGY PREDICTED BY IDOCK:   -4.43 KCAL/MOL
REMARK 924 INTRA-LIGAND FREE ENERGY PREDICTED BY IDOCK:   -0.91 KCAL/MOL
REMARK 927      BINDING AFFINITY PREDICTED BY RF-SCORE:    0.00 PKD
ROOT
HETATM    1  C   UNL     1      -7.483   7.365  63.968  1.00  0.00    -0.100 C  
HETATM    2  C   UNL     1      -8.255   6.127  64.399  1.00  0.00    -0.063 C  
ENDROOT
BRANCH   2   3
HETATM    3  C   UNL     1      -8.904   6.338  65.768  1.00  0.00    -0.122 C  
BRANCH   3   4
HETATM    4  C   UNL     1      -8.615   7.737  66.317  1.00  0.00    -0.161 C  
HETATM    5  C   UNL     1      -9.880   8.538  66.720  1.00  0.00    -0.327 C  
HETATM    6  C   UNL     1     -10.785   7.802  67.732  1.00  0.00    -0.197 C  
HETATM    7  C   UNL     1      -9.512   9.946  67.250  1.00  0.00    -0.181 C  
HETATM    8  C   UNL     1     -10.174   7.596  69.112  1.00  0.00    -0.204 C  
BRANCH   7   9
HETATM    9  C   UNL     1      -8.818  10.800  66.189  1.00  0.00    -0.187 C  
BRANCH   9  10
HETATM   10  C   UNL     1      -9.459  12.168  65.884  1.00  0.00    -0.179 C  
BRANCH  10  11
HETATM   11  C   UNL     1     -10.911  12.011  65.379  1.00  0.00    -0.347 C  
HETATM   12  C   UNL     1     -10.393  11.148  63.023  1.00  0.00    -0.217 C  
HETATM   13  C   UNL     1     -11.122  12.200  63.860  1.00  0.00    -0.470 C  
HETATM   14  C   UNL     1     -12.623  12.132  63.538  1.00  0.00    -0.621 C  
ENDBRANCH  10  11
BRANCH  10  15
HETATM   15  O   UNL     1      -9.509  12.926  67.100  1.00  0.00    -0.214 OA 
HETATM   16  O   UNL     1      -7.209  13.807  67.543  1.00  0.00    -0.168 OA 
HETATM   17  O   UNL     1      -8.880  15.184  66.227  1.00  0.00    -0.278 OA 
HETATM   18  S   UNL     1      -8.567  14.240  67.268  1.00  0.00    -0.216 S  
HETATM   19  O   UNL     1      -9.076  14.846  68.670  1.00  0.00    -0.174 OA 
ENDBRANCH  10  15
ENDBRANCH   9  10
ENDBRANCH   7   9
ENDBRANCH   3   4
ENDBRANCH   2   3
TORSDOF 6
ENDMDL
MODEL      220
REMARK 921   NORMALIZED FREE ENERGY PREDICTED BY IDOCK:   -3.39 KCAL/MOL
REMARK 922        TOTAL FREE ENERGY PREDICTED BY IDOCK:   -5.34 KCAL/MOL
REMARK 923 INTER-LIGAND FREE ENERGY PREDICTED BY IDOCK:   -4.88 KCAL/MOL
REMARK 924 INTRA-LIGAND FREE ENERGY PREDICTED BY IDOCK:   -0.45 KCAL/MOL
REMARK 927      BINDING AFFINITY PREDICTED BY RF-SCORE:    0.00 PKD
ROOT
HETATM    1  C   UNL     1     -12.334  15.839  71.173  1.00  0.00    -0.480 C  
HETATM    2  C   UNL     1     -12.163  14.941  72.389  1.00  0.00    -0.411 C  
ENDROOT
BRANCH   2   3
HETATM    3  C   UNL     1     -13.123  13.751  72.329  1.00  0.00    -0.500 C  
BRANCH   3   4
HETATM    4  C   UNL     1     -13.048  13.037  70.977  1.00  0.00    -0.100 C  
HETATM    5  C   UNL     1     -12.331  11.663  71.020  1.00  0.00    -0.405 C  
HETATM    6  C   UNL     1     -12.933  10.681  72.048  1.00  0.00    -0.466 C  
HETATM    7  C   UNL     1     -12.280  11.010  69.617  1.00  0.00    -0.370 C  
HETATM    8  C   UNL     1     -14.349  10.211  71.739  1.00  0.00     0.679 C  
BRANCH   7   9
HETATM    9  C   UNL     1     -11.480  11.847  68.618  1.00  0.00    -0.350 C  
BRANCH   9  10
HETATM   10  C   UNL     1     -10.413  11.098  67.796  1.00  0.00    -0.193 C  
BRANCH  10  11
HETATM   11  C   UNL     1     -10.644   9.571  67.828  1.00  0.00    -0.318 C  
HETATM   12  C   UNL     1      -8.870   8.965  69.574  1.00  0.00    -0.144 C  
HETATM   13  C   UNL     1      -9.407   8.708  68.166  1.00  0.00    -0.145 C  
HETATM   14  C   UNL     1      -9.770   7.220  68.041  1.00  0.00    -0.157 C  
ENDBRANCH  10  11
BRANCH  10  15
HETATM   15  O   UNL     1     -10.518  11.517  66.428  1.00  0.00    -0.233 OA 
HETATM   16  O   UNL     1     -11.962  13.561  66.369  1.00  0.00    -0.374 OA 
HETATM   17  O   UNL     1      -9.447  13.772  66.585  1.00  0.00    -0.267 OA 
HETATM   18  S   UNL     1     -10.616  13.103  66.079  1.00  0.00    -0.285 S  
HETATM   19  O   UNL     1     -10.540  13.100  64.470  1.00  0.00    -0.363 OA 
ENDBRANCH  10  15
ENDBRANCH   9  10
ENDBRANCH   7   9
ENDBRANCH   3   4
ENDBRANCH   2   3
TORSDOF 6
ENDMDL
MODEL      221
REMARK 921   NORMALIZED FREE ENERGY PREDICTED BY IDOCK:   -3.37 KCAL/MOL
REMARK 922        TOTAL FREE ENERGY PREDICTED BY IDOCK:   -5.32 KCAL/MOL
REMARK 923 INTER-LIGAND FREE ENERGY PREDICTED BY IDOCK:   -4.96 KCAL/MOL
REMARK 924 INTRA-LIGAND FREE ENERGY PREDICTED BY IDOCK:   -0.36 KCAL/MOL
REMARK 927      BINDING AFFINITY PREDICTED BY RF-SCORE:    0.00 PKD
ROOT
HETATM    1  C   UNL     1     -13.339  14.838  71.199  1.00  0.00    -0.460 C  
HETATM    2  C   UNL     1     -12.520  13.685  70.640  1.00  0.00    -0.417 C  
ENDROOT
BRANCH   2   3
HETATM    3  C   UNL     1     -12.923  12.361  71.293  1.00  0.00    -0.297 C  
BRANCH   3   4
HETATM    4  C   UNL     1     -12.219  11.173  70.635  1.00  0.00    -0.492 C  
HETATM    5  C   UNL     1     -11.925   9.992  71.596  1.00  0.00    -0.369 C  
HETATM    6  C   UNL     1     -13.177   9.462  72.330  1.00  0.00    -0.528 C  
HETATM    7  C   UNL     1     -11.199   8.836  70.865  1.00  0.00    -0.320 C  
HETATM    8  C   UNL     1     -14.215   8.798  71.434  1.00  0.00    -0.293 C  
BRANCH   7   9
HETATM    9  C   UNL     1      -9.833   9.261  70.325  1.00  0.00    -0.265 C  
BRANCH   9  10
HETATM   10  C   UNL     1      -9.747   9.523  68.809  1.00  0.00    -0.159 C  
BRANCH  10  11
HETATM   11  C   UNL     1      -8.730  10.641  68.486  1.00  0.00    -0.141 C  
HETATM   12  C   UNL     1      -6.601   9.438  69.250  1.00  0.00    -0.048 C  
HETATM   13  C   UNL     1      -7.472  10.688  69.381  1.00  0.00    -0.135 C  
HETATM   14  C   UNL     1      -6.627  11.917  69.013  1.00  0.00    -0.091 C  
ENDBRANCH  10  11
BRANCH  10  15
HETATM   15  O   UNL     1      -9.283   8.326  68.168  1.00  0.00    -0.135 OA 
HETATM   16  O   UNL     1     -11.279   7.145  67.227  1.00  0.00    -0.240 OA 
HETATM   17  O   UNL     1      -9.982   8.800  65.814  1.00  0.00    -0.130 OA 
HETATM   18  S   UNL     1     -10.037   7.786  66.833  1.00  0.00    -0.289 S  
HETATM   19  O   UNL     1      -9.092   6.563  66.382  1.00  0.00    -0.149 OA 
ENDBRANCH  10  15
ENDBRANCH   9  10
ENDBRANCH   7   9
ENDBRANCH   3   4
ENDBRANCH   2   3
TORSDOF 6
ENDMDL
MODEL      222
REMARK 921   NORMALIZED FREE ENERGY PREDICTED BY IDOCK:   -3.37 KCAL/MOL
REMARK 922        TOTAL FREE ENERGY PREDICTED BY IDOCK:   -5.32 KCAL/MOL
REMARK 923 INTER-LIGAND FREE ENERGY PREDICTED BY IDOCK:   -4.05 KCAL/MOL
REMARK 924 INTRA-LIGAND FREE ENERGY PREDICTED BY IDOCK:   -1.27 KCAL/MOL
REMARK 927      BINDING AFFINITY PREDICTED BY RF-SCORE:    0.00 PKD
ROOT
HETATM    1  C   UNL     1      -7.506   7.145  70.830  1.00  0.00    -0.080 C  
HETATM    2  C   UNL     1      -7.207   5.798  70.191  1.00  0.00    -0.072 C  
ENDROOT
BRANCH   2   3
HETATM    3  C   UNL     1      -7.873   5.685  68.818  1.00  0.00    -0.096 C  
BRANCH   3   4
HETATM    4  C   UNL     1      -8.607   6.974  68.442  1.00  0.00    -0.126 C  
HETATM    5  C   UNL     1     -10.071   6.762  67.978  1.00  0.00    -0.183 C  
HETATM    6  C   UNL     1     -10.941   5.995  68.998  1.00  0.00    -0.409 C  
HETATM    7  C   UNL     1     -10.743   8.106  67.600  1.00  0.00    -0.203 C  
HETATM    8  C   UNL     1     -11.200   6.731  70.306  1.00  0.00    -0.385 C  
BRANCH   7   9
HETATM    9  C   UNL     1     -10.046   8.790  66.423  1.00  0.00    -0.313 C  
BRANCH   9  10
HETATM   10  C   UNL     1      -9.352  10.132  66.724  1.00  0.00    -0.160 C  
BRANCH  10  11
HETATM   11  C   UNL     1      -7.891  10.138  66.218  1.00  0.00    -0.113 C  
HETATM   12  C   UNL     1      -6.727  10.592  68.454  1.00  0.00    -0.060 C  
HETATM   13  C   UNL     1      -6.910  11.037  67.002  1.00  0.00    -0.109 C  
HETATM   14  C   UNL     1      -5.539  11.026  66.308  1.00  0.00    -0.139 C  
ENDBRANCH  10  11
BRANCH  10  15
HETATM   15  O   UNL     1     -10.050  11.170  66.024  1.00  0.00    -0.227 OA 
HETATM   16  O   UNL     1     -12.097  11.736  67.349  1.00  0.00    -0.595 OA 
HETATM   17  O   UNL     1      -9.932  12.995  67.730  1.00  0.00    -0.216 OA 
HETATM   18  S   UNL     1     -10.853  12.307  66.865  1.00  0.00    -0.263 S  
HETATM   19  O   UNL     1     -11.314  13.324  65.705  1.00  0.00    -0.299 OA 
ENDBRANCH  10  15
ENDBRANCH   9  10
ENDBRANCH   7   9
ENDBRANCH   3   4
ENDBRANCH   2   3
TORSDOF 6
ENDMDL
MODEL      223
REMARK 921   NORMALIZED FREE ENERGY PREDICTED BY IDOCK:   -3.37 KCAL/MOL
REMARK 922        TOTAL FREE ENERGY PREDICTED BY IDOCK:   -5.31 KCAL/MOL
REMARK 923 INTER-LIGAND FREE ENERGY PREDICTED BY IDOCK:   -5.29 KCAL/MOL
REMARK 924 INTRA-LIGAND FREE ENERGY PREDICTED BY IDOCK:   -0.02 KCAL/MOL
REMARK 927      BINDING AFFINITY PREDICTED BY RF-SCORE:    0.00 PKD
ROOT
HETATM    1  C   UNL     1      -6.777  14.014  69.165  1.00  0.00    -0.112 C  
HETATM    2  C   UNL     1      -7.214  13.864  67.716  1.00  0.00    -0.173 C  
ENDROOT
BRANCH   2   3
HETATM    3  C   UNL     1      -8.041  15.070  67.267  1.00  0.00    -0.237 C  
BRANCH   3   4
HETATM    4  C   UNL     1      -9.468  14.664  66.889  1.00  0.00    -0.259 C  
HETATM    5  C   UNL     1     -10.293  14.069  68.059  1.00  0.00    -0.240 C  
HETATM    6  C   UNL     1     -10.368  14.989  69.297  1.00  0.00    -0.249 C  
HETATM    7  C   UNL     1     -11.716  13.667  67.599  1.00  0.00    -0.398 C  
HETATM    8  C   UNL     1     -11.137  16.287  69.089  1.00  0.00    -0.322 C  
BRANCH   7   9
HETATM    9  C   UNL     1     -11.691  12.573  66.530  1.00  0.00    -0.454 C  
BRANCH   9  10
HETATM   10  C   UNL     1     -10.482  11.619  66.554  1.00  0.00    -0.239 C  
BRANCH  10  11
HETATM   11  C   UNL     1     -10.841  10.267  67.211  1.00  0.00    -0.312 C  
HETATM   12  C   UNL     1      -9.300  10.427  69.252  1.00  0.00    -0.202 C  
HETATM   13  C   UNL     1      -9.719   9.599  68.037  1.00  0.00    -0.167 C  
HETATM   14  C   UNL     1     -10.191   8.219  68.520  1.00  0.00    -0.234 C  
ENDBRANCH  10  11
BRANCH  10  15
HETATM   15  O   UNL     1     -10.094  11.346  65.201  1.00  0.00    -0.244 OA 
HETATM   16  O   UNL     1     -12.094  11.727  63.745  1.00  0.00    -0.423 OA 
HETATM   17  O   UNL     1     -10.450  13.604  64.186  1.00  0.00    -0.305 OA 
HETATM   18  S   UNL     1     -10.746  12.210  63.987  1.00  0.00    -0.428 S  
HETATM   19  O   UNL     1      -9.909  11.691  62.713  1.00  0.00    -0.295 OA 
ENDBRANCH  10  15
ENDBRANCH   9  10
ENDBRANCH   7   9
ENDBRANCH   3   4
ENDBRANCH   2   3
TORSDOF 6
ENDMDL
MODEL      224
REMARK 921   NORMALIZED FREE ENERGY PREDICTED BY IDOCK:   -3.36 KCAL/MOL
REMARK 922        TOTAL FREE ENERGY PREDICTED BY IDOCK:   -5.30 KCAL/MOL
REMARK 923 INTER-LIGAND FREE ENERGY PREDICTED BY IDOCK:   -4.33 KCAL/MOL
REMARK 924 INTRA-LIGAND FREE ENERGY PREDICTED BY IDOCK:   -0.96 KCAL/MOL
REMARK 927      BINDING AFFINITY PREDICTED BY RF-SCORE:    0.00 PKD
ROOT
HETATM    1  C   UNL     1     -10.936  12.662  63.727  1.00  0.00    -0.481 C  
HETATM    2  C   UNL     1     -10.454  11.366  63.094  1.00  0.00    -0.323 C  
ENDROOT
BRANCH   2   3
HETATM    3  C   UNL     1      -9.538  10.598  64.051  1.00  0.00    -0.351 C  
BRANCH   3   4
HETATM    4  C   UNL     1     -10.236  10.304  65.381  1.00  0.00    -0.312 C  
HETATM    5  C   UNL     1      -9.308  10.387  66.620  1.00  0.00    -0.185 C  
HETATM    6  C   UNL     1      -8.569  11.737  66.754  1.00  0.00    -0.185 C  
HETATM    7  C   UNL     1     -10.077  10.062  67.924  1.00  0.00    -0.203 C  
HETATM    8  C   UNL     1      -9.464  12.936  67.036  1.00  0.00    -0.235 C  
BRANCH   7   9
HETATM    9  C   UNL     1     -10.627   8.636  67.932  1.00  0.00    -0.223 C  
BRANCH   9  10
HETATM   10  C   UNL     1      -9.912   7.630  68.854  1.00  0.00    -0.176 C  
BRANCH  10  11
HETATM   11  C   UNL     1      -8.698   6.983  68.150  1.00  0.00    -0.127 C  
HETATM   12  C   UNL     1      -9.942   5.123  66.902  1.00  0.00    -0.227 C  
HETATM   13  C   UNL     1      -8.809   5.467  67.870  1.00  0.00    -0.105 C  
HETATM   14  C   UNL     1      -7.485   4.956  67.281  1.00  0.00    -0.083 C  
ENDBRANCH  10  11
BRANCH  10  15
HETATM   15  O   UNL     1      -9.415   8.338  69.998  1.00  0.00    -0.165 OA 
HETATM   16  O   UNL     1     -11.038   7.991  71.871  1.00  0.00    -0.250 OA 
HETATM   17  O   UNL     1      -9.069   6.425  71.572  1.00  0.00    -0.145 OA 
HETATM   18  S   UNL     1      -9.662   7.734  71.487  1.00  0.00    -0.165 S  
HETATM   19  O   UNL     1      -8.804   8.739  72.407  1.00  0.00    -0.391 OA 
ENDBRANCH  10  15
ENDBRANCH   9  10
ENDBRANCH   7   9
ENDBRANCH   3   4
ENDBRANCH   2   3
TORSDOF 6
ENDMDL
MODEL      225
REMARK 921   NORMALIZED FREE ENERGY PREDICTED BY IDOCK:   -3.34 KCAL/MOL
REMARK 922        TOTAL FREE ENERGY PREDICTED BY IDOCK:   -5.28 KCAL/MOL
REMARK 923 INTER-LIGAND FREE ENERGY PREDICTED BY IDOCK:   -4.32 KCAL/MOL
REMARK 924 INTRA-LIGAND FREE ENERGY PREDICTED BY IDOCK:   -0.96 KCAL/MOL
REMARK 927      BINDING AFFINITY PREDICTED BY RF-SCORE:    0.00 PKD
ROOT
HETATM    1  C   UNL     1      -8.706   3.762  65.944  1.00  0.00    -0.116 C  
HETATM    2  C   UNL     1      -9.964   4.496  65.508  1.00  0.00    -0.230 C  
ENDROOT
BRANCH   2   3
HETATM    3  C   UNL     1     -10.683   5.111  66.711  1.00  0.00    -0.187 C  
BRANCH   3   4
HETATM    4  C   UNL     1     -10.385   6.607  66.838  1.00  0.00    -0.324 C  
HETATM    5  C   UNL     1     -10.066   7.074  68.282  1.00  0.00    -0.185 C  
HETATM    6  C   UNL     1      -8.908   6.296  68.944  1.00  0.00    -0.124 C  
HETATM    7  C   UNL     1      -9.792   8.597  68.335  1.00  0.00    -0.189 C  
HETATM    8  C   UNL     1      -7.540   6.510  68.308  1.00  0.00    -0.104 C  
BRANCH   7   9
HETATM    9  C   UNL     1     -11.009   9.419  67.909  1.00  0.00    -0.122 C  
BRANCH   9  10
HETATM   10  C   UNL     1     -10.771  10.482  66.819  1.00  0.00    -0.188 C  
BRANCH  10  11
HETATM   11  C   UNL     1     -11.199  11.887  67.298  1.00  0.00    -0.376 C  
HETATM   12  C   UNL     1     -12.471  12.621  65.199  1.00  0.00    -0.531 C  
HETATM   13  C   UNL     1     -11.359  12.956  66.194  1.00  0.00    -0.356 C  
HETATM   14  C   UNL     1     -11.669  14.316  66.838  1.00  0.00    -0.430 C  
ENDBRANCH  10  11
BRANCH  10  15
HETATM   15  O   UNL     1      -9.365  10.536  66.539  1.00  0.00    -0.158 OA 
HETATM   16  O   UNL     1      -8.862   8.775  64.832  1.00  0.00    -0.167 OA 
HETATM   17  O   UNL     1      -9.434  11.136  64.111  1.00  0.00    -0.220 OA 
HETATM   18  S   UNL     1      -8.832  10.212  65.037  1.00  0.00    -0.197 S  
HETATM   19  O   UNL     1      -7.264  10.560  65.152  1.00  0.00    -0.113 OA 
ENDBRANCH  10  15
ENDBRANCH   9  10
ENDBRANCH   7   9
ENDBRANCH   3   4
ENDBRANCH   2   3
TORSDOF 6
ENDMDL
MODEL      226
REMARK 921   NORMALIZED FREE ENERGY PREDICTED BY IDOCK:   -3.33 KCAL/MOL
REMARK 922        TOTAL FREE ENERGY PREDICTED BY IDOCK:   -5.27 KCAL/MOL
REMARK 923 INTER-LIGAND FREE ENERGY PREDICTED BY IDOCK:   -4.29 KCAL/MOL
REMARK 924 INTRA-LIGAND FREE ENERGY PREDICTED BY IDOCK:   -0.97 KCAL/MOL
REMARK 927      BINDING AFFINITY PREDICTED BY RF-SCORE:    0.00 PKD
ROOT
HETATM    1  C   UNL     1     -12.079  11.994  63.526  1.00  0.00    -0.628 C  
HETATM    2  C   UNL     1     -11.961  13.461  63.907  1.00  0.00    -0.520 C  
ENDROOT
BRANCH   2   3
HETATM    3  C   UNL     1     -10.621  13.743  64.589  1.00  0.00    -0.443 C  
BRANCH   3   4
HETATM    4  C   UNL     1     -10.127  12.529  65.378  1.00  0.00    -0.284 C  
HETATM    5  C   UNL     1      -9.659  12.854  66.820  1.00  0.00    -0.246 C  
HETATM    6  C   UNL     1     -10.725  13.578  67.671  1.00  0.00    -0.257 C  
HETATM    7  C   UNL     1      -9.158  11.583  67.551  1.00  0.00    -0.166 C  
HETATM    8  C   UNL     1     -11.963  12.750  67.994  1.00  0.00    -0.315 C  
BRANCH   7   9
HETATM    9  C   UNL     1      -7.940  10.963  66.865  1.00  0.00    -0.138 C  
BRANCH   9  10
HETATM   10  C   UNL     1      -8.111   9.530  66.328  1.00  0.00    -0.111 C  
BRANCH  10  11
HETATM   11  C   UNL     1      -9.026   8.688  67.245  1.00  0.00    -0.145 C  
HETATM   12  C   UNL     1      -7.251   7.907  68.920  1.00  0.00    -0.076 C  
HETATM   13  C   UNL     1      -8.354   7.486  67.948  1.00  0.00    -0.123 C  
HETATM   14  C   UNL     1      -9.414   6.688  68.723  1.00  0.00    -0.129 C  
ENDBRANCH  10  11
BRANCH  10  15
HETATM   15  O   UNL     1      -8.744   9.600  65.043  1.00  0.00    -0.152 OA 
HETATM   16  O   UNL     1      -6.949   9.923  63.328  1.00  0.00    -0.117 OA 
HETATM   17  O   UNL     1      -7.726   7.593  63.950  1.00  0.00    -0.114 OA 
HETATM   18  S   UNL     1      -7.985   8.993  63.739  1.00  0.00    -0.155 S  
HETATM   19  O   UNL     1      -9.112   9.132  62.596  1.00  0.00    -0.176 OA 
ENDBRANCH  10  15
ENDBRANCH   9  10
ENDBRANCH   7   9
ENDBRANCH   3   4
ENDBRANCH   2   3
TORSDOF 6
ENDMDL
MODEL      227
REMARK 921   NORMALIZED FREE ENERGY PREDICTED BY IDOCK:   -3.33 KCAL/MOL
REMARK 922        TOTAL FREE ENERGY PREDICTED BY IDOCK:   -5.26 KCAL/MOL
REMARK 923 INTER-LIGAND FREE ENERGY PREDICTED BY IDOCK:   -4.08 KCAL/MOL
REMARK 924 INTRA-LIGAND FREE ENERGY PREDICTED BY IDOCK:   -1.18 KCAL/MOL
REMARK 927      BINDING AFFINITY PREDICTED BY RF-SCORE:    0.00 PKD
ROOT
HETATM    1  C   UNL     1     -12.908  10.365  70.240  1.00  0.00    -0.167 C  
HETATM    2  C   UNL     1     -11.792  10.656  71.231  1.00  0.00    -0.257 C  
ENDROOT
BRANCH   2   3
HETATM    3  C   UNL     1     -10.690   9.598  71.138  1.00  0.00    -0.365 C  
BRANCH   3   4
HETATM    4  C   UNL     1     -11.007   8.551  70.068  1.00  0.00    -0.197 C  
HETATM    5  C   UNL     1     -11.102   7.099  70.605  1.00  0.00    -0.294 C  
HETATM    6  C   UNL     1     -12.115   6.929  71.758  1.00  0.00    -0.385 C  
HETATM    7  C   UNL     1     -11.408   6.095  69.467  1.00  0.00    -0.426 C  
HETATM    8  C   UNL     1     -13.573   7.146  71.372  1.00  0.00    -0.368 C  
BRANCH   7   9
HETATM    9  C   UNL     1     -10.299   6.059  68.414  1.00  0.00    -0.252 C  
BRANCH   9  10
HETATM   10  C   UNL     1      -9.423   4.793  68.384  1.00  0.00    -0.144 C  
BRANCH  10  11
HETATM   11  C   UNL     1      -9.643   3.923  69.642  1.00  0.00    -0.259 C  
HETATM   12  C   UNL     1      -8.085   5.183  71.239  1.00  0.00    -0.113 C  
HETATM   13  C   UNL     1      -8.448   3.834  70.618  1.00  0.00    -0.100 C  
HETATM   14  C   UNL     1      -8.781   2.846  71.747  1.00  0.00    -0.110 C  
ENDBRANCH  10  11
BRANCH  10  15
HETATM   15  O   UNL     1      -9.804   4.004  67.248  1.00  0.00    -0.189 OA 
HETATM   16  O   UNL     1      -8.620   4.930  65.247  1.00  0.00    -0.130 OA 
HETATM   17  O   UNL     1      -7.576   3.065  66.608  1.00  0.00    -0.074 OA 
HETATM   18  S   UNL     1      -8.728   3.732  66.060  1.00  0.00    -0.122 S  
HETATM   19  O   UNL     1      -9.517   2.690  65.120  1.00  0.00    -0.131 OA 
ENDBRANCH  10  15
ENDBRANCH   9  10
ENDBRANCH   7   9
ENDBRANCH   3   4
ENDBRANCH   2   3
TORSDOF 6
ENDMDL
MODEL      228
REMARK 921   NORMALIZED FREE ENERGY PREDICTED BY IDOCK:   -3.32 KCAL/MOL
REMARK 922        TOTAL FREE ENERGY PREDICTED BY IDOCK:   -5.25 KCAL/MOL
REMARK 923 INTER-LIGAND FREE ENERGY PREDICTED BY IDOCK:   -4.37 KCAL/MOL
REMARK 924 INTRA-LIGAND FREE ENERGY PREDICTED BY IDOCK:   -0.89 KCAL/MOL
REMARK 927      BINDING AFFINITY PREDICTED BY RF-SCORE:    0.00 PKD
ROOT
HETATM    1  C   UNL     1     -10.324  14.309  68.953  1.00  0.00    -0.218 C  
HETATM    2  C   UNL     1     -10.349  15.444  67.941  1.00  0.00    -0.247 C  
ENDROOT
BRANCH   2   3
HETATM    3  C   UNL     1     -10.821  14.947  66.573  1.00  0.00    -0.322 C  
BRANCH   3   4
HETATM    4  C   UNL     1     -10.392  13.499  66.324  1.00  0.00    -0.293 C  
HETATM    5  C   UNL     1     -11.566  12.522  66.057  1.00  0.00    -0.456 C  
HETATM    6  C   UNL     1     -12.484  12.958  64.894  1.00  0.00    -0.540 C  
HETATM    7  C   UNL     1     -11.058  11.077  65.830  1.00  0.00    -0.038 C  
HETATM    8  C   UNL     1     -11.831  12.941  63.517  1.00  0.00    -0.605 C  
BRANCH   7   9
HETATM    9  C   UNL     1     -10.343  10.516  67.060  1.00  0.00    -0.289 C  
BRANCH   9  10
HETATM   10  C   UNL     1      -9.246   9.467  66.796  1.00  0.00    -0.143 C  
BRANCH  10  11
HETATM   11  C   UNL     1      -7.868  10.132  66.580  1.00  0.00    -0.112 C  
HETATM   12  C   UNL     1      -7.725  11.413  68.794  1.00  0.00    -0.135 C  
HETATM   13  C   UNL     1      -7.665  11.500  67.269  1.00  0.00    -0.150 C  
HETATM   14  C   UNL     1      -6.301  12.080  66.863  1.00  0.00    -0.066 C  
ENDBRANCH  10  11
BRANCH  10  15
HETATM   15  O   UNL     1      -9.137   8.625  67.951  1.00  0.00    -0.139 OA 
HETATM   16  O   UNL     1     -10.909   6.865  67.780  1.00  0.00    -0.242 OA 
HETATM   17  O   UNL     1      -8.590   6.447  66.848  1.00  0.00    -0.109 OA 
HETATM   18  S   UNL     1      -9.468   7.037  67.824  1.00  0.00    -0.124 S  
HETATM   19  O   UNL     1      -9.051   6.486  69.278  1.00  0.00    -0.137 OA 
ENDBRANCH  10  15
ENDBRANCH   9  10
ENDBRANCH   7   9
ENDBRANCH   3   4
ENDBRANCH   2   3
TORSDOF 6
ENDMDL
MODEL      229
REMARK 921   NORMALIZED FREE ENERGY PREDICTED BY IDOCK:   -3.31 KCAL/MOL
REMARK 922        TOTAL FREE ENERGY PREDICTED BY IDOCK:   -5.23 KCAL/MOL
REMARK 923 INTER-LIGAND FREE ENERGY PREDICTED BY IDOCK:   -4.08 KCAL/MOL
REMARK 924 INTRA-LIGAND FREE ENERGY PREDICTED BY IDOCK:   -1.15 KCAL/MOL
REMARK 927      BINDING AFFINITY PREDICTED BY RF-SCORE:    0.00 PKD
ROOT
HETATM    1  C   UNL     1     -11.067   6.310  67.739  1.00  0.00    -0.361 C  
HETATM    2  C   UNL     1     -10.476   5.404  66.669  1.00  0.00    -0.356 C  
ENDROOT
BRANCH   2   3
HETATM    3  C   UNL     1      -8.999   5.728  66.434  1.00  0.00    -0.139 C  
BRANCH   3   4
HETATM    4  C   UNL     1      -8.726   7.228  66.568  1.00  0.00    -0.141 C  
HETATM    5  C   UNL     1      -7.791   7.603  67.747  1.00  0.00    -0.120 C  
HETATM    6  C   UNL     1      -6.433   6.868  67.720  1.00  0.00    -0.050 C  
HETATM    7  C   UNL     1      -7.573   9.135  67.829  1.00  0.00    -0.085 C  
HETATM    8  C   UNL     1      -5.522   7.237  66.556  1.00  0.00    -0.024 C  
BRANCH   7   9
HETATM    9  C   UNL     1      -8.875   9.890  68.096  1.00  0.00    -0.118 C  
BRANCH   9  10
HETATM   10  C   UNL     1      -9.560   9.620  69.449  1.00  0.00    -0.191 C  
BRANCH  10  11
HETATM   11  C   UNL     1      -8.532   9.233  70.536  1.00  0.00    -0.251 C  
HETATM   12  C   UNL     1      -9.289   6.815  70.918  1.00  0.00    -0.157 C  
HETATM   13  C   UNL     1      -8.998   8.173  71.559  1.00  0.00    -0.201 C  
HETATM   14  C   UNL     1      -7.915   7.988  72.634  1.00  0.00    -0.181 C  
ENDBRANCH  10  11
BRANCH  10  15
HETATM   15  O   UNL     1     -10.204  10.826  69.880  1.00  0.00    -0.084 OA 
HETATM   16  O   UNL     1     -12.217  11.174  68.433  1.00  0.00    -0.610 OA 
HETATM   17  O   UNL     1     -12.408   9.900  70.615  1.00  0.00    -0.273 OA 
HETATM   18  S   UNL     1     -11.825  10.942  69.812  1.00  0.00    -0.370 S  
HETATM   19  O   UNL     1     -12.095  12.353  70.539  1.00  0.00    -0.363 OA 
ENDBRANCH  10  15
ENDBRANCH   9  10
ENDBRANCH   7   9
ENDBRANCH   3   4
ENDBRANCH   2   3
TORSDOF 6
ENDMDL
MODEL      230
REMARK 921   NORMALIZED FREE ENERGY PREDICTED BY IDOCK:   -3.31 KCAL/MOL
REMARK 922        TOTAL FREE ENERGY PREDICTED BY IDOCK:   -5.23 KCAL/MOL
REMARK 923 INTER-LIGAND FREE ENERGY PREDICTED BY IDOCK:   -4.41 KCAL/MOL
REMARK 924 INTRA-LIGAND FREE ENERGY PREDICTED BY IDOCK:   -0.82 KCAL/MOL
REMARK 927      BINDING AFFINITY PREDICTED BY RF-SCORE:    0.00 PKD
ROOT
HETATM    1  C   UNL     1      -8.700   9.893  63.183  1.00  0.00    -0.224 C  
HETATM    2  C   UNL     1      -9.219  11.128  62.464  1.00  0.00    -0.317 C  
ENDROOT
BRANCH   2   3
HETATM    3  C   UNL     1     -10.205  11.898  63.345  1.00  0.00    -0.478 C  
BRANCH   3   4
HETATM    4  C   UNL     1     -10.714  11.037  64.503  1.00  0.00    -0.335 C  
HETATM    5  C   UNL     1     -10.106  11.400  65.883  1.00  0.00    -0.286 C  
HETATM    6  C   UNL     1     -10.289  12.884  66.271  1.00  0.00    -0.278 C  
HETATM    7  C   UNL     1     -10.653  10.479  67.001  1.00  0.00    -0.310 C  
HETATM    8  C   UNL     1     -11.730  13.313  66.516  1.00  0.00    -0.423 C  
BRANCH   7   9
HETATM    9  C   UNL     1     -10.283   9.013  66.775  1.00  0.00    -0.341 C  
BRANCH   9  10
HETATM   10  C   UNL     1      -9.429   8.345  67.870  1.00  0.00    -0.146 C  
BRANCH  10  11
HETATM   11  C   UNL     1      -8.708   9.395  68.744  1.00  0.00    -0.131 C  
HETATM   12  C   UNL     1      -6.842  10.022  67.103  1.00  0.00    -0.082 C  
HETATM   13  C   UNL     1      -7.187   9.536  68.511  1.00  0.00    -0.071 C  
HETATM   14  C   UNL     1      -6.602  10.526  69.530  1.00  0.00    -0.080 C  
ENDBRANCH  10  11
BRANCH  10  15
HETATM   15  O   UNL     1     -10.300   7.599  68.731  1.00  0.00    -0.200 OA 
HETATM   16  O   UNL     1      -9.521   5.220  68.725  1.00  0.00    -0.116 OA 
HETATM   17  O   UNL     1      -8.657   6.850  70.462  1.00  0.00    -0.139 OA 
HETATM   18  S   UNL     1      -9.703   6.362  69.602  1.00  0.00    -0.153 S  
HETATM   19  O   UNL     1     -10.963   5.955  70.520  1.00  0.00    -0.295 OA 
ENDBRANCH  10  15
ENDBRANCH   9  10
ENDBRANCH   7   9
ENDBRANCH   3   4
ENDBRANCH   2   3
TORSDOF 6
ENDMDL
MODEL      231
REMARK 921   NORMALIZED FREE ENERGY PREDICTED BY IDOCK:   -3.30 KCAL/MOL
REMARK 922        TOTAL FREE ENERGY PREDICTED BY IDOCK:   -5.21 KCAL/MOL
REMARK 923 INTER-LIGAND FREE ENERGY PREDICTED BY IDOCK:   -4.29 KCAL/MOL
REMARK 924 INTRA-LIGAND FREE ENERGY PREDICTED BY IDOCK:   -0.92 KCAL/MOL
REMARK 927      BINDING AFFINITY PREDICTED BY RF-SCORE:    0.00 PKD
ROOT
HETATM    1  C   UNL     1     -10.046   4.105  62.529  1.00  0.00    -0.144 C  
HETATM    2  C   UNL     1     -10.614   3.666  63.869  1.00  0.00    -0.285 C  
ENDROOT
BRANCH   2   3
HETATM    3  C   UNL     1      -9.493   3.369  64.867  1.00  0.00    -0.156 C  
BRANCH   3   4
HETATM    4  C   UNL     1      -9.417   4.437  65.960  1.00  0.00    -0.173 C  
HETATM    5  C   UNL     1      -9.771   3.923  67.379  1.00  0.00    -0.173 C  
HETATM    6  C   UNL     1      -8.925   2.713  67.831  1.00  0.00    -0.201 C  
HETATM    7  C   UNL     1      -9.689   5.060  68.428  1.00  0.00    -0.209 C  
HETATM    8  C   UNL     1      -7.444   3.003  68.037  1.00  0.00    -0.053 C  
BRANCH   7   9
HETATM    9  C   UNL     1     -10.691   6.180  68.147  1.00  0.00    -0.367 C  
BRANCH   9  10
HETATM   10  C   UNL     1     -10.180   7.621  68.339  1.00  0.00    -0.198 C  
BRANCH  10  11
HETATM   11  C   UNL     1     -10.511   8.505  67.116  1.00  0.00    -0.370 C  
HETATM   12  C   UNL     1      -8.513   7.865  65.645  1.00  0.00    -0.160 C  
HETATM   13  C   UNL     1      -9.299   9.004  66.296  1.00  0.00    -0.284 C  
HETATM   14  C   UNL     1      -9.784   9.959  65.195  1.00  0.00    -0.376 C  
ENDBRANCH  10  11
BRANCH  10  15
HETATM   15  O   UNL     1     -10.849   8.192  69.472  1.00  0.00    -0.213 OA 
HETATM   16  O   UNL     1      -9.969   7.061  71.524  1.00  0.00    -0.181 OA 
HETATM   17  O   UNL     1      -8.893   9.189  70.670  1.00  0.00    -0.194 OA 
HETATM   18  S   UNL     1     -10.050   8.358  70.878  1.00  0.00    -0.201 S  
HETATM   19  O   UNL     1     -11.107   9.178  71.774  1.00  0.00    -0.351 OA 
ENDBRANCH  10  15
ENDBRANCH   9  10
ENDBRANCH   7   9
ENDBRANCH   3   4
ENDBRANCH   2   3
TORSDOF 6
ENDMDL
MODEL      232
REMARK 921   NORMALIZED FREE ENERGY PREDICTED BY IDOCK:   -3.29 KCAL/MOL
REMARK 922        TOTAL FREE ENERGY PREDICTED BY IDOCK:   -5.21 KCAL/MOL
REMARK 923 INTER-LIGAND FREE ENERGY PREDICTED BY IDOCK:   -4.36 KCAL/MOL
REMARK 924 INTRA-LIGAND FREE ENERGY PREDICTED BY IDOCK:   -0.85 KCAL/MOL
REMARK 927      BINDING AFFINITY PREDICTED BY RF-SCORE:    0.00 PKD
ROOT
HETATM    1  C   UNL     1     -10.416   4.106  64.965  1.00  0.00    -0.187 C  
HETATM    2  C   UNL     1      -9.255   5.051  65.236  1.00  0.00    -0.125 C  
ENDROOT
BRANCH   2   3
HETATM    3  C   UNL     1      -8.785   4.936  66.687  1.00  0.00    -0.108 C  
BRANCH   3   4
HETATM    4  C   UNL     1      -8.667   6.311  67.349  1.00  0.00    -0.105 C  
HETATM    5  C   UNL     1      -9.996   7.106  67.412  1.00  0.00    -0.224 C  
HETATM    6  C   UNL     1     -11.147   6.339  68.100  1.00  0.00    -0.364 C  
HETATM    7  C   UNL     1      -9.796   8.489  68.078  1.00  0.00    -0.202 C  
HETATM    8  C   UNL     1     -10.946   6.076  69.588  1.00  0.00    -0.470 C  
BRANCH   7   9
HETATM    9  C   UNL     1      -8.836   9.379  67.287  1.00  0.00    -0.136 C  
BRANCH   9  10
HETATM   10  C   UNL     1      -9.015  10.900  67.455  1.00  0.00    -0.136 C  
BRANCH  10  11
HETATM   11  C   UNL     1      -7.718  11.663  67.102  1.00  0.00    -0.159 C  
HETATM   12  C   UNL     1      -6.539  11.455  69.367  1.00  0.00    -0.119 C  
HETATM   13  C   UNL     1      -7.031  12.403  68.272  1.00  0.00    -0.091 C  
HETATM   14  C   UNL     1      -5.833  13.204  67.740  1.00  0.00    -0.138 C  
ENDBRANCH  10  11
BRANCH  10  15
HETATM   15  O   UNL     1     -10.031  11.340  66.544  1.00  0.00    -0.202 OA 
HETATM   16  O   UNL     1     -12.153  11.609  67.843  1.00  0.00    -0.613 OA 
HETATM   17  O   UNL     1     -10.573  13.567  67.546  1.00  0.00    -0.242 OA 
HETATM   18  S   UNL     1     -11.188  12.359  67.061  1.00  0.00    -0.323 S  
HETATM   19  O   UNL     1     -11.971  12.703  65.696  1.00  0.00    -0.417 OA 
ENDBRANCH  10  15
ENDBRANCH   9  10
ENDBRANCH   7   9
ENDBRANCH   3   4
ENDBRANCH   2   3
TORSDOF 6
ENDMDL
MODEL      233
REMARK 921   NORMALIZED FREE ENERGY PREDICTED BY IDOCK:   -3.29 KCAL/MOL
REMARK 922        TOTAL FREE ENERGY PREDICTED BY IDOCK:   -5.21 KCAL/MOL
REMARK 923 INTER-LIGAND FREE ENERGY PREDICTED BY IDOCK:   -4.25 KCAL/MOL
REMARK 924 INTRA-LIGAND FREE ENERGY PREDICTED BY IDOCK:   -0.95 KCAL/MOL
REMARK 927      BINDING AFFINITY PREDICTED BY RF-SCORE:    0.00 PKD
ROOT
HETATM    1  C   UNL     1     -10.273   5.381  66.346  1.00  0.00    -0.268 C  
HETATM    2  C   UNL     1      -9.307   6.544  66.516  1.00  0.00    -0.188 C  
ENDROOT
BRANCH   2   3
HETATM    3  C   UNL     1      -8.654   6.514  67.899  1.00  0.00    -0.117 C  
BRANCH   3   4
HETATM    4  C   UNL     1      -8.541   7.918  68.498  1.00  0.00    -0.128 C  
HETATM    5  C   UNL     1      -9.901   8.636  68.701  1.00  0.00    -0.180 C  
HETATM    6  C   UNL     1     -10.907   7.830  69.553  1.00  0.00    -0.157 C  
HETATM    7  C   UNL     1      -9.708  10.054  69.293  1.00  0.00    -0.227 C  
HETATM    8  C   UNL     1     -10.509   7.638  71.010  1.00  0.00    -0.218 C  
BRANCH   7   9
HETATM    9  C   UNL     1      -8.910  10.966  68.361  1.00  0.00    -0.147 C  
BRANCH   9  10
HETATM   10  C   UNL     1      -9.730  11.898  67.448  1.00  0.00    -0.184 C  
BRANCH  10  11
HETATM   11  C   UNL     1      -9.594  13.375  67.879  1.00  0.00    -0.216 C  
HETATM   12  C   UNL     1     -11.967  14.149  67.303  1.00  0.00    -0.449 C  
HETATM   13  C   UNL     1     -10.469  14.387  67.107  1.00  0.00    -0.263 C  
HETATM   14  C   UNL     1     -10.133  15.814  67.569  1.00  0.00    -0.245 C  
ENDBRANCH  10  11
BRANCH  10  15
HETATM   15  O   UNL     1      -9.214  11.794  66.114  1.00  0.00    -0.219 OA 
HETATM   16  O   UNL     1      -9.957   9.593  65.181  1.00  0.00    -0.263 OA 
HETATM   17  O   UNL     1     -11.357  11.675  64.830  1.00  0.00    -0.284 OA 
HETATM   18  S   UNL     1     -10.081  11.024  64.974  1.00  0.00    -0.318 S  
HETATM   19  O   UNL     1      -9.218  11.305  63.644  1.00  0.00    -0.182 OA 
ENDBRANCH  10  15
ENDBRANCH   9  10
ENDBRANCH   7   9
ENDBRANCH   3   4
ENDBRANCH   2   3
TORSDOF 6
ENDMDL
MODEL      234
REMARK 921   NORMALIZED FREE ENERGY PREDICTED BY IDOCK:   -3.28 KCAL/MOL
REMARK 922        TOTAL FREE ENERGY PREDICTED BY IDOCK:   -5.20 KCAL/MOL
REMARK 923 INTER-LIGAND FREE ENERGY PREDICTED BY IDOCK:   -4.24 KCAL/MOL
REMARK 924 INTRA-LIGAND FREE ENERGY PREDICTED BY IDOCK:   -0.96 KCAL/MOL
REMARK 927      BINDING AFFINITY PREDICTED BY RF-SCORE:    0.00 PKD
ROOT
HETATM    1  C   UNL     1      -5.942   6.309  69.301  1.00  0.00    -0.021 C  
HETATM    2  C   UNL     1      -7.128   5.581  68.687  1.00  0.00    -0.065 C  
ENDROOT
BRANCH   2   3
HETATM    3  C   UNL     1      -8.328   6.519  68.540  1.00  0.00    -0.121 C  
BRANCH   3   4
HETATM    4  C   UNL     1      -7.919   7.984  68.706  1.00  0.00    -0.119 C  
HETATM    5  C   UNL     1      -8.923   8.839  69.521  1.00  0.00    -0.145 C  
HETATM    6  C   UNL     1      -9.233   8.265  70.922  1.00  0.00    -0.182 C  
HETATM    7  C   UNL     1      -8.452  10.310  69.633  1.00  0.00    -0.132 C  
HETATM    8  C   UNL     1      -8.060   8.270  71.893  1.00  0.00    -0.184 C  
BRANCH   7   9
HETATM    9  C   UNL     1      -8.361  10.994  68.269  1.00  0.00    -0.133 C  
BRANCH   9  10
HETATM   10  C   UNL     1      -9.006  12.389  68.157  1.00  0.00    -0.196 C  
BRANCH  10  11
HETATM   11  C   UNL     1      -7.973  13.457  67.733  1.00  0.00    -0.167 C  
HETATM   12  C   UNL     1      -8.775  15.367  69.240  1.00  0.00    -0.252 C  
HETATM   13  C   UNL     1      -8.448  14.925  67.813  1.00  0.00    -0.160 C  
HETATM   14  C   UNL     1      -7.357  15.848  67.250  1.00  0.00    -0.251 C  
ENDBRANCH  10  11
BRANCH  10  15
HETATM   15  O   UNL     1     -10.014  12.341  67.138  1.00  0.00    -0.203 OA 
HETATM   16  O   UNL     1     -11.923  10.983  68.018  1.00  0.00    -0.623 OA 
HETATM   17  O   UNL     1     -11.886  13.497  68.328  1.00  0.00    -0.337 OA 
HETATM   18  S   UNL     1     -11.584  12.318  67.560  1.00  0.00    -0.339 S  
HETATM   19  O   UNL     1     -12.321  12.442  66.133  1.00  0.00    -0.606 OA 
ENDBRANCH  10  15
ENDBRANCH   9  10
ENDBRANCH   7   9
ENDBRANCH   3   4
ENDBRANCH   2   3
TORSDOF 6
ENDMDL
MODEL      235
REMARK 921   NORMALIZED FREE ENERGY PREDICTED BY IDOCK:   -3.28 KCAL/MOL
REMARK 922        TOTAL FREE ENERGY PREDICTED BY IDOCK:   -5.19 KCAL/MOL
REMARK 923 INTER-LIGAND FREE ENERGY PREDICTED BY IDOCK:   -4.68 KCAL/MOL
REMARK 924 INTRA-LIGAND FREE ENERGY PREDICTED BY IDOCK:   -0.51 KCAL/MOL
REMARK 927      BINDING AFFINITY PREDICTED BY RF-SCORE:    0.00 PKD
ROOT
HETATM    1  C   UNL     1      -5.938  16.724  68.115  1.00  0.00    -0.128 C  
HETATM    2  C   UNL     1      -6.398  17.038  66.700  1.00  0.00    -0.247 C  
ENDROOT
BRANCH   2   3
HETATM    3  C   UNL     1      -7.433  18.165  66.700  1.00  0.00    -0.254 C  
BRANCH   3   4
HETATM    4  C   UNL     1      -8.850  17.627  66.914  1.00  0.00    -0.260 C  
HETATM    5  C   UNL     1      -9.472  17.996  68.286  1.00  0.00    -0.305 C  
HETATM    6  C   UNL     1      -9.486  19.514  68.573  1.00  0.00    -0.455 C  
HETATM    7  C   UNL     1     -10.895  17.405  68.437  1.00  0.00    -0.234 C  
HETATM    8  C   UNL     1     -10.393  20.333  67.662  1.00  0.00    -0.409 C  
BRANCH   7   9
HETATM    9  C   UNL     1     -10.894  15.876  68.398  1.00  0.00    -0.316 C  
BRANCH   9  10
HETATM   10  C   UNL     1     -10.026  15.164  69.452  1.00  0.00    -0.228 C  
BRANCH  10  11
HETATM   11  C   UNL     1     -10.744  15.090  70.819  1.00  0.00    -0.029 C  
HETATM   12  C   UNL     1     -12.055  12.923  70.431  1.00  0.00    -0.385 C  
HETATM   13  C   UNL     1     -12.127  14.401  70.818  1.00  0.00    -0.408 C  
HETATM   14  C   UNL     1     -12.756  14.514  72.215  1.00  0.00    -0.406 C  
ENDBRANCH  10  11
BRANCH  10  15
HETATM   15  O   UNL     1      -9.798  13.817  69.016  1.00  0.00    -0.066 OA 
HETATM   16  O   UNL     1      -8.499  13.918  66.880  1.00  0.00    -0.174 OA 
HETATM   17  O   UNL     1      -7.299  13.751  69.105  1.00  0.00    -0.082 OA 
HETATM   18  S   UNL     1      -8.414  13.443  68.249  1.00  0.00    -0.146 S  
HETATM   19  O   UNL     1      -8.522  11.842  68.116  1.00  0.00    -0.144 OA 
ENDBRANCH  10  15
ENDBRANCH   9  10
ENDBRANCH   7   9
ENDBRANCH   3   4
ENDBRANCH   2   3
TORSDOF 6
ENDMDL
MODEL      236
REMARK 921   NORMALIZED FREE ENERGY PREDICTED BY IDOCK:   -3.27 KCAL/MOL
REMARK 922        TOTAL FREE ENERGY PREDICTED BY IDOCK:   -5.19 KCAL/MOL
REMARK 923 INTER-LIGAND FREE ENERGY PREDICTED BY IDOCK:   -4.58 KCAL/MOL
REMARK 924 INTRA-LIGAND FREE ENERGY PREDICTED BY IDOCK:   -0.61 KCAL/MOL
REMARK 927      BINDING AFFINITY PREDICTED BY RF-SCORE:    0.00 PKD
ROOT
HETATM    1  C   UNL     1     -10.538  18.898  65.960  1.00  0.00    -0.470 C  
HETATM    2  C   UNL     1     -10.608  17.597  66.744  1.00  0.00    -0.224 C  
ENDROOT
BRANCH   2   3
HETATM    3  C   UNL     1     -10.471  16.390  65.813  1.00  0.00    -0.369 C  
BRANCH   3   4
HETATM    4  C   UNL     1     -10.612  15.072  66.578  1.00  0.00    -0.305 C  
HETATM    5  C   UNL     1      -9.293  14.268  66.713  1.00  0.00    -0.290 C  
HETATM    6  C   UNL     1      -8.138  15.072  67.350  1.00  0.00    -0.216 C  
HETATM    7  C   UNL     1      -9.516  12.943  67.483  1.00  0.00    -0.198 C  
HETATM    8  C   UNL     1      -8.346  15.452  68.811  1.00  0.00    -0.182 C  
BRANCH   7   9
HETATM    9  C   UNL     1     -10.482  12.007  66.755  1.00  0.00    -0.243 C  
BRANCH   9  10
HETATM   10  C   UNL     1      -9.995  10.563  66.526  1.00  0.00    -0.214 C  
BRANCH  10  11
HETATM   11  C   UNL     1     -10.767   9.559  67.411  1.00  0.00    -0.297 C  
HETATM   12  C   UNL     1      -9.357   9.780  69.539  1.00  0.00    -0.226 C  
HETATM   13  C   UNL     1      -9.935   8.830  68.489  1.00  0.00    -0.200 C  
HETATM   14  C   UNL     1     -10.814   7.788  69.198  1.00  0.00    -0.066 C  
ENDBRANCH  10  11
BRANCH  10  15
HETATM   15  O   UNL     1     -10.249  10.211  65.159  1.00  0.00    -0.306 OA 
HETATM   16  O   UNL     1      -9.909  12.265  63.770  1.00  0.00    -0.310 OA 
HETATM   17  O   UNL     1      -7.993  10.657  64.173  1.00  0.00    -0.054 OA 
HETATM   18  S   UNL     1      -9.394  10.923  63.974  1.00  0.00    -0.233 S  
HETATM   19  O   UNL     1      -9.882  10.113  62.670  1.00  0.00    -0.174 OA 
ENDBRANCH  10  15
ENDBRANCH   9  10
ENDBRANCH   7   9
ENDBRANCH   3   4
ENDBRANCH   2   3
TORSDOF 6
ENDMDL
MODEL      237
REMARK 921   NORMALIZED FREE ENERGY PREDICTED BY IDOCK:   -3.26 KCAL/MOL
REMARK 922        TOTAL FREE ENERGY PREDICTED BY IDOCK:   -5.17 KCAL/MOL
REMARK 923 INTER-LIGAND FREE ENERGY PREDICTED BY IDOCK:   -4.11 KCAL/MOL
REMARK 924 INTRA-LIGAND FREE ENERGY PREDICTED BY IDOCK:   -1.06 KCAL/MOL
REMARK 927      BINDING AFFINITY PREDICTED BY RF-SCORE:    0.00 PKD
ROOT
HETATM    1  C   UNL     1      -8.305   4.544  68.588  1.00  0.00    -0.089 C  
HETATM    2  C   UNL     1      -8.667   3.961  69.945  1.00  0.00    -0.123 C  
ENDROOT
BRANCH   2   3
HETATM    3  C   UNL     1      -9.807   4.751  70.591  1.00  0.00    -0.292 C  
BRANCH   3   4
HETATM    4  C   UNL     1      -9.766   6.227  70.188  1.00  0.00    -0.187 C  
HETATM    5  C   UNL     1     -11.046   7.023  70.550  1.00  0.00    -0.316 C  
HETATM    6  C   UNL     1     -11.425   6.944  72.046  1.00  0.00    -0.310 C  
HETATM    7  C   UNL     1     -10.939   8.501  70.099  1.00  0.00    -0.221 C  
HETATM    8  C   UNL     1     -10.441   7.615  72.996  1.00  0.00    -0.414 C  
BRANCH   7   9
HETATM    9  C   UNL     1     -10.801   8.634  68.582  1.00  0.00    -0.003 C  
BRANCH   9  10
HETATM   10  C   UNL     1      -9.819   9.707  68.074  1.00  0.00    -0.150 C  
BRANCH  10  11
HETATM   11  C   UNL     1      -8.392   9.135  67.912  1.00  0.00    -0.117 C  
HETATM   12  C   UNL     1      -7.562   9.528  70.303  1.00  0.00    -0.162 C  
HETATM   13  C   UNL     1      -7.307   9.763  68.814  1.00  0.00    -0.074 C  
HETATM   14  C   UNL     1      -5.935   9.175  68.451  1.00  0.00    -0.045 C  
ENDBRANCH  10  11
BRANCH  10  15
HETATM   15  O   UNL     1     -10.254  10.143  66.779  1.00  0.00    -0.212 OA 
HETATM   16  O   UNL     1     -12.096  11.804  67.115  1.00  0.00    -0.592 OA 
HETATM   17  O   UNL     1      -9.689  12.575  66.931  1.00  0.00    -0.220 OA 
HETATM   18  S   UNL     1     -10.755  11.676  66.573  1.00  0.00    -0.282 S  
HETATM   19  O   UNL     1     -10.967  11.752  64.979  1.00  0.00    -0.300 OA 
ENDBRANCH  10  15
ENDBRANCH   9  10
ENDBRANCH   7   9
ENDBRANCH   3   4
ENDBRANCH   2   3
TORSDOF 6
ENDMDL
MODEL      238
REMARK 921   NORMALIZED FREE ENERGY PREDICTED BY IDOCK:   -3.25 KCAL/MOL
REMARK 922        TOTAL FREE ENERGY PREDICTED BY IDOCK:   -5.16 KCAL/MOL
REMARK 923 INTER-LIGAND FREE ENERGY PREDICTED BY IDOCK:   -4.42 KCAL/MOL
REMARK 924 INTRA-LIGAND FREE ENERGY PREDICTED BY IDOCK:   -0.73 KCAL/MOL
REMARK 927      BINDING AFFINITY PREDICTED BY RF-SCORE:    0.00 PKD
ROOT
HETATM    1  C   UNL     1      -9.469   4.433  65.522  1.00  0.00    -0.175 C  
HETATM    2  C   UNL     1      -8.797   5.618  64.847  1.00  0.00     0.023 C  
ENDROOT
BRANCH   2   3
HETATM    3  C   UNL     1      -7.683   6.189  65.726  1.00  0.00    -0.094 C  
BRANCH   3   4
HETATM    4  C   UNL     1      -8.132   7.465  66.443  1.00  0.00    -0.118 C  
HETATM    5  C   UNL     1      -9.077   7.221  67.647  1.00  0.00    -0.124 C  
HETATM    6  C   UNL     1      -8.499   6.255  68.705  1.00  0.00    -0.122 C  
HETATM    7  C   UNL     1      -9.501   8.555  68.311  1.00  0.00    -0.143 C  
HETATM    8  C   UNL     1      -7.276   6.774  69.451  1.00  0.00    -0.089 C  
BRANCH   7   9
HETATM    9  C   UNL     1     -10.293   9.450  67.356  1.00  0.00    -0.325 C  
BRANCH   9  10
HETATM   10  C   UNL     1     -10.865  10.750  67.951  1.00  0.00    -0.264 C  
BRANCH  10  11
HETATM   11  C   UNL     1     -11.371  11.704  66.845  1.00  0.00    -0.364 C  
HETATM   12  C   UNL     1     -10.455  13.897  67.802  1.00  0.00    -0.243 C  
HETATM   13  C   UNL     1     -11.688  13.148  67.293  1.00  0.00    -0.425 C  
HETATM   14  C   UNL     1     -12.287  13.930  66.114  1.00  0.00    -0.504 C  
ENDBRANCH  10  11
BRANCH  10  15
HETATM   15  O   UNL     1     -11.992  10.415  68.773  1.00  0.00    -0.221 OA 
HETATM   16  O   UNL     1     -11.129   9.855  71.055  1.00  0.00    -0.337 OA 
HETATM   17  O   UNL     1     -11.826  12.225  70.492  1.00  0.00    -0.277 OA 
HETATM   18  S   UNL     1     -11.978  10.800  70.353  1.00  0.00    -0.385 S  
HETATM   19  O   UNL     1     -13.470  10.404  70.812  1.00  0.00    -0.238 OA 
ENDBRANCH  10  15
ENDBRANCH   9  10
ENDBRANCH   7   9
ENDBRANCH   3   4
ENDBRANCH   2   3
TORSDOF 6
ENDMDL
MODEL      239
REMARK 921   NORMALIZED FREE ENERGY PREDICTED BY IDOCK:   -3.25 KCAL/MOL
REMARK 922        TOTAL FREE ENERGY PREDICTED BY IDOCK:   -5.15 KCAL/MOL
REMARK 923 INTER-LIGAND FREE ENERGY PREDICTED BY IDOCK:   -4.41 KCAL/MOL
REMARK 924 INTRA-LIGAND FREE ENERGY PREDICTED BY IDOCK:   -0.74 KCAL/MOL
REMARK 927      BINDING AFFINITY PREDICTED BY RF-SCORE:    0.00 PKD
ROOT
HETATM    1  C   UNL     1     -12.265  12.525  64.583  1.00  0.00    -0.524 C  
HETATM    2  C   UNL     1     -12.546  13.829  65.313  1.00  0.00    -0.510 C  
ENDROOT
BRANCH   2   3
HETATM    3  C   UNL     1     -11.244  14.511  65.737  1.00  0.00    -0.334 C  
BRANCH   3   4
HETATM    4  C   UNL     1     -10.437  13.632  66.696  1.00  0.00    -0.272 C  
HETATM    5  C   UNL     1      -9.119  14.277  67.196  1.00  0.00    -0.237 C  
HETATM    6  C   UNL     1      -9.316  15.657  67.861  1.00  0.00    -0.195 C  
HETATM    7  C   UNL     1      -8.350  13.326  68.147  1.00  0.00    -0.161 C  
HETATM    8  C   UNL     1     -10.093  15.637  69.171  1.00  0.00    -0.237 C  
BRANCH   7   9
HETATM    9  C   UNL     1      -7.924  12.033  67.452  1.00  0.00    -0.165 C  
BRANCH   9  10
HETATM   10  C   UNL     1      -8.795  10.791  67.719  1.00  0.00    -0.130 C  
BRANCH  10  11
HETATM   11  C   UNL     1      -9.434  10.257  66.417  1.00  0.00    -0.218 C  
HETATM   12  C   UNL     1      -7.293  10.001  65.034  1.00  0.00    -0.140 C  
HETATM   13  C   UNL     1      -8.693  10.612  65.108  1.00  0.00    -0.196 C  
HETATM   14  C   UNL     1      -9.511  10.115  63.906  1.00  0.00    -0.332 C  
ENDBRANCH  10  11
BRANCH  10  15
HETATM   15  O   UNL     1      -7.955   9.752  68.240  1.00  0.00    -0.095 OA 
HETATM   16  O   UNL     1      -7.094  10.512  70.464  1.00  0.00    -0.278 OA 
HETATM   17  O   UNL     1      -9.232   9.160  70.308  1.00  0.00    -0.181 OA 
HETATM   18  S   UNL     1      -7.908   9.482  69.843  1.00  0.00    -0.157 S  
HETATM   19  O   UNL     1      -7.001   8.155  69.937  1.00  0.00    -0.046 OA 
ENDBRANCH  10  15
ENDBRANCH   9  10
ENDBRANCH   7   9
ENDBRANCH   3   4
ENDBRANCH   2   3
TORSDOF 6
ENDMDL
MODEL      240
REMARK 921   NORMALIZED FREE ENERGY PREDICTED BY IDOCK:   -3.25 KCAL/MOL
REMARK 922        TOTAL FREE ENERGY PREDICTED BY IDOCK:   -5.15 KCAL/MOL
REMARK 923 INTER-LIGAND FREE ENERGY PREDICTED BY IDOCK:   -4.54 KCAL/MOL
REMARK 924 INTRA-LIGAND FREE ENERGY PREDICTED BY IDOCK:   -0.61 KCAL/MOL
REMARK 927      BINDING AFFINITY PREDICTED BY RF-SCORE:    0.00 PKD
ROOT
HETATM    1  C   UNL     1     -11.094   9.761  70.768  1.00  0.00    -0.415 C  
HETATM    2  C   UNL     1     -10.102   9.225  69.747  1.00  0.00    -0.218 C  
ENDROOT
BRANCH   2   3
HETATM    3  C   UNL     1     -10.415   9.761  68.349  1.00  0.00    -0.250 C  
BRANCH   3   4
HETATM    4  C   UNL     1     -10.665  11.270  68.368  1.00  0.00    -0.238 C  
HETATM    5  C   UNL     1      -9.712  12.087  67.458  1.00  0.00    -0.188 C  
HETATM    6  C   UNL     1      -9.709  11.620  65.986  1.00  0.00    -0.257 C  
HETATM    7  C   UNL     1     -10.013  13.604  67.542  1.00  0.00    -0.230 C  
HETATM    8  C   UNL     1     -11.016  11.842  65.236  1.00  0.00    -0.354 C  
BRANCH   7   9
HETATM    9  C   UNL     1      -9.795  14.160  68.949  1.00  0.00    -0.110 C  
BRANCH   9  10
HETATM   10  C   UNL     1      -9.033  15.496  69.048  1.00  0.00    -0.237 C  
BRANCH  10  11
HETATM   11  C   UNL     1      -7.658  15.313  69.729  1.00  0.00    -0.101 C  
HETATM   12  C   UNL     1      -6.357  14.434  67.705  1.00  0.00    -0.168 C  
HETATM   13  C   UNL     1      -6.766  14.188  69.158  1.00  0.00    -0.118 C  
HETATM   14  C   UNL     1      -5.496  14.058  70.012  1.00  0.00    -0.104 C  
ENDBRANCH  10  11
BRANCH  10  15
HETATM   15  O   UNL     1      -8.791  15.978  67.719  1.00  0.00    -0.175 OA 
HETATM   16  O   UNL     1     -10.589  17.630  67.170  1.00  0.00    -0.339 OA 
HETATM   17  O   UNL     1      -8.409  18.402  68.204  1.00  0.00    -0.269 OA 
HETATM   18  S   UNL     1      -9.153  17.519  67.345  1.00  0.00    -0.240 S  
HETATM   19  O   UNL     1      -8.564  17.652  65.852  1.00  0.00    -0.526 OA 
ENDBRANCH  10  15
ENDBRANCH   9  10
ENDBRANCH   7   9
ENDBRANCH   3   4
ENDBRANCH   2   3
TORSDOF 6
ENDMDL
MODEL      241
REMARK 921   NORMALIZED FREE ENERGY PREDICTED BY IDOCK:   -3.23 KCAL/MOL
REMARK 922        TOTAL FREE ENERGY PREDICTED BY IDOCK:   -5.12 KCAL/MOL
REMARK 923 INTER-LIGAND FREE ENERGY PREDICTED BY IDOCK:   -4.71 KCAL/MOL
REMARK 924 INTRA-LIGAND FREE ENERGY PREDICTED BY IDOCK:   -0.41 KCAL/MOL
REMARK 927      BINDING AFFINITY PREDICTED BY RF-SCORE:    0.00 PKD
ROOT
HETATM    1  C   UNL     1     -13.792  15.209  71.776  1.00  0.00    -0.605 C  
HETATM    2  C   UNL     1     -12.599  15.552  70.897  1.00  0.00    -0.512 C  
ENDROOT
BRANCH   2   3
HETATM    3  C   UNL     1     -12.785  14.999  69.483  1.00  0.00     0.088 C  
BRANCH   3   4
HETATM    4  C   UNL     1     -11.682  14.001  69.120  1.00  0.00    -0.375 C  
HETATM    5  C   UNL     1     -12.005  13.110  67.894  1.00  0.00    -0.347 C  
HETATM    6  C   UNL     1     -12.365  13.911  66.622  1.00  0.00    -0.411 C  
HETATM    7  C   UNL     1     -10.853  12.118  67.597  1.00  0.00    -0.272 C  
HETATM    8  C   UNL     1     -11.226  14.735  66.035  1.00  0.00    -0.341 C  
BRANCH   7   9
HETATM    9  C   UNL     1     -10.621  11.141  68.750  1.00  0.00    -0.233 C  
BRANCH   9  10
HETATM   10  C   UNL     1      -9.201  10.558  68.879  1.00  0.00    -0.183 C  
BRANCH  10  11
HETATM   11  C   UNL     1      -9.196   9.028  68.666  1.00  0.00    -0.136 C  
HETATM   12  C   UNL     1      -9.924   8.995  66.210  1.00  0.00    -0.352 C  
HETATM   13  C   UNL     1     -10.203   8.489  67.625  1.00  0.00    -0.297 C  
HETATM   14  C   UNL     1     -10.159   6.953  67.617  1.00  0.00    -0.204 C  
ENDBRANCH  10  11
BRANCH  10  15
HETATM   15  O   UNL     1      -8.380  11.134  67.854  1.00  0.00    -0.122 OA 
HETATM   16  O   UNL     1      -7.729  13.432  68.603  1.00  0.00    -0.130 OA 
HETATM   17  O   UNL     1      -6.250  11.443  69.130  1.00  0.00    -0.053 OA 
HETATM   18  S   UNL     1      -7.167  12.137  68.264  1.00  0.00    -0.104 S  
HETATM   19  O   UNL     1      -6.439  12.384  66.849  1.00  0.00    -0.123 OA 
ENDBRANCH  10  15
ENDBRANCH   9  10
ENDBRANCH   7   9
ENDBRANCH   3   4
ENDBRANCH   2   3
TORSDOF 6
ENDMDL
MODEL      242
REMARK 921   NORMALIZED FREE ENERGY PREDICTED BY IDOCK:   -3.23 KCAL/MOL
REMARK 922        TOTAL FREE ENERGY PREDICTED BY IDOCK:   -5.12 KCAL/MOL
REMARK 923 INTER-LIGAND FREE ENERGY PREDICTED BY IDOCK:   -4.49 KCAL/MOL
REMARK 924 INTRA-LIGAND FREE ENERGY PREDICTED BY IDOCK:   -0.63 KCAL/MOL
REMARK 927      BINDING AFFINITY PREDICTED BY RF-SCORE:    0.00 PKD
ROOT
HETATM    1  C   UNL     1     -11.574  14.670  69.310  1.00  0.00    -0.335 C  
HETATM    2  C   UNL     1     -11.960  13.893  68.061  1.00  0.00    -0.390 C  
ENDROOT
BRANCH   2   3
HETATM    3  C   UNL     1     -11.249  14.453  66.828  1.00  0.00    -0.340 C  
BRANCH   3   4
HETATM    4  C   UNL     1     -10.444  13.371  66.104  1.00  0.00    -0.295 C  
HETATM    5  C   UNL     1     -11.294  12.177  65.597  1.00  0.00    -0.395 C  
HETATM    6  C   UNL     1     -12.468  12.593  64.684  1.00  0.00    -0.538 C  
HETATM    7  C   UNL     1     -10.412  11.116  64.891  1.00  0.00    -0.372 C  
HETATM    8  C   UNL     1     -12.060  13.193  63.344  1.00  0.00    -0.558 C  
BRANCH   7   9
HETATM    9  C   UNL     1      -9.381  10.500  65.837  1.00  0.00    -0.220 C  
BRANCH   9  10
HETATM   10  C   UNL     1      -7.901  10.686  65.452  1.00  0.00    -0.070 C  
BRANCH  10  11
HETATM   11  C   UNL     1      -7.078  11.253  66.631  1.00  0.00    -0.127 C  
HETATM   12  C   UNL     1      -8.101   9.843  68.509  1.00  0.00    -0.101 C  
HETATM   13  C   UNL     1      -7.780  11.252  68.007  1.00  0.00    -0.108 C  
HETATM   14  C   UNL     1      -6.884  11.951  69.041  1.00  0.00    -0.105 C  
ENDBRANCH  10  11
BRANCH  10  15
HETATM   15  O   UNL     1      -7.352   9.401  65.128  1.00  0.00    -0.099 OA 
HETATM   16  O   UNL     1      -8.283   8.715  62.909  1.00  0.00    -0.176 OA 
HETATM   17  O   UNL     1      -6.094   9.983  63.045  1.00  0.00    -0.114 OA 
HETATM   18  S   UNL     1      -7.034   9.031  63.577  1.00  0.00    -0.089 S  
HETATM   19  O   UNL     1      -6.291   7.609  63.713  1.00  0.00    -0.052 OA 
ENDBRANCH  10  15
ENDBRANCH   9  10
ENDBRANCH   7   9
ENDBRANCH   3   4
ENDBRANCH   2   3
TORSDOF 6
ENDMDL
MODEL      243
REMARK 921   NORMALIZED FREE ENERGY PREDICTED BY IDOCK:   -3.22 KCAL/MOL
REMARK 922        TOTAL FREE ENERGY PREDICTED BY IDOCK:   -5.11 KCAL/MOL
REMARK 923 INTER-LIGAND FREE ENERGY PREDICTED BY IDOCK:   -5.36 KCAL/MOL
REMARK 924 INTRA-LIGAND FREE ENERGY PREDICTED BY IDOCK:    0.24 KCAL/MOL
REMARK 927      BINDING AFFINITY PREDICTED BY RF-SCORE:    0.00 PKD
ROOT
HETATM    1  C   UNL     1     -12.525  14.743  71.246  1.00  0.00    -0.391 C  
HETATM    2  C   UNL     1     -12.244  13.706  70.170  1.00  0.00    -0.413 C  
ENDROOT
BRANCH   2   3
HETATM    3  C   UNL     1     -12.433  12.288  70.714  1.00  0.00    -0.356 C  
BRANCH   3   4
HETATM    4  C   UNL     1     -12.052  11.232  69.673  1.00  0.00    -0.391 C  
HETATM    5  C   UNL     1     -10.855  10.335  70.083  1.00  0.00    -0.362 C  
HETATM    6  C   UNL     1     -11.049   9.624  71.440  1.00  0.00    -0.397 C  
HETATM    7  C   UNL     1     -10.518   9.305  68.977  1.00  0.00    -0.233 C  
HETATM    8  C   UNL     1     -12.159   8.582  71.469  1.00  0.00    -0.351 C  
BRANCH   7   9
HETATM    9  C   UNL     1     -10.086   9.976  67.673  1.00  0.00    -0.232 C  
BRANCH   9  10
HETATM   10  C   UNL     1      -9.354  11.325  67.806  1.00  0.00    -0.163 C  
BRANCH  10  11
HETATM   11  C   UNL     1      -7.844  11.124  68.067  1.00  0.00    -0.114 C  
HETATM   12  C   UNL     1      -7.175  10.285  65.741  1.00  0.00    -0.133 C  
HETATM   13  C   UNL     1      -7.159  10.009  67.245  1.00  0.00    -0.085 C  
HETATM   14  C   UNL     1      -5.700   9.858  67.703  1.00  0.00    -0.039 C  
ENDBRANCH  10  11
BRANCH  10  15
HETATM   15  O   UNL     1      -9.482  12.034  66.566  1.00  0.00    -0.216 OA 
HETATM   16  O   UNL     1     -10.600  10.506  64.928  1.00  0.00    -0.247 OA 
HETATM   17  O   UNL     1     -11.974  12.086  66.355  1.00  0.00    -0.611 OA 
HETATM   18  S   UNL     1     -10.778  11.770  65.620  1.00  0.00    -0.286 S  
HETATM   19  O   UNL     1     -10.586  12.878  64.466  1.00  0.00    -0.337 OA 
ENDBRANCH  10  15
ENDBRANCH   9  10
ENDBRANCH   7   9
ENDBRANCH   3   4
ENDBRANCH   2   3
TORSDOF 6
ENDMDL
MODEL      244
REMARK 921   NORMALIZED FREE ENERGY PREDICTED BY IDOCK:   -3.22 KCAL/MOL
REMARK 922        TOTAL FREE ENERGY PREDICTED BY IDOCK:   -5.11 KCAL/MOL
REMARK 923 INTER-LIGAND FREE ENERGY PREDICTED BY IDOCK:   -4.09 KCAL/MOL
REMARK 924 INTRA-LIGAND FREE ENERGY PREDICTED BY IDOCK:   -1.02 KCAL/MOL
REMARK 927      BINDING AFFINITY PREDICTED BY RF-SCORE:    0.00 PKD
ROOT
HETATM    1  C   UNL     1     -12.583  13.955  64.361  1.00  0.00    -0.213 C  
HETATM    2  C   UNL     1     -11.916  13.015  63.370  1.00  0.00    -0.592 C  
ENDROOT
BRANCH   2   3
HETATM    3  C   UNL     1     -10.570  12.521  63.906  1.00  0.00    -0.472 C  
BRANCH   3   4
HETATM    4  C   UNL     1     -10.737  11.274  64.777  1.00  0.00    -0.352 C  
HETATM    5  C   UNL     1      -9.994  11.341  66.136  1.00  0.00    -0.268 C  
HETATM    6  C   UNL     1     -10.369  12.575  66.987  1.00  0.00    -0.236 C  
HETATM    7  C   UNL     1     -10.195  10.041  66.954  1.00  0.00    -0.299 C  
HETATM    8  C   UNL     1     -11.806  12.599  67.490  1.00  0.00    -0.396 C  
BRANCH   7   9
HETATM    9  C   UNL     1      -9.617   8.816  66.244  1.00  0.00    -0.328 C  
BRANCH   9  10
HETATM   10  C   UNL     1      -8.508   8.051  66.991  1.00  0.00    -0.120 C  
BRANCH  10  11
HETATM   11  C   UNL     1      -8.245   8.658  68.387  1.00  0.00    -0.122 C  
HETATM   12  C   UNL     1      -6.136   9.997  67.818  1.00  0.00    -0.053 C  
HETATM   13  C   UNL     1      -6.766   8.944  68.731  1.00  0.00    -0.054 C  
HETATM   14  C   UNL     1      -6.662   9.428  70.186  1.00  0.00    -0.066 C  
ENDBRANCH  10  11
BRANCH  10  15
HETATM   15  O   UNL     1      -8.943   6.699  67.187  1.00  0.00    -0.116 OA 
HETATM   16  O   UNL     1      -8.311   5.392  65.148  1.00  0.00    -0.132 OA 
HETATM   17  O   UNL     1      -6.737   5.523  67.129  1.00  0.00    -0.055 OA 
HETATM   18  S   UNL     1      -8.065   5.475  66.576  1.00  0.00    -0.105 S  
HETATM   19  O   UNL     1      -8.817   4.185  67.179  1.00  0.00    -0.108 OA 
ENDBRANCH  10  15
ENDBRANCH   9  10
ENDBRANCH   7   9
ENDBRANCH   3   4
ENDBRANCH   2   3
TORSDOF 6
ENDMDL
MODEL      245
REMARK 921   NORMALIZED FREE ENERGY PREDICTED BY IDOCK:   -3.22 KCAL/MOL
REMARK 922        TOTAL FREE ENERGY PREDICTED BY IDOCK:   -5.11 KCAL/MOL
REMARK 923 INTER-LIGAND FREE ENERGY PREDICTED BY IDOCK:   -4.71 KCAL/MOL
REMARK 924 INTRA-LIGAND FREE ENERGY PREDICTED BY IDOCK:   -0.40 KCAL/MOL
REMARK 927      BINDING AFFINITY PREDICTED BY RF-SCORE:    0.00 PKD
ROOT
HETATM    1  C   UNL     1      -7.708   7.462  63.292  1.00  0.00    -0.121 C  
HETATM    2  C   UNL     1      -8.195   8.788  63.855  1.00  0.00    -0.160 C  
ENDROOT
BRANCH   2   3
HETATM    3  C   UNL     1      -8.777   8.605  65.258  1.00  0.00    -0.200 C  
BRANCH   3   4
HETATM    4  C   UNL     1      -9.098   9.951  65.912  1.00  0.00    -0.201 C  
HETATM    5  C   UNL     1      -8.872   9.986  67.446  1.00  0.00    -0.132 C  
HETATM    6  C   UNL     1      -7.446   9.573  67.873  1.00  0.00    -0.083 C  
HETATM    7  C   UNL     1      -9.232  11.371  68.039  1.00  0.00    -0.171 C  
HETATM    8  C   UNL     1      -6.341  10.528  67.439  1.00  0.00    -0.058 C  
BRANCH   7   9
HETATM    9  C   UNL     1     -10.708  11.717  67.845  1.00  0.00    -0.241 C  
BRANCH   9  10
HETATM   10  C   UNL     1     -11.032  12.752  66.751  1.00  0.00    -0.270 C  
BRANCH  10  11
HETATM   11  C   UNL     1     -11.997  12.173  65.692  1.00  0.00    -0.280 C  
HETATM   12  C   UNL     1     -10.417  12.238  63.677  1.00  0.00    -0.483 C  
HETATM   13  C   UNL     1     -11.776  12.656  64.241  1.00  0.00    -0.446 C  
HETATM   14  C   UNL     1     -12.881  12.087  63.338  1.00  0.00    -0.427 C  
ENDBRANCH  10  11
BRANCH  10  15
HETATM   15  O   UNL     1     -11.691  13.868  67.365  1.00  0.00    -0.345 OA 
HETATM   16  O   UNL     1     -11.560  13.559  69.845  1.00  0.00    -0.261 OA 
HETATM   17  O   UNL     1      -9.770  14.867  68.618  1.00  0.00    -0.212 OA 
HETATM   18  S   UNL     1     -11.138  14.450  68.779  1.00  0.00    -0.270 S  
HETATM   19  O   UNL     1     -12.047  15.764  68.984  1.00  0.00    -0.349 OA 
ENDBRANCH  10  15
ENDBRANCH   9  10
ENDBRANCH   7   9
ENDBRANCH   3   4
ENDBRANCH   2   3
TORSDOF 6
ENDMDL
MODEL      246
REMARK 921   NORMALIZED FREE ENERGY PREDICTED BY IDOCK:   -3.22 KCAL/MOL
REMARK 922        TOTAL FREE ENERGY PREDICTED BY IDOCK:   -5.11 KCAL/MOL
REMARK 923 INTER-LIGAND FREE ENERGY PREDICTED BY IDOCK:   -4.83 KCAL/MOL
REMARK 924 INTRA-LIGAND FREE ENERGY PREDICTED BY IDOCK:   -0.28 KCAL/MOL
REMARK 927      BINDING AFFINITY PREDICTED BY RF-SCORE:    0.00 PKD
ROOT
HETATM    1  C   UNL     1     -10.872   6.654  67.104  1.00  0.00    -0.471 C  
HETATM    2  C   UNL     1      -9.506   7.121  66.625  1.00  0.00    -0.219 C  
ENDROOT
BRANCH   2   3
HETATM    3  C   UNL     1      -8.716   7.762  67.768  1.00  0.00    -0.123 C  
BRANCH   3   4
HETATM    4  C   UNL     1      -8.380   9.224  67.467  1.00  0.00    -0.119 C  
HETATM    5  C   UNL     1      -8.917  10.231  68.516  1.00  0.00    -0.134 C  
HETATM    6  C   UNL     1      -8.466   9.922  69.961  1.00  0.00    -0.191 C  
HETATM    7  C   UNL     1      -8.554  11.688  68.138  1.00  0.00    -0.158 C  
HETATM    8  C   UNL     1      -6.972  10.074  70.216  1.00  0.00    -0.153 C  
BRANCH   7   9
HETATM    9  C   UNL     1      -9.186  12.117  66.813  1.00  0.00    -0.207 C  
BRANCH   9  10
HETATM   10  C   UNL     1     -10.450  12.991  66.908  1.00  0.00    -0.254 C  
BRANCH  10  11
HETATM   11  C   UNL     1     -10.679  13.500  68.349  1.00  0.00    -0.273 C  
HETATM   12  C   UNL     1     -12.130  11.565  69.197  1.00  0.00    -0.329 C  
HETATM   13  C   UNL     1     -12.011  13.079  69.010  1.00  0.00    -0.312 C  
HETATM   14  C   UNL     1     -12.139  13.756  70.383  1.00  0.00    -0.421 C  
ENDBRANCH  10  11
BRANCH  10  15
HETATM   15  O   UNL     1     -10.268  14.143  66.073  1.00  0.00    -0.287 OA 
HETATM   16  O   UNL     1     -10.984  16.152  67.383  1.00  0.00    -0.302 OA 
HETATM   17  O   UNL     1      -8.569  15.388  67.422  1.00  0.00    -0.161 OA 
HETATM   18  S   UNL     1      -9.826  15.558  66.741  1.00  0.00    -0.251 S  
HETATM   19  O   UNL     1      -9.579  16.482  65.445  1.00  0.00    -0.462 OA 
ENDBRANCH  10  15
ENDBRANCH   9  10
ENDBRANCH   7   9
ENDBRANCH   3   4
ENDBRANCH   2   3
TORSDOF 6
ENDMDL
MODEL      247
REMARK 921   NORMALIZED FREE ENERGY PREDICTED BY IDOCK:   -3.21 KCAL/MOL
REMARK 922        TOTAL FREE ENERGY PREDICTED BY IDOCK:   -5.10 KCAL/MOL
REMARK 923 INTER-LIGAND FREE ENERGY PREDICTED BY IDOCK:   -5.28 KCAL/MOL
REMARK 924 INTRA-LIGAND FREE ENERGY PREDICTED BY IDOCK:    0.18 KCAL/MOL
REMARK 927      BINDING AFFINITY PREDICTED BY RF-SCORE:    0.00 PKD
ROOT
HETATM    1  C   UNL     1     -12.693  12.112  63.873  1.00  0.00    -0.487 C  
HETATM    2  C   UNL     1     -11.588  13.123  64.137  1.00  0.00    -0.460 C  
ENDROOT
BRANCH   2   3
HETATM    3  C   UNL     1     -10.361  12.444  64.748  1.00  0.00    -0.324 C  
BRANCH   3   4
HETATM    4  C   UNL     1      -9.691  13.333  65.798  1.00  0.00    -0.149 C  
HETATM    5  C   UNL     1     -10.410  13.349  67.172  1.00  0.00    -0.246 C  
HETATM    6  C   UNL     1     -10.607  11.945  67.786  1.00  0.00    -0.233 C  
HETATM    7  C   UNL     1      -9.687  14.280  68.177  1.00  0.00    -0.226 C  
HETATM    8  C   UNL     1      -9.323  11.231  68.188  1.00  0.00    -0.181 C  
BRANCH   7   9
HETATM    9  C   UNL     1      -9.680  15.737  67.713  1.00  0.00    -0.216 C  
BRANCH   9  10
HETATM   10  C   UNL     1      -8.419  16.556  68.047  1.00  0.00    -0.186 C  
BRANCH  10  11
HETATM   11  C   UNL     1      -7.732  17.083  66.767  1.00  0.00    -0.274 C  
HETATM   12  C   UNL     1      -5.314  16.492  67.374  1.00  0.00    -0.168 C  
HETATM   13  C   UNL     1      -6.283  17.592  66.939  1.00  0.00    -0.199 C  
HETATM   14  C   UNL     1      -5.788  18.188  65.612  1.00  0.00    -0.241 C  
ENDBRANCH  10  11
BRANCH  10  15
HETATM   15  O   UNL     1      -8.812  17.697  68.821  1.00  0.00    -0.278 OA 
HETATM   16  O   UNL     1      -8.603  19.718  67.358  1.00  0.00    -0.300 OA 
HETATM   17  O   UNL     1     -10.795  18.454  67.497  1.00  0.00    -0.408 OA 
HETATM   18  S   UNL     1      -9.578  18.935  68.096  1.00  0.00    -0.359 S  
HETATM   19  O   UNL     1      -9.967  19.872  69.347  1.00  0.00    -0.345 OA 
ENDBRANCH  10  15
ENDBRANCH   9  10
ENDBRANCH   7   9
ENDBRANCH   3   4
ENDBRANCH   2   3
TORSDOF 6
ENDMDL
MODEL      248
REMARK 921   NORMALIZED FREE ENERGY PREDICTED BY IDOCK:   -3.20 KCAL/MOL
REMARK 922        TOTAL FREE ENERGY PREDICTED BY IDOCK:   -5.09 KCAL/MOL
REMARK 923 INTER-LIGAND FREE ENERGY PREDICTED BY IDOCK:   -4.02 KCAL/MOL
REMARK 924 INTRA-LIGAND FREE ENERGY PREDICTED BY IDOCK:   -1.07 KCAL/MOL
REMARK 927      BINDING AFFINITY PREDICTED BY RF-SCORE:    0.00 PKD
ROOT
HETATM    1  C   UNL     1     -11.966  10.860  69.111  1.00  0.00    -0.359 C  
HETATM    2  C   UNL     1     -11.060   9.835  69.775  1.00  0.00    -0.272 C  
ENDROOT
BRANCH   2   3
HETATM    3  C   UNL     1      -9.595  10.079  69.404  1.00  0.00    -0.237 C  
BRANCH   3   4
HETATM    4  C   UNL     1      -9.401  11.454  68.760  1.00  0.00    -0.115 C  
HETATM    5  C   UNL     1      -8.451  11.456  67.535  1.00  0.00    -0.137 C  
HETATM    6  C   UNL     1      -8.863  10.461  66.428  1.00  0.00    -0.159 C  
HETATM    7  C   UNL     1      -8.290  12.880  66.947  1.00  0.00    -0.047 C  
HETATM    8  C   UNL     1     -10.173  10.787  65.723  1.00  0.00    -0.319 C  
BRANCH   7   9
HETATM    9  C   UNL     1      -7.657  13.850  67.945  1.00  0.00    -0.158 C  
BRANCH   9  10
HETATM   10  C   UNL     1      -8.200  15.291  67.939  1.00  0.00    -0.145 C  
BRANCH  10  11
HETATM   11  C   UNL     1      -7.358  16.208  67.023  1.00  0.00    -0.266 C  
HETATM   12  C   UNL     1      -7.606  18.385  68.350  1.00  0.00    -0.307 C  
HETATM   13  C   UNL     1      -7.771  17.697  66.995  1.00  0.00    -0.234 C  
HETATM   14  C   UNL     1      -6.921  18.445  65.956  1.00  0.00    -0.310 C  
ENDBRANCH  10  11
BRANCH  10  15
HETATM   15  O   UNL     1      -9.534  15.271  67.412  1.00  0.00    -0.197 OA 
HETATM   16  O   UNL     1     -11.048  14.413  69.211  1.00  0.00    -0.257 OA 
HETATM   17  O   UNL     1     -10.633  16.899  68.960  1.00  0.00    -0.323 OA 
HETATM   18  S   UNL     1     -10.791  15.585  68.395  1.00  0.00    -0.287 S  
HETATM   19  O   UNL     1     -12.026  15.623  67.362  1.00  0.00     0.115 OA 
ENDBRANCH  10  15
ENDBRANCH   9  10
ENDBRANCH   7   9
ENDBRANCH   3   4
ENDBRANCH   2   3
TORSDOF 6
ENDMDL
MODEL      249
REMARK 921   NORMALIZED FREE ENERGY PREDICTED BY IDOCK:   -3.20 KCAL/MOL
REMARK 922        TOTAL FREE ENERGY PREDICTED BY IDOCK:   -5.09 KCAL/MOL
REMARK 923 INTER-LIGAND FREE ENERGY PREDICTED BY IDOCK:   -5.02 KCAL/MOL
REMARK 924 INTRA-LIGAND FREE ENERGY PREDICTED BY IDOCK:   -0.06 KCAL/MOL
REMARK 927      BINDING AFFINITY PREDICTED BY RF-SCORE:    0.00 PKD
ROOT
HETATM    1  C   UNL     1      -9.803   5.417  66.854  1.00  0.00    -0.186 C  
HETATM    2  C   UNL     1      -8.917   6.590  67.246  1.00  0.00    -0.114 C  
ENDROOT
BRANCH   2   3
HETATM    3  C   UNL     1      -8.769   7.575  66.084  1.00  0.00    -0.174 C  
BRANCH   3   4
HETATM    4  C   UNL     1      -9.853   8.654  66.122  1.00  0.00    -0.269 C  
HETATM    5  C   UNL     1      -9.316  10.102  65.977  1.00  0.00    -0.216 C  
HETATM    6  C   UNL     1      -8.461  10.324  64.710  1.00  0.00    -0.179 C  
HETATM    7  C   UNL     1     -10.465  11.139  66.040  1.00  0.00    -0.312 C  
HETATM    8  C   UNL     1      -9.219  10.209  63.393  1.00  0.00    -0.324 C  
BRANCH   7   9
HETATM    9  C   UNL     1     -11.193  11.115  67.385  1.00  0.00    -0.363 C  
BRANCH   9  10
HETATM   10  C   UNL     1     -10.392  11.605  68.607  1.00  0.00    -0.215 C  
BRANCH  10  11
HETATM   11  C   UNL     1     -10.521  13.134  68.790  1.00  0.00    -0.187 C  
HETATM   12  C   UNL     1     -12.236  13.135  70.693  1.00  0.00    -0.402 C  
HETATM   13  C   UNL     1     -11.892  13.640  69.292  1.00  0.00    -0.395 C  
HETATM   14  C   UNL     1     -11.897  15.177  69.307  1.00  0.00    -0.347 C  
ENDBRANCH  10  11
BRANCH  10  15
HETATM   15  O   UNL     1     -10.934  10.987  69.782  1.00  0.00    -0.250 OA 
HETATM   16  O   UNL     1     -10.863   8.509  69.439  1.00  0.00    -0.196 OA 
HETATM   17  O   UNL     1      -8.931   9.706  70.558  1.00  0.00    -0.236 OA 
HETATM   18  S   UNL     1     -10.337   9.562  70.289  1.00  0.00    -0.289 S  
HETATM   19  O   UNL     1     -11.103   9.354  71.690  1.00  0.00    -0.369 OA 
ENDBRANCH  10  15
ENDBRANCH   9  10
ENDBRANCH   7   9
ENDBRANCH   3   4
ENDBRANCH   2   3
TORSDOF 6
ENDMDL
MODEL      250
REMARK 921   NORMALIZED FREE ENERGY PREDICTED BY IDOCK:   -3.20 KCAL/MOL
REMARK 922        TOTAL FREE ENERGY PREDICTED BY IDOCK:   -5.09 KCAL/MOL
REMARK 923 INTER-LIGAND FREE ENERGY PREDICTED BY IDOCK:   -5.25 KCAL/MOL
REMARK 924 INTRA-LIGAND FREE ENERGY PREDICTED BY IDOCK:    0.17 KCAL/MOL
REMARK 927      BINDING AFFINITY PREDICTED BY RF-SCORE:    0.00 PKD
ROOT
HETATM    1  C   UNL     1     -11.186  10.180  69.838  1.00  0.00    -0.343 C  
HETATM    2  C   UNL     1     -10.754   8.722  69.847  1.00  0.00    -0.228 C  
ENDROOT
BRANCH   2   3
HETATM    3  C   UNL     1     -10.107   8.336  68.515  1.00  0.00    -0.217 C  
BRANCH   3   4
HETATM    4  C   UNL     1     -10.061   9.522  67.548  1.00  0.00    -0.257 C  
HETATM    5  C   UNL     1      -8.659   9.804  66.951  1.00  0.00    -0.128 C  
HETATM    6  C   UNL     1      -8.028   8.585  66.244  1.00  0.00    -0.102 C  
HETATM    7  C   UNL     1      -8.686  11.025  65.998  1.00  0.00    -0.192 C  
HETATM    8  C   UNL     1      -8.746   8.129  64.981  1.00  0.00    -0.004 C  
BRANCH   7   9
HETATM    9  C   UNL     1      -9.080  12.314  66.720  1.00  0.00    -0.211 C  
BRANCH   9  10
HETATM   10  C   UNL     1     -10.574  12.690  66.685  1.00  0.00    -0.248 C  
BRANCH  10  11
HETATM   11  C   UNL     1     -10.793  14.168  67.080  1.00  0.00    -0.295 C  
HETATM   12  C   UNL     1     -11.089  13.837  69.603  1.00  0.00    -0.094 C  
HETATM   13  C   UNL     1     -11.686  14.410  68.317  1.00  0.00    -0.376 C  
HETATM   14  C   UNL     1     -11.903  15.920  68.505  1.00  0.00    -0.197 C  
ENDBRANCH  10  11
BRANCH  10  15
HETATM   15  O   UNL     1     -11.050  12.532  65.342  1.00  0.00    -0.287 OA 
HETATM   16  O   UNL     1     -13.248  13.715  65.169  1.00  0.00    -0.739 OA 
HETATM   17  O   UNL     1     -11.093  14.925  64.615  1.00  0.00    -0.372 OA 
HETATM   18  S   UNL     1     -11.896  13.731  64.642  1.00  0.00    -0.423 S  
HETATM   19  O   UNL     1     -12.057  13.196  63.132  1.00  0.00    -0.541 OA 
ENDBRANCH  10  15
ENDBRANCH   9  10
ENDBRANCH   7   9
ENDBRANCH   3   4
ENDBRANCH   2   3
TORSDOF 6
ENDMDL
MODEL      251
REMARK 921   NORMALIZED FREE ENERGY PREDICTED BY IDOCK:   -3.19 KCAL/MOL
REMARK 922        TOTAL FREE ENERGY PREDICTED BY IDOCK:   -5.07 KCAL/MOL
REMARK 923 INTER-LIGAND FREE ENERGY PREDICTED BY IDOCK:   -4.39 KCAL/MOL
REMARK 924 INTRA-LIGAND FREE ENERGY PREDICTED BY IDOCK:   -0.67 KCAL/MOL
REMARK 927      BINDING AFFINITY PREDICTED BY RF-SCORE:    0.00 PKD
ROOT
HETATM    1  C   UNL     1      -6.007  12.558  69.300  1.00  0.00    -0.093 C  
HETATM    2  C   UNL     1      -5.857  11.098  69.697  1.00  0.00    -0.073 C  
ENDROOT
BRANCH   2   3
HETATM    3  C   UNL     1      -6.322  10.174  68.570  1.00  0.00    -0.048 C  
BRANCH   3   4
HETATM    4  C   UNL     1      -7.824  10.315  68.312  1.00  0.00    -0.101 C  
HETATM    5  C   UNL     1      -8.618   8.989  68.426  1.00  0.00    -0.130 C  
HETATM    6  C   UNL     1      -8.429   8.266  69.778  1.00  0.00    -0.128 C  
HETATM    7  C   UNL     1     -10.124   9.206  68.137  1.00  0.00    -0.225 C  
HETATM    8  C   UNL     1      -8.999   9.000  70.986  1.00  0.00    -0.304 C  
BRANCH   7   9
HETATM    9  C   UNL     1     -10.375   9.699  66.712  1.00  0.00    -0.292 C  
BRANCH   9  10
HETATM   10  C   UNL     1     -11.135  11.032  66.572  1.00  0.00    -0.106 C  
BRANCH  10  11
HETATM   11  C   UNL     1     -10.506  12.136  67.451  1.00  0.00    -0.233 C  
HETATM   12  C   UNL     1     -11.787  11.656  69.618  1.00  0.00    -0.419 C  
HETATM   13  C   UNL     1     -11.409  12.704  68.569  1.00  0.00    -0.333 C  
HETATM   14  C   UNL     1     -10.688  13.865  69.271  1.00  0.00    -0.117 C  
ENDBRANCH  10  11
BRANCH  10  15
HETATM   15  O   UNL     1     -11.040  11.466  65.208  1.00  0.00    -0.230 OA 
HETATM   16  O   UNL     1     -13.368  11.757  64.338  1.00  0.00    -0.328 OA 
HETATM   17  O   UNL     1     -12.140  13.705  65.392  1.00  0.00    -0.358 OA 
HETATM   18  S   UNL     1     -12.149  12.495  64.613  1.00  0.00    -0.433 S  
HETATM   19  O   UNL     1     -11.555  12.828  63.154  1.00  0.00    -0.445 OA 
ENDBRANCH  10  15
ENDBRANCH   9  10
ENDBRANCH   7   9
ENDBRANCH   3   4
ENDBRANCH   2   3
TORSDOF 6
ENDMDL
MODEL      252
REMARK 921   NORMALIZED FREE ENERGY PREDICTED BY IDOCK:   -3.18 KCAL/MOL
REMARK 922        TOTAL FREE ENERGY PREDICTED BY IDOCK:   -5.06 KCAL/MOL
REMARK 923 INTER-LIGAND FREE ENERGY PREDICTED BY IDOCK:   -4.38 KCAL/MOL
REMARK 924 INTRA-LIGAND FREE ENERGY PREDICTED BY IDOCK:   -0.68 KCAL/MOL
REMARK 927      BINDING AFFINITY PREDICTED BY RF-SCORE:    0.00 PKD
ROOT
HETATM    1  C   UNL     1      -7.335  11.449  66.617  1.00  0.00    -0.107 C  
HETATM    2  C   UNL     1      -8.662  10.917  67.136  1.00  0.00    -0.132 C  
ENDROOT
BRANCH   2   3
HETATM    3  C   UNL     1      -8.953  11.450  68.541  1.00  0.00    -0.158 C  
BRANCH   3   4
HETATM    4  C   UNL     1      -9.155  12.967  68.534  1.00  0.00    -0.053 C  
HETATM    5  C   UNL     1     -10.410  13.440  67.756  1.00  0.00    -0.241 C  
HETATM    6  C   UNL     1     -11.723  12.783  68.237  1.00  0.00    -0.388 C  
HETATM    7  C   UNL     1     -10.540  14.983  67.779  1.00  0.00    -0.264 C  
HETATM    8  C   UNL     1     -12.152  13.159  69.649  1.00  0.00    -0.317 C  
BRANCH   7   9
HETATM    9  C   UNL     1      -9.361  15.673  67.093  1.00  0.00    -0.229 C  
BRANCH   9  10
HETATM   10  C   UNL     1      -8.904  17.014  67.699  1.00  0.00    -0.220 C  
BRANCH  10  11
HETATM   11  C   UNL     1      -7.890  16.799  68.845  1.00  0.00    -0.244 C  
HETATM   12  C   UNL     1      -6.186  15.374  67.569  1.00  0.00    -0.120 C  
HETATM   13  C   UNL     1      -7.089  15.479  68.798  1.00  0.00    -0.124 C  
HETATM   14  C   UNL     1      -6.219  15.362  70.060  1.00  0.00    -0.146 C  
ENDBRANCH  10  11
BRANCH  10  15
HETATM   15  O   UNL     1      -8.239  17.770  66.677  1.00  0.00    -0.235 OA 
HETATM   16  O   UNL     1      -9.766  19.631  65.994  1.00  0.00    -0.387 OA 
HETATM   17  O   UNL     1      -8.056  19.983  67.829  1.00  0.00    -0.293 OA 
HETATM   18  S   UNL     1      -8.467  19.378  66.590  1.00  0.00    -0.335 S  
HETATM   19  O   UNL     1      -7.419  19.807  65.445  1.00  0.00    -0.391 OA 
ENDBRANCH  10  15
ENDBRANCH   9  10
ENDBRANCH   7   9
ENDBRANCH   3   4
ENDBRANCH   2   3
TORSDOF 6
ENDMDL
MODEL      253
REMARK 921   NORMALIZED FREE ENERGY PREDICTED BY IDOCK:   -3.18 KCAL/MOL
REMARK 922        TOTAL FREE ENERGY PREDICTED BY IDOCK:   -5.06 KCAL/MOL
REMARK 923 INTER-LIGAND FREE ENERGY PREDICTED BY IDOCK:   -4.26 KCAL/MOL
REMARK 924 INTRA-LIGAND FREE ENERGY PREDICTED BY IDOCK:   -0.80 KCAL/MOL
REMARK 927      BINDING AFFINITY PREDICTED BY RF-SCORE:    0.00 PKD
ROOT
HETATM    1  C   UNL     1     -11.088   6.162  67.829  1.00  0.00    -0.306 C  
HETATM    2  C   UNL     1     -10.378   7.118  66.882  1.00  0.00    -0.349 C  
ENDROOT
BRANCH   2   3
HETATM    3  C   UNL     1      -8.964   7.427  67.377  1.00  0.00    -0.124 C  
BRANCH   3   4
HETATM    4  C   UNL     1      -8.750   8.931  67.564  1.00  0.00    -0.124 C  
HETATM    5  C   UNL     1      -9.722   9.592  68.575  1.00  0.00    -0.162 C  
HETATM    6  C   UNL     1      -9.712   8.929  69.970  1.00  0.00    -0.187 C  
HETATM    7  C   UNL     1      -9.458  11.113  68.700  1.00  0.00    -0.196 C  
HETATM    8  C   UNL     1      -8.410   9.078  70.746  1.00  0.00    -0.228 C  
BRANCH   7   9
HETATM    9  C   UNL     1      -9.691  11.851  67.381  1.00  0.00    -0.189 C  
BRANCH   9  10
HETATM   10  C   UNL     1      -8.848  13.118  67.146  1.00  0.00    -0.222 C  
BRANCH  10  11
HETATM   11  C   UNL     1      -9.742  14.364  66.950  1.00  0.00    -0.266 C  
HETATM   12  C   UNL     1     -10.648  13.805  64.620  1.00  0.00    -0.443 C  
HETATM   13  C   UNL     1      -9.930  14.836  65.491  1.00  0.00    -0.390 C  
HETATM   14  C   UNL     1     -10.739  16.142  65.476  1.00  0.00    -0.355 C  
ENDBRANCH  10  11
BRANCH  10  15
HETATM   15  O   UNL     1      -8.043  13.349  68.311  1.00  0.00    -0.141 OA 
HETATM   16  O   UNL     1      -6.008  11.905  68.127  1.00  0.00    -0.049 OA 
HETATM   17  O   UNL     1      -5.984  14.276  67.235  1.00  0.00    -0.300 OA 
HETATM   18  S   UNL     1      -6.422  13.295  68.192  1.00  0.00    -0.131 S  
HETATM   19  O   UNL     1      -5.959  13.775  69.658  1.00  0.00    -0.099 OA 
ENDBRANCH  10  15
ENDBRANCH   9  10
ENDBRANCH   7   9
ENDBRANCH   3   4
ENDBRANCH   2   3
TORSDOF 6
ENDMDL
MODEL      254
REMARK 921   NORMALIZED FREE ENERGY PREDICTED BY IDOCK:   -3.17 KCAL/MOL
REMARK 922        TOTAL FREE ENERGY PREDICTED BY IDOCK:   -5.04 KCAL/MOL
REMARK 923 INTER-LIGAND FREE ENERGY PREDICTED BY IDOCK:   -5.28 KCAL/MOL
REMARK 924 INTRA-LIGAND FREE ENERGY PREDICTED BY IDOCK:    0.24 KCAL/MOL
REMARK 927      BINDING AFFINITY PREDICTED BY RF-SCORE:    0.00 PKD
ROOT
HETATM    1  C   UNL     1      -7.305  10.281  65.410  1.00  0.00    -0.144 C  
HETATM    2  C   UNL     1      -8.775  10.621  65.602  1.00  0.00    -0.198 C  
ENDROOT
BRANCH   2   3
HETATM    3  C   UNL     1      -9.136  10.662  67.088  1.00  0.00    -0.154 C  
BRANCH   3   4
HETATM    4  C   UNL     1      -9.155  12.097  67.622  1.00  0.00    -0.181 C  
HETATM    5  C   UNL     1     -10.364  12.940  67.141  1.00  0.00    -0.239 C  
HETATM    6  C   UNL     1     -11.733  12.296  67.448  1.00  0.00    -0.405 C  
HETATM    7  C   UNL     1     -10.307  14.381  67.706  1.00  0.00    -0.238 C  
HETATM    8  C   UNL     1     -12.079  12.192  68.928  1.00  0.00    -0.187 C  
BRANCH   7   9
HETATM    9  C   UNL     1      -9.071  15.143  67.226  1.00  0.00    -0.210 C  
BRANCH   9  10
HETATM   10  C   UNL     1      -9.324  16.511  66.565  1.00  0.00    -0.269 C  
BRANCH  10  11
HETATM   11  C   UNL     1      -9.942  17.516  67.563  1.00  0.00    -0.315 C  
HETATM   12  C   UNL     1     -10.563  19.359  65.896  1.00  0.00    -0.551 C  
HETATM   13  C   UNL     1      -9.816  19.008  67.183  1.00  0.00    -0.383 C  
HETATM   14  C   UNL     1     -10.369  19.876  68.325  1.00  0.00    -0.526 C  
ENDBRANCH  10  11
BRANCH  10  15
HETATM   15  O   UNL     1      -8.063  17.050  66.143  1.00  0.00    -0.364 OA 
HETATM   16  O   UNL     1      -6.762  17.639  68.198  1.00  0.00    -0.194 OA 
HETATM   17  O   UNL     1      -6.516  15.352  67.134  1.00  0.00    -0.300 OA 
HETATM   18  S   UNL     1      -6.732  16.772  67.034  1.00  0.00    -0.222 S  
HETATM   19  O   UNL     1      -5.570  17.396  66.110  1.00  0.00    -0.196 OA 
ENDBRANCH  10  15
ENDBRANCH   9  10
ENDBRANCH   7   9
ENDBRANCH   3   4
ENDBRANCH   2   3
TORSDOF 6
ENDMDL
MODEL      255
REMARK 921   NORMALIZED FREE ENERGY PREDICTED BY IDOCK:   -3.16 KCAL/MOL
REMARK 922        TOTAL FREE ENERGY PREDICTED BY IDOCK:   -5.04 KCAL/MOL
REMARK 923 INTER-LIGAND FREE ENERGY PREDICTED BY IDOCK:   -4.60 KCAL/MOL
REMARK 924 INTRA-LIGAND FREE ENERGY PREDICTED BY IDOCK:   -0.44 KCAL/MOL
REMARK 927      BINDING AFFINITY PREDICTED BY RF-SCORE:    0.00 PKD
ROOT
HETATM    1  C   UNL     1      -5.755  13.782  70.890  1.00  0.00    -0.206 C  
HETATM    2  C   UNL     1      -5.892  12.431  70.207  1.00  0.00    -0.163 C  
ENDROOT
BRANCH   2   3
HETATM    3  C   UNL     1      -6.184  12.600  68.714  1.00  0.00    -0.075 C  
BRANCH   3   4
HETATM    4  C   UNL     1      -7.644  12.274  68.388  1.00  0.00    -0.128 C  
HETATM    5  C   UNL     1      -7.867  10.852  67.812  1.00  0.00    -0.109 C  
HETATM    6  C   UNL     1      -7.312   9.724  68.710  1.00  0.00    -0.074 C  
HETATM    7  C   UNL     1      -9.361  10.601  67.492  1.00  0.00    -0.158 C  
HETATM    8  C   UNL     1      -8.019   9.561  70.049  1.00  0.00    -0.163 C  
BRANCH   7   9
HETATM    9  C   UNL     1      -9.892  11.554  66.420  1.00  0.00    -0.233 C  
BRANCH   9  10
HETATM   10  C   UNL     1      -9.747  11.091  64.958  1.00  0.00    -0.254 C  
BRANCH  10  11
HETATM   11  C   UNL     1      -9.255   9.628  64.875  1.00  0.00    -0.306 C  
HETATM   12  C   UNL     1      -6.780  10.096  64.405  1.00  0.00    -0.110 C  
HETATM   13  C   UNL     1      -8.047   9.374  63.945  1.00  0.00    -0.154 C  
HETATM   14  C   UNL     1      -7.759   7.866  63.880  1.00  0.00    -0.138 C  
ENDBRANCH  10  11
BRANCH  10  15
HETATM   15  O   UNL     1     -11.038  11.143  64.336  1.00  0.00    -0.279 OA 
HETATM   16  O   UNL     1     -12.531  12.522  65.798  1.00  0.00    -0.626 OA 
HETATM   17  O   UNL     1     -11.217  13.603  63.921  1.00  0.00    -0.253 OA 
HETATM   18  S   UNL     1     -11.941  12.488  64.471  1.00  0.00    -0.423 S  
HETATM   19  O   UNL     1     -13.183  12.162  63.499  1.00  0.00    -0.744 OA 
ENDBRANCH  10  15
ENDBRANCH   9  10
ENDBRANCH   7   9
ENDBRANCH   3   4
ENDBRANCH   2   3
TORSDOF 6
ENDMDL
MODEL      256
REMARK 921   NORMALIZED FREE ENERGY PREDICTED BY IDOCK:   -3.16 KCAL/MOL
REMARK 922        TOTAL FREE ENERGY PREDICTED BY IDOCK:   -5.03 KCAL/MOL
REMARK 923 INTER-LIGAND FREE ENERGY PREDICTED BY IDOCK:   -4.79 KCAL/MOL
REMARK 924 INTRA-LIGAND FREE ENERGY PREDICTED BY IDOCK:   -0.24 KCAL/MOL
REMARK 927      BINDING AFFINITY PREDICTED BY RF-SCORE:    0.00 PKD
ROOT
HETATM    1  C   UNL     1     -12.270  12.332  64.111  1.00  0.00    -0.539 C  
HETATM    2  C   UNL     1     -12.411  13.841  64.231  1.00  0.00    -0.384 C  
ENDROOT
BRANCH   2   3
HETATM    3  C   UNL     1     -11.074  14.487  64.600  1.00  0.00    -0.356 C  
BRANCH   3   4
HETATM    4  C   UNL     1     -10.437  13.805  65.813  1.00  0.00    -0.303 C  
HETATM    5  C   UNL     1      -9.378  14.668  66.547  1.00  0.00    -0.313 C  
HETATM    6  C   UNL     1      -9.905  16.049  66.995  1.00  0.00    -0.240 C  
HETATM    7  C   UNL     1      -8.766  13.908  67.751  1.00  0.00    -0.187 C  
HETATM    8  C   UNL     1     -10.981  16.009  68.073  1.00  0.00    -0.341 C  
BRANCH   7   9
HETATM    9  C   UNL     1      -8.022  12.644  67.319  1.00  0.00    -0.166 C  
BRANCH   9  10
HETATM   10  C   UNL     1      -8.720  11.303  67.612  1.00  0.00    -0.131 C  
BRANCH  10  11
HETATM   11  C   UNL     1      -7.712  10.232  68.087  1.00  0.00    -0.092 C  
HETATM   12  C   UNL     1      -6.290  11.717  69.617  1.00  0.00    -0.133 C  
HETATM   13  C   UNL     1      -6.297  10.746  68.435  1.00  0.00    -0.053 C  
HETATM   14  C   UNL     1      -5.387   9.554  68.771  1.00  0.00    -0.037 C  
ENDBRANCH  10  11
BRANCH  10  15
HETATM   15  O   UNL     1      -9.660  11.505  68.677  1.00  0.00    -0.193 OA 
HETATM   16  O   UNL     1     -11.923  11.797  67.647  1.00  0.00    -0.599 OA 
HETATM   17  O   UNL     1     -11.119   9.500  68.350  1.00  0.00    -0.121 OA 
HETATM   18  S   UNL     1     -11.173  10.926  68.534  1.00  0.00    -0.298 S  
HETATM   19  O   UNL     1     -11.789  11.225  69.991  1.00  0.00    -0.307 OA 
ENDBRANCH  10  15
ENDBRANCH   9  10
ENDBRANCH   7   9
ENDBRANCH   3   4
ENDBRANCH   2   3
TORSDOF 6
ENDMDL
MODEL      257
REMARK 921   NORMALIZED FREE ENERGY PREDICTED BY IDOCK:   -3.16 KCAL/MOL
REMARK 922        TOTAL FREE ENERGY PREDICTED BY IDOCK:   -5.03 KCAL/MOL
REMARK 923 INTER-LIGAND FREE ENERGY PREDICTED BY IDOCK:   -4.34 KCAL/MOL
REMARK 924 INTRA-LIGAND FREE ENERGY PREDICTED BY IDOCK:   -0.69 KCAL/MOL
REMARK 927      BINDING AFFINITY PREDICTED BY RF-SCORE:    0.00 PKD
ROOT
HETATM    1  C   UNL     1     -12.264  13.495  63.623  1.00  0.00    -0.438 C  
HETATM    2  C   UNL     1     -12.069  11.994  63.773  1.00  0.00    -0.599 C  
ENDROOT
BRANCH   2   3
HETATM    3  C   UNL     1     -10.691  11.568  63.263  1.00  0.00    -0.374 C  
BRANCH   3   4
HETATM    4  C   UNL     1      -9.624  11.697  64.353  1.00  0.00    -0.130 C  
HETATM    5  C   UNL     1      -9.069  10.344  64.866  1.00  0.00    -0.242 C  
HETATM    6  C   UNL     1      -8.505   9.440  63.748  1.00  0.00    -0.200 C  
HETATM    7  C   UNL     1      -8.009  10.552  65.976  1.00  0.00    -0.149 C  
HETATM    8  C   UNL     1      -7.256   9.973  63.057  1.00  0.00    -0.131 C  
BRANCH   7   9
HETATM    9  C   UNL     1      -8.593  11.239  67.212  1.00  0.00    -0.143 C  
BRANCH   9  10
HETATM   10  C   UNL     1      -9.188  10.315  68.292  1.00  0.00    -0.139 C  
BRANCH  10  11
HETATM   11  C   UNL     1     -10.043  11.109  69.306  1.00  0.00    -0.068 C  
HETATM   12  C   UNL     1     -11.782  12.040  67.671  1.00  0.00    -0.365 C  
HETATM   13  C   UNL     1     -10.751  12.366  68.752  1.00  0.00    -0.242 C  
HETATM   14  C   UNL     1     -11.457  13.104  69.901  1.00  0.00    -0.159 C  
ENDBRANCH  10  11
BRANCH  10  15
HETATM   15  O   UNL     1     -10.054   9.368  67.652  1.00  0.00    -0.184 OA 
HETATM   16  O   UNL     1      -8.680   7.361  67.061  1.00  0.00    -0.119 OA 
HETATM   17  O   UNL     1      -9.898   7.474  69.279  1.00  0.00    -0.165 OA 
HETATM   18  S   UNL     1      -9.808   7.776  67.875  1.00  0.00    -0.168 S  
HETATM   19  O   UNL     1     -11.084   7.130  67.136  1.00  0.00    -0.326 OA 
ENDBRANCH  10  15
ENDBRANCH   9  10
ENDBRANCH   7   9
ENDBRANCH   3   4
ENDBRANCH   2   3
TORSDOF 6
ENDMDL
MODEL      258
REMARK 921   NORMALIZED FREE ENERGY PREDICTED BY IDOCK:   -3.16 KCAL/MOL
REMARK 922        TOTAL FREE ENERGY PREDICTED BY IDOCK:   -5.03 KCAL/MOL
REMARK 923 INTER-LIGAND FREE ENERGY PREDICTED BY IDOCK:   -4.20 KCAL/MOL
REMARK 924 INTRA-LIGAND FREE ENERGY PREDICTED BY IDOCK:   -0.83 KCAL/MOL
REMARK 927      BINDING AFFINITY PREDICTED BY RF-SCORE:    0.00 PKD
ROOT
HETATM    1  C   UNL     1      -8.283  15.999  67.642  1.00  0.00    -0.162 C  
HETATM    2  C   UNL     1      -8.477  14.605  68.219  1.00  0.00    -0.158 C  
ENDROOT
BRANCH   2   3
HETATM    3  C   UNL     1      -8.518  13.554  67.107  1.00  0.00    -0.177 C  
BRANCH   3   4
HETATM    4  C   UNL     1      -9.182  12.260  67.583  1.00  0.00    -0.183 C  
HETATM    5  C   UNL     1     -10.622  12.444  68.125  1.00  0.00    -0.232 C  
HETATM    6  C   UNL     1     -11.578  13.134  67.128  1.00  0.00    -0.410 C  
HETATM    7  C   UNL     1     -11.222  11.098  68.602  1.00  0.00    -0.314 C  
HETATM    8  C   UNL     1     -11.888  12.331  65.871  1.00  0.00    -0.420 C  
BRANCH   7   9
HETATM    9  C   UNL     1     -10.433  10.492  69.763  1.00  0.00    -0.245 C  
BRANCH   9  10
HETATM   10  C   UNL     1     -10.238   8.964  69.736  1.00  0.00    -0.202 C  
BRANCH  10  11
HETATM   11  C   UNL     1     -11.491   8.225  70.257  1.00  0.00    -0.065 C  
HETATM   12  C   UNL     1     -10.836   8.085  72.730  1.00  0.00    -0.438 C  
HETATM   13  C   UNL     1     -11.274   7.313  71.485  1.00  0.00    -0.273 C  
HETATM   14  C   UNL     1     -12.577   6.564  71.804  1.00  0.00    -0.240 C  
ENDBRANCH  10  11
BRANCH  10  15
HETATM   15  O   UNL     1     -10.037   8.557  68.375  1.00  0.00    -0.183 OA 
HETATM   16  O   UNL     1      -7.572   8.348  67.999  1.00  0.00    -0.095 OA 
HETATM   17  O   UNL     1      -8.931   6.344  68.745  1.00  0.00    -0.127 OA 
HETATM   18  S   UNL     1      -8.798   7.571  68.005  1.00  0.00    -0.126 S  
HETATM   19  O   UNL     1      -9.069   7.255  66.449  1.00  0.00    -0.152 OA 
ENDBRANCH  10  15
ENDBRANCH   9  10
ENDBRANCH   7   9
ENDBRANCH   3   4
ENDBRANCH   2   3
TORSDOF 6
ENDMDL
MODEL      259
REMARK 921   NORMALIZED FREE ENERGY PREDICTED BY IDOCK:   -3.16 KCAL/MOL
REMARK 922        TOTAL FREE ENERGY PREDICTED BY IDOCK:   -5.02 KCAL/MOL
REMARK 923 INTER-LIGAND FREE ENERGY PREDICTED BY IDOCK:   -4.92 KCAL/MOL
REMARK 924 INTRA-LIGAND FREE ENERGY PREDICTED BY IDOCK:   -0.10 KCAL/MOL
REMARK 927      BINDING AFFINITY PREDICTED BY RF-SCORE:    0.00 PKD
ROOT
HETATM    1  C   UNL     1     -12.017  12.784  68.641  1.00  0.00    -0.272 C  
HETATM    2  C   UNL     1     -11.363  11.519  69.175  1.00  0.00    -0.351 C  
ENDROOT
BRANCH   2   3
HETATM    3  C   UNL     1     -12.241  10.858  70.240  1.00  0.00    -0.432 C  
BRANCH   3   4
HETATM    4  C   UNL     1     -11.576   9.606  70.818  1.00  0.00    -0.395 C  
HETATM    5  C   UNL     1     -12.076   9.214  72.232  1.00  0.00    -0.311 C  
HETATM    6  C   UNL     1     -13.607   9.029  72.321  1.00  0.00    -0.540 C  
HETATM    7  C   UNL     1     -11.349   7.951  72.757  1.00  0.00    -0.453 C  
HETATM    8  C   UNL     1     -14.161   7.852  71.528  1.00  0.00    -0.489 C  
BRANCH   7   9
HETATM    9  C   UNL     1      -9.844   8.172  72.912  1.00  0.00    -0.339 C  
BRANCH   9  10
HETATM   10  C   UNL     1      -8.958   6.912  72.866  1.00  0.00    -0.126 C  
BRANCH  10  11
HETATM   11  C   UNL     1      -9.701   5.722  72.217  1.00  0.00    -0.174 C  
HETATM   12  C   UNL     1     -10.458   4.545  74.363  1.00  0.00    -0.318 C  
HETATM   13  C   UNL     1      -9.715   4.410  73.033  1.00  0.00    -0.167 C  
HETATM   14  C   UNL     1     -10.383   3.300  72.207  1.00  0.00    -0.106 C  
ENDBRANCH  10  11
BRANCH  10  15
HETATM   15  O   UNL     1      -7.811   7.194  72.052  1.00  0.00    -0.091 OA 
HETATM   16  O   UNL     1      -7.699   5.446  70.264  1.00  0.00    -0.073 OA 
HETATM   17  O   UNL     1      -8.935   7.620  69.858  1.00  0.00    -0.143 OA 
HETATM   18  S   UNL     1      -7.859   6.876  70.457  1.00  0.00    -0.106 S  
HETATM   19  O   UNL     1      -6.465   7.500  69.946  1.00  0.00    -0.034 OA 
ENDBRANCH  10  15
ENDBRANCH   9  10
ENDBRANCH   7   9
ENDBRANCH   3   4
ENDBRANCH   2   3
TORSDOF 6
ENDMDL
MODEL      260
REMARK 921   NORMALIZED FREE ENERGY PREDICTED BY IDOCK:   -3.15 KCAL/MOL
REMARK 922        TOTAL FREE ENERGY PREDICTED BY IDOCK:   -5.02 KCAL/MOL
REMARK 923 INTER-LIGAND FREE ENERGY PREDICTED BY IDOCK:   -5.22 KCAL/MOL
REMARK 924 INTRA-LIGAND FREE ENERGY PREDICTED BY IDOCK:    0.20 KCAL/MOL
REMARK 927      BINDING AFFINITY PREDICTED BY RF-SCORE:    0.00 PKD
ROOT
HETATM    1  C   UNL     1     -11.141  11.755  64.736  1.00  0.00    -0.356 C  
HETATM    2  C   UNL     1     -11.750  12.146  66.073  1.00  0.00    -0.388 C  
ENDROOT
BRANCH   2   3
HETATM    3  C   UNL     1     -10.723  12.017  67.200  1.00  0.00    -0.277 C  
BRANCH   3   4
HETATM    4  C   UNL     1     -10.107  13.372  67.556  1.00  0.00    -0.227 C  
HETATM    5  C   UNL     1      -9.012  13.306  68.652  1.00  0.00     0.032 C  
HETATM    6  C   UNL     1      -7.863  12.328  68.324  1.00  0.00    -0.153 C  
HETATM    7  C   UNL     1      -8.448  14.713  68.971  1.00  0.00    -0.095 C  
HETATM    8  C   UNL     1      -6.998  12.726  67.134  1.00  0.00     0.004 C  
BRANCH   7   9
HETATM    9  C   UNL     1      -9.518  15.652  69.530  1.00  0.00    -0.275 C  
BRANCH   9  10
HETATM   10  C   UNL     1     -10.652  16.050  68.567  1.00  0.00    -0.268 C  
BRANCH  10  11
HETATM   11  C   UNL     1     -12.028  15.579  69.090  1.00  0.00    -0.331 C  
HETATM   12  C   UNL     1     -11.678  16.101  71.574  1.00  0.00    -0.533 C  
HETATM   13  C   UNL     1     -12.051  15.040  70.538  1.00  0.00    -0.379 C  
HETATM   14  C   UNL     1     -13.454  14.505  70.864  1.00  0.00    -0.266 C  
ENDBRANCH  10  11
BRANCH  10  15
HETATM   15  O   UNL     1     -10.695  17.481  68.484  1.00  0.00    -0.330 OA 
HETATM   16  O   UNL     1      -8.571  18.242  67.399  1.00  0.00    -0.246 OA 
HETATM   17  O   UNL     1     -10.629  17.769  66.000  1.00  0.00    -0.349 OA 
HETATM   18  S   UNL     1     -10.011  18.232  67.214  1.00  0.00    -0.352 S  
HETATM   19  O   UNL     1     -10.447  19.764  67.451  1.00  0.00    -0.427 OA 
ENDBRANCH  10  15
ENDBRANCH   9  10
ENDBRANCH   7   9
ENDBRANCH   3   4
ENDBRANCH   2   3
TORSDOF 6
ENDMDL
MODEL      261
REMARK 921   NORMALIZED FREE ENERGY PREDICTED BY IDOCK:   -3.13 KCAL/MOL
REMARK 922        TOTAL FREE ENERGY PREDICTED BY IDOCK:   -4.99 KCAL/MOL
REMARK 923 INTER-LIGAND FREE ENERGY PREDICTED BY IDOCK:   -3.82 KCAL/MOL
REMARK 924 INTRA-LIGAND FREE ENERGY PREDICTED BY IDOCK:   -1.17 KCAL/MOL
REMARK 927      BINDING AFFINITY PREDICTED BY RF-SCORE:    0.00 PKD
ROOT
HETATM    1  C   UNL     1      -7.098   6.898  71.192  1.00  0.00    -0.075 C  
HETATM    2  C   UNL     1      -6.528   5.779  70.334  1.00  0.00    -0.036 C  
ENDROOT
BRANCH   2   3
HETATM    3  C   UNL     1      -7.193   5.753  68.957  1.00  0.00    -0.078 C  
BRANCH   3   4
HETATM    4  C   UNL     1      -8.216   6.882  68.806  1.00  0.00    -0.121 C  
HETATM    5  C   UNL     1      -9.634   6.407  68.397  1.00  0.00    -0.125 C  
HETATM    6  C   UNL     1     -10.230   5.343  69.345  1.00  0.00    -0.334 C  
HETATM    7  C   UNL     1     -10.608   7.602  68.248  1.00  0.00    -0.175 C  
HETATM    8  C   UNL     1     -10.531   5.833  70.756  1.00  0.00    -0.324 C  
BRANCH   7   9
HETATM    9  C   UNL     1     -10.176   8.566  67.143  1.00  0.00    -0.355 C  
BRANCH   9  10
HETATM   10  C   UNL     1     -10.116  10.059  67.520  1.00  0.00    -0.198 C  
BRANCH  10  11
HETATM   11  C   UNL     1     -11.014  10.370  68.739  1.00  0.00    -0.287 C  
HETATM   12  C   UNL     1     -11.986  12.595  67.923  1.00  0.00    -0.307 C  
HETATM   13  C   UNL     1     -11.242  11.867  69.044  1.00  0.00    -0.316 C  
HETATM   14  C   UNL     1     -12.050  12.009  70.343  1.00  0.00    -0.407 C  
ENDBRANCH  10  11
BRANCH  10  15
HETATM   15  O   UNL     1      -8.768  10.378  67.891  1.00  0.00    -0.118 OA 
HETATM   16  O   UNL     1      -7.444  10.648  65.784  1.00  0.00    -0.149 OA 
HETATM   17  O   UNL     1      -8.565  12.649  66.861  1.00  0.00    -0.200 OA 
HETATM   18  S   UNL     1      -7.893  11.380  66.955  1.00  0.00    -0.158 S  
HETATM   19  O   UNL     1      -6.555  11.579  67.829  1.00  0.00    -0.061 OA 
ENDBRANCH  10  15
ENDBRANCH   9  10
ENDBRANCH   7   9
ENDBRANCH   3   4
ENDBRANCH   2   3
TORSDOF 6
ENDMDL
MODEL      262
REMARK 921   NORMALIZED FREE ENERGY PREDICTED BY IDOCK:   -3.13 KCAL/MOL
REMARK 922        TOTAL FREE ENERGY PREDICTED BY IDOCK:   -4.99 KCAL/MOL
REMARK 923 INTER-LIGAND FREE ENERGY PREDICTED BY IDOCK:   -4.40 KCAL/MOL
REMARK 924 INTRA-LIGAND FREE ENERGY PREDICTED BY IDOCK:   -0.60 KCAL/MOL
REMARK 927      BINDING AFFINITY PREDICTED BY RF-SCORE:    0.00 PKD
ROOT
HETATM    1  C   UNL     1     -11.288  10.231  69.998  1.00  0.00    -0.370 C  
HETATM    2  C   UNL     1     -10.959   9.076  69.065  1.00  0.00    -0.001 C  
ENDROOT
BRANCH   2   3
HETATM    3  C   UNL     1     -10.899   9.548  67.611  1.00  0.00    -0.253 C  
BRANCH   3   4
HETATM    4  C   UNL     1     -11.063  11.066  67.507  1.00  0.00    -0.366 C  
HETATM    5  C   UNL     1     -10.010  11.761  66.606  1.00  0.00    -0.224 C  
HETATM    6  C   UNL     1      -9.941  11.186  65.174  1.00  0.00    -0.323 C  
HETATM    7  C   UNL     1     -10.228  13.294  66.562  1.00  0.00    -0.283 C  
HETATM    8  C   UNL     1     -11.184  11.420  64.326  1.00  0.00    -0.306 C  
BRANCH   7   9
HETATM    9  C   UNL     1     -10.066  13.941  67.938  1.00  0.00    -0.242 C  
BRANCH   9  10
HETATM   10  C   UNL     1      -9.126  15.159  68.016  1.00  0.00    -0.180 C  
BRANCH  10  11
HETATM   11  C   UNL     1      -9.882  16.428  68.469  1.00  0.00    -0.231 C  
HETATM   12  C   UNL     1     -10.454  17.363  66.153  1.00  0.00    -0.284 C  
HETATM   13  C   UNL     1      -9.804  17.638  67.510  1.00  0.00    -0.299 C  
HETATM   14  C   UNL     1     -10.500  18.847  68.153  1.00  0.00    -0.387 C  
ENDBRANCH  10  11
BRANCH  10  15
HETATM   15  O   UNL     1      -8.117  14.890  68.999  1.00  0.00    -0.153 OA 
HETATM   16  O   UNL     1      -7.710  12.420  69.014  1.00  0.00     0.010 OA 
HETATM   17  O   UNL     1      -6.328  13.940  67.531  1.00  0.00    -0.276 OA 
HETATM   18  S   UNL     1      -7.052  13.686  68.749  1.00  0.00    -0.096 S  
HETATM   19  O   UNL     1      -6.038  13.868  69.988  1.00  0.00    -0.131 OA 
ENDBRANCH  10  15
ENDBRANCH   9  10
ENDBRANCH   7   9
ENDBRANCH   3   4
ENDBRANCH   2   3
TORSDOF 6
ENDMDL
MODEL      263
REMARK 921   NORMALIZED FREE ENERGY PREDICTED BY IDOCK:   -3.12 KCAL/MOL
REMARK 922        TOTAL FREE ENERGY PREDICTED BY IDOCK:   -4.98 KCAL/MOL
REMARK 923 INTER-LIGAND FREE ENERGY PREDICTED BY IDOCK:   -4.51 KCAL/MOL
REMARK 924 INTRA-LIGAND FREE ENERGY PREDICTED BY IDOCK:   -0.46 KCAL/MOL
REMARK 927      BINDING AFFINITY PREDICTED BY RF-SCORE:    0.00 PKD
ROOT
HETATM    1  C   UNL     1     -10.731  12.327  63.562  1.00  0.00    -0.497 C  
HETATM    2  C   UNL     1     -10.147  11.050  62.978  1.00  0.00    -0.285 C  
ENDROOT
BRANCH   2   3
HETATM    3  C   UNL     1      -9.137  10.420  63.940  1.00  0.00    -0.272 C  
BRANCH   3   4
HETATM    4  C   UNL     1      -9.468  10.752  65.397  1.00  0.00    -0.258 C  
HETATM    5  C   UNL     1      -8.903   9.740  66.426  1.00  0.00    -0.163 C  
HETATM    6  C   UNL     1      -7.377   9.530  66.316  1.00  0.00    -0.093 C  
HETATM    7  C   UNL     1      -9.290  10.131  67.874  1.00  0.00    -0.151 C  
HETATM    8  C   UNL     1      -6.531  10.745  66.676  1.00  0.00    -0.108 C  
BRANCH   7   9
HETATM    9  C   UNL     1     -10.804  10.118  68.091  1.00  0.00    -0.310 C  
BRANCH   9  10
HETATM   10  C   UNL     1     -11.327  10.889  69.318  1.00  0.00    -0.277 C  
BRANCH  10  11
HETATM   11  C   UNL     1     -10.906  10.204  70.637  1.00  0.00    -0.305 C  
HETATM   12  C   UNL     1     -11.653   7.819  70.070  1.00  0.00     0.113 C  
HETATM   13  C   UNL     1     -11.749   8.980  71.061  1.00  0.00    -0.353 C  
HETATM   14  C   UNL     1     -11.283   8.489  72.441  1.00  0.00    -0.399 C  
ENDBRANCH  10  11
BRANCH  10  15
HETATM   15  O   UNL     1     -10.743  12.199  69.312  1.00  0.00    -0.124 OA 
HETATM   16  O   UNL     1     -11.900  13.539  67.542  1.00  0.00    -0.343 OA 
HETATM   17  O   UNL     1     -12.745  13.565  69.931  1.00  0.00    -0.101 OA 
HETATM   18  S   UNL     1     -11.671  13.491  68.975  1.00  0.00    -0.344 S  
HETATM   19  O   UNL     1     -10.662  14.715  69.253  1.00  0.00    -0.244 OA 
ENDBRANCH  10  15
ENDBRANCH   9  10
ENDBRANCH   7   9
ENDBRANCH   3   4
ENDBRANCH   2   3
TORSDOF 6
ENDMDL
MODEL      264
REMARK 921   NORMALIZED FREE ENERGY PREDICTED BY IDOCK:   -3.12 KCAL/MOL
REMARK 922        TOTAL FREE ENERGY PREDICTED BY IDOCK:   -4.98 KCAL/MOL
REMARK 923 INTER-LIGAND FREE ENERGY PREDICTED BY IDOCK:   -4.07 KCAL/MOL
REMARK 924 INTRA-LIGAND FREE ENERGY PREDICTED BY IDOCK:   -0.90 KCAL/MOL
REMARK 927      BINDING AFFINITY PREDICTED BY RF-SCORE:    0.00 PKD
ROOT
HETATM    1  C   UNL     1     -10.882   2.567  63.295  1.00  0.00    -0.235 C  
HETATM    2  C   UNL     1      -9.402   2.649  63.634  1.00  0.00    -0.102 C  
ENDROOT
BRANCH   2   3
HETATM    3  C   UNL     1      -9.197   2.955  65.119  1.00  0.00    -0.145 C  
BRANCH   3   4
HETATM    4  C   UNL     1      -9.942   4.225  65.538  1.00  0.00    -0.233 C  
HETATM    5  C   UNL     1      -9.075   5.242  66.325  1.00  0.00    -0.139 C  
HETATM    6  C   UNL     1      -7.787   5.663  65.586  1.00  0.00    -0.099 C  
HETATM    7  C   UNL     1      -9.898   6.490  66.729  1.00  0.00    -0.213 C  
HETATM    8  C   UNL     1      -8.009   6.464  64.309  1.00  0.00    -0.102 C  
BRANCH   7   9
HETATM    9  C   UNL     1     -11.055   6.142  67.666  1.00  0.00    -0.311 C  
BRANCH   9  10
HETATM   10  C   UNL     1     -10.979   6.717  69.093  1.00  0.00    -0.244 C  
BRANCH  10  11
HETATM   11  C   UNL     1     -10.779   5.601  70.142  1.00  0.00    -0.376 C  
HETATM   12  C   UNL     1     -12.391   6.480  71.929  1.00  0.00    -0.339 C  
HETATM   13  C   UNL     1     -10.966   6.020  71.618  1.00  0.00    -0.328 C  
HETATM   14  C   UNL     1     -10.620   4.836  72.534  1.00  0.00    -0.262 C  
ENDBRANCH  10  11
BRANCH  10  15
HETATM   15  O   UNL     1      -9.840   7.585  69.171  1.00  0.00    -0.165 OA 
HETATM   16  O   UNL     1     -10.448   9.742  68.056  1.00  0.00    -0.198 OA 
HETATM   17  O   UNL     1     -10.804   9.439  70.546  1.00  0.00    -0.235 OA 
HETATM   18  S   UNL     1     -10.060   9.187  69.340  1.00  0.00    -0.205 S  
HETATM   19  O   UNL     1      -8.553   9.715  69.556  1.00  0.00    -0.143 OA 
ENDBRANCH  10  15
ENDBRANCH   9  10
ENDBRANCH   7   9
ENDBRANCH   3   4
ENDBRANCH   2   3
TORSDOF 6
ENDMDL
MODEL      265
REMARK 921   NORMALIZED FREE ENERGY PREDICTED BY IDOCK:   -3.12 KCAL/MOL
REMARK 922        TOTAL FREE ENERGY PREDICTED BY IDOCK:   -4.97 KCAL/MOL
REMARK 923 INTER-LIGAND FREE ENERGY PREDICTED BY IDOCK:   -6.28 KCAL/MOL
REMARK 924 INTRA-LIGAND FREE ENERGY PREDICTED BY IDOCK:    1.31 KCAL/MOL
REMARK 927      BINDING AFFINITY PREDICTED BY RF-SCORE:    0.00 PKD
ROOT
HETATM    1  C   UNL     1     -13.480  14.002  71.641  1.00  0.00    -0.438 C  
HETATM    2  C   UNL     1     -12.042  13.909  71.153  1.00  0.00    -0.320 C  
ENDROOT
BRANCH   2   3
HETATM    3  C   UNL     1     -11.994  13.650  69.646  1.00  0.00    -0.402 C  
BRANCH   3   4
HETATM    4  C   UNL     1     -11.503  14.881  68.880  1.00  0.00    -0.320 C  
HETATM    5  C   UNL     1     -10.573  14.558  67.682  1.00  0.00    -0.251 C  
HETATM    6  C   UNL     1     -11.191  13.574  66.664  1.00  0.00    -0.328 C  
HETATM    7  C   UNL     1     -10.106  15.850  66.967  1.00  0.00    -0.268 C  
HETATM    8  C   UNL     1     -12.398  14.107  65.903  1.00  0.00    -0.486 C  
BRANCH   7   9
HETATM    9  C   UNL     1      -9.278  16.751  67.884  1.00  0.00    -0.225 C  
BRANCH   9  10
HETATM   10  C   UNL     1      -9.996  17.986  68.460  1.00  0.00    -0.390 C  
BRANCH  10  11
HETATM   11  C   UNL     1      -8.989  19.007  69.036  1.00  0.00    -0.219 C  
HETATM   12  C   UNL     1      -6.894  18.196  67.804  1.00  0.00    -0.202 C  
HETATM   13  C   UNL     1      -7.528  18.519  69.158  1.00  0.00    -0.149 C  
HETATM   14  C   UNL     1      -6.683  19.598  69.852  1.00  0.00    -0.254 C  
ENDBRANCH  10  11
BRANCH  10  15
HETATM   15  O   UNL     1     -10.703  18.638  67.396  1.00  0.00    -0.431 OA 
HETATM   16  O   UNL     1      -9.649  20.881  67.044  1.00  0.00    -0.361 OA 
HETATM   17  O   UNL     1      -8.853  18.867  65.728  1.00  0.00    -0.399 OA 
HETATM   18  S   UNL     1      -9.897  19.616  66.376  1.00  0.00    -0.470 S  
HETATM   19  O   UNL     1     -11.024  19.965  65.281  1.00  0.00    -0.371 OA 
ENDBRANCH  10  15
ENDBRANCH   9  10
ENDBRANCH   7   9
ENDBRANCH   3   4
ENDBRANCH   2   3
TORSDOF 6
ENDMDL
MODEL      266
REMARK 921   NORMALIZED FREE ENERGY PREDICTED BY IDOCK:   -3.11 KCAL/MOL
REMARK 922        TOTAL FREE ENERGY PREDICTED BY IDOCK:   -4.96 KCAL/MOL
REMARK 923 INTER-LIGAND FREE ENERGY PREDICTED BY IDOCK:   -4.24 KCAL/MOL
REMARK 924 INTRA-LIGAND FREE ENERGY PREDICTED BY IDOCK:   -0.72 KCAL/MOL
REMARK 927      BINDING AFFINITY PREDICTED BY RF-SCORE:    0.00 PKD
ROOT
HETATM    1  C   UNL     1     -11.011   6.007  68.807  1.00  0.00    -0.384 C  
HETATM    2  C   UNL     1     -11.035   7.094  67.744  1.00  0.00    -0.187 C  
ENDROOT
BRANCH   2   3
HETATM    3  C   UNL     1      -9.624   7.618  67.465  1.00  0.00    -0.178 C  
BRANCH   3   4
HETATM    4  C   UNL     1      -9.549   9.139  67.618  1.00  0.00    -0.181 C  
HETATM    5  C   UNL     1     -10.006   9.664  69.003  1.00  0.00    -0.189 C  
HETATM    6  C   UNL     1      -9.251   9.025  70.189  1.00  0.00    -0.212 C  
HETATM    7  C   UNL     1      -9.918  11.209  69.078  1.00  0.00    -0.155 C  
HETATM    8  C   UNL     1      -7.769   9.370  70.271  1.00  0.00    -0.151 C  
BRANCH   7   9
HETATM    9  C   UNL     1     -10.843  11.890  68.068  1.00  0.00    -0.256 C  
BRANCH   9  10
HETATM   10  C   UNL     1     -11.327  13.307  68.429  1.00  0.00    -0.291 C  
BRANCH  10  11
HETATM   11  C   UNL     1     -12.402  13.271  69.538  1.00  0.00    -0.122 C  
HETATM   12  C   UNL     1     -12.652  15.796  69.893  1.00  0.00    -0.015 C  
HETATM   13  C   UNL     1     -12.371  14.442  70.546  1.00  0.00    -0.413 C  
HETATM   14  C   UNL     1     -13.417  14.200  71.645  1.00  0.00    -0.448 C  
ENDBRANCH  10  11
BRANCH  10  15
HETATM   15  O   UNL     1     -10.212  14.051  68.939  1.00  0.00    -0.223 OA 
HETATM   16  O   UNL     1      -8.475  14.148  67.140  1.00  0.00    -0.206 OA 
HETATM   17  O   UNL     1     -10.214  15.979  67.346  1.00  0.00    -0.261 OA 
HETATM   18  S   UNL     1      -9.346  14.993  67.935  1.00  0.00    -0.184 S  
HETATM   19  O   UNL     1      -8.346  15.742  68.952  1.00  0.00    -0.180 OA 
ENDBRANCH  10  15
ENDBRANCH   9  10
ENDBRANCH   7   9
ENDBRANCH   3   4
ENDBRANCH   2   3
TORSDOF 6
ENDMDL
MODEL      267
REMARK 921   NORMALIZED FREE ENERGY PREDICTED BY IDOCK:   -3.10 KCAL/MOL
REMARK 922        TOTAL FREE ENERGY PREDICTED BY IDOCK:   -4.95 KCAL/MOL
REMARK 923 INTER-LIGAND FREE ENERGY PREDICTED BY IDOCK:   -4.29 KCAL/MOL
REMARK 924 INTRA-LIGAND FREE ENERGY PREDICTED BY IDOCK:   -0.67 KCAL/MOL
REMARK 927      BINDING AFFINITY PREDICTED BY RF-SCORE:    0.00 PKD
ROOT
HETATM    1  C   UNL     1     -12.265  13.602  63.985  1.00  0.00    -0.443 C  
HETATM    2  C   UNL     1     -11.686  12.319  63.410  1.00  0.00    -0.542 C  
ENDROOT
BRANCH   2   3
HETATM    3  C   UNL     1     -10.484  11.846  64.230  1.00  0.00    -0.370 C  
BRANCH   3   4
HETATM    4  C   UNL     1     -10.906  10.883  65.342  1.00  0.00    -0.112 C  
HETATM    5  C   UNL     1     -10.223  11.148  66.708  1.00  0.00    -0.272 C  
HETATM    6  C   UNL     1     -10.410  12.591  67.226  1.00  0.00    -0.228 C  
HETATM    7  C   UNL     1     -10.686  10.128  67.778  1.00  0.00    -0.328 C  
HETATM    8  C   UNL     1     -11.841  12.966  67.589  1.00  0.00    -0.400 C  
BRANCH   7   9
HETATM    9  C   UNL     1     -10.305   8.693  67.412  1.00  0.00    -0.353 C  
BRANCH   9  10
HETATM   10  C   UNL     1      -9.439   7.932  68.434  1.00  0.00    -0.148 C  
BRANCH  10  11
HETATM   11  C   UNL     1      -9.436   6.412  68.151  1.00  0.00    -0.114 C  
HETATM   12  C   UNL     1      -8.388   6.473  65.814  1.00  0.00    -0.143 C  
HETATM   13  C   UNL     1      -9.567   6.002  66.668  1.00  0.00    -0.179 C  
HETATM   14  C   UNL     1      -9.667   4.472  66.566  1.00  0.00    -0.220 C  
ENDBRANCH  10  11
BRANCH  10  15
HETATM   15  O   UNL     1      -8.086   8.391  68.313  1.00  0.00    -0.117 OA 
HETATM   16  O   UNL     1      -7.824  10.386  69.801  1.00  0.00    -0.157 OA 
HETATM   17  O   UNL     1      -7.307   8.062  70.667  1.00  0.00    -0.054 OA 
HETATM   18  S   UNL     1      -7.336   9.033  69.605  1.00  0.00    -0.067 S  
HETATM   19  O   UNL     1      -5.834   9.233  69.060  1.00  0.00    -0.039 OA 
ENDBRANCH  10  15
ENDBRANCH   9  10
ENDBRANCH   7   9
ENDBRANCH   3   4
ENDBRANCH   2   3
TORSDOF 6
ENDMDL
MODEL      268
REMARK 921   NORMALIZED FREE ENERGY PREDICTED BY IDOCK:   -3.10 KCAL/MOL
REMARK 922        TOTAL FREE ENERGY PREDICTED BY IDOCK:   -4.94 KCAL/MOL
REMARK 923 INTER-LIGAND FREE ENERGY PREDICTED BY IDOCK:   -4.19 KCAL/MOL
REMARK 924 INTRA-LIGAND FREE ENERGY PREDICTED BY IDOCK:   -0.76 KCAL/MOL
REMARK 927      BINDING AFFINITY PREDICTED BY RF-SCORE:    0.00 PKD
ROOT
HETATM    1  C   UNL     1      -6.828   7.522  71.252  1.00  0.00    -0.050 C  
HETATM    2  C   UNL     1      -7.362   6.885  69.978  1.00  0.00    -0.082 C  
ENDROOT
BRANCH   2   3
HETATM    3  C   UNL     1      -7.323   7.876  68.813  1.00  0.00    -0.086 C  
BRANCH   3   4
HETATM    4  C   UNL     1      -8.594   8.728  68.759  1.00  0.00    -0.137 C  
HETATM    5  C   UNL     1      -9.525   8.408  67.561  1.00  0.00    -0.182 C  
HETATM    6  C   UNL     1      -9.938   6.922  67.475  1.00  0.00    -0.190 C  
HETATM    7  C   UNL     1     -10.779   9.317  67.562  1.00  0.00    -0.272 C  
HETATM    8  C   UNL     1     -10.824   6.433  68.613  1.00  0.00    -0.379 C  
BRANCH   7   9
HETATM    9  C   UNL     1     -10.421  10.795  67.406  1.00  0.00    -0.268 C  
BRANCH   9  10
HETATM   10  C   UNL     1     -10.145  11.287  65.972  1.00  0.00    -0.239 C  
BRANCH  10  11
HETATM   11  C   UNL     1     -10.423  12.800  65.830  1.00  0.00    -0.295 C  
HETATM   12  C   UNL     1     -12.779  12.651  64.834  1.00  0.00    -0.450 C  
HETATM   13  C   UNL     1     -11.363  13.208  64.674  1.00  0.00    -0.363 C  
HETATM   14  C   UNL     1     -11.443  14.740  64.594  1.00  0.00    -0.381 C  
ENDBRANCH  10  11
BRANCH  10  15
HETATM   15  O   UNL     1      -8.756  11.079  65.682  1.00  0.00    -0.186 OA 
HETATM   16  O   UNL     1      -8.538   8.854  64.557  1.00  0.00    -0.175 OA 
HETATM   17  O   UNL     1      -8.850  10.961  63.186  1.00  0.00    -0.202 OA 
HETATM   18  S   UNL     1      -8.327  10.273  64.337  1.00  0.00    -0.151 S  
HETATM   19  O   UNL     1      -6.725  10.436  64.340  1.00  0.00    -0.099 OA 
ENDBRANCH  10  15
ENDBRANCH   9  10
ENDBRANCH   7   9
ENDBRANCH   3   4
ENDBRANCH   2   3
TORSDOF 6
ENDMDL
MODEL      269
REMARK 921   NORMALIZED FREE ENERGY PREDICTED BY IDOCK:   -3.09 KCAL/MOL
REMARK 922        TOTAL FREE ENERGY PREDICTED BY IDOCK:   -4.94 KCAL/MOL
REMARK 923 INTER-LIGAND FREE ENERGY PREDICTED BY IDOCK:   -4.62 KCAL/MOL
REMARK 924 INTRA-LIGAND FREE ENERGY PREDICTED BY IDOCK:   -0.32 KCAL/MOL
REMARK 927      BINDING AFFINITY PREDICTED BY RF-SCORE:    0.00 PKD
ROOT
HETATM    1  C   UNL     1      -7.436  15.171  69.264  1.00  0.00    -0.193 C  
HETATM    2  C   UNL     1      -7.478  14.306  68.014  1.00  0.00    -0.144 C  
ENDROOT
BRANCH   2   3
HETATM    3  C   UNL     1      -8.733  14.598  67.189  1.00  0.00    -0.242 C  
BRANCH   3   4
HETATM    4  C   UNL     1      -9.467  13.310  66.808  1.00  0.00    -0.257 C  
HETATM    5  C   UNL     1     -10.940  13.249  67.291  1.00  0.00    -0.284 C  
HETATM    6  C   UNL     1     -11.797  14.446  66.824  1.00  0.00    -0.431 C  
HETATM    7  C   UNL     1     -11.612  11.914  66.884  1.00  0.00    -0.358 C  
HETATM    8  C   UNL     1     -12.033  14.523  65.321  1.00  0.00    -0.353 C  
BRANCH   7   9
HETATM    9  C   UNL     1     -10.930  10.704  67.525  1.00  0.00    -0.371 C  
BRANCH   9  10
HETATM   10  C   UNL     1     -10.619   9.518  66.592  1.00  0.00    -0.104 C  
BRANCH  10  11
HETATM   11  C   UNL     1      -9.225   9.662  65.941  1.00  0.00    -0.246 C  
HETATM   12  C   UNL     1      -9.927  10.957  63.845  1.00  0.00    -0.400 C  
HETATM   13  C   UNL     1      -9.205   9.727  64.397  1.00  0.00    -0.301 C  
HETATM   14  C   UNL     1      -7.749   9.748  63.905  1.00  0.00    -0.136 C  
ENDBRANCH  10  11
BRANCH  10  15
HETATM   15  O   UNL     1     -10.603   8.318  67.375  1.00  0.00    -0.284 OA 
HETATM   16  O   UNL     1      -8.434   7.151  66.935  1.00  0.00    -0.118 OA 
HETATM   17  O   UNL     1      -8.641   8.793  68.852  1.00  0.00    -0.133 OA 
HETATM   18  S   UNL     1      -9.199   7.781  67.995  1.00  0.00    -0.137 S  
HETATM   19  O   UNL     1      -9.683   6.550  68.914  1.00  0.00    -0.131 OA 
ENDBRANCH  10  15
ENDBRANCH   9  10
ENDBRANCH   7   9
ENDBRANCH   3   4
ENDBRANCH   2   3
TORSDOF 6
ENDMDL
MODEL      270
REMARK 921   NORMALIZED FREE ENERGY PREDICTED BY IDOCK:   -3.08 KCAL/MOL
REMARK 922        TOTAL FREE ENERGY PREDICTED BY IDOCK:   -4.92 KCAL/MOL
REMARK 923 INTER-LIGAND FREE ENERGY PREDICTED BY IDOCK:   -5.03 KCAL/MOL
REMARK 924 INTRA-LIGAND FREE ENERGY PREDICTED BY IDOCK:    0.10 KCAL/MOL
REMARK 927      BINDING AFFINITY PREDICTED BY RF-SCORE:    0.00 PKD
ROOT
HETATM    1  C   UNL     1     -11.672  12.499  67.170  1.00  0.00    -0.425 C  
HETATM    2  C   UNL     1     -11.877  12.608  65.667  1.00  0.00    -0.488 C  
ENDROOT
BRANCH   2   3
HETATM    3  C   UNL     1     -10.667  12.057  64.910  1.00  0.00    -0.346 C  
BRANCH   3   4
HETATM    4  C   UNL     1      -9.710  11.315  65.845  1.00  0.00    -0.258 C  
HETATM    5  C   UNL     1      -9.457   9.835  65.456  1.00  0.00    -0.324 C  
HETATM    6  C   UNL     1      -8.952   9.652  64.008  1.00  0.00    -0.261 C  
HETATM    7  C   UNL     1      -8.494   9.146  66.454  1.00  0.00    -0.129 C  
HETATM    8  C   UNL     1      -7.565  10.220  63.732  1.00  0.00    -0.092 C  
BRANCH   7   9
HETATM    9  C   UNL     1      -9.069   9.094  67.870  1.00  0.00    -0.134 C  
BRANCH   9  10
HETATM   10  C   UNL     1     -10.565   8.745  67.990  1.00  0.00    -0.159 C  
BRANCH  10  11
HETATM   11  C   UNL     1     -10.907   7.451  67.218  1.00  0.00    -0.326 C  
HETATM   12  C   UNL     1     -10.236   5.758  69.020  1.00  0.00    -0.282 C  
HETATM   13  C   UNL     1     -10.056   6.211  67.570  1.00  0.00    -0.189 C  
HETATM   14  C   UNL     1     -10.437   5.048  66.641  1.00  0.00    -0.301 C  
ENDBRANCH  10  11
BRANCH  10  15
HETATM   15  O   UNL     1     -10.865   8.510  69.373  1.00  0.00    -0.196 OA 
HETATM   16  O   UNL     1      -9.103   9.648  70.738  1.00  0.00    -0.183 OA 
HETATM   17  O   UNL     1     -11.244  10.862  70.137  1.00  0.00    -0.288 OA 
HETATM   18  S   UNL     1     -10.530   9.658  70.475  1.00  0.00    -0.309 S  
HETATM   19  O   UNL     1     -11.181   9.043  71.813  1.00  0.00    -0.336 OA 
ENDBRANCH  10  15
ENDBRANCH   9  10
ENDBRANCH   7   9
ENDBRANCH   3   4
ENDBRANCH   2   3
TORSDOF 6
ENDMDL
MODEL      271
REMARK 921   NORMALIZED FREE ENERGY PREDICTED BY IDOCK:   -3.07 KCAL/MOL
REMARK 922        TOTAL FREE ENERGY PREDICTED BY IDOCK:   -4.91 KCAL/MOL
REMARK 923 INTER-LIGAND FREE ENERGY PREDICTED BY IDOCK:   -4.14 KCAL/MOL
REMARK 924 INTRA-LIGAND FREE ENERGY PREDICTED BY IDOCK:   -0.77 KCAL/MOL
REMARK 927      BINDING AFFINITY PREDICTED BY RF-SCORE:    0.00 PKD
ROOT
HETATM    1  C   UNL     1     -10.580   4.795  66.223  1.00  0.00    -0.246 C  
HETATM    2  C   UNL     1     -10.679   5.788  67.371  1.00  0.00    -0.332 C  
ENDROOT
BRANCH   2   3
HETATM    3  C   UNL     1     -10.355   7.206  66.897  1.00  0.00    -0.349 C  
BRANCH   3   4
HETATM    4  C   UNL     1     -10.765   8.252  67.936  1.00  0.00    -0.138 C  
HETATM    5  C   UNL     1      -9.663   9.292  68.263  1.00  0.00    -0.167 C  
HETATM    6  C   UNL     1      -9.121  10.035  67.022  1.00  0.00    -0.159 C  
HETATM    7  C   UNL     1     -10.143  10.307  69.331  1.00  0.00    -0.255 C  
HETATM    8  C   UNL     1     -10.124  10.948  66.329  1.00  0.00    -0.284 C  
BRANCH   7   9
HETATM    9  C   UNL     1     -10.465   9.633  70.665  1.00  0.00    -0.379 C  
BRANCH   9  10
HETATM   10  C   UNL     1      -9.569   8.446  71.068  1.00  0.00    -0.169 C  
BRANCH  10  11
HETATM   11  C   UNL     1      -8.293   8.924  71.797  1.00  0.00    -0.073 C  
HETATM   12  C   UNL     1      -6.698   7.087  70.994  1.00  0.00    -0.053 C  
HETATM   13  C   UNL     1      -7.291   7.818  72.199  1.00  0.00    -0.083 C  
HETATM   14  C   UNL     1      -6.144   8.437  73.013  1.00  0.00    -0.085 C  
ENDBRANCH  10  11
BRANCH  10  15
HETATM   15  O   UNL     1     -10.299   7.618  71.983  1.00  0.00    -0.196 OA 
HETATM   16  O   UNL     1     -12.380   6.853  70.823  1.00  0.00    -0.376 OA 
HETATM   17  O   UNL     1     -10.269   5.456  70.725  1.00  0.00    -0.213 OA 
HETATM   18  S   UNL     1     -11.153   6.355  71.418  1.00  0.00    -0.288 S  
HETATM   19  O   UNL     1     -11.639   5.640  72.777  1.00  0.00    -0.297 OA 
ENDBRANCH  10  15
ENDBRANCH   9  10
ENDBRANCH   7   9
ENDBRANCH   3   4
ENDBRANCH   2   3
TORSDOF 6
ENDMDL
MODEL      272
REMARK 921   NORMALIZED FREE ENERGY PREDICTED BY IDOCK:   -3.07 KCAL/MOL
REMARK 922        TOTAL FREE ENERGY PREDICTED BY IDOCK:   -4.91 KCAL/MOL
REMARK 923 INTER-LIGAND FREE ENERGY PREDICTED BY IDOCK:   -4.90 KCAL/MOL
REMARK 924 INTRA-LIGAND FREE ENERGY PREDICTED BY IDOCK:   -0.01 KCAL/MOL
REMARK 927      BINDING AFFINITY PREDICTED BY RF-SCORE:    0.00 PKD
ROOT
HETATM    1  C   UNL     1     -11.159   6.853  67.272  1.00  0.00    -0.355 C  
HETATM    2  C   UNL     1      -9.934   6.137  66.726  1.00  0.00    -0.218 C  
ENDROOT
BRANCH   2   3
HETATM    3  C   UNL     1      -8.652   6.883  67.102  1.00  0.00    -0.121 C  
BRANCH   3   4
HETATM    4  C   UNL     1      -8.472   8.149  66.261  1.00  0.00    -0.136 C  
HETATM    5  C   UNL     1      -8.097   9.411  67.079  1.00  0.00    -0.105 C  
HETATM    6  C   UNL     1      -6.836   9.232  67.953  1.00  0.00    -0.072 C  
HETATM    7  C   UNL     1      -7.947  10.653  66.165  1.00  0.00    -0.151 C  
HETATM    8  C   UNL     1      -5.537   9.044  67.180  1.00  0.00    -0.041 C  
BRANCH   7   9
HETATM    9  C   UNL     1      -9.254  11.010  65.456  1.00  0.00    -0.235 C  
BRANCH   9  10
HETATM   10  C   UNL     1     -10.162  12.031  66.167  1.00  0.00    -0.226 C  
BRANCH  10  11
HETATM   11  C   UNL     1      -9.801  13.481  65.771  1.00  0.00    -0.218 C  
HETATM   12  C   UNL     1      -8.186  13.997  67.691  1.00  0.00    -0.185 C  
HETATM   13  C   UNL     1      -9.444  14.430  66.937  1.00  0.00    -0.268 C  
HETATM   14  C   UNL     1      -9.228  15.851  66.393  1.00  0.00    -0.344 C  
ENDBRANCH  10  11
BRANCH  10  15
HETATM   15  O   UNL     1     -11.515  11.800  65.753  1.00  0.00    -0.300 OA 
HETATM   16  O   UNL     1     -12.633  14.028  65.526  1.00  0.00    -0.489 OA 
HETATM   17  O   UNL     1     -11.490  12.957  63.535  1.00  0.00    -0.463 OA 
HETATM   18  S   UNL     1     -12.244  12.860  64.757  1.00  0.00    -0.462 S  
HETATM   19  O   UNL     1     -13.637  12.120  64.435  1.00  0.00    -0.513 OA 
ENDBRANCH  10  15
ENDBRANCH   9  10
ENDBRANCH   7   9
ENDBRANCH   3   4
ENDBRANCH   2   3
TORSDOF 6
ENDMDL
MODEL      273
REMARK 921   NORMALIZED FREE ENERGY PREDICTED BY IDOCK:   -3.07 KCAL/MOL
REMARK 922        TOTAL FREE ENERGY PREDICTED BY IDOCK:   -4.90 KCAL/MOL
REMARK 923 INTER-LIGAND FREE ENERGY PREDICTED BY IDOCK:   -3.77 KCAL/MOL
REMARK 924 INTRA-LIGAND FREE ENERGY PREDICTED BY IDOCK:   -1.13 KCAL/MOL
REMARK 927      BINDING AFFINITY PREDICTED BY RF-SCORE:    0.00 PKD
ROOT
HETATM    1  C   UNL     1     -10.879   6.808  66.967  1.00  0.00    -0.453 C  
HETATM    2  C   UNL     1      -9.920   5.628  66.954  1.00  0.00    -0.202 C  
ENDROOT
BRANCH   2   3
HETATM    3  C   UNL     1      -8.506   6.077  66.583  1.00  0.00    -0.112 C  
BRANCH   3   4
HETATM    4  C   UNL     1      -8.512   7.452  65.910  1.00  0.00    -0.155 C  
HETATM    5  C   UNL     1      -7.517   8.468  66.527  1.00  0.00    -0.088 C  
HETATM    6  C   UNL     1      -6.058   7.962  66.570  1.00  0.00    -0.045 C  
HETATM    7  C   UNL     1      -7.590   9.838  65.808  1.00  0.00    -0.108 C  
HETATM    8  C   UNL     1      -5.403   7.770  65.208  1.00  0.00    -0.029 C  
BRANCH   7   9
HETATM    9  C   UNL     1      -8.966  10.491  65.947  1.00  0.00    -0.185 C  
BRANCH   9  10
HETATM   10  C   UNL     1      -9.105  11.571  67.038  1.00  0.00    -0.175 C  
BRANCH  10  11
HETATM   11  C   UNL     1      -7.828  12.433  67.145  1.00  0.00    -0.138 C  
HETATM   12  C   UNL     1      -6.810  11.330  69.221  1.00  0.00    -0.116 C  
HETATM   13  C   UNL     1      -7.268  12.636  68.571  1.00  0.00    -0.113 C  
HETATM   14  C   UNL     1      -6.077  13.606  68.521  1.00  0.00    -0.091 C  
ENDBRANCH  10  11
BRANCH  10  15
HETATM   15  O   UNL     1     -10.182  12.446  66.674  1.00  0.00    -0.220 OA 
HETATM   16  O   UNL     1     -12.271  11.559  67.730  1.00  0.00    -0.560 OA 
HETATM   17  O   UNL     1     -10.849  13.272  68.939  1.00  0.00    -0.243 OA 
HETATM   18  S   UNL     1     -11.391  12.713  67.729  1.00  0.00    -0.319 S  
HETATM   19  O   UNL     1     -12.244  13.857  66.982  1.00  0.00    -0.421 OA 
ENDBRANCH  10  15
ENDBRANCH   9  10
ENDBRANCH   7   9
ENDBRANCH   3   4
ENDBRANCH   2   3
TORSDOF 6
ENDMDL
MODEL      274
REMARK 921   NORMALIZED FREE ENERGY PREDICTED BY IDOCK:   -3.06 KCAL/MOL
REMARK 922        TOTAL FREE ENERGY PREDICTED BY IDOCK:   -4.89 KCAL/MOL
REMARK 923 INTER-LIGAND FREE ENERGY PREDICTED BY IDOCK:   -4.12 KCAL/MOL
REMARK 924 INTRA-LIGAND FREE ENERGY PREDICTED BY IDOCK:   -0.78 KCAL/MOL
REMARK 927      BINDING AFFINITY PREDICTED BY RF-SCORE:    0.00 PKD
ROOT
HETATM    1  C   UNL     1      -6.349   6.717  70.691  1.00  0.00    -0.040 C  
HETATM    2  C   UNL     1      -6.918   5.348  71.028  1.00  0.00    -0.060 C  
ENDROOT
BRANCH   2   3
HETATM    3  C   UNL     1      -8.001   4.945  70.024  1.00  0.00    -0.073 C  
BRANCH   3   4
HETATM    4  C   UNL     1      -8.912   6.125  69.677  1.00  0.00    -0.134 C  
HETATM    5  C   UNL     1      -8.737   6.663  68.234  1.00  0.00    -0.118 C  
HETATM    6  C   UNL     1      -8.913   5.583  67.143  1.00  0.00    -0.112 C  
HETATM    7  C   UNL     1      -9.677   7.863  67.961  1.00  0.00    -0.182 C  
HETATM    8  C   UNL     1     -10.320   5.011  67.024  1.00  0.00    -0.242 C  
BRANCH   7   9
HETATM    9  C   UNL     1      -9.374   9.054  68.871  1.00  0.00    -0.143 C  
BRANCH   9  10
HETATM   10  C   UNL     1     -10.546  10.010  69.163  1.00  0.00    -0.218 C  
BRANCH  10  11
HETATM   11  C   UNL     1     -11.087  10.653  67.867  1.00  0.00    -0.371 C  
HETATM   12  C   UNL     1      -9.712  12.814  67.925  1.00  0.00    -0.217 C  
HETATM   13  C   UNL     1     -11.109  12.198  67.838  1.00  0.00    -0.295 C  
HETATM   14  C   UNL     1     -11.779  12.677  66.542  1.00  0.00    -0.463 C  
ENDBRANCH  10  11
BRANCH  10  15
HETATM   15  O   UNL     1     -11.616   9.250  69.742  1.00  0.00    -0.013 OA 
HETATM   16  O   UNL     1     -11.173   9.061  72.198  1.00  0.00    -0.351 OA 
HETATM   17  O   UNL     1     -12.575  10.966  71.289  1.00  0.00    -0.377 OA 
HETATM   18  S   UNL     1     -12.128   9.599  71.246  1.00  0.00    -0.397 S  
HETATM   19  O   UNL     1     -13.414   8.641  71.396  1.00  0.00    -0.311 OA 
ENDBRANCH  10  15
ENDBRANCH   9  10
ENDBRANCH   7   9
ENDBRANCH   3   4
ENDBRANCH   2   3
TORSDOF 6
ENDMDL
MODEL      275
REMARK 921   NORMALIZED FREE ENERGY PREDICTED BY IDOCK:   -3.04 KCAL/MOL
REMARK 922        TOTAL FREE ENERGY PREDICTED BY IDOCK:   -4.86 KCAL/MOL
REMARK 923 INTER-LIGAND FREE ENERGY PREDICTED BY IDOCK:   -4.82 KCAL/MOL
REMARK 924 INTRA-LIGAND FREE ENERGY PREDICTED BY IDOCK:   -0.04 KCAL/MOL
REMARK 927      BINDING AFFINITY PREDICTED BY RF-SCORE:    0.00 PKD
ROOT
HETATM    1  C   UNL     1     -14.379   8.381  72.310  1.00  0.00    -0.465 C  
HETATM    2  C   UNL     1     -13.098   9.139  71.996  1.00  0.00    -0.497 C  
ENDROOT
BRANCH   2   3
HETATM    3  C   UNL     1     -11.868   8.294  72.330  1.00  0.00    -0.461 C  
BRANCH   3   4
HETATM    4  C   UNL     1     -10.751   8.497  71.303  1.00  0.00    -0.302 C  
HETATM    5  C   UNL     1      -9.358   8.776  71.922  1.00  0.00    -0.343 C  
HETATM    6  C   UNL     1      -8.897   7.695  72.925  1.00  0.00    -0.211 C  
HETATM    7  C   UNL     1      -8.284   8.986  70.826  1.00  0.00    -0.213 C  
HETATM    8  C   UNL     1      -8.627   6.325  72.318  1.00  0.00    -0.118 C  
BRANCH   7   9
HETATM    9  C   UNL     1      -8.583  10.203  69.950  1.00  0.00    -0.100 C  
BRANCH   9  10
HETATM   10  C   UNL     1      -8.762   9.936  68.443  1.00  0.00    -0.120 C  
BRANCH  10  11
HETATM   11  C   UNL     1      -9.979   9.023  68.172  1.00  0.00    -0.206 C  
HETATM   12  C   UNL     1      -8.763   6.768  68.203  1.00  0.00    -0.122 C  
HETATM   13  C   UNL     1      -9.680   7.707  67.419  1.00  0.00    -0.208 C  
HETATM   14  C   UNL     1     -10.998   6.974  67.124  1.00  0.00    -0.393 C  
ENDBRANCH  10  11
BRANCH  10  15
HETATM   15  O   UNL     1      -9.014  11.187  67.788  1.00  0.00    -0.135 OA 
HETATM   16  O   UNL     1     -10.673  10.770  65.962  1.00  0.00    -0.196 OA 
HETATM   17  O   UNL     1     -11.453  11.446  68.275  1.00  0.00    -0.252 OA 
HETATM   18  S   UNL     1     -10.497  11.504  67.202  1.00  0.00    -0.234 S  
HETATM   19  O   UNL     1     -10.355  13.038  66.732  1.00  0.00    -0.249 OA 
ENDBRANCH  10  15
ENDBRANCH   9  10
ENDBRANCH   7   9
ENDBRANCH   3   4
ENDBRANCH   2   3
TORSDOF 6
ENDMDL
MODEL      276
REMARK 921   NORMALIZED FREE ENERGY PREDICTED BY IDOCK:   -3.02 KCAL/MOL
REMARK 922        TOTAL FREE ENERGY PREDICTED BY IDOCK:   -4.85 KCAL/MOL
REMARK 923 INTER-LIGAND FREE ENERGY PREDICTED BY IDOCK:   -4.12 KCAL/MOL
REMARK 924 INTRA-LIGAND FREE ENERGY PREDICTED BY IDOCK:   -0.73 KCAL/MOL
REMARK 927      BINDING AFFINITY PREDICTED BY RF-SCORE:    0.00 PKD
ROOT
HETATM    1  C   UNL     1      -7.063   2.935  66.591  1.00  0.00    -0.054 C  
HETATM    2  C   UNL     1      -7.883   1.657  66.681  1.00  0.00    -0.067 C  
ENDROOT
BRANCH   2   3
HETATM    3  C   UNL     1      -9.146   1.877  67.516  1.00  0.00    -0.182 C  
BRANCH   3   4
HETATM    4  C   UNL     1      -9.095   3.207  68.272  1.00  0.00    -0.215 C  
HETATM    5  C   UNL     1      -9.455   3.099  69.777  1.00  0.00    -0.198 C  
HETATM    6  C   UNL     1      -8.596   2.074  70.549  1.00  0.00    -0.097 C  
HETATM    7  C   UNL     1      -9.397   4.482  70.471  1.00  0.00    -0.218 C  
HETATM    8  C   UNL     1      -7.121   2.433  70.674  1.00  0.00    -0.033 C  
BRANCH   7   9
HETATM    9  C   UNL     1     -10.412   5.466  69.887  1.00  0.00    -0.378 C  
BRANCH   9  10
HETATM   10  C   UNL     1     -10.064   6.962  70.005  1.00  0.00    -0.182 C  
BRANCH  10  11
HETATM   11  C   UNL     1      -9.380   7.486  68.721  1.00  0.00    -0.147 C  
HETATM   12  C   UNL     1     -11.009   6.500  67.007  1.00  0.00    -0.466 C  
HETATM   13  C   UNL     1      -9.553   6.610  67.460  1.00  0.00    -0.142 C  
HETATM   14  C   UNL     1      -8.722   7.200  66.309  1.00  0.00    -0.156 C  
ENDBRANCH  10  11
BRANCH  10  15
HETATM   15  O   UNL     1     -11.283   7.699  70.171  1.00  0.00    -0.254 OA 
HETATM   16  O   UNL     1     -12.644   6.533  71.918  1.00  0.00    -0.341 OA 
HETATM   17  O   UNL     1     -11.046   8.390  72.563  1.00  0.00    -0.361 OA 
HETATM   18  S   UNL     1     -11.973   7.790  71.640  1.00  0.00    -0.310 S  
HETATM   19  O   UNL     1     -13.176   8.830  71.385  1.00  0.00    -0.316 OA 
ENDBRANCH  10  15
ENDBRANCH   9  10
ENDBRANCH   7   9
ENDBRANCH   3   4
ENDBRANCH   2   3
TORSDOF 6
ENDMDL
MODEL      277
REMARK 921   NORMALIZED FREE ENERGY PREDICTED BY IDOCK:   -3.02 KCAL/MOL
REMARK 922        TOTAL FREE ENERGY PREDICTED BY IDOCK:   -4.84 KCAL/MOL
REMARK 923 INTER-LIGAND FREE ENERGY PREDICTED BY IDOCK:   -4.36 KCAL/MOL
REMARK 924 INTRA-LIGAND FREE ENERGY PREDICTED BY IDOCK:   -0.48 KCAL/MOL
REMARK 927      BINDING AFFINITY PREDICTED BY RF-SCORE:    0.00 PKD
ROOT
HETATM    1  C   UNL     1      -7.855  14.915  68.511  1.00  0.00    -0.126 C  
HETATM    2  C   UNL     1      -9.195  14.573  67.878  1.00  0.00    -0.196 C  
ENDROOT
BRANCH   2   3
HETATM    3  C   UNL     1      -9.015  13.602  66.709  1.00  0.00    -0.196 C  
BRANCH   3   4
HETATM    4  C   UNL     1      -9.118  12.146  67.169  1.00  0.00    -0.189 C  
HETATM    5  C   UNL     1     -10.454  11.452  66.795  1.00  0.00    -0.284 C  
HETATM    6  C   UNL     1     -10.779  11.504  65.286  1.00  0.00    -0.337 C  
HETATM    7  C   UNL     1     -10.492   9.990  67.306  1.00  0.00    -0.313 C  
HETATM    8  C   UNL     1      -9.832  10.710  64.395  1.00  0.00    -0.395 C  
BRANCH   7   9
HETATM    9  C   UNL     1     -10.412   9.908  68.830  1.00  0.00    -0.229 C  
BRANCH   9  10
HETATM   10  C   UNL     1     -10.585   8.508  69.451  1.00  0.00    -0.195 C  
BRANCH  10  11
HETATM   11  C   UNL     1      -9.319   7.644  69.256  1.00  0.00    -0.148 C  
HETATM   12  C   UNL     1      -7.666   9.112  70.552  1.00  0.00    -0.142 C  
HETATM   13  C   UNL     1      -7.977   8.409  69.230  1.00  0.00    -0.113 C  
HETATM   14  C   UNL     1      -6.835   7.431  68.912  1.00  0.00    -0.072 C  
ENDBRANCH  10  11
BRANCH  10  15
HETATM   15  O   UNL     1     -10.785   8.660  70.863  1.00  0.00    -0.204 OA 
HETATM   16  O   UNL     1     -13.075   9.608  71.208  1.00  0.00    -0.354 OA 
HETATM   17  O   UNL     1     -12.712   7.101  71.195  1.00  0.00    -0.367 OA 
HETATM   18  S   UNL     1     -12.267   8.437  71.493  1.00  0.00    -0.311 S  
HETATM   19  O   UNL     1     -11.980   8.533  73.075  1.00  0.00    -0.186 OA 
ENDBRANCH  10  15
ENDBRANCH   9  10
ENDBRANCH   7   9
ENDBRANCH   3   4
ENDBRANCH   2   3
TORSDOF 6
ENDMDL
MODEL      278
REMARK 921   NORMALIZED FREE ENERGY PREDICTED BY IDOCK:   -3.02 KCAL/MOL
REMARK 922        TOTAL FREE ENERGY PREDICTED BY IDOCK:   -4.84 KCAL/MOL
REMARK 923 INTER-LIGAND FREE ENERGY PREDICTED BY IDOCK:   -4.07 KCAL/MOL
REMARK 924 INTRA-LIGAND FREE ENERGY PREDICTED BY IDOCK:   -0.76 KCAL/MOL
REMARK 927      BINDING AFFINITY PREDICTED BY RF-SCORE:    0.00 PKD
ROOT
HETATM    1  C   UNL     1      -6.783  11.275  66.492  1.00  0.00    -0.105 C  
HETATM    2  C   UNL     1      -6.264  11.774  67.831  1.00  0.00    -0.053 C  
ENDROOT
BRANCH   2   3
HETATM    3  C   UNL     1      -5.582  13.136  67.680  1.00  0.00    -0.088 C  
BRANCH   3   4
HETATM    4  C   UNL     1      -6.606  14.271  67.606  1.00  0.00    -0.172 C  
HETATM    5  C   UNL     1      -7.499  14.408  68.867  1.00  0.00    -0.132 C  
HETATM    6  C   UNL     1      -6.699  14.568  70.179  1.00  0.00    -0.089 C  
HETATM    7  C   UNL     1      -8.518  15.564  68.713  1.00  0.00    -0.190 C  
HETATM    8  C   UNL     1      -5.905  15.862  70.296  1.00  0.00    -0.122 C  
BRANCH   7   9
HETATM    9  C   UNL     1      -9.492  15.326  67.559  1.00  0.00    -0.202 C  
BRANCH   9  10
HETATM   10  C   UNL     1     -10.932  14.936  67.945  1.00  0.00    -0.286 C  
BRANCH  10  11
HETATM   11  C   UNL     1     -11.460  13.781  67.065  1.00  0.00    -0.368 C  
HETATM   12  C   UNL     1     -11.527  15.024  64.826  1.00  0.00    -0.403 C  
HETATM   13  C   UNL     1     -12.312  14.197  65.845  1.00  0.00    -0.486 C  
HETATM   14  C   UNL     1     -12.856  12.941  65.147  1.00  0.00    -0.295 C  
ENDBRANCH  10  11
BRANCH  10  15
HETATM   15  O   UNL     1     -10.926  14.471  69.302  1.00  0.00    -0.250 OA 
HETATM   16  O   UNL     1     -11.329  16.446  70.785  1.00  0.00    -0.373 OA 
HETATM   17  O   UNL     1     -13.270  15.041  69.963  1.00  0.00     0.006 OA 
HETATM   18  S   UNL     1     -11.904  15.171  70.396  1.00  0.00    -0.337 S  
HETATM   19  O   UNL     1     -11.692  14.235  71.689  1.00  0.00    -0.130 OA 
ENDBRANCH  10  15
ENDBRANCH   9  10
ENDBRANCH   7   9
ENDBRANCH   3   4
ENDBRANCH   2   3
TORSDOF 6
ENDMDL
MODEL      279
REMARK 921   NORMALIZED FREE ENERGY PREDICTED BY IDOCK:   -3.00 KCAL/MOL
REMARK 922        TOTAL FREE ENERGY PREDICTED BY IDOCK:   -4.81 KCAL/MOL
REMARK 923 INTER-LIGAND FREE ENERGY PREDICTED BY IDOCK:   -4.81 KCAL/MOL
REMARK 924 INTRA-LIGAND FREE ENERGY PREDICTED BY IDOCK:    0.00 KCAL/MOL
REMARK 927      BINDING AFFINITY PREDICTED BY RF-SCORE:    0.00 PKD
ROOT
HETATM    1  C   UNL     1      -9.718   4.944  67.022  1.00  0.00    -0.193 C  
HETATM    2  C   UNL     1      -9.004   6.258  67.298  1.00  0.00    -0.113 C  
ENDROOT
BRANCH   2   3
HETATM    3  C   UNL     1      -8.702   6.999  65.994  1.00  0.00    -0.156 C  
BRANCH   3   4
HETATM    4  C   UNL     1      -9.316   8.401  65.990  1.00  0.00    -0.244 C  
HETATM    5  C   UNL     1      -8.353   9.518  65.512  1.00  0.00    -0.137 C  
HETATM    6  C   UNL     1      -7.743   9.257  64.117  1.00  0.00    -0.120 C  
HETATM    7  C   UNL     1      -9.037  10.907  65.550  1.00  0.00    -0.221 C  
HETATM    8  C   UNL     1      -8.739   9.280  62.964  1.00  0.00    -0.203 C  
BRANCH   7   9
HETATM    9  C   UNL     1      -9.446  11.312  66.966  1.00  0.00    -0.186 C  
BRANCH   9  10
HETATM   10  C   UNL     1     -10.957  11.462  67.227  1.00  0.00    -0.282 C  
BRANCH  10  11
HETATM   11  C   UNL     1     -11.459  10.422  68.254  1.00  0.00    -0.218 C  
HETATM   12  C   UNL     1     -12.032  12.034  70.161  1.00  0.00    -0.401 C  
HETATM   13  C   UNL     1     -11.251  10.788  69.741  1.00  0.00    -0.365 C  
HETATM   14  C   UNL     1     -11.690   9.610  70.625  1.00  0.00    -0.353 C  
ENDBRANCH  10  11
BRANCH  10  15
HETATM   15  O   UNL     1     -11.194  12.762  67.785  1.00  0.00    -0.247 OA 
HETATM   16  O   UNL     1     -10.366  14.457  66.140  1.00  0.00    -0.280 OA 
HETATM   17  O   UNL     1     -12.777  13.680  66.080  1.00  0.00    -0.414 OA 
HETATM   18  S   UNL     1     -11.575  14.001  66.803  1.00  0.00    -0.407 S  
HETATM   19  O   UNL     1     -11.913  15.174  67.853  1.00  0.00    -0.268 OA 
ENDBRANCH  10  15
ENDBRANCH   9  10
ENDBRANCH   7   9
ENDBRANCH   3   4
ENDBRANCH   2   3
TORSDOF 6
ENDMDL
MODEL      280
REMARK 921   NORMALIZED FREE ENERGY PREDICTED BY IDOCK:   -2.96 KCAL/MOL
REMARK 922        TOTAL FREE ENERGY PREDICTED BY IDOCK:   -4.76 KCAL/MOL
REMARK 923 INTER-LIGAND FREE ENERGY PREDICTED BY IDOCK:   -4.90 KCAL/MOL
REMARK 924 INTRA-LIGAND FREE ENERGY PREDICTED BY IDOCK:    0.14 KCAL/MOL
REMARK 927      BINDING AFFINITY PREDICTED BY RF-SCORE:    0.00 PKD
ROOT
HETATM    1  C   UNL     1     -11.711   6.945  69.973  1.00  0.00    -0.261 C  
HETATM    2  C   UNL     1     -10.775   5.903  69.379  1.00  0.00    -0.406 C  
ENDROOT
BRANCH   2   3
HETATM    3  C   UNL     1     -11.033   5.728  67.881  1.00  0.00    -0.140 C  
BRANCH   3   4
HETATM    4  C   UNL     1     -10.628   6.976  67.093  1.00  0.00    -0.412 C  
HETATM    5  C   UNL     1      -9.328   7.655  67.596  1.00  0.00    -0.158 C  
HETATM    6  C   UNL     1      -8.112   6.705  67.650  1.00  0.00    -0.119 C  
HETATM    7  C   UNL     1      -8.991   8.916  66.763  1.00  0.00    -0.155 C  
HETATM    8  C   UNL     1      -7.621   6.209  66.296  1.00  0.00    -0.090 C  
BRANCH   7   9
HETATM    9  C   UNL     1     -10.074   9.991  66.876  1.00  0.00    -0.287 C  
BRANCH   9  10
HETATM   10  C   UNL     1      -9.781  11.334  66.181  1.00  0.00    -0.220 C  
BRANCH  10  11
HETATM   11  C   UNL     1      -8.849  11.149  64.963  1.00  0.00    -0.021 C  
HETATM   12  C   UNL     1     -10.606  11.387  63.114  1.00  0.00    -0.278 C  
HETATM   13  C   UNL     1      -9.496  10.520  63.708  1.00  0.00    -0.342 C  
HETATM   14  C   UNL     1      -8.419  10.295  62.635  1.00  0.00    -0.193 C  
ENDBRANCH  10  11
BRANCH  10  15
HETATM   15  O   UNL     1     -11.019  11.871  65.694  1.00  0.00    -0.288 OA 
HETATM   16  O   UNL     1     -12.394  12.531  67.679  1.00  0.00    -0.295 OA 
HETATM   17  O   UNL     1     -10.850  14.207  66.572  1.00  0.00    -0.293 OA 
HETATM   18  S   UNL     1     -11.744  13.081  66.503  1.00  0.00    -0.396 S  
HETATM   19  O   UNL     1     -12.963  13.462  65.522  1.00  0.00    -0.544 OA 
ENDBRANCH  10  15
ENDBRANCH   9  10
ENDBRANCH   7   9
ENDBRANCH   3   4
ENDBRANCH   2   3
TORSDOF 6
ENDMDL
MODEL      281
REMARK 921   NORMALIZED FREE ENERGY PREDICTED BY IDOCK:   -2.96 KCAL/MOL
REMARK 922        TOTAL FREE ENERGY PREDICTED BY IDOCK:   -4.75 KCAL/MOL
REMARK 923 INTER-LIGAND FREE ENERGY PREDICTED BY IDOCK:   -4.02 KCAL/MOL
REMARK 924 INTRA-LIGAND FREE ENERGY PREDICTED BY IDOCK:   -0.74 KCAL/MOL
REMARK 927      BINDING AFFINITY PREDICTED BY RF-SCORE:    0.00 PKD
ROOT
HETATM    1  C   UNL     1     -10.307  18.284  65.988  1.00  0.00    -0.377 C  
HETATM    2  C   UNL     1     -10.627  16.952  66.647  1.00  0.00    -0.189 C  
ENDROOT
BRANCH   2   3
HETATM    3  C   UNL     1     -10.170  15.785  65.770  1.00  0.00    -0.394 C  
BRANCH   3   4
HETATM    4  C   UNL     1     -10.270  14.451  66.513  1.00  0.00    -0.276 C  
HETATM    5  C   UNL     1      -8.903  13.852  66.934  1.00  0.00    -0.210 C  
HETATM    6  C   UNL     1      -8.039  14.811  67.782  1.00  0.00    -0.161 C  
HETATM    7  C   UNL     1      -9.081  12.498  67.666  1.00  0.00    -0.187 C  
HETATM    8  C   UNL     1      -8.601  15.136  69.161  1.00  0.00    -0.218 C  
BRANCH   7   9
HETATM    9  C   UNL     1      -9.723  11.437  66.771  1.00  0.00    -0.221 C  
BRANCH   9  10
HETATM   10  C   UNL     1      -9.002  10.078  66.693  1.00  0.00    -0.139 C  
BRANCH  10  11
HETATM   11  C   UNL     1     -10.006   8.914  66.533  1.00  0.00    -0.358 C  
HETATM   12  C   UNL     1     -10.425   8.444  69.017  1.00  0.00    -0.216 C  
HETATM   13  C   UNL     1     -10.006   7.863  67.666  1.00  0.00    -0.234 C  
HETATM   14  C   UNL     1     -10.966   6.719  67.303  1.00  0.00    -0.433 C  
ENDBRANCH  10  11
BRANCH  10  15
HETATM   15  O   UNL     1      -8.160  10.078  65.532  1.00  0.00    -0.126 OA 
HETATM   16  O   UNL     1      -5.826  10.573  66.286  1.00  0.00    -0.071 OA 
HETATM   17  O   UNL     1      -6.636   8.179  66.106  1.00  0.00    -0.046 OA 
HETATM   18  S   UNL     1      -6.629   9.544  65.650  1.00  0.00    -0.075 S  
HETATM   19  O   UNL     1      -6.145   9.562  64.114  1.00  0.00    -0.086 OA 
ENDBRANCH  10  15
ENDBRANCH   9  10
ENDBRANCH   7   9
ENDBRANCH   3   4
ENDBRANCH   2   3
TORSDOF 6
ENDMDL
MODEL      282
REMARK 921   NORMALIZED FREE ENERGY PREDICTED BY IDOCK:   -2.95 KCAL/MOL
REMARK 922        TOTAL FREE ENERGY PREDICTED BY IDOCK:   -4.75 KCAL/MOL
REMARK 923 INTER-LIGAND FREE ENERGY PREDICTED BY IDOCK:   -4.20 KCAL/MOL
REMARK 924 INTRA-LIGAND FREE ENERGY PREDICTED BY IDOCK:   -0.55 KCAL/MOL
REMARK 927      BINDING AFFINITY PREDICTED BY RF-SCORE:    0.00 PKD
ROOT
HETATM    1  C   UNL     1      -9.462   4.030  62.447  1.00  0.00    -0.116 C  
HETATM    2  C   UNL     1     -10.463   3.658  63.530  1.00  0.00    -0.255 C  
ENDROOT
BRANCH   2   3
HETATM    3  C   UNL     1      -9.777   3.552  64.893  1.00  0.00    -0.157 C  
BRANCH   3   4
HETATM    4  C   UNL     1      -9.537   4.932  65.510  1.00  0.00    -0.145 C  
HETATM    5  C   UNL     1     -10.087   5.091  66.951  1.00  0.00    -0.261 C  
HETATM    6  C   UNL     1      -9.560   4.025  67.938  1.00  0.00    -0.199 C  
HETATM    7  C   UNL     1      -9.822   6.514  67.503  1.00  0.00    -0.150 C  
HETATM    8  C   UNL     1      -8.067   4.103  68.233  1.00  0.00    -0.081 C  
BRANCH   7   9
HETATM    9  C   UNL     1     -10.531   7.592  66.683  1.00  0.00    -0.198 C  
BRANCH   9  10
HETATM   10  C   UNL     1     -10.011   9.033  66.851  1.00  0.00    -0.246 C  
BRANCH  10  11
HETATM   11  C   UNL     1      -9.906   9.757  65.490  1.00  0.00    -0.378 C  
HETATM   12  C   UNL     1      -9.005  12.002  66.335  1.00  0.00    -0.161 C  
HETATM   13  C   UNL     1     -10.090  11.291  65.526  1.00  0.00    -0.306 C  
HETATM   14  C   UNL     1     -10.076  11.843  64.092  1.00  0.00    -0.338 C  
ENDBRANCH  10  11
BRANCH  10  15
HETATM   15  O   UNL     1     -10.951   9.763  67.651  1.00  0.00    -0.280 OA 
HETATM   16  O   UNL     1     -10.948   8.751  69.940  1.00  0.00    -0.239 OA 
HETATM   17  O   UNL     1      -9.408  10.686  69.391  1.00  0.00    -0.163 OA 
HETATM   18  S   UNL     1     -10.656   9.985  69.235  1.00  0.00    -0.241 S  
HETATM   19  O   UNL     1     -11.850  10.976  69.667  1.00  0.00    -0.285 OA 
ENDBRANCH  10  15
ENDBRANCH   9  10
ENDBRANCH   7   9
ENDBRANCH   3   4
ENDBRANCH   2   3
TORSDOF 6
ENDMDL
MODEL      283
REMARK 921   NORMALIZED FREE ENERGY PREDICTED BY IDOCK:   -2.95 KCAL/MOL
REMARK 922        TOTAL FREE ENERGY PREDICTED BY IDOCK:   -4.74 KCAL/MOL
REMARK 923 INTER-LIGAND FREE ENERGY PREDICTED BY IDOCK:   -3.92 KCAL/MOL
REMARK 924 INTRA-LIGAND FREE ENERGY PREDICTED BY IDOCK:   -0.83 KCAL/MOL
REMARK 927      BINDING AFFINITY PREDICTED BY RF-SCORE:    0.00 PKD
ROOT
HETATM    1  C   UNL     1      -7.111   3.859  67.705  1.00  0.00    -0.056 C  
HETATM    2  C   UNL     1      -8.102   2.715  67.848  1.00  0.00    -0.069 C  
ENDROOT
BRANCH   2   3
HETATM    3  C   UNL     1      -9.479   3.234  68.266  1.00  0.00    -0.214 C  
BRANCH   3   4
HETATM    4  C   UNL     1      -9.414   4.693  68.725  1.00  0.00    -0.214 C  
HETATM    5  C   UNL     1     -10.233   4.997  70.005  1.00  0.00    -0.339 C  
HETATM    6  C   UNL     1      -9.864   4.099  71.207  1.00  0.00    -0.249 C  
HETATM    7  C   UNL     1     -10.133   6.491  70.399  1.00  0.00    -0.213 C  
HETATM    8  C   UNL     1      -8.459   4.306  71.758  1.00  0.00    -0.112 C  
BRANCH   7   9
HETATM    9  C   UNL     1     -10.713   7.412  69.325  1.00  0.00    -0.197 C  
BRANCH   9  10
HETATM   10  C   UNL     1     -10.052   8.796  69.179  1.00  0.00    -0.198 C  
BRANCH  10  11
HETATM   11  C   UNL     1      -8.693   8.699  68.450  1.00  0.00    -0.142 C  
HETATM   12  C   UNL     1      -9.555   7.932  66.162  1.00  0.00    -0.127 C  
HETATM   13  C   UNL     1      -8.605   7.643  67.325  1.00  0.00    -0.121 C  
HETATM   14  C   UNL     1      -7.168   7.588  66.785  1.00  0.00    -0.084 C  
ENDBRANCH  10  11
BRANCH  10  15
HETATM   15  O   UNL     1     -10.907   9.624  68.379  1.00  0.00    -0.219 OA 
HETATM   16  O   UNL     1     -11.947  11.328  69.890  1.00  0.00    -0.306 OA 
HETATM   17  O   UNL     1      -9.776  11.834  68.685  1.00  0.00    -0.191 OA 
HETATM   18  S   UNL     1     -11.067  11.201  68.741  1.00  0.00    -0.261 S  
HETATM   19  O   UNL     1     -11.951  11.744  67.509  1.00  0.00    -0.607 OA 
ENDBRANCH  10  15
ENDBRANCH   9  10
ENDBRANCH   7   9
ENDBRANCH   3   4
ENDBRANCH   2   3
TORSDOF 6
ENDMDL
MODEL      284
REMARK 921   NORMALIZED FREE ENERGY PREDICTED BY IDOCK:   -2.92 KCAL/MOL
REMARK 922        TOTAL FREE ENERGY PREDICTED BY IDOCK:   -4.71 KCAL/MOL
REMARK 923 INTER-LIGAND FREE ENERGY PREDICTED BY IDOCK:   -3.87 KCAL/MOL
REMARK 924 INTRA-LIGAND FREE ENERGY PREDICTED BY IDOCK:   -0.84 KCAL/MOL
REMARK 927      BINDING AFFINITY PREDICTED BY RF-SCORE:    0.00 PKD
ROOT
HETATM    1  C   UNL     1     -12.310  11.099  69.827  1.00  0.00    -0.315 C  
HETATM    2  C   UNL     1     -11.675  11.515  68.510  1.00  0.00    -0.379 C  
ENDROOT
BRANCH   2   3
HETATM    3  C   UNL     1     -10.651  10.477  68.045  1.00  0.00    -0.251 C  
BRANCH   3   4
HETATM    4  C   UNL     1      -9.771   9.999  69.202  1.00  0.00    -0.217 C  
HETATM    5  C   UNL     1      -9.167   8.585  69.002  1.00  0.00    -0.146 C  
HETATM    6  C   UNL     1      -8.362   8.434  67.693  1.00  0.00    -0.130 C  
HETATM    7  C   UNL     1      -8.304   8.164  70.217  1.00  0.00    -0.124 C  
HETATM    8  C   UNL     1      -7.084   9.260  67.622  1.00  0.00    -0.082 C  
BRANCH   7   9
HETATM    9  C   UNL     1      -9.124   8.069  71.504  1.00  0.00    -0.182 C  
BRANCH   9  10
HETATM   10  C   UNL     1      -9.860   6.739  71.752  1.00  0.00    -0.163 C  
BRANCH  10  11
HETATM   11  C   UNL     1     -11.284   6.761  71.153  1.00  0.00    -0.327 C  
HETATM   12  C   UNL     1     -12.181   8.806  72.410  1.00  0.00    -0.396 C  
HETATM   13  C   UNL     1     -12.392   7.330  72.068  1.00  0.00    -0.298 C  
HETATM   14  C   UNL     1     -13.756   7.174  71.379  1.00  0.00    -0.364 C  
ENDBRANCH  10  11
BRANCH  10  15
HETATM   15  O   UNL     1      -9.136   5.691  71.092  1.00  0.00    -0.143 OA 
HETATM   16  O   UNL     1      -7.059   5.250  72.418  1.00  0.00    -0.080 OA 
HETATM   17  O   UNL     1      -9.180   3.944  72.882  1.00  0.00    -0.105 OA 
HETATM   18  S   UNL     1      -8.290   4.619  71.975  1.00  0.00    -0.119 S  
HETATM   19  O   UNL     1      -7.809   3.564  70.857  1.00  0.00    -0.046 OA 
ENDBRANCH  10  15
ENDBRANCH   9  10
ENDBRANCH   7   9
ENDBRANCH   3   4
ENDBRANCH   2   3
TORSDOF 6
ENDMDL
MODEL      285
REMARK 921   NORMALIZED FREE ENERGY PREDICTED BY IDOCK:   -2.92 KCAL/MOL
REMARK 922        TOTAL FREE ENERGY PREDICTED BY IDOCK:   -4.70 KCAL/MOL
REMARK 923 INTER-LIGAND FREE ENERGY PREDICTED BY IDOCK:   -4.61 KCAL/MOL
REMARK 924 INTRA-LIGAND FREE ENERGY PREDICTED BY IDOCK:   -0.09 KCAL/MOL
REMARK 927      BINDING AFFINITY PREDICTED BY RF-SCORE:    0.00 PKD
ROOT
HETATM    1  C   UNL     1      -7.941   7.511  62.569  1.00  0.00    -0.133 C  
HETATM    2  C   UNL     1      -8.264   8.732  63.415  1.00  0.00    -0.170 C  
ENDROOT
BRANCH   2   3
HETATM    3  C   UNL     1      -7.880   8.501  64.878  1.00  0.00    -0.119 C  
BRANCH   3   4
HETATM    4  C   UNL     1      -7.975   9.792  65.694  1.00  0.00    -0.117 C  
HETATM    5  C   UNL     1      -9.393  10.099  66.241  1.00  0.00    -0.214 C  
HETATM    6  C   UNL     1      -9.995   8.953  67.083  1.00  0.00    -0.289 C  
HETATM    7  C   UNL     1      -9.415  11.425  67.040  1.00  0.00    -0.186 C  
HETATM    8  C   UNL     1      -9.278   8.675  68.399  1.00  0.00    -0.138 C  
BRANCH   7   9
HETATM    9  C   UNL     1      -9.053  12.630  66.172  1.00  0.00     0.019 C  
BRANCH   9  10
HETATM   10  C   UNL     1      -9.940  13.880  66.329  1.00  0.00    -0.306 C  
BRANCH  10  11
HETATM   11  C   UNL     1      -9.110  15.113  66.751  1.00  0.00    -0.282 C  
HETATM   12  C   UNL     1     -10.356  16.884  65.382  1.00  0.00    -0.126 C  
HETATM   13  C   UNL     1      -9.004  16.245  65.705  1.00  0.00     0.158 C  
HETATM   14  C   UNL     1      -8.056  17.337  66.225  1.00  0.00    -0.315 C  
ENDBRANCH  10  11
BRANCH  10  15
HETATM   15  O   UNL     1     -10.532  14.178  65.057  1.00  0.00    -0.378 OA 
HETATM   16  O   UNL     1     -11.803  12.154  64.316  1.00  0.00    -0.366 OA 
HETATM   17  O   UNL     1     -12.953  13.975  65.650  1.00  0.00    -0.608 OA 
HETATM   18  S   UNL     1     -11.982  13.548  64.677  1.00  0.00    -0.422 S  
HETATM   19  O   UNL     1     -12.312  14.276  63.279  1.00  0.00    -0.616 OA 
ENDBRANCH  10  15
ENDBRANCH   9  10
ENDBRANCH   7   9
ENDBRANCH   3   4
ENDBRANCH   2   3
TORSDOF 6
ENDMDL
MODEL      286
REMARK 921   NORMALIZED FREE ENERGY PREDICTED BY IDOCK:   -2.92 KCAL/MOL
REMARK 922        TOTAL FREE ENERGY PREDICTED BY IDOCK:   -4.70 KCAL/MOL
REMARK 923 INTER-LIGAND FREE ENERGY PREDICTED BY IDOCK:   -4.37 KCAL/MOL
REMARK 924 INTRA-LIGAND FREE ENERGY PREDICTED BY IDOCK:   -0.33 KCAL/MOL
REMARK 927      BINDING AFFINITY PREDICTED BY RF-SCORE:    0.00 PKD
ROOT
HETATM    1  C   UNL     1     -10.999  13.896  68.037  1.00  0.00    -0.267 C  
HETATM    2  C   UNL     1     -10.527  12.501  68.414  1.00  0.00    -0.250 C  
ENDROOT
BRANCH   2   3
HETATM    3  C   UNL     1      -9.214  12.158  67.708  1.00  0.00    -0.189 C  
BRANCH   3   4
HETATM    4  C   UNL     1      -8.845  10.684  67.892  1.00  0.00    -0.131 C  
HETATM    5  C   UNL     1      -9.895   9.689  67.333  1.00  0.00    -0.218 C  
HETATM    6  C   UNL     1     -10.235   9.917  65.843  1.00  0.00    -0.264 C  
HETATM    7  C   UNL     1      -9.463   8.221  67.569  1.00  0.00    -0.182 C  
HETATM    8  C   UNL     1      -9.094   9.642  64.873  1.00  0.00    -0.284 C  
BRANCH   7   9
HETATM    9  C   UNL     1      -9.346   7.884  69.056  1.00  0.00    -0.151 C  
BRANCH   9  10
HETATM   10  C   UNL     1     -10.515   7.095  69.674  1.00  0.00    -0.229 C  
BRANCH  10  11
HETATM   11  C   UNL     1     -10.638   5.686  69.051  1.00  0.00    -0.316 C  
HETATM   12  C   UNL     1      -8.714   4.556  70.311  1.00  0.00    -0.116 C  
HETATM   13  C   UNL     1      -9.325   4.878  68.946  1.00  0.00    -0.180 C  
HETATM   14  C   UNL     1      -9.592   3.560  68.203  1.00  0.00    -0.164 C  
ENDBRANCH  10  11
BRANCH  10  15
HETATM   15  O   UNL     1     -10.255   6.921  71.074  1.00  0.00    -0.197 OA 
HETATM   16  O   UNL     1      -9.730   9.172  72.034  1.00  0.00    -0.283 OA 
HETATM   17  O   UNL     1     -12.109   8.301  72.031  1.00  0.00    -0.308 OA 
HETATM   18  S   UNL     1     -10.689   8.086  72.123  1.00  0.00    -0.301 S  
HETATM   19  O   UNL     1     -10.371   7.398  73.543  1.00  0.00    -0.342 OA 
ENDBRANCH  10  15
ENDBRANCH   9  10
ENDBRANCH   7   9
ENDBRANCH   3   4
ENDBRANCH   2   3
TORSDOF 6
ENDMDL
MODEL      287
REMARK 921   NORMALIZED FREE ENERGY PREDICTED BY IDOCK:   -2.91 KCAL/MOL
REMARK 922        TOTAL FREE ENERGY PREDICTED BY IDOCK:   -4.69 KCAL/MOL
REMARK 923 INTER-LIGAND FREE ENERGY PREDICTED BY IDOCK:   -4.29 KCAL/MOL
REMARK 924 INTRA-LIGAND FREE ENERGY PREDICTED BY IDOCK:   -0.40 KCAL/MOL
REMARK 927      BINDING AFFINITY PREDICTED BY RF-SCORE:    0.00 PKD
ROOT
HETATM    1  C   UNL     1     -11.942  14.582  68.957  1.00  0.00    -0.334 C  
HETATM    2  C   UNL     1     -11.232  13.246  68.801  1.00  0.00    -0.317 C  
ENDROOT
BRANCH   2   3
HETATM    3  C   UNL     1     -10.085  13.350  67.795  1.00  0.00    -0.232 C  
BRANCH   3   4
HETATM    4  C   UNL     1      -9.578  11.968  67.376  1.00  0.00    -0.176 C  
HETATM    5  C   UNL     1     -10.650  11.072  66.704  1.00  0.00    -0.315 C  
HETATM    6  C   UNL     1     -11.326  11.726  65.479  1.00  0.00    -0.283 C  
HETATM    7  C   UNL     1     -10.070   9.687  66.323  1.00  0.00    -0.322 C  
HETATM    8  C   UNL     1     -10.410  11.956  64.283  1.00  0.00    -0.362 C  
BRANCH   7   9
HETATM    9  C   UNL     1      -9.602   8.900  67.548  1.00  0.00    -0.183 C  
BRANCH   9  10
HETATM   10  C   UNL     1     -10.215   7.499  67.737  1.00  0.00    -0.201 C  
BRANCH  10  11
HETATM   11  C   UNL     1      -9.671   6.499  66.691  1.00  0.00    -0.201 C  
HETATM   12  C   UNL     1      -7.298   6.244  67.622  1.00  0.00    -0.084 C  
HETATM   13  C   UNL     1      -8.155   6.583  66.402  1.00  0.00    -0.113 C  
HETATM   14  C   UNL     1      -7.796   5.615  65.264  1.00  0.00    -0.100 C  
ENDBRANCH  10  11
BRANCH  10  15
HETATM   15  O   UNL     1      -9.837   7.010  69.031  1.00  0.00    -0.151 OA 
HETATM   16  O   UNL     1     -10.574   8.698  70.726  1.00  0.00    -0.197 OA 
HETATM   17  O   UNL     1     -12.096   6.778  70.080  1.00  0.00    -0.289 OA 
HETATM   18  S   UNL     1     -10.784   7.321  70.316  1.00  0.00    -0.240 S  
HETATM   19  O   UNL     1     -10.078   6.455  71.475  1.00  0.00    -0.190 OA 
ENDBRANCH  10  15
ENDBRANCH   9  10
ENDBRANCH   7   9
ENDBRANCH   3   4
ENDBRANCH   2   3
TORSDOF 6
ENDMDL
MODEL      288
REMARK 921   NORMALIZED FREE ENERGY PREDICTED BY IDOCK:   -2.91 KCAL/MOL
REMARK 922        TOTAL FREE ENERGY PREDICTED BY IDOCK:   -4.69 KCAL/MOL
REMARK 923 INTER-LIGAND FREE ENERGY PREDICTED BY IDOCK:   -3.83 KCAL/MOL
REMARK 924 INTRA-LIGAND FREE ENERGY PREDICTED BY IDOCK:   -0.85 KCAL/MOL
REMARK 927      BINDING AFFINITY PREDICTED BY RF-SCORE:    0.00 PKD
ROOT
HETATM    1  C   UNL     1     -10.170   4.006  62.349  1.00  0.00    -0.167 C  
HETATM    2  C   UNL     1     -10.788   3.542  63.658  1.00  0.00    -0.212 C  
ENDROOT
BRANCH   2   3
HETATM    3  C   UNL     1      -9.710   3.315  64.721  1.00  0.00    -0.131 C  
BRANCH   3   4
HETATM    4  C   UNL     1      -9.688   4.449  65.748  1.00  0.00    -0.213 C  
HETATM    5  C   UNL     1      -8.543   4.344  66.788  1.00  0.00    -0.107 C  
HETATM    6  C   UNL     1      -7.137   4.241  66.156  1.00  0.00    -0.067 C  
HETATM    7  C   UNL     1      -8.593   5.514  67.803  1.00  0.00    -0.108 C  
HETATM    8  C   UNL     1      -6.675   5.484  65.405  1.00  0.00    -0.041 C  
BRANCH   7   9
HETATM    9  C   UNL     1      -9.882   5.511  68.626  1.00  0.00    -0.198 C  
BRANCH   9  10
HETATM   10  C   UNL     1     -10.347   6.873  69.175  1.00  0.00    -0.195 C  
BRANCH  10  11
HETATM   11  C   UNL     1     -10.507   7.914  68.044  1.00  0.00    -0.245 C  
HETATM   12  C   UNL     1      -8.558   9.451  68.679  1.00  0.00    -0.123 C  
HETATM   13  C   UNL     1     -10.055   9.352  68.383  1.00  0.00    -0.208 C  
HETATM   14  C   UNL     1     -10.387  10.284  67.206  1.00  0.00    -0.284 C  
ENDBRANCH  10  11
BRANCH  10  15
HETATM   15  O   UNL     1     -11.635   6.700  69.782  1.00  0.00    -0.351 OA 
HETATM   16  O   UNL     1     -11.270   5.930  72.135  1.00  0.00    -0.266 OA 
HETATM   17  O   UNL     1     -11.481   8.400  71.611  1.00  0.00    -0.258 OA 
HETATM   18  S   UNL     1     -11.829   7.025  71.364  1.00  0.00    -0.340 S  
HETATM   19  O   UNL     1     -13.420   6.864  71.550  1.00  0.00    -0.316 OA 
ENDBRANCH  10  15
ENDBRANCH   9  10
ENDBRANCH   7   9
ENDBRANCH   3   4
ENDBRANCH   2   3
TORSDOF 6
ENDMDL
MODEL      289
REMARK 921   NORMALIZED FREE ENERGY PREDICTED BY IDOCK:   -2.91 KCAL/MOL
REMARK 922        TOTAL FREE ENERGY PREDICTED BY IDOCK:   -4.69 KCAL/MOL
REMARK 923 INTER-LIGAND FREE ENERGY PREDICTED BY IDOCK:   -5.29 KCAL/MOL
REMARK 924 INTRA-LIGAND FREE ENERGY PREDICTED BY IDOCK:    0.60 KCAL/MOL
REMARK 927      BINDING AFFINITY PREDICTED BY RF-SCORE:    0.00 PKD
ROOT
HETATM    1  C   UNL     1      -5.462  12.028  69.983  1.00  0.00    -0.109 C  
HETATM    2  C   UNL     1      -6.452  12.124  68.832  1.00  0.00    -0.088 C  
ENDROOT
BRANCH   2   3
HETATM    3  C   UNL     1      -6.342  13.478  68.128  1.00  0.00    -0.124 C  
BRANCH   3   4
HETATM    4  C   UNL     1      -7.682  13.908  67.526  1.00  0.00    -0.192 C  
HETATM    5  C   UNL     1      -8.576  14.736  68.485  1.00  0.00    -0.168 C  
HETATM    6  C   UNL     1      -7.881  15.992  69.053  1.00  0.00    -0.222 C  
HETATM    7  C   UNL     1      -9.919  15.120  67.814  1.00  0.00    -0.225 C  
HETATM    8  C   UNL     1      -7.557  17.070  68.026  1.00  0.00    -0.183 C  
BRANCH   7   9
HETATM    9  C   UNL     1     -10.754  13.893  67.448  1.00  0.00    -0.275 C  
BRANCH   9  10
HETATM   10  C   UNL     1     -10.347  13.144  66.164  1.00  0.00    -0.284 C  
BRANCH  10  11
HETATM   11  C   UNL     1     -10.865  11.688  66.171  1.00  0.00    -0.343 C  
HETATM   12  C   UNL     1     -10.479  11.170  68.650  1.00  0.00    -0.220 C  
HETATM   13  C   UNL     1     -10.212  10.745  67.206  1.00  0.00    -0.245 C  
HETATM   14  C   UNL     1     -10.746   9.318  67.006  1.00  0.00    -0.199 C  
ENDBRANCH  10  11
BRANCH  10  15
HETATM   15  O   UNL     1     -10.948  13.806  65.043  1.00  0.00    -0.322 OA 
HETATM   16  O   UNL     1     -12.610  12.231  64.032  1.00  0.00    -0.567 OA 
HETATM   17  O   UNL     1     -13.327  13.883  65.814  1.00  0.00    -0.534 OA 
HETATM   18  S   UNL     1     -12.509  13.524  64.685  1.00  0.00    -0.284 S  
HETATM   19  O   UNL     1     -12.783  14.583  63.504  1.00  0.00    -0.707 OA 
ENDBRANCH  10  15
ENDBRANCH   9  10
ENDBRANCH   7   9
ENDBRANCH   3   4
ENDBRANCH   2   3
TORSDOF 6
ENDMDL
MODEL      290
REMARK 921   NORMALIZED FREE ENERGY PREDICTED BY IDOCK:   -2.90 KCAL/MOL
REMARK 922        TOTAL FREE ENERGY PREDICTED BY IDOCK:   -4.68 KCAL/MOL
REMARK 923 INTER-LIGAND FREE ENERGY PREDICTED BY IDOCK:   -3.88 KCAL/MOL
REMARK 924 INTRA-LIGAND FREE ENERGY PREDICTED BY IDOCK:   -0.80 KCAL/MOL
REMARK 927      BINDING AFFINITY PREDICTED BY RF-SCORE:    0.00 PKD
ROOT
HETATM    1  C   UNL     1     -12.008  13.053  66.729  1.00  0.00    -0.434 C  
HETATM    2  C   UNL     1     -10.906  12.593  67.671  1.00  0.00    -0.248 C  
ENDROOT
BRANCH   2   3
HETATM    3  C   UNL     1      -9.527  12.809  67.045  1.00  0.00    -0.233 C  
BRANCH   3   4
HETATM    4  C   UNL     1      -8.669  11.545  67.129  1.00  0.00    -0.160 C  
HETATM    5  C   UNL     1      -9.396  10.250  66.684  1.00  0.00    -0.192 C  
HETATM    6  C   UNL     1      -9.994  10.330  65.263  1.00  0.00    -0.387 C  
HETATM    7  C   UNL     1      -8.472   9.013  66.811  1.00  0.00    -0.121 C  
HETATM    8  C   UNL     1      -8.972  10.438  64.138  1.00  0.00    -0.251 C  
BRANCH   7   9
HETATM    9  C   UNL     1      -8.045   8.755  68.257  1.00  0.00    -0.114 C  
BRANCH   9  10
HETATM   10  C   UNL     1      -8.307   7.340  68.807  1.00  0.00    -0.129 C  
BRANCH  10  11
HETATM   11  C   UNL     1      -7.296   6.969  69.916  1.00  0.00    -0.085 C  
HETATM   12  C   UNL     1      -5.968   5.197  68.627  1.00  0.00    -0.021 C  
HETATM   13  C   UNL     1      -6.769   5.517  69.890  1.00  0.00    -0.051 C  
HETATM   14  C   UNL     1      -5.874   5.275  71.115  1.00  0.00    -0.020 C  
ENDBRANCH  10  11
BRANCH  10  15
HETATM   15  O   UNL     1      -9.614   7.317  69.396  1.00  0.00    -0.154 OA 
HETATM   16  O   UNL     1     -11.222   6.528  67.648  1.00  0.00    -0.324 OA 
HETATM   17  O   UNL     1     -10.123   4.874  69.222  1.00  0.00    -0.209 OA 
HETATM   18  S   UNL     1     -10.679   6.173  68.946  1.00  0.00    -0.339 S  
HETATM   19  O   UNL     1     -11.900   6.428  69.965  1.00  0.00    -0.404 OA 
ENDBRANCH  10  15
ENDBRANCH   9  10
ENDBRANCH   7   9
ENDBRANCH   3   4
ENDBRANCH   2   3
TORSDOF 6
ENDMDL
MODEL      291
REMARK 921   NORMALIZED FREE ENERGY PREDICTED BY IDOCK:   -2.90 KCAL/MOL
REMARK 922        TOTAL FREE ENERGY PREDICTED BY IDOCK:   -4.68 KCAL/MOL
REMARK 923 INTER-LIGAND FREE ENERGY PREDICTED BY IDOCK:   -4.00 KCAL/MOL
REMARK 924 INTRA-LIGAND FREE ENERGY PREDICTED BY IDOCK:   -0.68 KCAL/MOL
REMARK 927      BINDING AFFINITY PREDICTED BY RF-SCORE:    0.00 PKD
ROOT
HETATM    1  C   UNL     1     -14.408   8.784  72.212  1.00  0.00    -0.468 C  
HETATM    2  C   UNL     1     -12.983   9.317  72.211  1.00  0.00    -0.488 C  
ENDROOT
BRANCH   2   3
HETATM    3  C   UNL     1     -11.982   8.200  72.511  1.00  0.00    -0.410 C  
BRANCH   3   4
HETATM    4  C   UNL     1     -10.839   8.182  71.493  1.00  0.00    -0.290 C  
HETATM    5  C   UNL     1      -9.501   8.758  72.026  1.00  0.00    -0.336 C  
HETATM    6  C   UNL     1      -9.003   8.077  73.319  1.00  0.00    -0.338 C  
HETATM    7  C   UNL     1      -8.399   8.723  70.939  1.00  0.00    -0.196 C  
HETATM    8  C   UNL     1      -8.598   6.616  73.163  1.00  0.00    -0.129 C  
BRANCH   7   9
HETATM    9  C   UNL     1      -8.752   9.588  69.728  1.00  0.00    -0.204 C  
BRANCH   9  10
HETATM   10  C   UNL     1      -8.496   8.964  68.342  1.00  0.00    -0.129 C  
BRANCH  10  11
HETATM   11  C   UNL     1      -7.510   9.817  67.513  1.00  0.00    -0.091 C  
HETATM   12  C   UNL     1      -8.409   9.256  65.180  1.00  0.00    -0.155 C  
HETATM   13  C   UNL     1      -7.186   9.288  66.098  1.00  0.00    -0.091 C  
HETATM   14  C   UNL     1      -6.109  10.175  65.453  1.00  0.00    -0.103 C  
ENDBRANCH  10  11
BRANCH  10  15
HETATM   15  O   UNL     1      -7.894   7.676  68.529  1.00  0.00    -0.116 OA 
HETATM   16  O   UNL     1      -9.712   6.069  69.144  1.00  0.00    -0.132 OA 
HETATM   17  O   UNL     1      -9.051   6.394  66.720  1.00  0.00    -0.130 OA 
HETATM   18  S   UNL     1      -8.719   6.336  68.119  1.00  0.00    -0.114 S  
HETATM   19  O   UNL     1      -7.616   5.182  68.331  1.00  0.00    -0.077 OA 
ENDBRANCH  10  15
ENDBRANCH   9  10
ENDBRANCH   7   9
ENDBRANCH   3   4
ENDBRANCH   2   3
TORSDOF 6
ENDMDL
MODEL      292
REMARK 921   NORMALIZED FREE ENERGY PREDICTED BY IDOCK:   -2.90 KCAL/MOL
REMARK 922        TOTAL FREE ENERGY PREDICTED BY IDOCK:   -4.67 KCAL/MOL
REMARK 923 INTER-LIGAND FREE ENERGY PREDICTED BY IDOCK:   -4.33 KCAL/MOL
REMARK 924 INTRA-LIGAND FREE ENERGY PREDICTED BY IDOCK:   -0.34 KCAL/MOL
REMARK 927      BINDING AFFINITY PREDICTED BY RF-SCORE:    0.00 PKD
ROOT
HETATM    1  C   UNL     1     -11.484  12.408  67.202  1.00  0.00    -0.423 C  
HETATM    2  C   UNL     1     -11.619  12.525  68.713  1.00  0.00    -0.366 C  
ENDROOT
BRANCH   2   3
HETATM    3  C   UNL     1     -12.275  11.274  69.301  1.00  0.00    -0.290 C  
BRANCH   3   4
HETATM    4  C   UNL     1     -11.251  10.160  69.534  1.00  0.00    -0.288 C  
HETATM    5  C   UNL     1     -11.019   9.810  71.027  1.00  0.00    -0.402 C  
HETATM    6  C   UNL     1     -12.312   9.440  71.786  1.00  0.00    -0.471 C  
HETATM    7  C   UNL     1      -9.961   8.690  71.186  1.00  0.00    -0.289 C  
HETATM    8  C   UNL     1     -12.980   8.149  71.331  1.00  0.00    -0.261 C  
BRANCH   7   9
HETATM    9  C   UNL     1      -8.590   9.110  70.656  1.00  0.00    -0.266 C  
BRANCH   9  10
HETATM   10  C   UNL     1      -8.066   8.343  69.426  1.00  0.00    -0.114 C  
BRANCH  10  11
HETATM   11  C   UNL     1      -8.590   6.890  69.401  1.00  0.00    -0.133 C  
HETATM   12  C   UNL     1      -9.005   6.690  66.881  1.00  0.00    -0.131 C  
HETATM   13  C   UNL     1      -9.602   6.557  68.283  1.00  0.00    -0.131 C  
HETATM   14  C   UNL     1     -10.113   5.119  68.465  1.00  0.00    -0.214 C  
ENDBRANCH  10  11
BRANCH  10  15
HETATM   15  O   UNL     1      -8.555   8.994  68.245  1.00  0.00    -0.128 OA 
HETATM   16  O   UNL     1      -7.942  11.415  68.401  1.00  0.00    -0.127 OA 
HETATM   17  O   UNL     1      -6.393   9.770  67.255  1.00  0.00    -0.066 OA 
HETATM   18  S   UNL     1      -7.714  10.227  67.600  1.00  0.00    -0.090 S  
HETATM   19  O   UNL     1      -8.523  10.512  66.237  1.00  0.00    -0.139 OA 
ENDBRANCH  10  15
ENDBRANCH   9  10
ENDBRANCH   7   9
ENDBRANCH   3   4
ENDBRANCH   2   3
TORSDOF 6
ENDMDL
MODEL      293
REMARK 921   NORMALIZED FREE ENERGY PREDICTED BY IDOCK:   -2.89 KCAL/MOL
REMARK 922        TOTAL FREE ENERGY PREDICTED BY IDOCK:   -4.67 KCAL/MOL
REMARK 923 INTER-LIGAND FREE ENERGY PREDICTED BY IDOCK:   -4.76 KCAL/MOL
REMARK 924 INTRA-LIGAND FREE ENERGY PREDICTED BY IDOCK:    0.09 KCAL/MOL
REMARK 927      BINDING AFFINITY PREDICTED BY RF-SCORE:    0.00 PKD
ROOT
HETATM    1  C   UNL     1     -12.399  14.436  70.924  1.00  0.00    -0.419 C  
HETATM    2  C   UNL     1     -12.012  13.417  69.863  1.00  0.00    -0.408 C  
ENDROOT
BRANCH   2   3
HETATM    3  C   UNL     1     -12.255  11.991  70.361  1.00  0.00    -0.379 C  
BRANCH   3   4
HETATM    4  C   UNL     1     -12.039  10.964  69.247  1.00  0.00    -0.332 C  
HETATM    5  C   UNL     1     -10.804  10.049  69.454  1.00  0.00    -0.270 C  
HETATM    6  C   UNL     1     -10.806   9.299  70.805  1.00  0.00    -0.349 C  
HETATM    7  C   UNL     1     -10.640   9.048  68.283  1.00  0.00    -0.213 C  
HETATM    8  C   UNL     1     -11.911   8.263  70.965  1.00  0.00    -0.260 C  
BRANCH   7   9
HETATM    9  C   UNL     1     -10.395   9.754  66.949  1.00  0.00    -0.301 C  
BRANCH   9  10
HETATM   10  C   UNL     1      -8.928   9.862  66.490  1.00  0.00    -0.146 C  
BRANCH  10  11
HETATM   11  C   UNL     1      -8.818  10.535  65.103  1.00  0.00    -0.206 C  
HETATM   12  C   UNL     1     -10.817  12.125  65.304  1.00  0.00    -0.336 C  
HETATM   13  C   UNL     1     -10.146  11.023  64.483  1.00  0.00    -0.380 C  
HETATM   14  C   UNL     1      -9.885  11.555  63.066  1.00  0.00    -0.367 C  
ENDBRANCH  10  11
BRANCH  10  15
HETATM   15  O   UNL     1      -8.221  10.689  67.423  1.00  0.00    -0.114 OA 
HETATM   16  O   UNL     1      -6.286   9.364  68.300  1.00  0.00    -0.053 OA 
HETATM   17  O   UNL     1      -6.009  10.849  66.266  1.00  0.00    -0.110 OA 
HETATM   18  S   UNL     1      -6.604  10.563  67.545  1.00  0.00    -0.067 S  
HETATM   19  O   UNL     1      -6.245  11.767  68.552  1.00  0.00    -0.050 OA 
ENDBRANCH  10  15
ENDBRANCH   9  10
ENDBRANCH   7   9
ENDBRANCH   3   4
ENDBRANCH   2   3
TORSDOF 6
ENDMDL
MODEL      294
REMARK 921   NORMALIZED FREE ENERGY PREDICTED BY IDOCK:   -2.89 KCAL/MOL
REMARK 922        TOTAL FREE ENERGY PREDICTED BY IDOCK:   -4.66 KCAL/MOL
REMARK 923 INTER-LIGAND FREE ENERGY PREDICTED BY IDOCK:   -5.50 KCAL/MOL
REMARK 924 INTRA-LIGAND FREE ENERGY PREDICTED BY IDOCK:    0.84 KCAL/MOL
REMARK 927      BINDING AFFINITY PREDICTED BY RF-SCORE:    0.00 PKD
ROOT
HETATM    1  C   UNL     1     -13.150  14.285  70.927  1.00  0.00    -0.368 C  
HETATM    2  C   UNL     1     -11.936  14.558  70.052  1.00  0.00    -0.388 C  
ENDROOT
BRANCH   2   3
HETATM    3  C   UNL     1     -12.095  13.906  68.678  1.00  0.00    -0.337 C  
BRANCH   3   4
HETATM    4  C   UNL     1     -11.447  14.749  67.577  1.00  0.00    -0.369 C  
HETATM    5  C   UNL     1     -10.783  13.922  66.447  1.00  0.00    -0.281 C  
HETATM    6  C   UNL     1     -11.738  12.910  65.776  1.00  0.00    -0.437 C  
HETATM    7  C   UNL     1     -10.135  14.840  65.381  1.00  0.00    -0.406 C  
HETATM    8  C   UNL     1     -12.884  13.530  64.987  1.00  0.00    -0.330 C  
BRANCH   7   9
HETATM    9  C   UNL     1      -9.010  15.696  65.962  1.00  0.00    -0.297 C  
BRANCH   9  10
HETATM   10  C   UNL     1      -8.973  15.831  67.497  1.00  0.00    -0.194 C  
BRANCH  10  11
HETATM   11  C   UNL     1      -8.066  14.757  68.137  1.00  0.00    -0.134 C  
HETATM   12  C   UNL     1      -5.797  15.787  67.540  1.00  0.00    -0.125 C  
HETATM   13  C   UNL     1      -6.690  14.548  67.464  1.00  0.00    -0.141 C  
HETATM   14  C   UNL     1      -5.963  13.374  68.139  1.00  0.00    -0.112 C  
ENDBRANCH  10  11
BRANCH  10  15
HETATM   15  O   UNL     1      -8.417  17.111  67.826  1.00  0.00    -0.202 OA 
HETATM   16  O   UNL     1      -9.284  18.768  66.161  1.00  0.00    -0.438 OA 
HETATM   17  O   UNL     1     -10.515  18.373  68.340  1.00  0.00    -0.347 OA 
HETATM   18  S   UNL     1      -9.296  18.457  67.579  1.00  0.00    -0.267 S  
HETATM   19  O   UNL     1      -8.366  19.595  68.238  1.00  0.00    -0.325 OA 
ENDBRANCH  10  15
ENDBRANCH   9  10
ENDBRANCH   7   9
ENDBRANCH   3   4
ENDBRANCH   2   3
TORSDOF 6
ENDMDL
MODEL      295
REMARK 921   NORMALIZED FREE ENERGY PREDICTED BY IDOCK:   -2.88 KCAL/MOL
REMARK 922        TOTAL FREE ENERGY PREDICTED BY IDOCK:   -4.65 KCAL/MOL
REMARK 923 INTER-LIGAND FREE ENERGY PREDICTED BY IDOCK:   -3.80 KCAL/MOL
REMARK 924 INTRA-LIGAND FREE ENERGY PREDICTED BY IDOCK:   -0.85 KCAL/MOL
REMARK 927      BINDING AFFINITY PREDICTED BY RF-SCORE:    0.00 PKD
ROOT
HETATM    1  C   UNL     1      -6.449  14.326  69.826  1.00  0.00    -0.142 C  
HETATM    2  C   UNL     1      -6.442  13.174  68.834  1.00  0.00    -0.097 C  
ENDROOT
BRANCH   2   3
HETATM    3  C   UNL     1      -7.778  13.083  68.093  1.00  0.00    -0.143 C  
BRANCH   3   4
HETATM    4  C   UNL     1      -8.705  14.243  68.464  1.00  0.00    -0.175 C  
HETATM    5  C   UNL     1      -8.875  15.306  67.348  1.00  0.00    -0.191 C  
HETATM    6  C   UNL     1      -9.354  14.720  66.001  1.00  0.00    -0.249 C  
HETATM    7  C   UNL     1      -9.812  16.454  67.800  1.00  0.00    -0.239 C  
HETATM    8  C   UNL     1     -10.765  14.147  66.013  1.00  0.00    -0.299 C  
BRANCH   7   9
HETATM    9  C   UNL     1      -9.251  17.220  68.998  1.00  0.00    -0.109 C  
BRANCH   9  10
HETATM   10  C   UNL     1      -8.746  18.649  68.723  1.00  0.00    -0.258 C  
BRANCH  10  11
HETATM   11  C   UNL     1      -7.452  18.953  69.512  1.00  0.00     0.081 C  
HETATM   12  C   UNL     1      -5.804  17.673  68.025  1.00  0.00    -0.154 C  
HETATM   13  C   UNL     1      -6.349  17.873  69.440  1.00  0.00    -0.239 C  
HETATM   14  C   UNL     1      -5.186  18.266  70.364  1.00  0.00    -0.252 C  
ENDBRANCH  10  11
BRANCH  10  15
HETATM   15  O   UNL     1      -8.431  18.757  67.328  1.00  0.00    -0.265 OA 
HETATM   16  O   UNL     1     -10.005  20.421  66.320  1.00  0.00    -0.383 OA 
HETATM   17  O   UNL     1      -7.758  21.164  67.224  1.00  0.00    -0.344 OA 
HETATM   18  S   UNL     1      -8.595  20.189  66.575  1.00  0.00    -0.214 S  
HETATM   19  O   UNL     1      -7.978  19.880  65.120  1.00  0.00    -0.130 OA 
ENDBRANCH  10  15
ENDBRANCH   9  10
ENDBRANCH   7   9
ENDBRANCH   3   4
ENDBRANCH   2   3
TORSDOF 6
ENDMDL
MODEL      296
REMARK 921   NORMALIZED FREE ENERGY PREDICTED BY IDOCK:   -2.88 KCAL/MOL
REMARK 922        TOTAL FREE ENERGY PREDICTED BY IDOCK:   -4.65 KCAL/MOL
REMARK 923 INTER-LIGAND FREE ENERGY PREDICTED BY IDOCK:   -4.80 KCAL/MOL
REMARK 924 INTRA-LIGAND FREE ENERGY PREDICTED BY IDOCK:    0.15 KCAL/MOL
REMARK 927      BINDING AFFINITY PREDICTED BY RF-SCORE:    0.00 PKD
ROOT
HETATM    1  C   UNL     1     -11.013   5.565  72.370  1.00  0.00    -0.310 C  
HETATM    2  C   UNL     1     -11.759   6.728  71.736  1.00  0.00    -0.353 C  
ENDROOT
BRANCH   2   3
HETATM    3  C   UNL     1     -11.537   8.017  72.531  1.00  0.00    -0.464 C  
BRANCH   3   4
HETATM    4  C   UNL     1     -10.940   9.121  71.654  1.00  0.00    -0.445 C  
HETATM    5  C   UNL     1     -11.913   9.684  70.586  1.00  0.00    -0.304 C  
HETATM    6  C   UNL     1     -13.245  10.203  71.171  1.00  0.00    -0.438 C  
HETATM    7  C   UNL     1     -11.236  10.782  69.729  1.00  0.00    -0.365 C  
HETATM    8  C   UNL     1     -13.121  11.432  72.064  1.00  0.00    -0.423 C  
BRANCH   7   9
HETATM    9  C   UNL     1     -10.042  10.245  68.939  1.00  0.00    -0.216 C  
BRANCH   9  10
HETATM   10  C   UNL     1      -9.000  11.283  68.481  1.00  0.00    -0.166 C  
BRANCH  10  11
HETATM   11  C   UNL     1      -7.627  10.625  68.214  1.00  0.00    -0.097 C  
HETATM   12  C   UNL     1      -6.184  12.189  69.641  1.00  0.00    -0.131 C  
HETATM   13  C   UNL     1      -6.406  11.571  68.260  1.00  0.00    -0.046 C  
HETATM   14  C   UNL     1      -5.142  10.795  67.860  1.00  0.00    -0.036 C  
ENDBRANCH  10  11
BRANCH  10  15
HETATM   15  O   UNL     1      -9.445  11.858  67.246  1.00  0.00    -0.172 OA 
HETATM   16  O   UNL     1      -8.075  10.861  65.404  1.00  0.00    -0.106 OA 
HETATM   17  O   UNL     1     -10.273   9.802  66.087  1.00  0.00    -0.259 OA 
HETATM   18  S   UNL     1      -9.439  10.958  65.891  1.00  0.00    -0.218 S  
HETATM   19  O   UNL     1     -10.164  11.933  64.834  1.00  0.00    -0.255 OA 
ENDBRANCH  10  15
ENDBRANCH   9  10
ENDBRANCH   7   9
ENDBRANCH   3   4
ENDBRANCH   2   3
TORSDOF 6
ENDMDL
MODEL      297
REMARK 921   NORMALIZED FREE ENERGY PREDICTED BY IDOCK:   -2.86 KCAL/MOL
REMARK 922        TOTAL FREE ENERGY PREDICTED BY IDOCK:   -4.62 KCAL/MOL
REMARK 923 INTER-LIGAND FREE ENERGY PREDICTED BY IDOCK:   -4.51 KCAL/MOL
REMARK 924 INTRA-LIGAND FREE ENERGY PREDICTED BY IDOCK:   -0.11 KCAL/MOL
REMARK 927      BINDING AFFINITY PREDICTED BY RF-SCORE:    0.00 PKD
ROOT
HETATM    1  C   UNL     1     -14.298  15.298  71.393  1.00  0.00    -0.578 C  
HETATM    2  C   UNL     1     -14.206  14.069  72.283  1.00  0.00    -0.599 C  
ENDROOT
BRANCH   2   3
HETATM    3  C   UNL     1     -12.942  13.264  71.974  1.00  0.00    -0.401 C  
BRANCH   3   4
HETATM    4  C   UNL     1     -12.631  13.260  70.476  1.00  0.00    -0.259 C  
HETATM    5  C   UNL     1     -11.468  12.319  70.068  1.00  0.00    -0.133 C  
HETATM    6  C   UNL     1     -11.665  10.856  70.521  1.00  0.00    -0.441 C  
HETATM    7  C   UNL     1     -11.201  12.380  68.543  1.00  0.00    -0.321 C  
HETATM    8  C   UNL     1     -12.821  10.124  69.851  1.00  0.00     0.289 C  
BRANCH   7   9
HETATM    9  C   UNL     1     -10.766  13.774  68.088  1.00  0.00    -0.258 C  
BRANCH   9  10
HETATM   10  C   UNL     1      -9.301  13.920  67.634  1.00  0.00    -0.205 C  
BRANCH  10  11
HETATM   11  C   UNL     1      -9.125  15.118  66.674  1.00  0.00    -0.310 C  
HETATM   12  C   UNL     1     -10.193  16.927  68.140  1.00  0.00    -0.311 C  
HETATM   13  C   UNL     1     -10.192  16.230  66.779  1.00  0.00    -0.280 C  
HETATM   14  C   UNL     1      -9.946  17.283  65.687  1.00  0.00     0.003 C  
ENDBRANCH  10  11
BRANCH  10  15
HETATM   15  O   UNL     1      -8.493  14.177  68.790  1.00  0.00    -0.148 OA 
HETATM   16  O   UNL     1      -6.703  12.429  68.868  1.00  0.00    -0.087 OA 
HETATM   17  O   UNL     1      -6.295  14.632  67.685  1.00  0.00    -0.206 OA 
HETATM   18  S   UNL     1      -6.898  13.862  68.741  1.00  0.00    -0.110 S  
HETATM   19  O   UNL     1      -6.393  14.453  70.151  1.00  0.00    -0.153 OA 
ENDBRANCH  10  15
ENDBRANCH   9  10
ENDBRANCH   7   9
ENDBRANCH   3   4
ENDBRANCH   2   3
TORSDOF 6
ENDMDL
MODEL      298
REMARK 921   NORMALIZED FREE ENERGY PREDICTED BY IDOCK:   -2.85 KCAL/MOL
REMARK 922        TOTAL FREE ENERGY PREDICTED BY IDOCK:   -4.61 KCAL/MOL
REMARK 923 INTER-LIGAND FREE ENERGY PREDICTED BY IDOCK:   -4.32 KCAL/MOL
REMARK 924 INTRA-LIGAND FREE ENERGY PREDICTED BY IDOCK:   -0.29 KCAL/MOL
REMARK 927      BINDING AFFINITY PREDICTED BY RF-SCORE:    0.00 PKD
ROOT
HETATM    1  C   UNL     1      -6.868  14.915  69.363  1.00  0.00    -0.164 C  
HETATM    2  C   UNL     1      -7.170  13.872  68.298  1.00  0.00    -0.112 C  
ENDROOT
BRANCH   2   3
HETATM    3  C   UNL     1      -8.530  14.132  67.649  1.00  0.00    -0.189 C  
BRANCH   3   4
HETATM    4  C   UNL     1      -9.447  12.911  67.759  1.00  0.00    -0.202 C  
HETATM    5  C   UNL     1     -10.828  13.206  68.399  1.00  0.00    -0.283 C  
HETATM    6  C   UNL     1     -11.612  14.333  67.692  1.00  0.00    -0.396 C  
HETATM    7  C   UNL     1     -11.692  11.924  68.492  1.00  0.00    -0.388 C  
HETATM    8  C   UNL     1     -12.062  14.012  66.272  1.00  0.00    -0.482 C  
BRANCH   7   9
HETATM    9  C   UNL     1     -11.056  10.861  69.388  1.00  0.00    -0.317 C  
BRANCH   9  10
HETATM   10  C   UNL     1     -10.954   9.441  68.800  1.00  0.00    -0.042 C  
BRANCH  10  11
HETATM   11  C   UNL     1      -9.596   9.217  68.097  1.00  0.00    -0.160 C  
HETATM   12  C   UNL     1     -10.260  10.006  65.752  1.00  0.00    -0.270 C  
HETATM   13  C   UNL     1      -9.664   8.875  66.591  1.00  0.00    -0.303 C  
HETATM   14  C   UNL     1      -8.252   8.567  66.071  1.00  0.00    -0.118 C  
ENDBRANCH  10  11
BRANCH  10  15
HETATM   15  O   UNL     1     -11.037   8.497  69.877  1.00  0.00    -0.218 OA 
HETATM   16  O   UNL     1      -9.351   6.699  69.445  1.00  0.00    -0.147 OA 
HETATM   17  O   UNL     1      -8.737   8.729  70.832  1.00  0.00    -0.157 OA 
HETATM   18  S   UNL     1      -9.691   7.745  70.393  1.00  0.00    -0.179 S  
HETATM   19  O   UNL     1     -10.224   6.945  71.685  1.00  0.00    -0.192 OA 
ENDBRANCH  10  15
ENDBRANCH   9  10
ENDBRANCH   7   9
ENDBRANCH   3   4
ENDBRANCH   2   3
TORSDOF 6
ENDMDL
MODEL      299
REMARK 921   NORMALIZED FREE ENERGY PREDICTED BY IDOCK:   -2.84 KCAL/MOL
REMARK 922        TOTAL FREE ENERGY PREDICTED BY IDOCK:   -4.59 KCAL/MOL
REMARK 923 INTER-LIGAND FREE ENERGY PREDICTED BY IDOCK:   -4.85 KCAL/MOL
REMARK 924 INTRA-LIGAND FREE ENERGY PREDICTED BY IDOCK:    0.26 KCAL/MOL
REMARK 927      BINDING AFFINITY PREDICTED BY RF-SCORE:    0.00 PKD
ROOT
HETATM    1  C   UNL     1      -5.951  18.005  69.563  1.00  0.00    -0.246 C  
HETATM    2  C   UNL     1      -5.187  16.914  68.830  1.00  0.00    -0.121 C  
ENDROOT
BRANCH   2   3
HETATM    3  C   UNL     1      -6.119  16.112  67.920  1.00  0.00    -0.146 C  
BRANCH   3   4
HETATM    4  C   UNL     1      -7.424  15.750  68.632  1.00  0.00    -0.151 C  
HETATM    5  C   UNL     1      -8.188  14.559  67.998  1.00  0.00    -0.145 C  
HETATM    6  C   UNL     1      -7.340  13.275  67.869  1.00  0.00    -0.134 C  
HETATM    7  C   UNL     1      -9.503  14.262  68.761  1.00  0.00    -0.131 C  
HETATM    8  C   UNL     1      -6.936  12.634  69.191  1.00  0.00    -0.019 C  
BRANCH   7   9
HETATM    9  C   UNL     1     -10.481  15.437  68.708  1.00  0.00    -0.231 C  
BRANCH   9  10
HETATM   10  C   UNL     1     -11.969  15.083  68.525  1.00  0.00    -0.225 C  
BRANCH  10  11
HETATM   11  C   UNL     1     -12.225  14.408  67.159  1.00  0.00    -0.257 C  
HETATM   12  C   UNL     1     -12.019  11.967  67.908  1.00  0.00    -0.189 C  
HETATM   13  C   UNL     1     -11.532  13.045  66.939  1.00  0.00    -0.387 C  
HETATM   14  C   UNL     1     -11.786  12.566  65.502  1.00  0.00    -0.491 C  
ENDBRANCH  10  11
BRANCH  10  15
HETATM   15  O   UNL     1     -12.339  14.142  69.542  1.00  0.00    -0.328 OA 
HETATM   16  O   UNL     1     -11.564  15.054  71.741  1.00  0.00    -0.377 OA 
HETATM   17  O   UNL     1     -13.897  15.559  70.893  1.00  0.00    -0.512 OA 
HETATM   18  S   UNL     1     -12.765  14.679  71.017  1.00  0.00    -0.362 S  
HETATM   19  O   UNL     1     -13.253  13.326  71.742  1.00  0.00    -0.397 OA 
ENDBRANCH  10  15
ENDBRANCH   9  10
ENDBRANCH   7   9
ENDBRANCH   3   4
ENDBRANCH   2   3
TORSDOF 6
ENDMDL
MODEL      300
REMARK 921   NORMALIZED FREE ENERGY PREDICTED BY IDOCK:   -2.82 KCAL/MOL
REMARK 922        TOTAL FREE ENERGY PREDICTED BY IDOCK:   -4.57 KCAL/MOL
REMARK 923 INTER-LIGAND FREE ENERGY PREDICTED BY IDOCK:   -3.31 KCAL/MOL
REMARK 924 INTRA-LIGAND FREE ENERGY PREDICTED BY IDOCK:   -1.25 KCAL/MOL
REMARK 927      BINDING AFFINITY PREDICTED BY RF-SCORE:    0.00 PKD
ROOT
HETATM    1  C   UNL     1      -7.416  11.762  68.310  1.00  0.00    -0.103 C  
HETATM    2  C   UNL     1      -7.197  10.754  69.428  1.00  0.00    -0.132 C  
ENDROOT
BRANCH   2   3
HETATM    3  C   UNL     1      -8.470   9.949  69.695  1.00  0.00    -0.198 C  
BRANCH   3   4
HETATM    4  C   UNL     1      -8.865   9.105  68.480  1.00  0.00    -0.129 C  
HETATM    5  C   UNL     1     -10.395   8.939  68.289  1.00  0.00    -0.250 C  
HETATM    6  C   UNL     1     -11.160  10.279  68.213  1.00  0.00    -0.311 C  
HETATM    7  C   UNL     1     -10.718   8.063  67.054  1.00  0.00    -0.263 C  
HETATM    8  C   UNL     1     -10.849  11.130  66.988  1.00  0.00    -0.338 C  
BRANCH   7   9
HETATM    9  C   UNL     1     -10.177   6.640  67.196  1.00  0.00    -0.275 C  
BRANCH   9  10
HETATM   10  C   UNL     1      -9.382   6.086  65.998  1.00  0.00    -0.076 C  
BRANCH  10  11
HETATM   11  C   UNL     1      -7.897   6.509  66.060  1.00  0.00    -0.103 C  
HETATM   12  C   UNL     1      -8.065   8.654  64.669  1.00  0.00    -0.156 C  
HETATM   13  C   UNL     1      -7.370   7.303  64.844  1.00  0.00    -0.080 C  
HETATM   14  C   UNL     1      -5.861   7.542  65.003  1.00  0.00    -0.038 C  
ENDBRANCH  10  11
BRANCH  10  15
HETATM   15  O   UNL     1      -9.421   4.653  66.053  1.00  0.00    -0.146 OA 
HETATM   16  O   UNL     1     -11.048   3.870  64.319  1.00  0.00    -0.341 OA 
HETATM   17  O   UNL     1      -8.590   4.112  63.756  1.00  0.00    -0.096 OA 
HETATM   18  S   UNL     1      -9.645   3.802  64.685  1.00  0.00    -0.182 S  
HETATM   19  O   UNL     1      -9.444   2.287  65.192  1.00  0.00    -0.097 OA 
ENDBRANCH  10  15
ENDBRANCH   9  10
ENDBRANCH   7   9
ENDBRANCH   3   4
ENDBRANCH   2   3
TORSDOF 6
ENDMDL
MODEL      301
REMARK 921   NORMALIZED FREE ENERGY PREDICTED BY IDOCK:   -2.81 KCAL/MOL
REMARK 922        TOTAL FREE ENERGY PREDICTED BY IDOCK:   -4.56 KCAL/MOL
REMARK 923 INTER-LIGAND FREE ENERGY PREDICTED BY IDOCK:   -4.39 KCAL/MOL
REMARK 924 INTRA-LIGAND FREE ENERGY PREDICTED BY IDOCK:   -0.17 KCAL/MOL
REMARK 927      BINDING AFFINITY PREDICTED BY RF-SCORE:    0.00 PKD
ROOT
HETATM    1  C   UNL     1     -12.521  14.480  71.135  1.00  0.00    -0.411 C  
HETATM    2  C   UNL     1     -12.202  13.293  70.239  1.00  0.00    -0.391 C  
ENDROOT
BRANCH   2   3
HETATM    3  C   UNL     1     -12.489  11.973  70.959  1.00  0.00    -0.376 C  
BRANCH   3   4
HETATM    4  C   UNL     1     -12.214  10.770  70.054  1.00  0.00    -0.409 C  
HETATM    5  C   UNL     1     -11.374   9.650  70.720  1.00  0.00    -0.409 C  
HETATM    6  C   UNL     1     -11.973   9.128  72.044  1.00  0.00    -0.421 C  
HETATM    7  C   UNL     1     -11.123   8.475  69.742  1.00  0.00    -0.067 C  
HETATM    8  C   UNL     1     -13.300   8.392  71.905  1.00  0.00    -0.380 C  
BRANCH   7   9
HETATM    9  C   UNL     1     -10.316   8.905  68.517  1.00  0.00    -0.229 C  
BRANCH   9  10
HETATM   10  C   UNL     1      -8.783   8.821  68.642  1.00  0.00    -0.134 C  
BRANCH  10  11
HETATM   11  C   UNL     1      -8.166   7.994  67.491  1.00  0.00    -0.123 C  
HETATM   12  C   UNL     1      -8.761   9.558  65.551  1.00  0.00    -0.180 C  
HETATM   13  C   UNL     1      -8.852   8.139  66.114  1.00  0.00    -0.194 C  
HETATM   14  C   UNL     1      -8.202   7.171  65.113  1.00  0.00    -0.114 C  
ENDBRANCH  10  11
BRANCH  10  15
HETATM   15  O   UNL     1      -8.247  10.148  68.548  1.00  0.00    -0.104 OA 
HETATM   16  O   UNL     1      -6.989  10.612  70.661  1.00  0.00    -0.250 OA 
HETATM   17  O   UNL     1      -5.801   9.634  68.648  1.00  0.00    -0.040 OA 
HETATM   18  S   UNL     1      -6.808  10.484  69.226  1.00  0.00    -0.092 S  
HETATM   19  O   UNL     1      -6.543  11.993  68.729  1.00  0.00    -0.069 OA 
ENDBRANCH  10  15
ENDBRANCH   9  10
ENDBRANCH   7   9
ENDBRANCH   3   4
ENDBRANCH   2   3
TORSDOF 6
ENDMDL
MODEL      302
REMARK 921   NORMALIZED FREE ENERGY PREDICTED BY IDOCK:   -2.81 KCAL/MOL
REMARK 922        TOTAL FREE ENERGY PREDICTED BY IDOCK:   -4.55 KCAL/MOL
REMARK 923 INTER-LIGAND FREE ENERGY PREDICTED BY IDOCK:   -4.70 KCAL/MOL
REMARK 924 INTRA-LIGAND FREE ENERGY PREDICTED BY IDOCK:    0.15 KCAL/MOL
REMARK 927      BINDING AFFINITY PREDICTED BY RF-SCORE:    0.00 PKD
ROOT
HETATM    1  C   UNL     1      -5.220  12.648  67.280  1.00  0.00     0.019 C  
HETATM    2  C   UNL     1      -5.873  11.307  67.581  1.00  0.00    -0.050 C  
ENDROOT
BRANCH   2   3
HETATM    3  C   UNL     1      -5.701  10.341  66.407  1.00  0.00    -0.064 C  
BRANCH   3   4
HETATM    4  C   UNL     1      -6.979  10.239  65.572  1.00  0.00    -0.138 C  
HETATM    5  C   UNL     1      -6.742   9.867  64.085  1.00  0.00    -0.126 C  
HETATM    6  C   UNL     1      -5.937   8.563  63.892  1.00  0.00    -0.071 C  
HETATM    7  C   UNL     1      -8.076   9.799  63.301  1.00  0.00    -0.149 C  
HETATM    8  C   UNL     1      -6.644   7.295  64.353  1.00  0.00    -0.040 C  
BRANCH   7   9
HETATM    9  C   UNL     1      -8.797  11.147  63.266  1.00  0.00    -0.068 C  
BRANCH   9  10
HETATM   10  C   UNL     1     -10.177  11.204  63.948  1.00  0.00    -0.362 C  
BRANCH  10  11
HETATM   11  C   UNL     1     -10.052  11.552  65.449  1.00  0.00    -0.304 C  
HETATM   12  C   UNL     1      -9.884   9.166  66.368  1.00  0.00    -0.350 C  
HETATM   13  C   UNL     1     -10.620  10.505  66.433  1.00  0.00    -0.218 C  
HETATM   14  C   UNL     1     -10.528  11.048  67.868  1.00  0.00    -0.223 C  
ENDBRANCH  10  11
BRANCH  10  15
HETATM   15  O   UNL     1     -10.944  12.247  63.331  1.00  0.00    -0.441 OA 
HETATM   16  O   UNL     1     -13.322  11.978  64.064  1.00  0.00    -0.703 OA 
HETATM   17  O   UNL     1     -11.737  13.462  65.369  1.00  0.00    -0.313 OA 
HETATM   18  S   UNL     1     -12.202  12.899  64.129  1.00  0.00    -0.417 S  
HETATM   19  O   UNL     1     -12.632  14.107  63.154  1.00  0.00    -0.686 OA 
ENDBRANCH  10  15
ENDBRANCH   9  10
ENDBRANCH   7   9
ENDBRANCH   3   4
ENDBRANCH   2   3
TORSDOF 6
ENDMDL
MODEL      303
REMARK 921   NORMALIZED FREE ENERGY PREDICTED BY IDOCK:   -2.80 KCAL/MOL
REMARK 922        TOTAL FREE ENERGY PREDICTED BY IDOCK:   -4.55 KCAL/MOL
REMARK 923 INTER-LIGAND FREE ENERGY PREDICTED BY IDOCK:   -4.76 KCAL/MOL
REMARK 924 INTRA-LIGAND FREE ENERGY PREDICTED BY IDOCK:    0.21 KCAL/MOL
REMARK 927      BINDING AFFINITY PREDICTED BY RF-SCORE:    0.00 PKD
ROOT
HETATM    1  C   UNL     1      -9.607  11.679  66.067  1.00  0.00    -0.249 C  
HETATM    2  C   UNL     1      -8.473  12.051  67.009  1.00  0.00    -0.183 C  
ENDROOT
BRANCH   2   3
HETATM    3  C   UNL     1      -8.971  12.968  68.128  1.00  0.00    -0.198 C  
BRANCH   3   4
HETATM    4  C   UNL     1      -8.870  14.443  67.731  1.00  0.00    -0.186 C  
HETATM    5  C   UNL     1      -8.673  15.413  68.924  1.00  0.00    -0.208 C  
HETATM    6  C   UNL     1      -7.454  15.070  69.809  1.00  0.00    -0.102 C  
HETATM    7  C   UNL     1      -8.596  16.885  68.449  1.00  0.00    -0.240 C  
HETATM    8  C   UNL     1      -6.100  15.234  69.131  1.00  0.00    -0.102 C  
BRANCH   7   9
HETATM    9  C   UNL     1      -9.889  17.342  67.772  1.00  0.00    -0.283 C  
BRANCH   9  10
HETATM   10  C   UNL     1      -9.740  18.371  66.635  1.00  0.00    -0.337 C  
BRANCH  10  11
HETATM   11  C   UNL     1      -8.268  18.507  66.185  1.00  0.00    -0.183 C  
HETATM   12  C   UNL     1      -7.722  20.712  67.370  1.00  0.00    -0.355 C  
HETATM   13  C   UNL     1      -7.737  19.951  66.043  1.00  0.00    -0.337 C  
HETATM   14  C   UNL     1      -6.308  19.919  65.479  1.00  0.00    -0.266 C  
ENDBRANCH  10  11
BRANCH  10  15
HETATM   15  O   UNL     1     -10.491  17.909  65.504  1.00  0.00    -0.650 OA 
HETATM   16  O   UNL     1      -9.526  15.709  64.799  1.00  0.00     0.267 OA 
HETATM   17  O   UNL     1     -11.443  15.799  66.453  1.00  0.00     0.028 OA 
HETATM   18  S   UNL     1     -10.744  16.314  65.305  1.00  0.00    -0.248 S  
HETATM   19  O   UNL     1     -11.749  16.286  64.046  1.00  0.00    -0.930 OA 
ENDBRANCH  10  15
ENDBRANCH   9  10
ENDBRANCH   7   9
ENDBRANCH   3   4
ENDBRANCH   2   3
TORSDOF 6
ENDMDL
MODEL      304
REMARK 921   NORMALIZED FREE ENERGY PREDICTED BY IDOCK:   -2.80 KCAL/MOL
REMARK 922        TOTAL FREE ENERGY PREDICTED BY IDOCK:   -4.54 KCAL/MOL
REMARK 923 INTER-LIGAND FREE ENERGY PREDICTED BY IDOCK:   -3.55 KCAL/MOL
REMARK 924 INTRA-LIGAND FREE ENERGY PREDICTED BY IDOCK:   -0.98 KCAL/MOL
REMARK 927      BINDING AFFINITY PREDICTED BY RF-SCORE:    0.00 PKD
ROOT
HETATM    1  C   UNL     1     -13.559   9.827  71.986  1.00  0.00    -0.436 C  
HETATM    2  C   UNL     1     -12.076   9.513  71.871  1.00  0.00    -0.409 C  
ENDROOT
BRANCH   2   3
HETATM    3  C   UNL     1     -11.739   8.199  72.580  1.00  0.00    -0.457 C  
BRANCH   3   4
HETATM    4  C   UNL     1     -10.606   7.453  71.870  1.00  0.00    -0.233 C  
HETATM    5  C   UNL     1      -9.290   7.368  72.686  1.00  0.00    -0.192 C  
HETATM    6  C   UNL     1      -9.468   6.748  74.089  1.00  0.00    -0.268 C  
HETATM    7  C   UNL     1      -8.187   6.616  71.900  1.00  0.00    -0.103 C  
HETATM    8  C   UNL     1      -9.860   5.276  74.098  1.00  0.00    -0.195 C  
BRANCH   7   9
HETATM    9  C   UNL     1      -7.808   7.334  70.604  1.00  0.00    -0.094 C  
BRANCH   9  10
HETATM   10  C   UNL     1      -8.082   6.572  69.294  1.00  0.00    -0.112 C  
BRANCH  10  11
HETATM   11  C   UNL     1      -8.848   5.256  69.555  1.00  0.00    -0.121 C  
HETATM   12  C   UNL     1      -6.830   3.703  69.835  1.00  0.00    -0.034 C  
HETATM   13  C   UNL     1      -8.141   3.961  69.093  1.00  0.00    -0.065 C  
HETATM   14  C   UNL     1      -9.076   2.761  69.313  1.00  0.00    -0.193 C  
ENDBRANCH  10  11
BRANCH  10  15
HETATM   15  O   UNL     1      -8.912   7.391  68.458  1.00  0.00    -0.129 OA 
HETATM   16  O   UNL     1      -7.507   9.281  67.611  1.00  0.00    -0.087 OA 
HETATM   17  O   UNL     1      -7.712   7.137  66.278  1.00  0.00    -0.095 OA 
HETATM   18  S   UNL     1      -8.266   8.129  67.161  1.00  0.00    -0.121 S  
HETATM   19  O   UNL     1      -9.565   8.767  66.453  1.00  0.00    -0.208 OA 
ENDBRANCH  10  15
ENDBRANCH   9  10
ENDBRANCH   7   9
ENDBRANCH   3   4
ENDBRANCH   2   3
TORSDOF 6
ENDMDL
MODEL      305
REMARK 921   NORMALIZED FREE ENERGY PREDICTED BY IDOCK:   -2.79 KCAL/MOL
REMARK 922        TOTAL FREE ENERGY PREDICTED BY IDOCK:   -4.54 KCAL/MOL
REMARK 923 INTER-LIGAND FREE ENERGY PREDICTED BY IDOCK:   -4.95 KCAL/MOL
REMARK 924 INTRA-LIGAND FREE ENERGY PREDICTED BY IDOCK:    0.42 KCAL/MOL
REMARK 927      BINDING AFFINITY PREDICTED BY RF-SCORE:    0.00 PKD
ROOT
HETATM    1  C   UNL     1      -9.510   9.019  70.204  1.00  0.00    -0.217 C  
HETATM    2  C   UNL     1     -10.168   7.845  69.495  1.00  0.00    -0.208 C  
ENDROOT
BRANCH   2   3
HETATM    3  C   UNL     1      -9.649   7.712  68.063  1.00  0.00    -0.159 C  
BRANCH   3   4
HETATM    4  C   UNL     1      -9.956   8.962  67.235  1.00  0.00    -0.277 C  
HETATM    5  C   UNL     1      -8.723   9.574  66.521  1.00  0.00    -0.147 C  
HETATM    6  C   UNL     1      -7.969   8.573  65.618  1.00  0.00    -0.107 C  
HETATM    7  C   UNL     1      -9.106  10.842  65.719  1.00  0.00    -0.208 C  
HETATM    8  C   UNL     1      -8.747   8.093  64.399  1.00  0.00     0.229 C  
BRANCH   7   9
HETATM    9  C   UNL     1      -9.641  11.956  66.619  1.00  0.00    -0.220 C  
BRANCH   9  10
HETATM   10  C   UNL     1     -10.975  11.678  67.337  1.00  0.00    -0.261 C  
BRANCH  10  11
HETATM   11  C   UNL     1     -11.042  12.394  68.704  1.00  0.00    -0.297 C  
HETATM   12  C   UNL     1     -12.504  10.692  69.942  1.00  0.00    -0.241 C  
HETATM   13  C   UNL     1     -12.326  12.154  69.529  1.00  0.00    -0.027 C  
HETATM   14  C   UNL     1     -12.291  13.022  70.797  1.00  0.00    -0.394 C  
ENDBRANCH  10  11
BRANCH  10  15
HETATM   15  O   UNL     1     -12.041  12.198  66.530  1.00  0.00    -0.627 OA 
HETATM   16  O   UNL     1     -12.241  14.644  67.021  1.00  0.00    -0.307 OA 
HETATM   17  O   UNL     1     -10.763  13.831  65.131  1.00  0.00    -0.318 OA 
HETATM   18  S   UNL     1     -11.941  13.714  65.948  1.00  0.00    -0.433 S  
HETATM   19  O   UNL     1     -13.232  13.793  64.988  1.00  0.00    -0.733 OA 
ENDBRANCH  10  15
ENDBRANCH   9  10
ENDBRANCH   7   9
ENDBRANCH   3   4
ENDBRANCH   2   3
TORSDOF 6
ENDMDL
MODEL      306
REMARK 921   NORMALIZED FREE ENERGY PREDICTED BY IDOCK:   -2.78 KCAL/MOL
REMARK 922        TOTAL FREE ENERGY PREDICTED BY IDOCK:   -4.52 KCAL/MOL
REMARK 923 INTER-LIGAND FREE ENERGY PREDICTED BY IDOCK:   -3.50 KCAL/MOL
REMARK 924 INTRA-LIGAND FREE ENERGY PREDICTED BY IDOCK:   -1.02 KCAL/MOL
REMARK 927      BINDING AFFINITY PREDICTED BY RF-SCORE:    0.00 PKD
ROOT
HETATM    1  C   UNL     1      -7.739   7.093  72.398  1.00  0.00    -0.094 C  
HETATM    2  C   UNL     1      -6.413   6.768  71.727  1.00  0.00    -0.049 C  
ENDROOT
BRANCH   2   3
HETATM    3  C   UNL     1      -6.632   6.265  70.299  1.00  0.00    -0.045 C  
BRANCH   3   4
HETATM    4  C   UNL     1      -8.013   6.661  69.770  1.00  0.00    -0.120 C  
HETATM    5  C   UNL     1      -8.549   5.747  68.638  1.00  0.00    -0.109 C  
HETATM    6  C   UNL     1      -8.591   4.250  69.016  1.00  0.00    -0.108 C  
HETATM    7  C   UNL     1      -9.939   6.218  68.142  1.00  0.00    -0.149 C  
HETATM    8  C   UNL     1      -9.584   3.891  70.114  1.00  0.00    -0.267 C  
BRANCH   7   9
HETATM    9  C   UNL     1      -9.892   7.620  67.535  1.00  0.00    -0.214 C  
BRANCH   9  10
HETATM   10  C   UNL     1     -10.510   8.753  68.377  1.00  0.00    -0.176 C  
BRANCH  10  11
HETATM   11  C   UNL     1     -10.943   8.248  69.772  1.00  0.00    -0.132 C  
HETATM   12  C   UNL     1     -12.256  10.316  70.523  1.00  0.00    -0.390 C  
HETATM   13  C   UNL     1     -11.131   9.334  70.854  1.00  0.00    -0.374 C  
HETATM   14  C   UNL     1     -11.442   8.666  72.203  1.00  0.00    -0.443 C  
ENDBRANCH  10  11
BRANCH  10  15
HETATM   15  O   UNL     1      -9.512   9.763  68.580  1.00  0.00    -0.142 OA 
HETATM   16  O   UNL     1      -9.045  10.825  66.362  1.00  0.00    -0.163 OA 
HETATM   17  O   UNL     1     -10.810  11.791  67.902  1.00  0.00    -0.194 OA 
HETATM   18  S   UNL     1      -9.553  11.123  67.689  1.00  0.00    -0.172 S  
HETATM   19  O   UNL     1      -8.389  12.006  68.365  1.00  0.00    -0.160 OA 
ENDBRANCH  10  15
ENDBRANCH   9  10
ENDBRANCH   7   9
ENDBRANCH   3   4
ENDBRANCH   2   3
TORSDOF 6
ENDMDL
MODEL      307
REMARK 921   NORMALIZED FREE ENERGY PREDICTED BY IDOCK:   -2.78 KCAL/MOL
REMARK 922        TOTAL FREE ENERGY PREDICTED BY IDOCK:   -4.52 KCAL/MOL
REMARK 923 INTER-LIGAND FREE ENERGY PREDICTED BY IDOCK:   -4.35 KCAL/MOL
REMARK 924 INTRA-LIGAND FREE ENERGY PREDICTED BY IDOCK:   -0.17 KCAL/MOL
REMARK 927      BINDING AFFINITY PREDICTED BY RF-SCORE:    0.00 PKD
ROOT
HETATM    1  C   UNL     1      -9.473   7.303  69.014  1.00  0.00    -0.147 C  
HETATM    2  C   UNL     1     -10.493   7.564  67.917  1.00  0.00    -0.266 C  
ENDROOT
BRANCH   2   3
HETATM    3  C   UNL     1      -9.804   8.007  66.625  1.00  0.00    -0.322 C  
BRANCH   3   4
HETATM    4  C   UNL     1      -9.632   9.527  66.573  1.00  0.00    -0.259 C  
HETATM    5  C   UNL     1      -8.171   9.997  66.356  1.00  0.00    -0.119 C  
HETATM    6  C   UNL     1      -7.505   9.396  65.099  1.00  0.00    -0.105 C  
HETATM    7  C   UNL     1      -8.073  11.543  66.330  1.00  0.00    -0.069 C  
HETATM    8  C   UNL     1      -8.108   9.844  63.773  1.00  0.00    -0.151 C  
BRANCH   7   9
HETATM    9  C   UNL     1      -8.502  12.172  67.656  1.00  0.00    -0.163 C  
BRANCH   9  10
HETATM   10  C   UNL     1      -9.672  13.172  67.594  1.00  0.00    -0.213 C  
BRANCH  10  11
HETATM   11  C   UNL     1     -10.897  12.565  66.874  1.00  0.00    -0.280 C  
HETATM   12  C   UNL     1     -10.323  13.298  64.487  1.00  0.00    -0.394 C  
HETATM   13  C   UNL     1     -11.368  13.307  65.603  1.00  0.00    -0.325 C  
HETATM   14  C   UNL     1     -12.656  12.654  65.076  1.00  0.00    -0.504 C  
ENDBRANCH  10  11
BRANCH  10  15
HETATM   15  O   UNL     1     -10.075  13.482  68.935  1.00  0.00    -0.151 OA 
HETATM   16  O   UNL     1     -10.805  15.876  68.975  1.00  0.00    -0.233 OA 
HETATM   17  O   UNL     1     -12.485  14.029  68.544  1.00  0.00    -0.134 OA 
HETATM   18  S   UNL     1     -11.296  14.526  69.186  1.00  0.00    -0.293 S  
HETATM   19  O   UNL     1     -11.503  14.429  70.780  1.00  0.00    -0.221 OA 
ENDBRANCH  10  15
ENDBRANCH   9  10
ENDBRANCH   7   9
ENDBRANCH   3   4
ENDBRANCH   2   3
TORSDOF 6
ENDMDL
MODEL      308
REMARK 921   NORMALIZED FREE ENERGY PREDICTED BY IDOCK:   -2.77 KCAL/MOL
REMARK 922        TOTAL FREE ENERGY PREDICTED BY IDOCK:   -4.50 KCAL/MOL
REMARK 923 INTER-LIGAND FREE ENERGY PREDICTED BY IDOCK:   -3.72 KCAL/MOL
REMARK 924 INTRA-LIGAND FREE ENERGY PREDICTED BY IDOCK:   -0.78 KCAL/MOL
REMARK 927      BINDING AFFINITY PREDICTED BY RF-SCORE:    0.00 PKD
ROOT
HETATM    1  C   UNL     1     -10.133   3.872  62.673  1.00  0.00    -0.173 C  
HETATM    2  C   UNL     1     -10.681   3.657  64.075  1.00  0.00    -0.250 C  
ENDROOT
BRANCH   2   3
HETATM    3  C   UNL     1      -9.561   3.719  65.115  1.00  0.00    -0.177 C  
BRANCH   3   4
HETATM    4  C   UNL     1      -9.506   5.087  65.800  1.00  0.00    -0.167 C  
HETATM    5  C   UNL     1     -10.033   5.092  67.258  1.00  0.00    -0.218 C  
HETATM    6  C   UNL     1      -9.330   4.068  68.176  1.00  0.00    -0.218 C  
HETATM    7  C   UNL     1      -9.963   6.509  67.879  1.00  0.00    -0.148 C  
HETATM    8  C   UNL     1      -7.857   4.348  68.445  1.00  0.00    -0.079 C  
BRANCH   7   9
HETATM    9  C   UNL     1     -10.843   7.512  67.133  1.00  0.00    -0.298 C  
BRANCH   9  10
HETATM   10  C   UNL     1     -10.262   8.927  66.945  1.00  0.00    -0.276 C  
BRANCH  10  11
HETATM   11  C   UNL     1     -11.135   9.993  67.644  1.00  0.00    -0.222 C  
HETATM   12  C   UNL     1     -11.262  11.684  65.723  1.00  0.00    -0.290 C  
HETATM   13  C   UNL     1     -10.907  11.453  67.193  1.00  0.00    -0.316 C  
HETATM   14  C   UNL     1     -11.757  12.396  68.058  1.00  0.00    -0.414 C  
ENDBRANCH  10  11
BRANCH  10  15
HETATM   15  O   UNL     1      -8.966   8.969  67.556  1.00  0.00    -0.123 OA 
HETATM   16  O   UNL     1      -7.355   7.850  66.001  1.00  0.00    -0.071 OA 
HETATM   17  O   UNL     1      -7.739  10.351  65.870  1.00  0.00    -0.134 OA 
HETATM   18  S   UNL     1      -7.643   9.129  66.624  1.00  0.00    -0.089 S  
HETATM   19  O   UNL     1      -6.475   9.303  67.720  1.00  0.00    -0.058 OA 
ENDBRANCH  10  15
ENDBRANCH   9  10
ENDBRANCH   7   9
ENDBRANCH   3   4
ENDBRANCH   2   3
TORSDOF 6
ENDMDL
MODEL      309
REMARK 921   NORMALIZED FREE ENERGY PREDICTED BY IDOCK:   -2.77 KCAL/MOL
REMARK 922        TOTAL FREE ENERGY PREDICTED BY IDOCK:   -4.50 KCAL/MOL
REMARK 923 INTER-LIGAND FREE ENERGY PREDICTED BY IDOCK:   -3.53 KCAL/MOL
REMARK 924 INTRA-LIGAND FREE ENERGY PREDICTED BY IDOCK:   -0.97 KCAL/MOL
REMARK 927      BINDING AFFINITY PREDICTED BY RF-SCORE:    0.00 PKD
ROOT
HETATM    1  C   UNL     1     -12.753  10.535  71.376  1.00  0.00    -0.547 C  
HETATM    2  C   UNL     1     -11.354  10.047  71.033  1.00  0.00    -0.434 C  
ENDROOT
BRANCH   2   3
HETATM    3  C   UNL     1     -11.190   8.567  71.386  1.00  0.00    -0.327 C  
BRANCH   3   4
HETATM    4  C   UNL     1     -10.427   7.811  70.296  1.00  0.00    -0.225 C  
HETATM    5  C   UNL     1      -9.263   6.933  70.824  1.00  0.00    -0.158 C  
HETATM    6  C   UNL     1      -9.694   5.914  71.902  1.00  0.00    -0.173 C  
HETATM    7  C   UNL     1      -8.529   6.213  69.666  1.00  0.00    -0.127 C  
HETATM    8  C   UNL     1     -10.630   4.816  71.414  1.00  0.00    -0.048 C  
BRANCH   7   9
HETATM    9  C   UNL     1      -7.877   7.198  68.694  1.00  0.00    -0.122 C  
BRANCH   9  10
HETATM   10  C   UNL     1      -8.383   7.161  67.239  1.00  0.00    -0.119 C  
BRANCH  10  11
HETATM   11  C   UNL     1      -9.454   6.065  67.041  1.00  0.00    -0.137 C  
HETATM   12  C   UNL     1      -8.003   4.348  65.811  1.00  0.00    -0.095 C  
HETATM   13  C   UNL     1      -9.287   5.178  65.787  1.00  0.00    -0.163 C  
HETATM   14  C   UNL     1     -10.487   4.225  65.670  1.00  0.00    -0.153 C  
ENDBRANCH  10  11
BRANCH  10  15
HETATM   15  O   UNL     1      -9.001   8.420  66.942  1.00  0.00    -0.136 OA 
HETATM   16  O   UNL     1      -7.188  10.027  66.312  1.00  0.00    -0.098 OA 
HETATM   17  O   UNL     1      -8.363   8.657  64.535  1.00  0.00    -0.162 OA 
HETATM   18  S   UNL     1      -8.370   9.372  65.784  1.00  0.00    -0.126 S  
HETATM   19  O   UNL     1      -9.461  10.552  65.684  1.00  0.00    -0.187 OA 
ENDBRANCH  10  15
ENDBRANCH   9  10
ENDBRANCH   7   9
ENDBRANCH   3   4
ENDBRANCH   2   3
TORSDOF 6
ENDMDL
MODEL      310
REMARK 921   NORMALIZED FREE ENERGY PREDICTED BY IDOCK:   -2.72 KCAL/MOL
REMARK 922        TOTAL FREE ENERGY PREDICTED BY IDOCK:   -4.44 KCAL/MOL
REMARK 923 INTER-LIGAND FREE ENERGY PREDICTED BY IDOCK:   -3.95 KCAL/MOL
REMARK 924 INTRA-LIGAND FREE ENERGY PREDICTED BY IDOCK:   -0.49 KCAL/MOL
REMARK 927      BINDING AFFINITY PREDICTED BY RF-SCORE:    0.00 PKD
ROOT
HETATM    1  C   UNL     1     -11.480  12.449  63.457  1.00  0.00    -0.561 C  
HETATM    2  C   UNL     1     -12.174  13.522  64.283  1.00  0.00    -0.450 C  
ENDROOT
BRANCH   2   3
HETATM    3  C   UNL     1     -11.900  13.325  65.775  1.00  0.00    -0.428 C  
BRANCH   3   4
HETATM    4  C   UNL     1     -11.200  11.991  66.046  1.00  0.00    -0.385 C  
HETATM    5  C   UNL     1     -10.362  11.964  67.350  1.00  0.00    -0.228 C  
HETATM    6  C   UNL     1     -11.164  12.350  68.612  1.00  0.00    -0.314 C  
HETATM    7  C   UNL     1      -9.672  10.592  67.549  1.00  0.00    -0.190 C  
HETATM    8  C   UNL     1     -12.261  11.368  69.004  1.00  0.00    -0.200 C  
BRANCH   7   9
HETATM    9  C   UNL     1      -8.679  10.276  66.430  1.00  0.00    -0.144 C  
BRANCH   9  10
HETATM   10  C   UNL     1      -8.445   8.785  66.122  1.00  0.00    -0.131 C  
BRANCH  10  11
HETATM   11  C   UNL     1      -8.099   8.563  64.632  1.00  0.00    -0.153 C  
HETATM   12  C   UNL     1      -5.886   9.852  64.572  1.00  0.00    -0.100 C  
HETATM   13  C   UNL     1      -7.276   9.683  63.957  1.00  0.00    -0.118 C  
HETATM   14  C   UNL     1      -7.118   9.372  62.461  1.00  0.00    -0.099 C  
ENDBRANCH  10  11
BRANCH  10  15
HETATM   15  O   UNL     1      -7.324   8.333  66.893  1.00  0.00    -0.081 OA 
HETATM   16  O   UNL     1      -8.070   8.126  69.273  1.00  0.00    -0.113 OA 
HETATM   17  O   UNL     1      -8.213   6.141  67.705  1.00  0.00    -0.115 OA 
HETATM   18  S   UNL     1      -7.565   7.343  68.160  1.00  0.00    -0.117 S  
HETATM   19  O   UNL     1      -6.059   6.973  68.593  1.00  0.00    -0.025 OA 
ENDBRANCH  10  15
ENDBRANCH   9  10
ENDBRANCH   7   9
ENDBRANCH   3   4
ENDBRANCH   2   3
TORSDOF 6
ENDMDL
MODEL      311
REMARK 921   NORMALIZED FREE ENERGY PREDICTED BY IDOCK:   -2.67 KCAL/MOL
REMARK 922        TOTAL FREE ENERGY PREDICTED BY IDOCK:   -4.37 KCAL/MOL
REMARK 923 INTER-LIGAND FREE ENERGY PREDICTED BY IDOCK:   -3.79 KCAL/MOL
REMARK 924 INTRA-LIGAND FREE ENERGY PREDICTED BY IDOCK:   -0.59 KCAL/MOL
REMARK 927      BINDING AFFINITY PREDICTED BY RF-SCORE:    0.00 PKD
ROOT
HETATM    1  C   UNL     1     -11.097  12.290  63.533  1.00  0.00    -0.533 C  
HETATM    2  C   UNL     1     -10.902  11.232  64.608  1.00  0.00    -0.335 C  
ENDROOT
BRANCH   2   3
HETATM    3  C   UNL     1      -9.766  10.278  64.236  1.00  0.00    -0.373 C  
BRANCH   3   4
HETATM    4  C   UNL     1      -9.358   9.401  65.423  1.00  0.00    -0.311 C  
HETATM    5  C   UNL     1      -8.053   8.594  65.201  1.00  0.00    -0.143 C  
HETATM    6  C   UNL     1      -6.841   9.467  64.810  1.00  0.00    -0.103 C  
HETATM    7  C   UNL     1      -7.713   7.720  66.434  1.00  0.00    -0.093 C  
HETATM    8  C   UNL     1      -6.358  10.422  65.895  1.00  0.00    -0.119 C  
BRANCH   7   9
HETATM    9  C   UNL     1      -8.789   6.671  66.714  1.00  0.00    -0.132 C  
BRANCH   9  10
HETATM   10  C   UNL     1      -9.258   6.544  68.176  1.00  0.00    -0.112 C  
BRANCH  10  11
HETATM   11  C   UNL     1      -8.627   5.314  68.867  1.00  0.00    -0.091 C  
HETATM   12  C   UNL     1      -9.685   3.490  67.413  1.00  0.00    -0.061 C  
HETATM   13  C   UNL     1      -9.464   4.016  68.831  1.00  0.00    -0.237 C  
HETATM   14  C   UNL     1      -8.759   2.928  69.656  1.00  0.00    -0.131 C  
ENDBRANCH  10  11
BRANCH  10  15
HETATM   15  O   UNL     1      -8.823   7.707  68.894  1.00  0.00    -0.135 OA 
HETATM   16  O   UNL     1     -10.548   9.491  68.567  1.00  0.00    -0.214 OA 
HETATM   17  O   UNL     1     -10.690   7.916  70.546  1.00  0.00    -0.224 OA 
HETATM   18  S   UNL     1      -9.924   8.677  69.595  1.00  0.00    -0.196 S  
HETATM   19  O   UNL     1      -8.996   9.713  70.406  1.00  0.00    -0.244 OA 
ENDBRANCH  10  15
ENDBRANCH   9  10
ENDBRANCH   7   9
ENDBRANCH   3   4
ENDBRANCH   2   3
TORSDOF 6
ENDMDL
MODEL      312
REMARK 921   NORMALIZED FREE ENERGY PREDICTED BY IDOCK:   -2.67 KCAL/MOL
REMARK 922        TOTAL FREE ENERGY PREDICTED BY IDOCK:   -4.36 KCAL/MOL
REMARK 923 INTER-LIGAND FREE ENERGY PREDICTED BY IDOCK:   -3.24 KCAL/MOL
REMARK 924 INTRA-LIGAND FREE ENERGY PREDICTED BY IDOCK:   -1.13 KCAL/MOL
REMARK 927      BINDING AFFINITY PREDICTED BY RF-SCORE:    0.00 PKD
ROOT
HETATM    1  C   UNL     1     -10.852  10.188  67.333  1.00  0.00    -0.323 C  
HETATM    2  C   UNL     1      -9.684  11.005  66.804  1.00  0.00    -0.222 C  
ENDROOT
BRANCH   2   3
HETATM    3  C   UNL     1      -8.786  11.480  67.948  1.00  0.00    -0.152 C  
BRANCH   3   4
HETATM    4  C   UNL     1      -8.429  10.331  68.894  1.00  0.00    -0.138 C  
HETATM    5  C   UNL     1      -7.341   9.370  68.348  1.00  0.00    -0.077 C  
HETATM    6  C   UNL     1      -6.032  10.081  67.940  1.00  0.00    -0.038 C  
HETATM    7  C   UNL     1      -7.044   8.227  69.350  1.00  0.00    -0.055 C  
HETATM    8  C   UNL     1      -5.254  10.707  69.090  1.00  0.00    -0.041 C  
BRANCH   7   9
HETATM    9  C   UNL     1      -8.267   7.345  69.601  1.00  0.00    -0.130 C  
BRANCH   9  10
HETATM   10  C   UNL     1      -8.763   7.258  71.057  1.00  0.00    -0.140 C  
BRANCH  10  11
HETATM   11  C   UNL     1      -7.874   8.092  72.007  1.00  0.00    -0.131 C  
HETATM   12  C   UNL     1      -6.889   6.164  73.378  1.00  0.00    -0.076 C  
HETATM   13  C   UNL     1      -7.643   7.494  73.413  1.00  0.00    -0.124 C  
HETATM   14  C   UNL     1      -6.845   8.489  74.269  1.00  0.00    -0.164 C  
ENDBRANCH  10  11
BRANCH  10  15
HETATM   15  O   UNL     1     -10.086   7.809  71.119  1.00  0.00    -0.187 OA 
HETATM   16  O   UNL     1     -11.655   6.130  70.126  1.00  0.00    -0.375 OA 
HETATM   17  O   UNL     1     -11.182   6.130  72.615  1.00  0.00    -0.260 OA 
HETATM   18  S   UNL     1     -11.356   6.823  71.366  1.00  0.00    -0.296 S  
HETATM   19  O   UNL     1     -12.569   7.869  71.532  1.00  0.00    -0.311 OA 
ENDBRANCH  10  15
ENDBRANCH   9  10
ENDBRANCH   7   9
ENDBRANCH   3   4
ENDBRANCH   2   3
TORSDOF 6
ENDMDL
MODEL      313
REMARK 921   NORMALIZED FREE ENERGY PREDICTED BY IDOCK:   -2.64 KCAL/MOL
REMARK 922        TOTAL FREE ENERGY PREDICTED BY IDOCK:   -4.33 KCAL/MOL
REMARK 923 INTER-LIGAND FREE ENERGY PREDICTED BY IDOCK:   -4.14 KCAL/MOL
REMARK 924 INTRA-LIGAND FREE ENERGY PREDICTED BY IDOCK:   -0.20 KCAL/MOL
REMARK 927      BINDING AFFINITY PREDICTED BY RF-SCORE:    0.00 PKD
ROOT
HETATM    1  C   UNL     1     -12.387  10.668  71.196  1.00  0.00    -0.505 C  
HETATM    2  C   UNL     1     -12.480  12.123  70.764  1.00  0.00    -0.362 C  
ENDROOT
BRANCH   2   3
HETATM    3  C   UNL     1     -12.106  12.279  69.288  1.00  0.00    -0.219 C  
BRANCH   3   4
HETATM    4  C   UNL     1     -10.663  11.841  69.025  1.00  0.00    -0.209 C  
HETATM    5  C   UNL     1     -10.504  10.840  67.852  1.00  0.00    -0.233 C  
HETATM    6  C   UNL     1     -11.103  11.343  66.521  1.00  0.00    -0.312 C  
HETATM    7  C   UNL     1      -9.023  10.431  67.656  1.00  0.00    -0.139 C  
HETATM    8  C   UNL     1     -10.400  12.549  65.912  1.00  0.00    -0.284 C  
BRANCH   7   9
HETATM    9  C   UNL     1      -8.456   9.708  68.879  1.00  0.00    -0.125 C  
BRANCH   9  10
HETATM   10  C   UNL     1      -9.359   8.638  69.523  1.00  0.00    -0.153 C  
BRANCH  10  11
HETATM   11  C   UNL     1      -9.039   7.228  68.979  1.00  0.00    -0.133 C  
HETATM   12  C   UNL     1     -10.723   7.186  67.048  1.00  0.00    -0.420 C  
HETATM   13  C   UNL     1     -10.214   6.482  68.307  1.00  0.00    -0.195 C  
HETATM   14  C   UNL     1      -9.770   5.060  67.930  1.00  0.00    -0.196 C  
ENDBRANCH  10  11
BRANCH  10  15
HETATM   15  O   UNL     1      -9.104   8.620  70.934  1.00  0.00    -0.155 OA 
HETATM   16  O   UNL     1      -7.639   6.648  71.416  1.00  0.00    -0.090 OA 
HETATM   17  O   UNL     1      -6.620   8.915  70.926  1.00  0.00    -0.047 OA 
HETATM   18  S   UNL     1      -7.665   8.098  71.484  1.00  0.00    -0.101 S  
HETATM   19  O   UNL     1      -7.769   8.415  73.059  1.00  0.00    -0.256 OA 
ENDBRANCH  10  15
ENDBRANCH   9  10
ENDBRANCH   7   9
ENDBRANCH   3   4
ENDBRANCH   2   3
TORSDOF 6
ENDMDL
MODEL      314
REMARK 921   NORMALIZED FREE ENERGY PREDICTED BY IDOCK:   -2.62 KCAL/MOL
REMARK 922        TOTAL FREE ENERGY PREDICTED BY IDOCK:   -4.30 KCAL/MOL
REMARK 923 INTER-LIGAND FREE ENERGY PREDICTED BY IDOCK:   -4.34 KCAL/MOL
REMARK 924 INTRA-LIGAND FREE ENERGY PREDICTED BY IDOCK:    0.03 KCAL/MOL
REMARK 927      BINDING AFFINITY PREDICTED BY RF-SCORE:    0.00 PKD
ROOT
HETATM    1  C   UNL     1     -14.265   8.664  72.497  1.00  0.00    -0.371 C  
HETATM    2  C   UNL     1     -12.898   8.878  71.867  1.00  0.00    -0.437 C  
ENDROOT
BRANCH   2   3
HETATM    3  C   UNL     1     -12.807  10.259  71.214  1.00  0.00    -0.522 C  
BRANCH   3   4
HETATM    4  C   UNL     1     -11.384  10.563  70.739  1.00  0.00    -0.295 C  
HETATM    5  C   UNL     1     -11.303  11.170  69.315  1.00  0.00    -0.349 C  
HETATM    6  C   UNL     1     -12.152  12.447  69.135  1.00  0.00    -0.195 C  
HETATM    7  C   UNL     1      -9.835  11.435  68.897  1.00  0.00    -0.127 C  
HETATM    8  C   UNL     1     -11.685  13.651  69.942  1.00  0.00    -0.346 C  
BRANCH   7   9
HETATM    9  C   UNL     1      -9.011  10.149  68.831  1.00  0.00    -0.155 C  
BRANCH   9  10
HETATM   10  C   UNL     1      -9.604   8.997  67.997  1.00  0.00    -0.148 C  
BRANCH  10  11
HETATM   11  C   UNL     1      -8.553   8.393  67.039  1.00  0.00    -0.124 C  
HETATM   12  C   UNL     1      -8.924   9.961  65.047  1.00  0.00    -0.239 C  
HETATM   13  C   UNL     1      -8.867   8.512  65.531  1.00  0.00    -0.196 C  
HETATM   14  C   UNL     1      -7.794   7.765  64.723  1.00  0.00    -0.129 C  
ENDBRANCH  10  11
BRANCH  10  15
HETATM   15  O   UNL     1     -10.014   7.954  68.892  1.00  0.00    -0.180 OA 
HETATM   16  O   UNL     1      -8.828   5.858  68.213  1.00  0.00    -0.112 OA 
HETATM   17  O   UNL     1      -7.814   7.402  69.947  1.00  0.00    -0.110 OA 
HETATM   18  S   UNL     1      -8.955   6.794  69.314  1.00  0.00    -0.136 S  
HETATM   19  O   UNL     1      -9.777   5.975  70.432  1.00  0.00    -0.165 OA 
ENDBRANCH  10  15
ENDBRANCH   9  10
ENDBRANCH   7   9
ENDBRANCH   3   4
ENDBRANCH   2   3
TORSDOF 6
ENDMDL
MODEL      315
REMARK 921   NORMALIZED FREE ENERGY PREDICTED BY IDOCK:   -2.60 KCAL/MOL
REMARK 922        TOTAL FREE ENERGY PREDICTED BY IDOCK:   -4.27 KCAL/MOL
REMARK 923 INTER-LIGAND FREE ENERGY PREDICTED BY IDOCK:   -3.40 KCAL/MOL
REMARK 924 INTRA-LIGAND FREE ENERGY PREDICTED BY IDOCK:   -0.87 KCAL/MOL
REMARK 927      BINDING AFFINITY PREDICTED BY RF-SCORE:    0.00 PKD
ROOT
HETATM    1  C   UNL     1     -10.589  10.446  66.739  1.00  0.00    -0.270 C  
HETATM    2  C   UNL     1      -9.396  11.283  66.305  1.00  0.00    -0.226 C  
ENDROOT
BRANCH   2   3
HETATM    3  C   UNL     1      -8.881  12.141  67.463  1.00  0.00    -0.175 C  
BRANCH   3   4
HETATM    4  C   UNL     1      -9.008  11.410  68.802  1.00  0.00    -0.086 C  
HETATM    5  C   UNL     1      -8.043  10.208  68.967  1.00  0.00    -0.125 C  
HETATM    6  C   UNL     1      -6.556  10.572  68.758  1.00  0.00    -0.053 C  
HETATM    7  C   UNL     1      -8.239   9.511  70.336  1.00  0.00    -0.220 C  
HETATM    8  C   UNL     1      -5.968  11.507  69.807  1.00  0.00    -0.116 C  
BRANCH   7   9
HETATM    9  C   UNL     1      -9.642   8.921  70.488  1.00  0.00    -0.242 C  
BRANCH   9  10
HETATM   10  C   UNL     1      -9.723   7.404  70.746  1.00  0.00    -0.171 C  
BRANCH  10  11
HETATM   11  C   UNL     1      -8.655   6.635  69.936  1.00  0.00    -0.140 C  
HETATM   12  C   UNL     1     -10.170   5.763  68.062  1.00  0.00    -0.231 C  
HETATM   13  C   UNL     1      -9.160   5.402  69.153  1.00  0.00    -0.131 C  
HETATM   14  C   UNL     1      -7.968   4.684  68.502  1.00  0.00    -0.080 C  
ENDBRANCH  10  11
BRANCH  10  15
HETATM   15  O   UNL     1      -9.459   7.165  72.135  1.00  0.00    -0.137 OA 
HETATM   16  O   UNL     1     -11.323   8.193  73.452  1.00  0.00    -0.078 OA 
HETATM   17  O   UNL     1     -11.451   5.771  72.720  1.00  0.00    -0.290 OA 
HETATM   18  S   UNL     1     -10.698   6.916  73.158  1.00  0.00    -0.313 S  
HETATM   19  O   UNL     1      -9.937   6.529  74.524  1.00  0.00    -0.315 OA 
ENDBRANCH  10  15
ENDBRANCH   9  10
ENDBRANCH   7   9
ENDBRANCH   3   4
ENDBRANCH   2   3
TORSDOF 6
ENDMDL
MODEL      316
REMARK 921   NORMALIZED FREE ENERGY PREDICTED BY IDOCK:   -2.59 KCAL/MOL
REMARK 922        TOTAL FREE ENERGY PREDICTED BY IDOCK:   -4.26 KCAL/MOL
REMARK 923 INTER-LIGAND FREE ENERGY PREDICTED BY IDOCK:   -3.49 KCAL/MOL
REMARK 924 INTRA-LIGAND FREE ENERGY PREDICTED BY IDOCK:   -0.76 KCAL/MOL
REMARK 927      BINDING AFFINITY PREDICTED BY RF-SCORE:    0.00 PKD
ROOT
HETATM    1  C   UNL     1      -7.118  14.639  69.481  1.00  0.00    -0.152 C  
HETATM    2  C   UNL     1      -7.133  13.601  68.370  1.00  0.00    -0.107 C  
ENDROOT
BRANCH   2   3
HETATM    3  C   UNL     1      -8.498  13.558  67.681  1.00  0.00    -0.184 C  
BRANCH   3   4
HETATM    4  C   UNL     1      -8.721  12.226  66.960  1.00  0.00    -0.199 C  
HETATM    5  C   UNL     1      -9.814  11.331  67.598  1.00  0.00    -0.190 C  
HETATM    6  C   UNL     1     -11.182  12.032  67.747  1.00  0.00    -0.331 C  
HETATM    7  C   UNL     1      -9.972   9.997  66.827  1.00  0.00    -0.267 C  
HETATM    8  C   UNL     1     -11.878  12.372  66.435  1.00  0.00    -0.421 C  
BRANCH   7   9
HETATM    9  C   UNL     1      -8.696   9.155  66.859  1.00  0.00    -0.133 C  
BRANCH   9  10
HETATM   10  C   UNL     1      -8.665   7.997  67.875  1.00  0.00    -0.128 C  
BRANCH  10  11
HETATM   11  C   UNL     1      -7.346   7.986  68.680  1.00  0.00    -0.089 C  
HETATM   12  C   UNL     1      -7.643  10.217  69.904  1.00  0.00    -0.174 C  
HETATM   13  C   UNL     1      -6.742   9.371  69.003  1.00  0.00    -0.050 C  
HETATM   14  C   UNL     1      -5.384   9.189  69.697  1.00  0.00    -0.034 C  
ENDBRANCH  10  11
BRANCH  10  15
HETATM   15  O   UNL     1      -9.735   8.186  68.811  1.00  0.00    -0.149 OA 
HETATM   16  O   UNL     1     -11.454   6.422  68.367  1.00  0.00    -0.205 OA 
HETATM   17  O   UNL     1      -9.608   6.019  70.054  1.00  0.00    -0.159 OA 
HETATM   18  S   UNL     1     -10.536   6.893  69.387  1.00  0.00    -0.241 S  
HETATM   19  O   UNL     1     -11.494   7.557  70.499  1.00  0.00    -0.280 OA 
ENDBRANCH  10  15
ENDBRANCH   9  10
ENDBRANCH   7   9
ENDBRANCH   3   4
ENDBRANCH   2   3
TORSDOF 6
ENDMDL
MODEL      317
REMARK 921   NORMALIZED FREE ENERGY PREDICTED BY IDOCK:   -2.58 KCAL/MOL
REMARK 922        TOTAL FREE ENERGY PREDICTED BY IDOCK:   -4.25 KCAL/MOL
REMARK 923 INTER-LIGAND FREE ENERGY PREDICTED BY IDOCK:   -4.25 KCAL/MOL
REMARK 924 INTRA-LIGAND FREE ENERGY PREDICTED BY IDOCK:    0.00 KCAL/MOL
REMARK 927      BINDING AFFINITY PREDICTED BY RF-SCORE:    0.00 PKD
ROOT
HETATM    1  C   UNL     1     -11.873  10.262  71.019  1.00  0.00    -0.472 C  
HETATM    2  C   UNL     1     -12.054  11.263  69.888  1.00  0.00    -0.414 C  
ENDROOT
BRANCH   2   3
HETATM    3  C   UNL     1     -11.528  10.696  68.567  1.00  0.00    -0.333 C  
BRANCH   3   4
HETATM    4  C   UNL     1     -10.349   9.747  68.794  1.00  0.00    -0.227 C  
HETATM    5  C   UNL     1     -10.178   8.666  67.695  1.00  0.00    -0.300 C  
HETATM    6  C   UNL     1     -10.061   9.246  66.268  1.00  0.00    -0.322 C  
HETATM    7  C   UNL     1      -8.979   7.735  68.000  1.00  0.00    -0.126 C  
HETATM    8  C   UNL     1      -8.803  10.064  66.007  1.00  0.00    -0.164 C  
BRANCH   7   9
HETATM    9  C   UNL     1      -9.168   6.955  69.301  1.00  0.00    -0.139 C  
BRANCH   9  10
HETATM   10  C   UNL     1      -9.986   5.653  69.207  1.00  0.00    -0.189 C  
BRANCH  10  11
HETATM   11  C   UNL     1      -9.080   4.436  68.914  1.00  0.00    -0.175 C  
HETATM   12  C   UNL     1      -8.940   4.682  66.368  1.00  0.00    -0.114 C  
HETATM   13  C   UNL     1      -9.281   3.760  67.540  1.00  0.00    -0.216 C  
HETATM   14  C   UNL     1      -8.398   2.505  67.451  1.00  0.00    -0.094 C  
ENDBRANCH  10  11
BRANCH  10  15
HETATM   15  O   UNL     1     -10.616   5.421  70.474  1.00  0.00    -0.271 OA 
HETATM   16  O   UNL     1      -9.834   3.199  71.318  1.00  0.00    -0.162 OA 
HETATM   17  O   UNL     1      -8.597   5.319  71.947  1.00  0.00    -0.127 OA 
HETATM   18  S   UNL     1      -9.813   4.615  71.636  1.00  0.00    -0.194 S  
HETATM   19  O   UNL     1     -10.811   4.749  72.892  1.00  0.00    -0.216 OA 
ENDBRANCH  10  15
ENDBRANCH   9  10
ENDBRANCH   7   9
ENDBRANCH   3   4
ENDBRANCH   2   3
TORSDOF 6
ENDMDL
MODEL      318
REMARK 921   NORMALIZED FREE ENERGY PREDICTED BY IDOCK:   -2.58 KCAL/MOL
REMARK 922        TOTAL FREE ENERGY PREDICTED BY IDOCK:   -4.24 KCAL/MOL
REMARK 923 INTER-LIGAND FREE ENERGY PREDICTED BY IDOCK:   -3.45 KCAL/MOL
REMARK 924 INTRA-LIGAND FREE ENERGY PREDICTED BY IDOCK:   -0.79 KCAL/MOL
REMARK 927      BINDING AFFINITY PREDICTED BY RF-SCORE:    0.00 PKD
ROOT
HETATM    1  C   UNL     1     -10.272  18.532  66.365  1.00  0.00    -0.449 C  
HETATM    2  C   UNL     1     -10.696  17.406  67.295  1.00  0.00    -0.219 C  
ENDROOT
BRANCH   2   3
HETATM    3  C   UNL     1     -10.548  16.046  66.609  1.00  0.00    -0.297 C  
BRANCH   3   4
HETATM    4  C   UNL     1     -10.109  14.963  67.597  1.00  0.00    -0.227 C  
HETATM    5  C   UNL     1      -8.713  14.358  67.302  1.00  0.00    -0.228 C  
HETATM    6  C   UNL     1      -7.586  15.411  67.211  1.00  0.00    -0.246 C  
HETATM    7  C   UNL     1      -8.344  13.261  68.331  1.00  0.00    -0.131 C  
HETATM    8  C   UNL     1      -7.272  16.132  68.516  1.00  0.00    -0.144 C  
BRANCH   7   9
HETATM    9  C   UNL     1      -9.310  12.077  68.285  1.00  0.00    -0.197 C  
BRANCH   9  10
HETATM   10  C   UNL     1      -8.678  10.673  68.352  1.00  0.00    -0.141 C  
BRANCH  10  11
HETATM   11  C   UNL     1      -8.989   9.977  69.696  1.00  0.00    -0.221 C  
HETATM   12  C   UNL     1      -6.596   9.840  70.603  1.00  0.00    -0.113 C  
HETATM   13  C   UNL     1      -7.872   9.070  70.260  1.00  0.00    -0.111 C  
HETATM   14  C   UNL     1      -8.377   8.363  71.528  1.00  0.00    -0.196 C  
ENDBRANCH  10  11
BRANCH  10  15
HETATM   15  O   UNL     1      -9.251   9.869  67.312  1.00  0.00    -0.137 OA 
HETATM   16  O   UNL     1      -8.776  10.997  65.129  1.00  0.00    -0.161 OA 
HETATM   17  O   UNL     1      -7.180   9.258  66.050  1.00  0.00    -0.089 OA 
HETATM   18  S   UNL     1      -8.510   9.776  65.867  1.00  0.00    -0.132 S  
HETATM   19  O   UNL     1      -9.388   8.659  65.108  1.00  0.00    -0.011 OA 
ENDBRANCH  10  15
ENDBRANCH   9  10
ENDBRANCH   7   9
ENDBRANCH   3   4
ENDBRANCH   2   3
TORSDOF 6
ENDMDL
MODEL      319
REMARK 921   NORMALIZED FREE ENERGY PREDICTED BY IDOCK:   -2.57 KCAL/MOL
REMARK 922        TOTAL FREE ENERGY PREDICTED BY IDOCK:   -4.23 KCAL/MOL
REMARK 923 INTER-LIGAND FREE ENERGY PREDICTED BY IDOCK:   -3.28 KCAL/MOL
REMARK 924 INTRA-LIGAND FREE ENERGY PREDICTED BY IDOCK:   -0.96 KCAL/MOL
REMARK 927      BINDING AFFINITY PREDICTED BY RF-SCORE:    0.00 PKD
ROOT
HETATM    1  C   UNL     1     -12.130   9.002  72.142  1.00  0.00    -0.412 C  
HETATM    2  C   UNL     1     -11.110   8.009  71.608  1.00  0.00    -0.300 C  
ENDROOT
BRANCH   2   3
HETATM    3  C   UNL     1      -9.697   8.593  71.666  1.00  0.00    -0.348 C  
BRANCH   3   4
HETATM    4  C   UNL     1      -9.058   8.658  70.276  1.00  0.00    -0.172 C  
HETATM    5  C   UNL     1      -7.508   8.624  70.284  1.00  0.00    -0.066 C  
HETATM    6  C   UNL     1      -6.918   7.406  71.027  1.00  0.00    -0.059 C  
HETATM    7  C   UNL     1      -6.935   8.710  68.848  1.00  0.00    -0.062 C  
HETATM    8  C   UNL     1      -7.190   6.057  70.373  1.00  0.00    -0.083 C  
BRANCH   7   9
HETATM    9  C   UNL     1      -7.302  10.023  68.156  1.00  0.00    -0.083 C  
BRANCH   9  10
HETATM   10  C   UNL     1      -7.932   9.906  66.755  1.00  0.00    -0.116 C  
BRANCH  10  11
HETATM   11  C   UNL     1      -7.829   8.464  66.207  1.00  0.00    -0.098 C  
HETATM   12  C   UNL     1      -7.073   9.027  63.825  1.00  0.00    -0.092 C  
HETATM   13  C   UNL     1      -8.097   8.297  64.695  1.00  0.00    -0.150 C  
HETATM   14  C   UNL     1      -8.074   6.803  64.333  1.00  0.00    -0.058 C  
ENDBRANCH  10  11
BRANCH  10  15
HETATM   15  O   UNL     1      -9.326  10.225  66.857  1.00  0.00    -0.155 OA 
HETATM   16  O   UNL     1      -9.520  12.703  67.148  1.00  0.00    -0.202 OA 
HETATM   17  O   UNL     1      -9.587  11.673  64.834  1.00  0.00    -0.224 OA 
HETATM   18  S   UNL     1      -9.878  11.626  66.243  1.00  0.00    -0.226 S  
HETATM   19  O   UNL     1     -11.471  11.472  66.426  1.00  0.00    -0.375 OA 
ENDBRANCH  10  15
ENDBRANCH   9  10
ENDBRANCH   7   9
ENDBRANCH   3   4
ENDBRANCH   2   3
TORSDOF 6
ENDMDL
MODEL      320
REMARK 921   NORMALIZED FREE ENERGY PREDICTED BY IDOCK:   -2.57 KCAL/MOL
REMARK 922        TOTAL FREE ENERGY PREDICTED BY IDOCK:   -4.23 KCAL/MOL
REMARK 923 INTER-LIGAND FREE ENERGY PREDICTED BY IDOCK:   -4.29 KCAL/MOL
REMARK 924 INTRA-LIGAND FREE ENERGY PREDICTED BY IDOCK:    0.06 KCAL/MOL
REMARK 927      BINDING AFFINITY PREDICTED BY RF-SCORE:    0.00 PKD
ROOT
HETATM    1  C   UNL     1      -7.319  14.698  69.290  1.00  0.00    -0.149 C  
HETATM    2  C   UNL     1      -7.312  13.687  68.154  1.00  0.00    -0.121 C  
ENDROOT
BRANCH   2   3
HETATM    3  C   UNL     1      -8.685  13.610  67.483  1.00  0.00    -0.198 C  
BRANCH   3   4
HETATM    4  C   UNL     1      -9.073  12.164  67.162  1.00  0.00    -0.189 C  
HETATM    5  C   UNL     1     -10.418  11.711  67.785  1.00  0.00    -0.213 C  
HETATM    6  C   UNL     1     -11.611  12.621  67.417  1.00  0.00    -0.421 C  
HETATM    7  C   UNL     1     -10.735  10.237  67.431  1.00  0.00    -0.339 C  
HETATM    8  C   UNL     1     -12.003  12.605  65.945  1.00  0.00    -0.497 C  
BRANCH   7   9
HETATM    9  C   UNL     1      -9.691   9.270  67.989  1.00  0.00    -0.172 C  
BRANCH   9  10
HETATM   10  C   UNL     1      -9.669   9.094  69.520  1.00  0.00    -0.173 C  
BRANCH  10  11
HETATM   11  C   UNL     1      -9.165   7.688  69.919  1.00  0.00    -0.147 C  
HETATM   12  C   UNL     1     -11.425   6.483  69.959  1.00  0.00    -0.476 C  
HETATM   13  C   UNL     1     -10.153   6.824  70.735  1.00  0.00    -0.208 C  
HETATM   14  C   UNL     1      -9.464   5.515  71.153  1.00  0.00    -0.197 C  
ENDBRANCH  10  11
BRANCH  10  15
HETATM   15  O   UNL     1      -8.753  10.049  70.073  1.00  0.00    -0.191 OA 
HETATM   16  O   UNL     1      -7.096   8.794  71.468  1.00  0.00    -0.088 OA 
HETATM   17  O   UNL     1      -6.623   9.261  69.023  1.00  0.00    -0.046 OA 
HETATM   18  S   UNL     1      -7.195   9.636  70.290  1.00  0.00    -0.146 S  
HETATM   19  O   UNL     1      -6.535  11.032  70.749  1.00  0.00    -0.316 OA 
ENDBRANCH  10  15
ENDBRANCH   9  10
ENDBRANCH   7   9
ENDBRANCH   3   4
ENDBRANCH   2   3
TORSDOF 6
ENDMDL
MODEL      321
REMARK 921   NORMALIZED FREE ENERGY PREDICTED BY IDOCK:   -2.55 KCAL/MOL
REMARK 922        TOTAL FREE ENERGY PREDICTED BY IDOCK:   -4.20 KCAL/MOL
REMARK 923 INTER-LIGAND FREE ENERGY PREDICTED BY IDOCK:   -3.31 KCAL/MOL
REMARK 924 INTRA-LIGAND FREE ENERGY PREDICTED BY IDOCK:   -0.89 KCAL/MOL
REMARK 927      BINDING AFFINITY PREDICTED BY RF-SCORE:    0.00 PKD
ROOT
HETATM    1  C   UNL     1     -12.527  10.588  70.241  1.00  0.00    -0.345 C  
HETATM    2  C   UNL     1     -12.186   9.900  71.554  1.00  0.00    -0.505 C  
ENDROOT
BRANCH   2   3
HETATM    3  C   UNL     1     -10.885   9.104  71.431  1.00  0.00    -0.419 C  
BRANCH   3   4
HETATM    4  C   UNL     1     -11.056   7.886  70.520  1.00  0.00    -0.260 C  
HETATM    5  C   UNL     1     -10.312   6.616  71.007  1.00  0.00    -0.234 C  
HETATM    6  C   UNL     1     -10.681   6.194  72.447  1.00  0.00    -0.267 C  
HETATM    7  C   UNL     1     -10.517   5.432  70.030  1.00  0.00    -0.373 C  
HETATM    8  C   UNL     1     -12.118   5.725  72.633  1.00  0.00    -0.053 C  
BRANCH   7   9
HETATM    9  C   UNL     1      -9.945   5.722  68.642  1.00  0.00    -0.201 C  
BRANCH   9  10
HETATM   10  C   UNL     1      -8.424   5.950  68.561  1.00  0.00    -0.111 C  
BRANCH  10  11
HETATM   11  C   UNL     1      -7.692   5.307  69.761  1.00  0.00    -0.073 C  
HETATM   12  C   UNL     1      -6.801   7.452  70.842  1.00  0.00    -0.048 C  
HETATM   13  C   UNL     1      -6.455   6.071  70.285  1.00  0.00    -0.039 C  
HETATM   14  C   UNL     1      -5.776   5.249  71.391  1.00  0.00    -0.013 C  
ENDBRANCH  10  11
BRANCH  10  15
HETATM   15  O   UNL     1      -7.933   5.315  67.373  1.00  0.00    -0.099 OA 
HETATM   16  O   UNL     1      -8.856   6.562  65.408  1.00  0.00    -0.072 OA 
HETATM   17  O   UNL     1      -6.610   7.199  66.393  1.00  0.00    -0.049 OA 
HETATM   18  S   UNL     1      -7.605   6.214  66.058  1.00  0.00    -0.089 S  
HETATM   19  O   UNL     1      -6.936   5.135  65.068  1.00  0.00    -0.058 OA 
ENDBRANCH  10  15
ENDBRANCH   9  10
ENDBRANCH   7   9
ENDBRANCH   3   4
ENDBRANCH   2   3
TORSDOF 6
ENDMDL
MODEL      322
REMARK 921   NORMALIZED FREE ENERGY PREDICTED BY IDOCK:   -2.54 KCAL/MOL
REMARK 922        TOTAL FREE ENERGY PREDICTED BY IDOCK:   -4.20 KCAL/MOL
REMARK 923 INTER-LIGAND FREE ENERGY PREDICTED BY IDOCK:   -3.48 KCAL/MOL
REMARK 924 INTRA-LIGAND FREE ENERGY PREDICTED BY IDOCK:   -0.72 KCAL/MOL
REMARK 927      BINDING AFFINITY PREDICTED BY RF-SCORE:    0.00 PKD
ROOT
HETATM    1  C   UNL     1      -9.576   7.349  68.829  1.00  0.00    -0.147 C  
HETATM    2  C   UNL     1     -10.618   7.868  67.850  1.00  0.00    -0.215 C  
ENDROOT
BRANCH   2   3
HETATM    3  C   UNL     1      -9.957   8.366  66.563  1.00  0.00    -0.335 C  
BRANCH   3   4
HETATM    4  C   UNL     1      -9.688   9.872  66.616  1.00  0.00    -0.252 C  
HETATM    5  C   UNL     1      -8.248  10.277  66.208  1.00  0.00    -0.131 C  
HETATM    6  C   UNL     1      -7.831   9.764  64.812  1.00  0.00    -0.134 C  
HETATM    7  C   UNL     1      -8.045  11.810  66.302  1.00  0.00     0.114 C  
HETATM    8  C   UNL     1      -8.599  10.373  63.646  1.00  0.00    -0.186 C  
BRANCH   7   9
HETATM    9  C   UNL     1      -8.216  12.329  67.729  1.00  0.00    -0.161 C  
BRANCH   9  10
HETATM   10  C   UNL     1      -8.909  13.697  67.882  1.00  0.00    -0.188 C  
BRANCH  10  11
HETATM   11  C   UNL     1     -10.070  13.631  68.900  1.00  0.00    -0.049 C  
HETATM   12  C   UNL     1     -11.968  13.101  67.263  1.00  0.00    -0.389 C  
HETATM   13  C   UNL     1     -11.462  14.034  68.364  1.00  0.00    -0.340 C  
HETATM   14  C   UNL     1     -12.477  14.031  69.517  1.00  0.00    -0.159 C  
ENDBRANCH  10  11
BRANCH  10  15
HETATM   15  O   UNL     1      -7.951  14.636  68.388  1.00  0.00    -0.124 OA 
HETATM   16  O   UNL     1      -7.596  16.381  66.629  1.00  0.00    -0.230 OA 
HETATM   17  O   UNL     1      -9.354  16.707  68.423  1.00  0.00    -0.211 OA 
HETATM   18  S   UNL     1      -8.077  16.208  67.988  1.00  0.00    -0.149 S  
HETATM   19  O   UNL     1      -6.932  16.882  68.898  1.00  0.00    -0.190 OA 
ENDBRANCH  10  15
ENDBRANCH   9  10
ENDBRANCH   7   9
ENDBRANCH   3   4
ENDBRANCH   2   3
TORSDOF 6
ENDMDL
MODEL      323
REMARK 921   NORMALIZED FREE ENERGY PREDICTED BY IDOCK:   -2.54 KCAL/MOL
REMARK 922        TOTAL FREE ENERGY PREDICTED BY IDOCK:   -4.19 KCAL/MOL
REMARK 923 INTER-LIGAND FREE ENERGY PREDICTED BY IDOCK:   -3.72 KCAL/MOL
REMARK 924 INTRA-LIGAND FREE ENERGY PREDICTED BY IDOCK:   -0.47 KCAL/MOL
REMARK 927      BINDING AFFINITY PREDICTED BY RF-SCORE:    0.00 PKD
ROOT
HETATM    1  C   UNL     1     -11.565  14.966  71.132  1.00  0.00    -0.347 C  
HETATM    2  C   UNL     1     -11.082  14.349  69.829  1.00  0.00    -0.202 C  
ENDROOT
BRANCH   2   3
HETATM    3  C   UNL     1     -12.256  13.802  69.015  1.00  0.00    -0.259 C  
BRANCH   3   4
HETATM    4  C   UNL     1     -11.907  12.465  68.355  1.00  0.00    -0.361 C  
HETATM    5  C   UNL     1     -11.111  11.494  69.264  1.00  0.00    -0.305 C  
HETATM    6  C   UNL     1     -11.803  11.197  70.612  1.00  0.00    -0.403 C  
HETATM    7  C   UNL     1     -10.780  10.173  68.526  1.00  0.00    -0.264 C  
HETATM    8  C   UNL     1     -13.111  10.422  70.509  1.00  0.00    -0.203 C  
BRANCH   7   9
HETATM    9  C   UNL     1      -9.888  10.401  67.305  1.00  0.00    -0.214 C  
BRANCH   9  10
HETATM   10  C   UNL     1      -8.552   9.633  67.280  1.00  0.00    -0.132 C  
BRANCH  10  11
HETATM   11  C   UNL     1      -7.378  10.527  67.738  1.00  0.00    -0.086 C  
HETATM   12  C   UNL     1      -7.479  10.015  70.246  1.00  0.00    -0.143 C  
HETATM   13  C   UNL     1      -7.484  11.101  69.168  1.00  0.00    -0.109 C  
HETATM   14  C   UNL     1      -6.309  12.056  69.426  1.00  0.00    -0.116 C  
ENDBRANCH  10  11
BRANCH  10  15
HETATM   15  O   UNL     1      -8.641   8.539  68.204  1.00  0.00    -0.136 OA 
HETATM   16  O   UNL     1      -9.403   6.526  66.927  1.00  0.00    -0.136 OA 
HETATM   17  O   UNL     1      -6.931   7.003  67.217  1.00  0.00    -0.073 OA 
HETATM   18  S   UNL     1      -8.286   7.033  67.703  1.00  0.00    -0.117 S  
HETATM   19  O   UNL     1      -8.350   6.196  69.077  1.00  0.00    -0.111 OA 
ENDBRANCH  10  15
ENDBRANCH   9  10
ENDBRANCH   7   9
ENDBRANCH   3   4
ENDBRANCH   2   3
TORSDOF 6
ENDMDL
MODEL      324
REMARK 921   NORMALIZED FREE ENERGY PREDICTED BY IDOCK:   -2.54 KCAL/MOL
REMARK 922        TOTAL FREE ENERGY PREDICTED BY IDOCK:   -4.19 KCAL/MOL
REMARK 923 INTER-LIGAND FREE ENERGY PREDICTED BY IDOCK:   -3.77 KCAL/MOL
REMARK 924 INTRA-LIGAND FREE ENERGY PREDICTED BY IDOCK:   -0.42 KCAL/MOL
REMARK 927      BINDING AFFINITY PREDICTED BY RF-SCORE:    0.00 PKD
ROOT
HETATM    1  C   UNL     1     -10.507   5.256  66.605  1.00  0.00    -0.345 C  
HETATM    2  C   UNL     1     -10.499   6.572  67.366  1.00  0.00    -0.314 C  
ENDROOT
BRANCH   2   3
HETATM    3  C   UNL     1     -10.176   7.741  66.433  1.00  0.00    -0.053 C  
BRANCH   3   4
HETATM    4  C   UNL     1     -10.309   9.086  67.151  1.00  0.00    -0.342 C  
HETATM    5  C   UNL     1      -9.195  10.107  66.805  1.00  0.00    -0.174 C  
HETATM    6  C   UNL     1      -9.053  10.383  65.292  1.00  0.00    -0.227 C  
HETATM    7  C   UNL     1      -9.386  11.435  67.579  1.00  0.00    -0.166 C  
HETATM    8  C   UNL     1     -10.241  11.088  64.651  1.00  0.00    -0.392 C  
BRANCH   7   9
HETATM    9  C   UNL     1      -9.294  11.240  69.093  1.00  0.00     0.082 C  
BRANCH   9  10
HETATM   10  C   UNL     1      -9.015   9.807  69.584  1.00  0.00    -0.215 C  
BRANCH  10  11
HETATM   11  C   UNL     1      -7.508   9.583  69.845  1.00  0.00    -0.113 C  
HETATM   12  C   UNL     1      -7.251   7.346  68.622  1.00  0.00    -0.090 C  
HETATM   13  C   UNL     1      -7.051   8.109  69.932  1.00  0.00    -0.059 C  
HETATM   14  C   UNL     1      -5.563   8.056  70.310  1.00  0.00    -0.022 C  
ENDBRANCH  10  11
BRANCH  10  15
HETATM   15  O   UNL     1      -9.697   9.615  70.831  1.00  0.00    -0.225 OA 
HETATM   16  O   UNL     1     -12.155   9.762  70.384  1.00  0.00    -0.215 OA 
HETATM   17  O   UNL     1     -10.969   7.525  70.308  1.00  0.00    -0.247 OA 
HETATM   18  S   UNL     1     -11.131   8.847  70.853  1.00  0.00    -0.290 S  
HETATM   19  O   UNL     1     -11.419   8.712  72.432  1.00  0.00    -0.363 OA 
ENDBRANCH  10  15
ENDBRANCH   9  10
ENDBRANCH   7   9
ENDBRANCH   3   4
ENDBRANCH   2   3
TORSDOF 6
ENDMDL
MODEL      325
REMARK 921   NORMALIZED FREE ENERGY PREDICTED BY IDOCK:   -2.52 KCAL/MOL
REMARK 922        TOTAL FREE ENERGY PREDICTED BY IDOCK:   -4.16 KCAL/MOL
REMARK 923 INTER-LIGAND FREE ENERGY PREDICTED BY IDOCK:   -3.83 KCAL/MOL
REMARK 924 INTRA-LIGAND FREE ENERGY PREDICTED BY IDOCK:   -0.33 KCAL/MOL
REMARK 927      BINDING AFFINITY PREDICTED BY RF-SCORE:    0.00 PKD
ROOT
HETATM    1  C   UNL     1     -13.020   8.741  72.263  1.00  0.00    -0.462 C  
HETATM    2  C   UNL     1     -13.023   7.506  71.375  1.00  0.00    -0.379 C  
ENDROOT
BRANCH   2   3
HETATM    3  C   UNL     1     -11.873   6.566  71.743  1.00  0.00    -0.384 C  
BRANCH   3   4
HETATM    4  C   UNL     1     -10.616   6.869  70.924  1.00  0.00    -0.243 C  
HETATM    5  C   UNL     1      -9.591   7.783  71.644  1.00  0.00    -0.191 C  
HETATM    6  C   UNL     1      -9.147   7.252  73.024  1.00  0.00    -0.180 C  
HETATM    7  C   UNL     1      -8.356   8.059  70.750  1.00  0.00    -0.115 C  
HETATM    8  C   UNL     1      -8.343   5.959  72.990  1.00  0.00    -0.117 C  
BRANCH   7   9
HETATM    9  C   UNL     1      -8.725   8.805  69.468  1.00  0.00    -0.138 C  
BRANCH   9  10
HETATM   10  C   UNL     1      -8.304   8.140  68.143  1.00  0.00    -0.129 C  
BRANCH  10  11
HETATM   11  C   UNL     1      -9.472   7.350  67.511  1.00  0.00    -0.162 C  
HETATM   12  C   UNL     1      -8.963   5.057  68.535  1.00  0.00    -0.125 C  
HETATM   13  C   UNL     1      -9.208   5.850  67.250  1.00  0.00    -0.113 C  
HETATM   14  C   UNL     1     -10.411   5.238  66.516  1.00  0.00    -0.354 C  
ENDBRANCH  10  11
BRANCH  10  15
HETATM   15  O   UNL     1      -7.935   9.171  67.216  1.00  0.00    -0.101 OA 
HETATM   16  O   UNL     1      -9.196   8.770  65.092  1.00  0.00    -0.122 OA 
HETATM   17  O   UNL     1     -10.157  10.273  66.891  1.00  0.00    -0.202 OA 
HETATM   18  S   UNL     1      -9.038   9.737  66.163  1.00  0.00    -0.171 S  
HETATM   19  O   UNL     1      -8.250  10.961  65.473  1.00  0.00    -0.143 OA 
ENDBRANCH  10  15
ENDBRANCH   9  10
ENDBRANCH   7   9
ENDBRANCH   3   4
ENDBRANCH   2   3
TORSDOF 6
ENDMDL
MODEL      326
REMARK 921   NORMALIZED FREE ENERGY PREDICTED BY IDOCK:   -2.51 KCAL/MOL
REMARK 922        TOTAL FREE ENERGY PREDICTED BY IDOCK:   -4.15 KCAL/MOL
REMARK 923 INTER-LIGAND FREE ENERGY PREDICTED BY IDOCK:   -4.76 KCAL/MOL
REMARK 924 INTRA-LIGAND FREE ENERGY PREDICTED BY IDOCK:    0.61 KCAL/MOL
REMARK 927      BINDING AFFINITY PREDICTED BY RF-SCORE:    0.00 PKD
ROOT
HETATM    1  C   UNL     1     -10.155   9.218  68.785  1.00  0.00    -0.210 C  
HETATM    2  C   UNL     1      -8.864   8.462  68.514  1.00  0.00    -0.136 C  
ENDROOT
BRANCH   2   3
HETATM    3  C   UNL     1      -8.013   9.190  67.472  1.00  0.00    -0.100 C  
BRANCH   3   4
HETATM    4  C   UNL     1      -8.414  10.662  67.349  1.00  0.00    -0.122 C  
HETATM    5  C   UNL     1      -7.774  11.589  68.414  1.00  0.00    -0.129 C  
HETATM    6  C   UNL     1      -6.232  11.514  68.456  1.00  0.00    -0.050 C  
HETATM    7  C   UNL     1      -8.238  13.056  68.238  1.00  0.00    -0.150 C  
HETATM    8  C   UNL     1      -5.527  12.043  67.214  1.00  0.00    -0.128 C  
BRANCH   7   9
HETATM    9  C   UNL     1      -9.747  13.213  68.427  1.00  0.00    -0.196 C  
BRANCH   9  10
HETATM   10  C   UNL     1     -10.317  14.632  68.241  1.00  0.00    -0.230 C  
BRANCH  10  11
HETATM   11  C   UNL     1      -9.210  15.641  67.861  1.00  0.00    -0.190 C  
HETATM   12  C   UNL     1     -10.390  16.752  65.876  1.00  0.00    -0.341 C  
HETATM   13  C   UNL     1      -9.135  16.028  66.367  1.00  0.00    -0.354 C  
HETATM   14  C   UNL     1      -7.919  16.937  66.134  1.00  0.00    -0.290 C  
ENDBRANCH  10  11
BRANCH  10  15
HETATM   15  O   UNL     1     -11.259  14.603  67.160  1.00  0.00    -0.322 OA 
HETATM   16  O   UNL     1     -10.515  12.835  65.551  1.00  0.00    -0.277 OA 
HETATM   17  O   UNL     1     -12.137  12.275  67.415  1.00  0.00    -0.533 OA 
HETATM   18  S   UNL     1     -11.610  13.189  66.437  1.00  0.00    -0.367 S  
HETATM   19  O   UNL     1     -12.803  13.606  65.439  1.00  0.00    -0.634 OA 
ENDBRANCH  10  15
ENDBRANCH   9  10
ENDBRANCH   7   9
ENDBRANCH   3   4
ENDBRANCH   2   3
TORSDOF 6
ENDMDL
MODEL      327
REMARK 921   NORMALIZED FREE ENERGY PREDICTED BY IDOCK:   -2.49 KCAL/MOL
REMARK 922        TOTAL FREE ENERGY PREDICTED BY IDOCK:   -4.12 KCAL/MOL
REMARK 923 INTER-LIGAND FREE ENERGY PREDICTED BY IDOCK:   -4.12 KCAL/MOL
REMARK 924 INTRA-LIGAND FREE ENERGY PREDICTED BY IDOCK:   -0.00 KCAL/MOL
REMARK 927      BINDING AFFINITY PREDICTED BY RF-SCORE:    0.00 PKD
ROOT
HETATM    1  C   UNL     1      -8.259  15.842  67.350  1.00  0.00    -0.190 C  
HETATM    2  C   UNL     1      -8.212  14.618  68.251  1.00  0.00    -0.146 C  
ENDROOT
BRANCH   2   3
HETATM    3  C   UNL     1      -7.923  13.353  67.440  1.00  0.00    -0.170 C  
BRANCH   3   4
HETATM    4  C   UNL     1      -8.440  12.100  68.150  1.00  0.00    -0.175 C  
HETATM    5  C   UNL     1      -9.648  11.424  67.451  1.00  0.00    -0.185 C  
HETATM    6  C   UNL     1      -9.387  11.064  65.972  1.00  0.00    -0.225 C  
HETATM    7  C   UNL     1     -10.126  10.175  68.233  1.00  0.00    -0.179 C  
HETATM    8  C   UNL     1      -8.335   9.985  65.747  1.00  0.00    -0.134 C  
BRANCH   7   9
HETATM    9  C   UNL     1     -10.622  10.527  69.636  1.00  0.00    -0.281 C  
BRANCH   9  10
HETATM   10  C   UNL     1     -10.538   9.409  70.693  1.00  0.00    -0.290 C  
BRANCH  10  11
HETATM   11  C   UNL     1     -11.798   8.515  70.671  1.00  0.00    -0.111 C  
HETATM   12  C   UNL     1     -13.315   9.979  72.128  1.00  0.00    -0.469 C  
HETATM   13  C   UNL     1     -12.702   8.593  71.922  1.00  0.00    -0.413 C  
HETATM   14  C   UNL     1     -13.839   7.566  71.798  1.00  0.00    -0.438 C  
ENDBRANCH  10  11
BRANCH  10  15
HETATM   15  O   UNL     1      -9.416   8.573  70.379  1.00  0.00    -0.158 OA 
HETATM   16  O   UNL     1      -8.457   7.746  72.538  1.00  0.00    -0.111 OA 
HETATM   17  O   UNL     1     -10.223   6.399  71.319  1.00  0.00    -0.196 OA 
HETATM   18  S   UNL     1      -9.087   7.284  71.315  1.00  0.00    -0.146 S  
HETATM   19  O   UNL     1      -7.893   6.571  70.503  1.00  0.00    -0.102 OA 
ENDBRANCH  10  15
ENDBRANCH   9  10
ENDBRANCH   7   9
ENDBRANCH   3   4
ENDBRANCH   2   3
TORSDOF 6
ENDMDL
MODEL      328
REMARK 921   NORMALIZED FREE ENERGY PREDICTED BY IDOCK:   -2.48 KCAL/MOL
REMARK 922        TOTAL FREE ENERGY PREDICTED BY IDOCK:   -4.11 KCAL/MOL
REMARK 923 INTER-LIGAND FREE ENERGY PREDICTED BY IDOCK:   -4.14 KCAL/MOL
REMARK 924 INTRA-LIGAND FREE ENERGY PREDICTED BY IDOCK:    0.03 KCAL/MOL
REMARK 927      BINDING AFFINITY PREDICTED BY RF-SCORE:    0.00 PKD
ROOT
HETATM    1  C   UNL     1     -10.926   5.978  66.904  1.00  0.00    -0.350 C  
HETATM    2  C   UNL     1      -9.960   4.818  67.089  1.00  0.00    -0.224 C  
ENDROOT
BRANCH   2   3
HETATM    3  C   UNL     1      -8.685   5.033  66.270  1.00  0.00    -0.117 C  
BRANCH   3   4
HETATM    4  C   UNL     1      -8.655   6.424  65.633  1.00  0.00    -0.138 C  
HETATM    5  C   UNL     1      -7.756   7.446  66.375  1.00  0.00    -0.093 C  
HETATM    6  C   UNL     1      -6.298   6.971  66.559  1.00  0.00    -0.050 C  
HETATM    7  C   UNL     1      -7.788   8.832  65.683  1.00  0.00    -0.097 C  
HETATM    8  C   UNL     1      -5.498   6.829  65.271  1.00  0.00    -0.027 C  
BRANCH   7   9
HETATM    9  C   UNL     1      -9.186   9.450  65.691  1.00  0.00    -0.285 C  
BRANCH   9  10
HETATM   10  C   UNL     1      -9.323  10.826  66.371  1.00  0.00    -0.174 C  
BRANCH  10  11
HETATM   11  C   UNL     1     -10.751  11.396  66.210  1.00  0.00    -0.322 C  
HETATM   12  C   UNL     1     -10.539  12.246  63.802  1.00  0.00    -0.488 C  
HETATM   13  C   UNL     1     -10.893  12.597  65.248  1.00  0.00    -0.319 C  
HETATM   14  C   UNL     1     -12.338  13.118  65.289  1.00  0.00    -0.532 C  
ENDBRANCH  10  11
BRANCH  10  15
HETATM   15  O   UNL     1      -9.085  10.663  67.776  1.00  0.00    -0.141 OA 
HETATM   16  O   UNL     1     -11.147  11.403  68.988  1.00  0.00    -0.210 OA 
HETATM   17  O   UNL     1     -10.851   8.977  68.319  1.00  0.00    -0.142 OA 
HETATM   18  S   UNL     1     -10.312  10.238  68.755  1.00  0.00    -0.208 S  
HETATM   19  O   UNL     1      -9.559  10.008  70.160  1.00  0.00    -0.225 OA 
ENDBRANCH  10  15
ENDBRANCH   9  10
ENDBRANCH   7   9
ENDBRANCH   3   4
ENDBRANCH   2   3
TORSDOF 6
ENDMDL
MODEL      329
REMARK 921   NORMALIZED FREE ENERGY PREDICTED BY IDOCK:   -2.48 KCAL/MOL
REMARK 922        TOTAL FREE ENERGY PREDICTED BY IDOCK:   -4.10 KCAL/MOL
REMARK 923 INTER-LIGAND FREE ENERGY PREDICTED BY IDOCK:   -3.09 KCAL/MOL
REMARK 924 INTRA-LIGAND FREE ENERGY PREDICTED BY IDOCK:   -1.02 KCAL/MOL
REMARK 927      BINDING AFFINITY PREDICTED BY RF-SCORE:    0.00 PKD
ROOT
HETATM    1  C   UNL     1      -8.932   3.921  63.076  1.00  0.00    -0.107 C  
HETATM    2  C   UNL     1      -7.474   4.211  63.401  1.00  0.00    -0.051 C  
ENDROOT
BRANCH   2   3
HETATM    3  C   UNL     1      -7.322   4.689  64.847  1.00  0.00    -0.071 C  
BRANCH   3   4
HETATM    4  C   UNL     1      -8.475   5.608  65.258  1.00  0.00    -0.147 C  
HETATM    5  C   UNL     1      -8.046   7.062  65.584  1.00  0.00    -0.129 C  
HETATM    6  C   UNL     1      -7.267   7.750  64.442  1.00  0.00    -0.078 C  
HETATM    7  C   UNL     1      -9.260   7.927  66.007  1.00  0.00    -0.162 C  
HETATM    8  C   UNL     1      -8.075   8.009  63.176  1.00  0.00    -0.114 C  
BRANCH   7   9
HETATM    9  C   UNL     1      -9.922   7.409  67.285  1.00  0.00    -0.259 C  
BRANCH   9  10
HETATM   10  C   UNL     1      -9.480   8.074  68.603  1.00  0.00    -0.147 C  
BRANCH  10  11
HETATM   11  C   UNL     1      -8.621   9.331  68.341  1.00  0.00    -0.124 C  
HETATM   12  C   UNL     1      -7.228   9.280  70.491  1.00  0.00    -0.111 C  
HETATM   13  C   UNL     1      -8.156  10.103  69.597  1.00  0.00    -0.178 C  
HETATM   14  C   UNL     1      -7.419  11.382  69.168  1.00  0.00    -0.057 C  
ENDBRANCH  10  11
BRANCH  10  15
HETATM   15  O   UNL     1     -10.653   8.498  69.311  1.00  0.00    -0.220 OA 
HETATM   16  O   UNL     1     -11.811   6.448  70.161  1.00  0.00    -0.409 OA 
HETATM   17  O   UNL     1     -10.105   7.649  71.599  1.00  0.00    -0.179 OA 
HETATM   18  S   UNL     1     -11.153   7.661  70.613  1.00  0.00    -0.256 S  
HETATM   19  O   UNL     1     -12.357   8.578  71.163  1.00  0.00    -0.286 OA 
ENDBRANCH  10  15
ENDBRANCH   9  10
ENDBRANCH   7   9
ENDBRANCH   3   4
ENDBRANCH   2   3
TORSDOF 6
ENDMDL
MODEL      330
REMARK 921   NORMALIZED FREE ENERGY PREDICTED BY IDOCK:   -2.47 KCAL/MOL
REMARK 922        TOTAL FREE ENERGY PREDICTED BY IDOCK:   -4.10 KCAL/MOL
REMARK 923 INTER-LIGAND FREE ENERGY PREDICTED BY IDOCK:   -3.33 KCAL/MOL
REMARK 924 INTRA-LIGAND FREE ENERGY PREDICTED BY IDOCK:   -0.76 KCAL/MOL
REMARK 927      BINDING AFFINITY PREDICTED BY RF-SCORE:    0.00 PKD
ROOT
HETATM    1  C   UNL     1      -7.295   5.812  62.626  1.00  0.00    -0.053 C  
HETATM    2  C   UNL     1      -8.142   4.552  62.723  1.00  0.00    -0.077 C  
ENDROOT
BRANCH   2   3
HETATM    3  C   UNL     1      -8.816   4.452  64.093  1.00  0.00    -0.146 C  
BRANCH   3   4
HETATM    4  C   UNL     1      -8.561   5.703  64.937  1.00  0.00    -0.086 C  
HETATM    5  C   UNL     1      -9.538   5.878  66.129  1.00  0.00    -0.107 C  
HETATM    6  C   UNL     1      -9.585   4.660  67.077  1.00  0.00    -0.198 C  
HETATM    7  C   UNL     1      -9.230   7.170  66.925  1.00  0.00    -0.174 C  
HETATM    8  C   UNL     1      -8.299   4.395  67.850  1.00  0.00    -0.095 C  
BRANCH   7   9
HETATM    9  C   UNL     1      -9.406   8.429  66.076  1.00  0.00    -0.244 C  
BRANCH   9  10
HETATM   10  C   UNL     1      -9.181   9.775  66.790  1.00  0.00    -0.148 C  
BRANCH  10  11
HETATM   11  C   UNL     1      -7.800  10.375  66.444  1.00  0.00    -0.128 C  
HETATM   12  C   UNL     1      -6.395   9.076  68.148  1.00  0.00    -0.055 C  
HETATM   13  C   UNL     1      -6.787  10.452  67.609  1.00  0.00    -0.075 C  
HETATM   14  C   UNL     1      -5.516  11.175  67.136  1.00  0.00    -0.060 C  
ENDBRANCH  10  11
BRANCH  10  15
HETATM   15  O   UNL     1     -10.175  10.702  66.334  1.00  0.00    -0.221 OA 
HETATM   16  O   UNL     1     -11.927  10.877  68.113  1.00  0.00    -0.581 OA 
HETATM   17  O   UNL     1      -9.957  12.469  68.091  1.00  0.00    -0.212 OA 
HETATM   18  S   UNL     1     -10.932  11.663  67.406  1.00  0.00    -0.279 S  
HETATM   19  O   UNL     1     -11.800  12.623  66.447  1.00  0.00    -0.393 OA 
ENDBRANCH  10  15
ENDBRANCH   9  10
ENDBRANCH   7   9
ENDBRANCH   3   4
ENDBRANCH   2   3
TORSDOF 6
ENDMDL
MODEL      331
REMARK 921   NORMALIZED FREE ENERGY PREDICTED BY IDOCK:   -2.45 KCAL/MOL
REMARK 922        TOTAL FREE ENERGY PREDICTED BY IDOCK:   -4.07 KCAL/MOL
REMARK 923 INTER-LIGAND FREE ENERGY PREDICTED BY IDOCK:   -4.04 KCAL/MOL
REMARK 924 INTRA-LIGAND FREE ENERGY PREDICTED BY IDOCK:   -0.03 KCAL/MOL
REMARK 927      BINDING AFFINITY PREDICTED BY RF-SCORE:    0.00 PKD
ROOT
HETATM    1  C   UNL     1     -12.295  10.706  71.211  1.00  0.00    -0.488 C  
HETATM    2  C   UNL     1     -12.612  12.193  71.169  1.00  0.00    -0.360 C  
ENDROOT
BRANCH   2   3
HETATM    3  C   UNL     1     -12.305  12.777  69.788  1.00  0.00    -0.096 C  
BRANCH   3   4
HETATM    4  C   UNL     1     -10.813  12.686  69.460  1.00  0.00     0.153 C  
HETATM    5  C   UNL     1     -10.374  13.541  68.243  1.00  0.00    -0.253 C  
HETATM    6  C   UNL     1     -10.749  15.035  68.366  1.00  0.00    -0.245 C  
HETATM    7  C   UNL     1      -8.859  13.387  67.962  1.00  0.00    -0.183 C  
HETATM    8  C   UNL     1     -10.025  15.792  69.472  1.00  0.00    -0.283 C  
BRANCH   7   9
HETATM    9  C   UNL     1      -8.482  11.950  67.598  1.00  0.00    -0.156 C  
BRANCH   9  10
HETATM   10  C   UNL     1      -9.554  11.126  66.859  1.00  0.00    -0.186 C  
BRANCH  10  11
HETATM   11  C   UNL     1      -9.291  11.092  65.337  1.00  0.00    -0.243 C  
HETATM   12  C   UNL     1     -10.898  12.964  64.644  1.00  0.00    -0.365 C  
HETATM   13  C   UNL     1     -10.478  11.508  64.439  1.00  0.00    -0.380 C  
HETATM   14  C   UNL     1     -10.098  11.308  62.963  1.00  0.00    -0.327 C  
ENDBRANCH  10  11
BRANCH  10  15
HETATM   15  O   UNL     1      -9.491   9.774  67.333  1.00  0.00    -0.148 OA 
HETATM   16  O   UNL     1      -8.697   8.341  65.441  1.00  0.00    -0.164 OA 
HETATM   17  O   UNL     1      -7.041   9.341  67.077  1.00  0.00    -0.084 OA 
HETATM   18  S   UNL     1      -8.332   8.779  66.776  1.00  0.00    -0.109 S  
HETATM   19  O   UNL     1      -8.540   7.470  67.690  1.00  0.00    -0.119 OA 
ENDBRANCH  10  15
ENDBRANCH   9  10
ENDBRANCH   7   9
ENDBRANCH   3   4
ENDBRANCH   2   3
TORSDOF 6
ENDMDL
MODEL      332
REMARK 921   NORMALIZED FREE ENERGY PREDICTED BY IDOCK:   -2.44 KCAL/MOL
REMARK 922        TOTAL FREE ENERGY PREDICTED BY IDOCK:   -4.05 KCAL/MOL
REMARK 923 INTER-LIGAND FREE ENERGY PREDICTED BY IDOCK:   -3.28 KCAL/MOL
REMARK 924 INTRA-LIGAND FREE ENERGY PREDICTED BY IDOCK:   -0.77 KCAL/MOL
REMARK 927      BINDING AFFINITY PREDICTED BY RF-SCORE:    0.00 PKD
ROOT
HETATM    1  C   UNL     1      -7.161   2.670  68.368  1.00  0.00    -0.048 C  
HETATM    2  C   UNL     1      -8.360   1.912  68.916  1.00  0.00    -0.075 C  
ENDROOT
BRANCH   2   3
HETATM    3  C   UNL     1      -9.503   2.870  69.259  1.00  0.00    -0.157 C  
BRANCH   3   4
HETATM    4  C   UNL     1      -9.138   4.319  68.928  1.00  0.00    -0.183 C  
HETATM    5  C   UNL     1     -10.086   5.374  69.554  1.00  0.00    -0.310 C  
HETATM    6  C   UNL     1     -10.224   5.253  71.088  1.00  0.00    -0.294 C  
HETATM    7  C   UNL     1      -9.665   6.813  69.163  1.00  0.00    -0.147 C  
HETATM    8  C   UNL     1      -8.957   5.561  71.875  1.00  0.00    -0.142 C  
BRANCH   7   9
HETATM    9  C   UNL     1      -9.746   7.050  67.655  1.00  0.00    -0.163 C  
BRANCH   9  10
HETATM   10  C   UNL     1      -8.913   8.221  67.099  1.00  0.00    -0.138 C  
BRANCH  10  11
HETATM   11  C   UNL     1      -7.553   7.735  66.548  1.00  0.00    -0.096 C  
HETATM   12  C   UNL     1      -8.405   5.767  65.146  1.00  0.00    -0.146 C  
HETATM   13  C   UNL     1      -7.448   6.223  66.248  1.00  0.00    -0.086 C  
HETATM   14  C   UNL     1      -6.011   5.884  65.824  1.00  0.00    -0.028 C  
ENDBRANCH  10  11
BRANCH  10  15
HETATM   15  O   UNL     1      -9.631   8.809  66.007  1.00  0.00    -0.245 OA 
HETATM   16  O   UNL     1     -10.894  10.778  66.899  1.00  0.00    -0.263 OA 
HETATM   17  O   UNL     1      -8.561  11.070  65.955  1.00  0.00    -0.171 OA 
HETATM   18  S   UNL     1      -9.845  10.421  65.961  1.00  0.00    -0.245 S  
HETATM   19  O   UNL     1     -10.525  10.631  64.516  1.00  0.00    -0.345 OA 
ENDBRANCH  10  15
ENDBRANCH   9  10
ENDBRANCH   7   9
ENDBRANCH   3   4
ENDBRANCH   2   3
TORSDOF 6
ENDMDL
MODEL      333
REMARK 921   NORMALIZED FREE ENERGY PREDICTED BY IDOCK:   -2.42 KCAL/MOL
REMARK 922        TOTAL FREE ENERGY PREDICTED BY IDOCK:   -4.03 KCAL/MOL
REMARK 923 INTER-LIGAND FREE ENERGY PREDICTED BY IDOCK:   -3.79 KCAL/MOL
REMARK 924 INTRA-LIGAND FREE ENERGY PREDICTED BY IDOCK:   -0.24 KCAL/MOL
REMARK 927      BINDING AFFINITY PREDICTED BY RF-SCORE:    0.00 PKD
ROOT
HETATM    1  C   UNL     1     -10.569  12.674  63.969  1.00  0.00    -0.457 C  
HETATM    2  C   UNL     1     -10.680  11.160  64.067  1.00  0.00    -0.409 C  
ENDROOT
BRANCH   2   3
HETATM    3  C   UNL     1      -9.294  10.511  64.093  1.00  0.00    -0.309 C  
BRANCH   3   4
HETATM    4  C   UNL     1      -9.105   9.641  65.338  1.00  0.00    -0.265 C  
HETATM    5  C   UNL     1      -8.502   8.241  65.052  1.00  0.00    -0.141 C  
HETATM    6  C   UNL     1      -7.160   8.287  64.290  1.00  0.00    -0.082 C  
HETATM    7  C   UNL     1      -8.356   7.413  66.353  1.00  0.00    -0.127 C  
HETATM    8  C   UNL     1      -6.000   8.902  65.064  1.00  0.00    -0.059 C  
BRANCH   7   9
HETATM    9  C   UNL     1      -9.704   7.139  67.019  1.00  0.00    -0.222 C  
BRANCH   9  10
HETATM   10  C   UNL     1      -9.714   7.109  68.559  1.00  0.00    -0.143 C  
BRANCH  10  11
HETATM   11  C   UNL     1      -8.306   7.372  69.139  1.00  0.00    -0.132 C  
HETATM   12  C   UNL     1      -7.612   4.939  69.542  1.00  0.00    -0.056 C  
HETATM   13  C   UNL     1      -7.789   6.329  70.155  1.00  0.00    -0.106 C  
HETATM   14  C   UNL     1      -6.439   6.792  70.723  1.00  0.00    -0.051 C  
ENDBRANCH  10  11
BRANCH  10  15
HETATM   15  O   UNL     1     -10.572   8.159  69.027  1.00  0.00    -0.215 OA 
HETATM   16  O   UNL     1     -12.095   7.183  70.757  1.00  0.00    -0.331 OA 
HETATM   17  O   UNL     1      -9.890   8.232  71.432  1.00  0.00    -0.166 OA 
HETATM   18  S   UNL     1     -11.049   8.175  70.582  1.00  0.00    -0.250 S  
HETATM   19  O   UNL     1     -11.823   9.583  70.684  1.00  0.00    -0.270 OA 
ENDBRANCH  10  15
ENDBRANCH   9  10
ENDBRANCH   7   9
ENDBRANCH   3   4
ENDBRANCH   2   3
TORSDOF 6
ENDMDL
MODEL      334
REMARK 921   NORMALIZED FREE ENERGY PREDICTED BY IDOCK:   -2.42 KCAL/MOL
REMARK 922        TOTAL FREE ENERGY PREDICTED BY IDOCK:   -4.02 KCAL/MOL
REMARK 923 INTER-LIGAND FREE ENERGY PREDICTED BY IDOCK:   -4.03 KCAL/MOL
REMARK 924 INTRA-LIGAND FREE ENERGY PREDICTED BY IDOCK:    0.01 KCAL/MOL
REMARK 927      BINDING AFFINITY PREDICTED BY RF-SCORE:    0.00 PKD
ROOT
HETATM    1  C   UNL     1     -10.926  16.379  70.735  1.00  0.00    -0.017 C  
HETATM    2  C   UNL     1     -10.667  15.851  69.333  1.00  0.00    -0.272 C  
ENDROOT
BRANCH   2   3
HETATM    3  C   UNL     1     -11.982  15.591  68.596  1.00  0.00    -0.231 C  
BRANCH   3   4
HETATM    4  C   UNL     1     -12.265  14.093  68.464  1.00  0.00    -0.204 C  
HETATM    5  C   UNL     1     -11.700  13.232  69.623  1.00  0.00    -0.369 C  
HETATM    6  C   UNL     1     -12.170  13.689  71.022  1.00  0.00    -0.374 C  
HETATM    7  C   UNL     1     -12.010  11.729  69.415  1.00  0.00    -0.361 C  
HETATM    8  C   UNL     1     -13.660  13.515  71.290  1.00  0.00    -0.064 C  
BRANCH   7   9
HETATM    9  C   UNL     1     -11.355  11.174  68.149  1.00  0.00    -0.377 C  
BRANCH   9  10
HETATM   10  C   UNL     1      -9.867  10.792  68.258  1.00  0.00    -0.166 C  
BRANCH  10  11
HETATM   11  C   UNL     1      -9.543  10.166  69.633  1.00  0.00    -0.237 C  
HETATM   12  C   UNL     1      -7.056  10.770  69.739  1.00  0.00    -0.126 C  
HETATM   13  C   UNL     1      -8.098   9.653  69.818  1.00  0.00    -0.160 C  
HETATM   14  C   UNL     1      -7.971   8.958  71.182  1.00  0.00    -0.181 C  
ENDBRANCH  10  11
BRANCH  10  15
HETATM   15  O   UNL     1      -9.579   9.803  67.260  1.00  0.00    -0.150 OA 
HETATM   16  O   UNL     1      -9.932  10.859  65.019  1.00  0.00    -0.255 OA 
HETATM   17  O   UNL     1      -7.647  10.901  66.111  1.00  0.00    -0.147 OA 
HETATM   18  S   UNL     1      -8.907  10.256  65.850  1.00  0.00    -0.166 S  
HETATM   19  O   UNL     1      -8.613   8.839  65.145  1.00  0.00    -0.175 OA 
ENDBRANCH  10  15
ENDBRANCH   9  10
ENDBRANCH   7   9
ENDBRANCH   3   4
ENDBRANCH   2   3
TORSDOF 6
ENDMDL
MODEL      335
REMARK 921   NORMALIZED FREE ENERGY PREDICTED BY IDOCK:   -2.41 KCAL/MOL
REMARK 922        TOTAL FREE ENERGY PREDICTED BY IDOCK:   -4.02 KCAL/MOL
REMARK 923 INTER-LIGAND FREE ENERGY PREDICTED BY IDOCK:   -4.43 KCAL/MOL
REMARK 924 INTRA-LIGAND FREE ENERGY PREDICTED BY IDOCK:    0.41 KCAL/MOL
REMARK 927      BINDING AFFINITY PREDICTED BY RF-SCORE:    0.00 PKD
ROOT
HETATM    1  C   UNL     1     -13.910   9.191  72.465  1.00  0.00    -0.485 C  
HETATM    2  C   UNL     1     -12.788   9.456  71.474  1.00  0.00    -0.442 C  
ENDROOT
BRANCH   2   3
HETATM    3  C   UNL     1     -12.819  10.906  70.987  1.00  0.00    -0.472 C  
BRANCH   3   4
HETATM    4  C   UNL     1     -11.606  11.231  70.113  1.00  0.00    -0.393 C  
HETATM    5  C   UNL     1     -11.866  12.318  69.038  1.00  0.00    -0.358 C  
HETATM    6  C   UNL     1     -12.411  13.643  69.615  1.00  0.00    -0.257 C  
HETATM    7  C   UNL     1     -10.602  12.582  68.184  1.00  0.00    -0.239 C  
HETATM    8  C   UNL     1     -11.439  14.406  70.507  1.00  0.00    -0.202 C  
BRANCH   7   9
HETATM    9  C   UNL     1     -10.164  11.344  67.401  1.00  0.00    -0.221 C  
BRANCH   9  10
HETATM   10  C   UNL     1      -9.257  10.346  68.147  1.00  0.00    -0.145 C  
BRANCH  10  11
HETATM   11  C   UNL     1      -8.635   9.315  67.179  1.00  0.00    -0.130 C  
HETATM   12  C   UNL     1     -10.657   7.757  66.950  1.00  0.00    -0.347 C  
HETATM   13  C   UNL     1      -9.172   7.870  67.296  1.00  0.00    -0.167 C  
HETATM   14  C   UNL     1      -8.376   6.950  66.358  1.00  0.00    -0.125 C  
ENDBRANCH  10  11
BRANCH  10  15
HETATM   15  O   UNL     1      -8.177  11.076  68.745  1.00  0.00    -0.140 OA 
HETATM   16  O   UNL     1      -6.087   9.736  68.428  1.00  0.00    -0.046 OA 
HETATM   17  O   UNL     1      -6.762  11.484  66.723  1.00  0.00    -0.140 OA 
HETATM   18  S   UNL     1      -6.695  11.007  68.079  1.00  0.00    -0.064 S  
HETATM   19  O   UNL     1      -5.880  12.085  68.955  1.00  0.00    -0.058 OA 
ENDBRANCH  10  15
ENDBRANCH   9  10
ENDBRANCH   7   9
ENDBRANCH   3   4
ENDBRANCH   2   3
TORSDOF 6
ENDMDL
MODEL      336
REMARK 921   NORMALIZED FREE ENERGY PREDICTED BY IDOCK:   -2.39 KCAL/MOL
REMARK 922        TOTAL FREE ENERGY PREDICTED BY IDOCK:   -3.99 KCAL/MOL
REMARK 923 INTER-LIGAND FREE ENERGY PREDICTED BY IDOCK:   -3.27 KCAL/MOL
REMARK 924 INTRA-LIGAND FREE ENERGY PREDICTED BY IDOCK:   -0.72 KCAL/MOL
REMARK 927      BINDING AFFINITY PREDICTED BY RF-SCORE:    0.00 PKD
ROOT
HETATM    1  C   UNL     1      -7.043   7.149  69.483  1.00  0.00    -0.071 C  
HETATM    2  C   UNL     1      -7.155   6.868  67.992  1.00  0.00    -0.086 C  
ENDROOT
BRANCH   2   3
HETATM    3  C   UNL     1      -6.865   8.129  67.176  1.00  0.00    -0.070 C  
BRANCH   3   4
HETATM    4  C   UNL     1      -8.155   8.858  66.792  1.00  0.00    -0.111 C  
HETATM    5  C   UNL     1      -7.988   9.889  65.646  1.00  0.00    -0.130 C  
HETATM    6  C   UNL     1      -7.371   9.295  64.361  1.00  0.00    -0.105 C  
HETATM    7  C   UNL     1      -9.328  10.597  65.324  1.00  0.00    -0.256 C  
HETATM    8  C   UNL     1      -8.240   8.269  63.644  1.00  0.00    -0.083 C  
BRANCH   7   9
HETATM    9  C   UNL     1      -9.857  11.401  66.512  1.00  0.00    -0.237 C  
BRANCH   9  10
HETATM   10  C   UNL     1      -9.159  12.745  66.796  1.00  0.00    -0.209 C  
BRANCH  10  11
HETATM   11  C   UNL     1     -10.151  13.789  67.356  1.00  0.00    -0.244 C  
HETATM   12  C   UNL     1     -10.532  15.128  65.205  1.00  0.00    -0.437 C  
HETATM   13  C   UNL     1     -10.123  15.177  66.677  1.00  0.00    -0.271 C  
HETATM   14  C   UNL     1     -11.074  16.130  67.420  1.00  0.00    -0.134 C  
ENDBRANCH  10  11
BRANCH  10  15
HETATM   15  O   UNL     1      -8.154  12.531  67.796  1.00  0.00    -0.140 OA 
HETATM   16  O   UNL     1      -5.984  12.120  66.618  1.00  0.00    -0.226 OA 
HETATM   17  O   UNL     1      -6.645  14.466  67.310  1.00  0.00    -0.283 OA 
HETATM   18  S   UNL     1      -6.634  13.044  67.530  1.00  0.00    -0.113 S  
HETATM   19  O   UNL     1      -5.927  12.757  68.949  1.00  0.00    -0.068 OA 
ENDBRANCH  10  15
ENDBRANCH   9  10
ENDBRANCH   7   9
ENDBRANCH   3   4
ENDBRANCH   2   3
TORSDOF 6
ENDMDL
MODEL      337
REMARK 921   NORMALIZED FREE ENERGY PREDICTED BY IDOCK:   -2.37 KCAL/MOL
REMARK 922        TOTAL FREE ENERGY PREDICTED BY IDOCK:   -3.96 KCAL/MOL
REMARK 923 INTER-LIGAND FREE ENERGY PREDICTED BY IDOCK:   -3.01 KCAL/MOL
REMARK 924 INTRA-LIGAND FREE ENERGY PREDICTED BY IDOCK:   -0.95 KCAL/MOL
REMARK 927      BINDING AFFINITY PREDICTED BY RF-SCORE:    0.00 PKD
ROOT
HETATM    1  C   UNL     1      -5.868   5.814  70.840  1.00  0.00    -0.025 C  
HETATM    2  C   UNL     1      -5.873   4.314  71.088  1.00  0.00    -0.013 C  
ENDROOT
BRANCH   2   3
HETATM    3  C   UNL     1      -6.649   3.582  69.991  1.00  0.00    -0.033 C  
BRANCH   3   4
HETATM    4  C   UNL     1      -7.483   4.552  69.150  1.00  0.00    -0.056 C  
HETATM    5  C   UNL     1      -7.284   4.403  67.620  1.00  0.00    -0.068 C  
HETATM    6  C   UNL     1      -7.540   2.972  67.097  1.00  0.00    -0.074 C  
HETATM    7  C   UNL     1      -8.145   5.425  66.837  1.00  0.00    -0.105 C  
HETATM    8  C   UNL     1      -8.983   2.495  67.206  1.00  0.00    -0.182 C  
BRANCH   7   9
HETATM    9  C   UNL     1      -7.756   6.870  67.151  1.00  0.00    -0.108 C  
BRANCH   9  10
HETATM   10  C   UNL     1      -8.908   7.826  67.517  1.00  0.00    -0.124 C  
BRANCH  10  11
HETATM   11  C   UNL     1      -9.516   8.485  66.259  1.00  0.00    -0.299 C  
HETATM   12  C   UNL     1      -7.961  10.516  66.117  1.00  0.00    -0.147 C  
HETATM   13  C   UNL     1      -9.407  10.024  66.184  1.00  0.00    -0.220 C  
HETATM   14  C   UNL     1     -10.158  10.532  64.943  1.00  0.00    -0.403 C  
ENDBRANCH  10  11
BRANCH  10  15
HETATM   15  O   UNL     1      -9.948   7.063  68.144  1.00  0.00    -0.143 OA 
HETATM   16  O   UNL     1      -9.477   7.013  70.602  1.00  0.00    -0.165 OA 
HETATM   17  O   UNL     1     -10.948   8.824  69.613  1.00  0.00    -0.206 OA 
HETATM   18  S   UNL     1     -10.457   7.471  69.634  1.00  0.00    -0.235 S  
HETATM   19  O   UNL     1     -11.710   6.481  69.846  1.00  0.00    -0.406 OA 
ENDBRANCH  10  15
ENDBRANCH   9  10
ENDBRANCH   7   9
ENDBRANCH   3   4
ENDBRANCH   2   3
TORSDOF 6
ENDMDL
MODEL      338
REMARK 921   NORMALIZED FREE ENERGY PREDICTED BY IDOCK:   -2.36 KCAL/MOL
REMARK 922        TOTAL FREE ENERGY PREDICTED BY IDOCK:   -3.95 KCAL/MOL
REMARK 923 INTER-LIGAND FREE ENERGY PREDICTED BY IDOCK:   -2.98 KCAL/MOL
REMARK 924 INTRA-LIGAND FREE ENERGY PREDICTED BY IDOCK:   -0.97 KCAL/MOL
REMARK 927      BINDING AFFINITY PREDICTED BY RF-SCORE:    0.00 PKD
ROOT
HETATM    1  C   UNL     1      -9.541   3.259  63.083  1.00  0.00    -0.097 C  
HETATM    2  C   UNL     1      -8.152   3.530  63.640  1.00  0.00    -0.088 C  
ENDROOT
BRANCH   2   3
HETATM    3  C   UNL     1      -8.224   3.924  65.117  1.00  0.00    -0.101 C  
BRANCH   3   4
HETATM    4  C   UNL     1      -9.107   5.156  65.327  1.00  0.00    -0.126 C  
HETATM    5  C   UNL     1      -8.329   6.440  65.714  1.00  0.00    -0.146 C  
HETATM    6  C   UNL     1      -7.213   6.814  64.714  1.00  0.00    -0.082 C  
HETATM    7  C   UNL     1      -9.287   7.639  65.925  1.00  0.00     0.003 C  
HETATM    8  C   UNL     1      -7.699   7.227  63.330  1.00  0.00    -0.124 C  
BRANCH   7   9
HETATM    9  C   UNL     1     -10.264   7.402  67.078  1.00  0.00    -0.357 C  
BRANCH   9  10
HETATM   10  C   UNL     1     -10.087   8.295  68.321  1.00  0.00    -0.198 C  
BRANCH  10  11
HETATM   11  C   UNL     1      -8.968   7.763  69.244  1.00  0.00    -0.139 C  
HETATM   12  C   UNL     1      -9.802   8.763  71.450  1.00  0.00    -0.353 C  
HETATM   13  C   UNL     1      -8.633   8.639  70.472  1.00  0.00    -0.170 C  
HETATM   14  C   UNL     1      -7.430   8.040  71.216  1.00  0.00    -0.072 C  
ENDBRANCH  10  11
BRANCH  10  15
HETATM   15  O   UNL     1      -9.696   9.604  67.886  1.00  0.00    -0.142 OA 
HETATM   16  O   UNL     1     -11.656  10.636  66.720  1.00  0.00    -0.088 OA 
HETATM   17  O   UNL     1     -11.305  10.994  69.203  1.00  0.00    -0.231 OA 
HETATM   18  S   UNL     1     -10.790  10.807  67.872  1.00  0.00    -0.286 S  
HETATM   19  O   UNL     1      -9.884  12.084  67.496  1.00  0.00    -0.183 OA 
ENDBRANCH  10  15
ENDBRANCH   9  10
ENDBRANCH   7   9
ENDBRANCH   3   4
ENDBRANCH   2   3
TORSDOF 6
ENDMDL
MODEL      339
REMARK 921   NORMALIZED FREE ENERGY PREDICTED BY IDOCK:   -2.35 KCAL/MOL
REMARK 922        TOTAL FREE ENERGY PREDICTED BY IDOCK:   -3.93 KCAL/MOL
REMARK 923 INTER-LIGAND FREE ENERGY PREDICTED BY IDOCK:   -3.58 KCAL/MOL
REMARK 924 INTRA-LIGAND FREE ENERGY PREDICTED BY IDOCK:   -0.35 KCAL/MOL
REMARK 927      BINDING AFFINITY PREDICTED BY RF-SCORE:    0.00 PKD
ROOT
HETATM    1  C   UNL     1     -12.552  10.527  70.216  1.00  0.00    -0.306 C  
HETATM    2  C   UNL     1     -12.293   9.903  71.579  1.00  0.00    -0.504 C  
ENDROOT
BRANCH   2   3
HETATM    3  C   UNL     1     -11.018   9.056  71.559  1.00  0.00    -0.418 C  
BRANCH   3   4
HETATM    4  C   UNL     1     -11.202   7.785  70.727  1.00  0.00    -0.281 C  
HETATM    5  C   UNL     1     -10.010   6.796  70.801  1.00  0.00    -0.201 C  
HETATM    6  C   UNL     1      -9.640   6.378  72.241  1.00  0.00    -0.155 C  
HETATM    7  C   UNL     1     -10.260   5.544  69.924  1.00  0.00    -0.338 C  
HETATM    8  C   UNL     1     -10.694   5.548  72.963  1.00  0.00    -0.295 C  
BRANCH   7   9
HETATM    9  C   UNL     1     -10.396   5.894  68.442  1.00  0.00    -0.261 C  
BRANCH   9  10
HETATM   10  C   UNL     1      -9.113   5.798  67.594  1.00  0.00    -0.106 C  
BRANCH  10  11
HETATM   11  C   UNL     1      -8.493   7.191  67.347  1.00  0.00    -0.122 C  
HETATM   12  C   UNL     1      -6.488   6.989  68.928  1.00  0.00    -0.029 C  
HETATM   13  C   UNL     1      -7.719   7.806  68.535  1.00  0.00    -0.118 C  
HETATM   14  C   UNL     1      -7.271   9.230  68.172  1.00  0.00    -0.078 C  
ENDBRANCH  10  11
BRANCH  10  15
HETATM   15  O   UNL     1      -8.148   5.024  68.320  1.00  0.00    -0.086 OA 
HETATM   16  O   UNL     1      -8.977   2.664  68.407  1.00  0.00    -0.107 OA 
HETATM   17  O   UNL     1      -7.451   3.419  66.532  1.00  0.00    -0.074 OA 
HETATM   18  S   UNL     1      -7.883   3.474  67.903  1.00  0.00    -0.072 S  
HETATM   19  O   UNL     1      -6.637   3.079  68.843  1.00  0.00    -0.033 OA 
ENDBRANCH  10  15
ENDBRANCH   9  10
ENDBRANCH   7   9
ENDBRANCH   3   4
ENDBRANCH   2   3
TORSDOF 6
ENDMDL
MODEL      340
REMARK 921   NORMALIZED FREE ENERGY PREDICTED BY IDOCK:   -2.34 KCAL/MOL
REMARK 922        TOTAL FREE ENERGY PREDICTED BY IDOCK:   -3.93 KCAL/MOL
REMARK 923 INTER-LIGAND FREE ENERGY PREDICTED BY IDOCK:   -3.92 KCAL/MOL
REMARK 924 INTRA-LIGAND FREE ENERGY PREDICTED BY IDOCK:   -0.01 KCAL/MOL
REMARK 927      BINDING AFFINITY PREDICTED BY RF-SCORE:    0.00 PKD
ROOT
HETATM    1  C   UNL     1      -8.024   6.552  64.566  1.00  0.00    -0.110 C  
HETATM    2  C   UNL     1      -8.697   5.204  64.363  1.00  0.00    -0.088 C  
ENDROOT
BRANCH   2   3
HETATM    3  C   UNL     1      -9.775   4.965  65.423  1.00  0.00    -0.090 C  
BRANCH   3   4
HETATM    4  C   UNL     1      -9.494   5.763  66.698  1.00  0.00    -0.161 C  
HETATM    5  C   UNL     1      -9.515   4.917  67.997  1.00  0.00    -0.173 C  
HETATM    6  C   UNL     1      -8.554   3.708  67.966  1.00  0.00    -0.116 C  
HETATM    7  C   UNL     1      -9.239   5.792  69.245  1.00  0.00    -0.135 C  
HETATM    8  C   UNL     1      -7.073   4.062  67.926  1.00  0.00    -0.059 C  
BRANCH   7   9
HETATM    9  C   UNL     1     -10.312   6.863  69.449  1.00  0.00    -0.220 C  
BRANCH   9  10
HETATM   10  C   UNL     1     -10.188   7.724  70.721  1.00  0.00    -0.197 C  
BRANCH  10  11
HETATM   11  C   UNL     1     -11.536   8.383  71.090  1.00  0.00    -0.317 C  
HETATM   12  C   UNL     1     -11.414  10.389  69.500  1.00  0.00    -0.311 C  
HETATM   13  C   UNL     1     -11.598   9.920  70.944  1.00  0.00    -0.456 C  
HETATM   14  C   UNL     1     -12.953  10.430  71.459  1.00  0.00    -0.562 C  
ENDBRANCH  10  11
BRANCH  10  15
HETATM   15  O   UNL     1      -9.819   6.869  71.812  1.00  0.00    -0.165 OA 
HETATM   16  O   UNL     1      -8.717   8.291  73.552  1.00  0.00    -0.245 OA 
HETATM   17  O   UNL     1     -11.214   7.867  73.633  1.00  0.00    -0.041 OA 
HETATM   18  S   UNL     1      -9.872   7.439  73.334  1.00  0.00    -0.318 S  
HETATM   19  O   UNL     1      -9.556   6.120  74.201  1.00  0.00    -0.154 OA 
ENDBRANCH  10  15
ENDBRANCH   9  10
ENDBRANCH   7   9
ENDBRANCH   3   4
ENDBRANCH   2   3
TORSDOF 6
ENDMDL
MODEL      341
REMARK 921   NORMALIZED FREE ENERGY PREDICTED BY IDOCK:   -2.31 KCAL/MOL
REMARK 922        TOTAL FREE ENERGY PREDICTED BY IDOCK:   -3.88 KCAL/MOL
REMARK 923 INTER-LIGAND FREE ENERGY PREDICTED BY IDOCK:   -3.70 KCAL/MOL
REMARK 924 INTRA-LIGAND FREE ENERGY PREDICTED BY IDOCK:   -0.17 KCAL/MOL
REMARK 927      BINDING AFFINITY PREDICTED BY RF-SCORE:    0.00 PKD
ROOT
HETATM    1  C   UNL     1     -10.489   6.238  71.512  1.00  0.00    -0.266 C  
HETATM    2  C   UNL     1     -10.691   7.745  71.486  1.00  0.00    -0.255 C  
ENDROOT
BRANCH   2   3
HETATM    3  C   UNL     1      -9.347   8.475  71.430  1.00  0.00    -0.274 C  
BRANCH   3   4
HETATM    4  C   UNL     1      -9.160   9.204  70.097  1.00  0.00    -0.229 C  
HETATM    5  C   UNL     1      -7.864   8.821  69.337  1.00  0.00    -0.095 C  
HETATM    6  C   UNL     1      -7.721   7.305  69.079  1.00  0.00    -0.112 C  
HETATM    7  C   UNL     1      -7.734   9.608  68.010  1.00  0.00    -0.086 C  
HETATM    8  C   UNL     1      -8.750   6.713  68.125  1.00  0.00    -0.117 C  
BRANCH   7   9
HETATM    9  C   UNL     1      -7.632  11.116  68.239  1.00  0.00    -0.111 C  
BRANCH   9  10
HETATM   10  C   UNL     1      -8.007  12.018  67.048  1.00  0.00    -0.150 C  
BRANCH  10  11
HETATM   11  C   UNL     1      -9.531  12.268  66.987  1.00  0.00    -0.204 C  
HETATM   12  C   UNL     1     -10.204  10.138  65.731  1.00  0.00    -0.283 C  
HETATM   13  C   UNL     1     -10.264  11.666  65.767  1.00  0.00    -0.281 C  
HETATM   14  C   UNL     1     -11.738  12.099  65.790  1.00  0.00    -0.391 C  
ENDBRANCH  10  11
BRANCH  10  15
HETATM   15  O   UNL     1      -7.373  13.292  67.227  1.00  0.00    -0.140 OA 
HETATM   16  O   UNL     1      -9.007  15.058  66.539  1.00  0.00    -0.269 OA 
HETATM   17  O   UNL     1      -8.887  14.289  68.950  1.00  0.00    -0.133 OA 
HETATM   18  S   UNL     1      -8.261  14.575  67.686  1.00  0.00    -0.192 S  
HETATM   19  O   UNL     1      -7.133  15.700  67.923  1.00  0.00    -0.116 OA 
ENDBRANCH  10  15
ENDBRANCH   9  10
ENDBRANCH   7   9
ENDBRANCH   3   4
ENDBRANCH   2   3
TORSDOF 6
ENDMDL
MODEL      342
REMARK 921   NORMALIZED FREE ENERGY PREDICTED BY IDOCK:   -2.30 KCAL/MOL
REMARK 922        TOTAL FREE ENERGY PREDICTED BY IDOCK:   -3.87 KCAL/MOL
REMARK 923 INTER-LIGAND FREE ENERGY PREDICTED BY IDOCK:   -3.57 KCAL/MOL
REMARK 924 INTRA-LIGAND FREE ENERGY PREDICTED BY IDOCK:   -0.30 KCAL/MOL
REMARK 927      BINDING AFFINITY PREDICTED BY RF-SCORE:    0.00 PKD
ROOT
HETATM    1  C   UNL     1     -10.500   5.281  66.672  1.00  0.00    -0.345 C  
HETATM    2  C   UNL     1     -10.005   6.551  67.348  1.00  0.00    -0.180 C  
ENDROOT
BRANCH   2   3
HETATM    3  C   UNL     1     -10.004   7.726  66.368  1.00  0.00    -0.164 C  
BRANCH   3   4
HETATM    4  C   UNL     1      -9.340   8.964  66.977  1.00  0.00    -0.194 C  
HETATM    5  C   UNL     1      -7.791   8.906  67.008  1.00  0.00    -0.102 C  
HETATM    6  C   UNL     1      -7.151   8.649  65.626  1.00  0.00    -0.083 C  
HETATM    7  C   UNL     1      -7.191  10.181  67.650  1.00  0.00    -0.088 C  
HETATM    8  C   UNL     1      -7.336   9.771  64.612  1.00  0.00    -0.134 C  
BRANCH   7   9
HETATM    9  C   UNL     1      -7.614  10.347  69.111  1.00  0.00    -0.117 C  
BRANCH   9  10
HETATM   10  C   UNL     1      -9.091  10.053  69.434  1.00  0.00    -0.215 C  
BRANCH  10  11
HETATM   11  C   UNL     1      -9.229   9.177  70.700  1.00  0.00    -0.310 C  
HETATM   12  C   UNL     1     -11.375   7.934  70.057  1.00  0.00    -0.034 C  
HETATM   13  C   UNL     1     -10.671   8.798  71.104  1.00  0.00    -0.316 C  
HETATM   14  C   UNL     1     -10.646   8.034  72.437  1.00  0.00    -0.373 C  
ENDBRANCH  10  11
BRANCH  10  15
HETATM   15  O   UNL     1      -9.752  11.297  69.702  1.00  0.00     0.279 OA 
HETATM   16  O   UNL     1      -9.978  12.521  67.530  1.00  0.00    -0.197 OA 
HETATM   17  O   UNL     1     -11.825  10.986  68.337  1.00  0.00    -0.503 OA 
HETATM   18  S   UNL     1     -10.765  11.924  68.594  1.00  0.00    -0.236 S  
HETATM   19  O   UNL     1     -11.385  13.187  69.378  1.00  0.00    -0.258 OA 
ENDBRANCH  10  15
ENDBRANCH   9  10
ENDBRANCH   7   9
ENDBRANCH   3   4
ENDBRANCH   2   3
TORSDOF 6
ENDMDL
MODEL      343
REMARK 921   NORMALIZED FREE ENERGY PREDICTED BY IDOCK:   -2.28 KCAL/MOL
REMARK 922        TOTAL FREE ENERGY PREDICTED BY IDOCK:   -3.83 KCAL/MOL
REMARK 923 INTER-LIGAND FREE ENERGY PREDICTED BY IDOCK:   -3.12 KCAL/MOL
REMARK 924 INTRA-LIGAND FREE ENERGY PREDICTED BY IDOCK:   -0.71 KCAL/MOL
REMARK 927      BINDING AFFINITY PREDICTED BY RF-SCORE:    0.00 PKD
ROOT
HETATM    1  C   UNL     1     -10.635  12.474  66.356  1.00  0.00    -0.271 C  
HETATM    2  C   UNL     1     -10.593  10.953  66.344  1.00  0.00    -0.289 C  
ENDROOT
BRANCH   2   3
HETATM    3  C   UNL     1      -9.161  10.445  66.520  1.00  0.00    -0.184 C  
BRANCH   3   4
HETATM    4  C   UNL     1      -9.130   9.088  67.228  1.00  0.00    -0.151 C  
HETATM    5  C   UNL     1      -7.767   8.741  67.881  1.00  0.00    -0.102 C  
HETATM    6  C   UNL     1      -7.263   9.811  68.873  1.00  0.00    -0.072 C  
HETATM    7  C   UNL     1      -7.807   7.350  68.562  1.00  0.00    -0.122 C  
HETATM    8  C   UNL     1      -8.106   9.972  70.132  1.00  0.00    -0.099 C  
BRANCH   7   9
HETATM    9  C   UNL     1      -8.070   6.223  67.563  1.00  0.00    -0.113 C  
BRANCH   9  10
HETATM   10  C   UNL     1      -8.987   5.082  68.042  1.00  0.00    -0.108 C  
BRANCH  10  11
HETATM   11  C   UNL     1      -9.634   5.413  69.406  1.00  0.00    -0.203 C  
HETATM   12  C   UNL     1      -7.834   4.402  70.923  1.00  0.00    -0.067 C  
HETATM   13  C   UNL     1      -9.318   4.432  70.558  1.00  0.00    -0.213 C  
HETATM   14  C   UNL     1     -10.124   4.828  71.805  1.00  0.00    -0.261 C  
ENDBRANCH  10  11
BRANCH  10  15
HETATM   15  O   UNL     1     -10.051   4.926  67.093  1.00  0.00    -0.191 OA 
HETATM   16  O   UNL     1      -9.060   5.127  64.803  1.00  0.00    -0.113 OA 
HETATM   17  O   UNL     1      -9.276   2.860  65.914  1.00  0.00    -0.152 OA 
HETATM   18  S   UNL     1      -9.757   4.195  65.670  1.00  0.00    -0.206 S  
HETATM   19  O   UNL     1     -11.232   4.092  65.031  1.00  0.00    -0.206 OA 
ENDBRANCH  10  15
ENDBRANCH   9  10
ENDBRANCH   7   9
ENDBRANCH   3   4
ENDBRANCH   2   3
TORSDOF 6
ENDMDL
MODEL      344
REMARK 921   NORMALIZED FREE ENERGY PREDICTED BY IDOCK:   -2.26 KCAL/MOL
REMARK 922        TOTAL FREE ENERGY PREDICTED BY IDOCK:   -3.81 KCAL/MOL
REMARK 923 INTER-LIGAND FREE ENERGY PREDICTED BY IDOCK:   -3.51 KCAL/MOL
REMARK 924 INTRA-LIGAND FREE ENERGY PREDICTED BY IDOCK:   -0.30 KCAL/MOL
REMARK 927      BINDING AFFINITY PREDICTED BY RF-SCORE:    0.00 PKD
ROOT
HETATM    1  C   UNL     1      -6.663  13.994  69.246  1.00  0.00    -0.120 C  
HETATM    2  C   UNL     1      -6.930  13.619  67.797  1.00  0.00    -0.168 C  
ENDROOT
BRANCH   2   3
HETATM    3  C   UNL     1      -7.992  14.532  67.182  1.00  0.00    -0.167 C  
BRANCH   3   4
HETATM    4  C   UNL     1      -9.220  13.739  66.727  1.00  0.00    -0.255 C  
HETATM    5  C   UNL     1      -9.973  13.017  67.874  1.00  0.00    -0.230 C  
HETATM    6  C   UNL     1     -10.406  13.956  69.021  1.00  0.00    -0.108 C  
HETATM    7  C   UNL     1     -11.190  12.224  67.337  1.00  0.00    -0.358 C  
HETATM    8  C   UNL     1     -11.461  14.988  68.645  1.00  0.00    -0.329 C  
BRANCH   7   9
HETATM    9  C   UNL     1     -10.777  11.114  66.369  1.00  0.00    -0.303 C  
BRANCH   9  10
HETATM   10  C   UNL     1      -9.403  10.464  66.618  1.00  0.00    -0.158 C  
BRANCH  10  11
HETATM   11  C   UNL     1      -9.546   9.081  67.292  1.00  0.00    -0.206 C  
HETATM   12  C   UNL     1     -10.433   9.867  69.563  1.00  0.00    -0.261 C  
HETATM   13  C   UNL     1      -9.366   9.056  68.826  1.00  0.00    -0.140 C  
HETATM   14  C   UNL     1      -9.419   7.604  69.325  1.00  0.00    -0.158 C  
ENDBRANCH  10  11
BRANCH  10  15
HETATM   15  O   UNL     1      -8.764  10.257  65.351  1.00  0.00    -0.154 OA 
HETATM   16  O   UNL     1      -6.364  10.927  65.592  1.00  0.00    -0.100 OA 
HETATM   17  O   UNL     1      -7.075   8.530  65.998  1.00  0.00    -0.074 OA 
HETATM   18  S   UNL     1      -7.209   9.783  65.303  1.00  0.00    -0.126 S  
HETATM   19  O   UNL     1      -6.985   9.517  63.731  1.00  0.00    -0.097 OA 
ENDBRANCH  10  15
ENDBRANCH   9  10
ENDBRANCH   7   9
ENDBRANCH   3   4
ENDBRANCH   2   3
TORSDOF 6
ENDMDL
MODEL      345
REMARK 921   NORMALIZED FREE ENERGY PREDICTED BY IDOCK:   -2.25 KCAL/MOL
REMARK 922        TOTAL FREE ENERGY PREDICTED BY IDOCK:   -3.79 KCAL/MOL
REMARK 923 INTER-LIGAND FREE ENERGY PREDICTED BY IDOCK:   -3.71 KCAL/MOL
REMARK 924 INTRA-LIGAND FREE ENERGY PREDICTED BY IDOCK:   -0.08 KCAL/MOL
REMARK 927      BINDING AFFINITY PREDICTED BY RF-SCORE:    0.00 PKD
ROOT
HETATM    1  C   UNL     1     -13.123   8.584  71.804  1.00  0.00    -0.383 C  
HETATM    2  C   UNL     1     -12.901   7.140  71.382  1.00  0.00    -0.431 C  
ENDROOT
BRANCH   2   3
HETATM    3  C   UNL     1     -11.780   6.497  72.202  1.00  0.00    -0.353 C  
BRANCH   3   4
HETATM    4  C   UNL     1     -10.517   6.291  71.362  1.00  0.00    -0.264 C  
HETATM    5  C   UNL     1      -9.304   5.746  72.159  1.00  0.00    -0.157 C  
HETATM    6  C   UNL     1      -9.598   4.432  72.915  1.00  0.00    -0.163 C  
HETATM    7  C   UNL     1      -8.061   5.578  71.249  1.00  0.00    -0.113 C  
HETATM    8  C   UNL     1      -9.873   3.224  72.028  1.00  0.00    -0.240 C  
BRANCH   7   9
HETATM    9  C   UNL     1      -7.589   6.909  70.664  1.00  0.00    -0.094 C  
BRANCH   9  10
HETATM   10  C   UNL     1      -7.667   7.050  69.131  1.00  0.00    -0.105 C  
BRANCH  10  11
HETATM   11  C   UNL     1      -9.132   7.079  68.641  1.00  0.00    -0.132 C  
HETATM   12  C   UNL     1      -9.333   4.626  67.931  1.00  0.00    -0.169 C  
HETATM   13  C   UNL     1      -9.485   6.088  67.509  1.00  0.00    -0.113 C  
HETATM   14  C   UNL     1     -10.934   6.322  67.055  1.00  0.00    -0.442 C  
ENDBRANCH  10  11
BRANCH  10  15
HETATM   15  O   UNL     1      -7.068   8.299  68.760  1.00  0.00    -0.068 OA 
HETATM   16  O   UNL     1      -8.710   9.537  67.335  1.00  0.00    -0.125 OA 
HETATM   17  O   UNL     1      -8.670   9.885  69.844  1.00  0.00    -0.205 OA 
HETATM   18  S   UNL     1      -8.000   9.621  68.598  1.00  0.00    -0.090 S  
HETATM   19  O   UNL     1      -6.906  10.779  68.356  1.00  0.00    -0.065 OA 
ENDBRANCH  10  15
ENDBRANCH   9  10
ENDBRANCH   7   9
ENDBRANCH   3   4
ENDBRANCH   2   3
TORSDOF 6
ENDMDL
MODEL      346
REMARK 921   NORMALIZED FREE ENERGY PREDICTED BY IDOCK:   -2.23 KCAL/MOL
REMARK 922        TOTAL FREE ENERGY PREDICTED BY IDOCK:   -3.78 KCAL/MOL
REMARK 923 INTER-LIGAND FREE ENERGY PREDICTED BY IDOCK:   -3.26 KCAL/MOL
REMARK 924 INTRA-LIGAND FREE ENERGY PREDICTED BY IDOCK:   -0.52 KCAL/MOL
REMARK 927      BINDING AFFINITY PREDICTED BY RF-SCORE:    0.00 PKD
ROOT
HETATM    1  C   UNL     1     -12.129   9.002  72.142  1.00  0.00    -0.412 C  
HETATM    2  C   UNL     1     -11.108   8.006  71.614  1.00  0.00    -0.300 C  
ENDROOT
BRANCH   2   3
HETATM    3  C   UNL     1      -9.694   8.586  71.680  1.00  0.00    -0.322 C  
BRANCH   3   4
HETATM    4  C   UNL     1      -9.046   8.645  70.294  1.00  0.00    -0.172 C  
HETATM    5  C   UNL     1      -8.352   7.329  69.858  1.00  0.00    -0.135 C  
HETATM    6  C   UNL     1      -9.278   6.094  69.903  1.00  0.00    -0.156 C  
HETATM    7  C   UNL     1      -7.707   7.468  68.457  1.00  0.00    -0.120 C  
HETATM    8  C   UNL     1     -10.424   6.111  68.900  1.00  0.00    -0.293 C  
BRANCH   7   9
HETATM    9  C   UNL     1      -6.605   8.529  68.430  1.00  0.00    -0.060 C  
BRANCH   9  10
HETATM   10  C   UNL     1      -6.703   9.590  67.318  1.00  0.00    -0.072 C  
BRANCH  10  11
HETATM   11  C   UNL     1      -7.775   9.214  66.271  1.00  0.00    -0.096 C  
HETATM   12  C   UNL     1      -6.434   9.756  64.156  1.00  0.00    -0.119 C  
HETATM   13  C   UNL     1      -7.724   9.999  64.940  1.00  0.00    -0.138 C  
HETATM   14  C   UNL     1      -8.918   9.596  64.061  1.00  0.00    -0.261 C  
ENDBRANCH  10  11
BRANCH  10  15
HETATM   15  O   UNL     1      -7.103  10.833  67.911  1.00  0.00    -0.083 OA 
HETATM   16  O   UNL     1      -5.129  11.759  69.141  1.00  0.00    -0.048 OA 
HETATM   17  O   UNL     1      -5.552  12.396  66.725  1.00  0.00    -0.319 OA 
HETATM   18  S   UNL     1      -6.028  12.047  68.038  1.00  0.00    -0.065 S  
HETATM   19  O   UNL     1      -6.943  13.255  68.582  1.00  0.00    -0.091 OA 
ENDBRANCH  10  15
ENDBRANCH   9  10
ENDBRANCH   7   9
ENDBRANCH   3   4
ENDBRANCH   2   3
TORSDOF 6
ENDMDL
MODEL      347
REMARK 921   NORMALIZED FREE ENERGY PREDICTED BY IDOCK:   -2.23 KCAL/MOL
REMARK 922        TOTAL FREE ENERGY PREDICTED BY IDOCK:   -3.78 KCAL/MOL
REMARK 923 INTER-LIGAND FREE ENERGY PREDICTED BY IDOCK:   -3.65 KCAL/MOL
REMARK 924 INTRA-LIGAND FREE ENERGY PREDICTED BY IDOCK:   -0.12 KCAL/MOL
REMARK 927      BINDING AFFINITY PREDICTED BY RF-SCORE:    0.00 PKD
ROOT
HETATM    1  C   UNL     1      -6.038  14.947  69.915  1.00  0.00    -0.140 C  
HETATM    2  C   UNL     1      -6.108  13.447  69.670  1.00  0.00    -0.123 C  
ENDROOT
BRANCH   2   3
HETATM    3  C   UNL     1      -6.058  13.135  68.173  1.00  0.00    -0.103 C  
BRANCH   3   4
HETATM    4  C   UNL     1      -7.110  12.094  67.782  1.00  0.00    -0.109 C  
HETATM    5  C   UNL     1      -6.738  11.247  66.538  1.00  0.00    -0.105 C  
HETATM    6  C   UNL     1      -5.375  10.530  66.660  1.00  0.00    -0.048 C  
HETATM    7  C   UNL     1      -7.853  10.229  66.193  1.00  0.00    -0.129 C  
HETATM    8  C   UNL     1      -5.312   9.444  67.726  1.00  0.00    -0.037 C  
BRANCH   7   9
HETATM    9  C   UNL     1      -9.170  10.916  65.830  1.00  0.00    -0.224 C  
BRANCH   9  10
HETATM   10  C   UNL     1     -10.447  10.328  66.461  1.00  0.00    -0.173 C  
BRANCH  10  11
HETATM   11  C   UNL     1     -10.237   9.997  67.956  1.00  0.00    -0.216 C  
HETATM   12  C   UNL     1      -9.812   7.481  67.721  1.00  0.00    -0.191 C  
HETATM   13  C   UNL     1     -10.645   8.573  68.395  1.00  0.00    -0.161 C  
HETATM   14  C   UNL     1     -10.489   8.441  69.918  1.00  0.00    -0.222 C  
ENDBRANCH  10  11
BRANCH  10  15
HETATM   15  O   UNL     1     -11.486  11.313  66.383  1.00  0.00    -0.306 OA 
HETATM   16  O   UNL     1     -10.411  13.567  66.561  1.00  0.00    -0.272 OA 
HETATM   17  O   UNL     1     -10.796  12.503  64.294  1.00  0.00    -0.315 OA 
HETATM   18  S   UNL     1     -11.189  12.738  65.658  1.00  0.00    -0.313 S  
HETATM   19  O   UNL     1     -12.646  13.425  65.653  1.00  0.00    -0.466 OA 
ENDBRANCH  10  15
ENDBRANCH   9  10
ENDBRANCH   7   9
ENDBRANCH   3   4
ENDBRANCH   2   3
TORSDOF 6
ENDMDL
MODEL      348
REMARK 921   NORMALIZED FREE ENERGY PREDICTED BY IDOCK:   -2.22 KCAL/MOL
REMARK 922        TOTAL FREE ENERGY PREDICTED BY IDOCK:   -3.75 KCAL/MOL
REMARK 923 INTER-LIGAND FREE ENERGY PREDICTED BY IDOCK:   -4.64 KCAL/MOL
REMARK 924 INTRA-LIGAND FREE ENERGY PREDICTED BY IDOCK:    0.88 KCAL/MOL
REMARK 927      BINDING AFFINITY PREDICTED BY RF-SCORE:    0.00 PKD
ROOT
HETATM    1  C   UNL     1      -5.247  12.173  70.049  1.00  0.00    -0.089 C  
HETATM    2  C   UNL     1      -5.961  11.349  68.989  1.00  0.00    -0.051 C  
ENDROOT
BRANCH   2   3
HETATM    3  C   UNL     1      -5.847  12.011  67.614  1.00  0.00    -0.093 C  
BRANCH   3   4
HETATM    4  C   UNL     1      -7.207  12.095  66.917  1.00  0.00    -0.002 C  
HETATM    5  C   UNL     1      -8.366  12.561  67.835  1.00  0.00    -0.167 C  
HETATM    6  C   UNL     1      -8.100  13.913  68.533  1.00  0.00    -0.133 C  
HETATM    7  C   UNL     1      -9.711  12.607  67.067  1.00  0.00    -0.225 C  
HETATM    8  C   UNL     1      -8.024  15.116  67.601  1.00  0.00    -0.177 C  
BRANCH   7   9
HETATM    9  C   UNL     1     -10.133  11.228  66.559  1.00  0.00    -0.256 C  
BRANCH   9  10
HETATM   10  C   UNL     1      -9.796  10.905  65.090  1.00  0.00    -0.275 C  
BRANCH  10  11
HETATM   11  C   UNL     1      -9.445   9.412  64.907  1.00  0.00    -0.150 C  
HETATM   12  C   UNL     1     -10.526   8.512  67.048  1.00  0.00    -0.362 C  
HETATM   13  C   UNL     1      -9.252   8.599  66.206  1.00  0.00    -0.257 C  
HETATM   14  C   UNL     1      -8.794   7.174  65.857  1.00  0.00    -0.128 C  
ENDBRANCH  10  11
BRANCH  10  15
HETATM   15  O   UNL     1     -10.955  11.173  64.290  1.00  0.00    -0.341 OA 
HETATM   16  O   UNL     1     -12.440  12.711  65.592  1.00  0.00    -0.622 OA 
HETATM   17  O   UNL     1     -10.711  13.645  63.993  1.00  0.00    -0.235 OA 
HETATM   18  S   UNL     1     -11.665  12.634  64.367  1.00  0.00    -0.399 S  
HETATM   19  O   UNL     1     -12.776  12.533  63.205  1.00  0.00    -0.678 OA 
ENDBRANCH  10  15
ENDBRANCH   9  10
ENDBRANCH   7   9
ENDBRANCH   3   4
ENDBRANCH   2   3
TORSDOF 6
ENDMDL
MODEL      349
REMARK 921   NORMALIZED FREE ENERGY PREDICTED BY IDOCK:   -2.20 KCAL/MOL
REMARK 922        TOTAL FREE ENERGY PREDICTED BY IDOCK:   -3.74 KCAL/MOL
REMARK 923 INTER-LIGAND FREE ENERGY PREDICTED BY IDOCK:   -4.00 KCAL/MOL
REMARK 924 INTRA-LIGAND FREE ENERGY PREDICTED BY IDOCK:    0.27 KCAL/MOL
REMARK 927      BINDING AFFINITY PREDICTED BY RF-SCORE:    0.00 PKD
ROOT
HETATM    1  C   UNL     1     -14.293   8.806  72.384  1.00  0.00    -0.419 C  
HETATM    2  C   UNL     1     -12.875   9.254  72.064  1.00  0.00    -0.495 C  
ENDROOT
BRANCH   2   3
HETATM    3  C   UNL     1     -11.870   8.138  72.357  1.00  0.00    -0.448 C  
BRANCH   3   4
HETATM    4  C   UNL     1     -10.664   8.208  71.418  1.00  0.00    -0.280 C  
HETATM    5  C   UNL     1      -9.380   8.783  72.070  1.00  0.00    -0.322 C  
HETATM    6  C   UNL     1      -8.948   8.038  73.352  1.00  0.00    -0.341 C  
HETATM    7  C   UNL     1      -8.209   8.838  71.057  1.00  0.00    -0.194 C  
HETATM    8  C   UNL     1      -8.493   6.599  73.139  1.00  0.00    -0.124 C  
BRANCH   7   9
HETATM    9  C   UNL     1      -8.507   9.764  69.878  1.00  0.00    -0.217 C  
BRANCH   9  10
HETATM   10  C   UNL     1      -7.394   9.910  68.823  1.00  0.00    -0.078 C  
BRANCH  10  11
HETATM   11  C   UNL     1      -7.935   9.677  67.394  1.00  0.00    -0.106 C  
HETATM   12  C   UNL     1      -8.012   7.117  67.441  1.00  0.00    -0.112 C  
HETATM   13  C   UNL     1      -7.499   8.360  66.714  1.00  0.00    -0.083 C  
HETATM   14  C   UNL     1      -8.018   8.334  65.268  1.00  0.00    -0.128 C  
ENDBRANCH  10  11
BRANCH  10  15
HETATM   15  O   UNL     1      -6.894  11.253  68.876  1.00  0.00    -0.071 OA 
HETATM   16  O   UNL     1      -5.832  11.757  66.666  1.00  0.00    -0.163 OA 
HETATM   17  O   UNL     1      -8.273  12.299  67.070  1.00  0.00    -0.177 OA 
HETATM   18  S   UNL     1      -6.917  12.173  67.535  1.00  0.00    -0.151 S  
HETATM   19  O   UNL     1      -6.441  13.605  68.098  1.00  0.00    -0.096 OA 
ENDBRANCH  10  15
ENDBRANCH   9  10
ENDBRANCH   7   9
ENDBRANCH   3   4
ENDBRANCH   2   3
TORSDOF 6
ENDMDL
MODEL      350
REMARK 921   NORMALIZED FREE ENERGY PREDICTED BY IDOCK:   -2.18 KCAL/MOL
REMARK 922        TOTAL FREE ENERGY PREDICTED BY IDOCK:   -3.70 KCAL/MOL
REMARK 923 INTER-LIGAND FREE ENERGY PREDICTED BY IDOCK:   -3.94 KCAL/MOL
REMARK 924 INTRA-LIGAND FREE ENERGY PREDICTED BY IDOCK:    0.24 KCAL/MOL
REMARK 927      BINDING AFFINITY PREDICTED BY RF-SCORE:    0.00 PKD
ROOT
HETATM    1  C   UNL     1     -12.637  13.623  69.974  1.00  0.00    -0.170 C  
HETATM    2  C   UNL     1     -11.908  12.315  69.707  1.00  0.00    -0.388 C  
ENDROOT
BRANCH   2   3
HETATM    3  C   UNL     1     -12.414  11.209  70.634  1.00  0.00    -0.448 C  
BRANCH   3   4
HETATM    4  C   UNL     1     -11.914   9.832  70.191  1.00  0.00    -0.085 C  
HETATM    5  C   UNL     1     -11.653   8.842  71.356  1.00  0.00    -0.382 C  
HETATM    6  C   UNL     1     -12.874   8.635  72.279  1.00  0.00    -0.438 C  
HETATM    7  C   UNL     1     -11.134   7.480  70.833  1.00  0.00    -0.279 C  
HETATM    8  C   UNL     1     -14.064   7.941  71.627  1.00  0.00    -0.528 C  
BRANCH   7   9
HETATM    9  C   UNL     1      -9.792   7.610  70.112  1.00  0.00    -0.184 C  
BRANCH   9  10
HETATM   10  C   UNL     1      -8.676   8.354  70.869  1.00  0.00    -0.154 C  
BRANCH  10  11
HETATM   11  C   UNL     1      -7.882   7.398  71.788  1.00  0.00    -0.090 C  
HETATM   12  C   UNL     1      -6.995   5.807  69.987  1.00  0.00    -0.065 C  
HETATM   13  C   UNL     1      -7.766   5.937  71.301  1.00  0.00    -0.110 C  
HETATM   14  C   UNL     1      -7.057   5.094  72.373  1.00  0.00    -0.089 C  
ENDBRANCH  10  11
BRANCH  10  15
HETATM   15  O   UNL     1      -7.754   8.887  69.908  1.00  0.00    -0.068 OA 
HETATM   16  O   UNL     1      -8.382   7.972  67.664  1.00  0.00    -0.125 OA 
HETATM   17  O   UNL     1      -9.336  10.179  68.464  1.00  0.00    -0.143 OA 
HETATM   18  S   UNL     1      -8.266   9.218  68.401  1.00  0.00    -0.115 S  
HETATM   19  O   UNL     1      -6.977   9.937  67.756  1.00  0.00    -0.083 OA 
ENDBRANCH  10  15
ENDBRANCH   9  10
ENDBRANCH   7   9
ENDBRANCH   3   4
ENDBRANCH   2   3
TORSDOF 6
ENDMDL
MODEL      351
REMARK 921   NORMALIZED FREE ENERGY PREDICTED BY IDOCK:   -2.17 KCAL/MOL
REMARK 922        TOTAL FREE ENERGY PREDICTED BY IDOCK:   -3.70 KCAL/MOL
REMARK 923 INTER-LIGAND FREE ENERGY PREDICTED BY IDOCK:   -3.10 KCAL/MOL
REMARK 924 INTRA-LIGAND FREE ENERGY PREDICTED BY IDOCK:   -0.60 KCAL/MOL
REMARK 927      BINDING AFFINITY PREDICTED BY RF-SCORE:    0.00 PKD
ROOT
HETATM    1  C   UNL     1     -12.708  10.641  69.822  1.00  0.00     0.028 C  
HETATM    2  C   UNL     1     -11.676  10.945  70.897  1.00  0.00    -0.265 C  
ENDROOT
BRANCH   2   3
HETATM    3  C   UNL     1     -10.784   9.730  71.157  1.00  0.00    -0.284 C  
BRANCH   3   4
HETATM    4  C   UNL     1     -11.059   8.606  70.155  1.00  0.00    -0.199 C  
HETATM    5  C   UNL     1     -10.910   7.178  70.740  1.00  0.00    -0.267 C  
HETATM    6  C   UNL     1     -11.777   6.927  71.994  1.00  0.00    -0.336 C  
HETATM    7  C   UNL     1     -11.187   6.097  69.667  1.00  0.00    -0.488 C  
HETATM    8  C   UNL     1     -13.280   6.937  71.750  1.00  0.00    -0.281 C  
BRANCH   7   9
HETATM    9  C   UNL     1     -10.190   6.160  68.510  1.00  0.00    -0.221 C  
BRANCH   9  10
HETATM   10  C   UNL     1      -8.728   5.806  68.844  1.00  0.00    -0.111 C  
BRANCH  10  11
HETATM   11  C   UNL     1      -7.771   6.967  68.493  1.00  0.00    -0.120 C  
HETATM   12  C   UNL     1      -7.429   6.428  66.012  1.00  0.00    -0.082 C  
HETATM   13  C   UNL     1      -6.757   6.687  67.361  1.00  0.00    -0.067 C  
HETATM   14  C   UNL     1      -5.807   7.886  67.215  1.00  0.00    -0.041 C  
ENDBRANCH  10  11
BRANCH  10  15
HETATM   15  O   UNL     1      -8.628   5.582  70.257  1.00  0.00    -0.121 OA 
HETATM   16  O   UNL     1      -8.711   3.111  70.644  1.00  0.00    -0.067 OA 
HETATM   17  O   UNL     1      -6.489   4.288  70.338  1.00  0.00    -0.029 OA 
HETATM   18  S   UNL     1      -7.848   4.266  70.810  1.00  0.00    -0.060 S  
HETATM   19  O   UNL     1      -7.837   4.522  72.400  1.00  0.00    -0.086 OA 
ENDBRANCH  10  15
ENDBRANCH   9  10
ENDBRANCH   7   9
ENDBRANCH   3   4
ENDBRANCH   2   3
TORSDOF 6
ENDMDL
MODEL      352
REMARK 921   NORMALIZED FREE ENERGY PREDICTED BY IDOCK:   -2.13 KCAL/MOL
REMARK 922        TOTAL FREE ENERGY PREDICTED BY IDOCK:   -3.63 KCAL/MOL
REMARK 923 INTER-LIGAND FREE ENERGY PREDICTED BY IDOCK:   -3.84 KCAL/MOL
REMARK 924 INTRA-LIGAND FREE ENERGY PREDICTED BY IDOCK:    0.21 KCAL/MOL
REMARK 927      BINDING AFFINITY PREDICTED BY RF-SCORE:    0.00 PKD
ROOT
HETATM    1  C   UNL     1     -10.255   8.122  70.457  1.00  0.00    -0.207 C  
HETATM    2  C   UNL     1     -10.102   6.697  69.949  1.00  0.00    -0.198 C  
ENDROOT
BRANCH   2   3
HETATM    3  C   UNL     1     -10.962   6.465  68.705  1.00  0.00    -0.404 C  
BRANCH   3   4
HETATM    4  C   UNL     1     -10.559   7.401  67.562  1.00  0.00    -0.340 C  
HETATM    5  C   UNL     1      -9.030   7.504  67.331  1.00  0.00    -0.129 C  
HETATM    6  C   UNL     1      -8.343   6.140  67.099  1.00  0.00    -0.105 C  
HETATM    7  C   UNL     1      -8.698   8.478  66.174  1.00  0.00    -0.176 C  
HETATM    8  C   UNL     1      -8.740   5.430  65.811  1.00  0.00    -0.149 C  
BRANCH   7   9
HETATM    9  C   UNL     1      -9.155   9.907  66.471  1.00  0.00    -0.179 C  
BRANCH   9  10
HETATM   10  C   UNL     1      -8.380  10.660  67.569  1.00  0.00    -0.115 C  
BRANCH  10  11
HETATM   11  C   UNL     1      -7.886  12.036  67.070  1.00  0.00    -0.138 C  
HETATM   12  C   UNL     1      -5.846  12.275  68.601  1.00  0.00    -0.054 C  
HETATM   13  C   UNL     1      -7.150  12.908  68.112  1.00  0.00    -0.108 C  
HETATM   14  C   UNL     1      -6.831  14.280  67.500  1.00  0.00    -0.158 C  
ENDBRANCH  10  11
BRANCH  10  15
HETATM   15  O   UNL     1      -9.269  10.898  68.669  1.00  0.00    -0.173 OA 
HETATM   16  O   UNL     1     -10.423  13.080  68.254  1.00  0.00    -0.237 OA 
HETATM   17  O   UNL     1     -11.458  10.909  67.458  1.00  0.00    -0.483 OA 
HETATM   18  S   UNL     1     -10.682  11.660  68.409  1.00  0.00    -0.229 S  
HETATM   19  O   UNL     1     -11.397  11.547  69.848  1.00  0.00    -0.258 OA 
ENDBRANCH  10  15
ENDBRANCH   9  10
ENDBRANCH   7   9
ENDBRANCH   3   4
ENDBRANCH   2   3
TORSDOF 6
ENDMDL
MODEL      353
REMARK 921   NORMALIZED FREE ENERGY PREDICTED BY IDOCK:   -2.11 KCAL/MOL
REMARK 922        TOTAL FREE ENERGY PREDICTED BY IDOCK:   -3.61 KCAL/MOL
REMARK 923 INTER-LIGAND FREE ENERGY PREDICTED BY IDOCK:   -3.46 KCAL/MOL
REMARK 924 INTRA-LIGAND FREE ENERGY PREDICTED BY IDOCK:   -0.15 KCAL/MOL
REMARK 927      BINDING AFFINITY PREDICTED BY RF-SCORE:    0.00 PKD
ROOT
HETATM    1  C   UNL     1     -11.759  14.834  70.285  1.00  0.00    -0.351 C  
HETATM    2  C   UNL     1     -11.176  13.630  69.562  1.00  0.00    -0.205 C  
ENDROOT
BRANCH   2   3
HETATM    3  C   UNL     1     -12.224  12.973  68.661  1.00  0.00    -0.037 C  
BRANCH   3   4
HETATM    4  C   UNL     1     -12.012  11.460  68.564  1.00  0.00    -0.295 C  
HETATM    5  C   UNL     1     -11.207  10.852  69.741  1.00  0.00    -0.351 C  
HETATM    6  C   UNL     1     -11.806  11.165  71.130  1.00  0.00     0.004 C  
HETATM    7  C   UNL     1     -11.019   9.325  69.566  1.00  0.00    -0.169 C  
HETATM    8  C   UNL     1     -13.163  10.529  71.405  1.00  0.00    -0.441 C  
BRANCH   7   9
HETATM    9  C   UNL     1     -10.215   8.980  68.312  1.00  0.00    -0.241 C  
BRANCH   9  10
HETATM   10  C   UNL     1      -8.963   8.107  68.519  1.00  0.00    -0.137 C  
BRANCH  10  11
HETATM   11  C   UNL     1      -8.378   8.286  69.938  1.00  0.00    -0.125 C  
HETATM   12  C   UNL     1      -6.209   9.488  69.295  1.00  0.00    -0.040 C  
HETATM   13  C   UNL     1      -6.836   8.305  70.034  1.00  0.00    -0.043 C  
HETATM   14  C   UNL     1      -6.415   8.369  71.511  1.00  0.00    -0.058 C  
ENDBRANCH  10  11
BRANCH  10  15
HETATM   15  O   UNL     1      -9.343   6.731  68.384  1.00  0.00    -0.127 OA 
HETATM   16  O   UNL     1     -11.250   6.624  66.767  1.00  0.00    -0.333 OA 
HETATM   17  O   UNL     1      -8.862   6.387  65.954  1.00  0.00    -0.157 OA 
HETATM   18  S   UNL     1      -9.880   6.182  66.951  1.00  0.00    -0.169 S  
HETATM   19  O   UNL     1     -10.011   4.600  67.222  1.00  0.00    -0.188 OA 
ENDBRANCH  10  15
ENDBRANCH   9  10
ENDBRANCH   7   9
ENDBRANCH   3   4
ENDBRANCH   2   3
TORSDOF 6
ENDMDL
MODEL      354
REMARK 921   NORMALIZED FREE ENERGY PREDICTED BY IDOCK:   -2.11 KCAL/MOL
REMARK 922        TOTAL FREE ENERGY PREDICTED BY IDOCK:   -3.61 KCAL/MOL
REMARK 923 INTER-LIGAND FREE ENERGY PREDICTED BY IDOCK:   -2.73 KCAL/MOL
REMARK 924 INTRA-LIGAND FREE ENERGY PREDICTED BY IDOCK:   -0.87 KCAL/MOL
REMARK 927      BINDING AFFINITY PREDICTED BY RF-SCORE:    0.00 PKD
ROOT
HETATM    1  C   UNL     1     -10.049   8.488  71.363  1.00  0.00    -0.302 C  
HETATM    2  C   UNL     1      -9.568   7.053  71.510  1.00  0.00    -0.159 C  
ENDROOT
BRANCH   2   3
HETATM    3  C   UNL     1     -10.722   6.067  71.323  1.00  0.00    -0.320 C  
BRANCH   3   4
HETATM    4  C   UNL     1     -10.984   5.784  69.842  1.00  0.00    -0.389 C  
HETATM    5  C   UNL     1      -9.727   5.354  69.043  1.00  0.00    -0.208 C  
HETATM    6  C   UNL     1      -8.997   4.132  69.643  1.00  0.00    -0.160 C  
HETATM    7  C   UNL     1     -10.065   5.101  67.552  1.00  0.00    -0.213 C  
HETATM    8  C   UNL     1      -9.780   2.826  69.594  1.00  0.00     0.070 C  
BRANCH   7   9
HETATM    9  C   UNL     1     -10.571   6.362  66.852  1.00  0.00    -0.379 C  
BRANCH   9  10
HETATM   10  C   UNL     1      -9.498   7.357  66.371  1.00  0.00    -0.134 C  
BRANCH  10  11
HETATM   11  C   UNL     1      -9.003   8.256  67.526  1.00  0.00    -0.141 C  
HETATM   12  C   UNL     1      -6.775   8.989  66.495  1.00  0.00    -0.075 C  
HETATM   13  C   UNL     1      -7.470   8.351  67.698  1.00  0.00    -0.094 C  
HETATM   14  C   UNL     1      -7.145   9.179  68.951  1.00  0.00    -0.068 C  
ENDBRANCH  10  11
BRANCH  10  15
HETATM   15  O   UNL     1      -8.369   6.611  65.897  1.00  0.00    -0.125 OA 
HETATM   16  O   UNL     1      -9.173   5.081  64.086  1.00  0.00    -0.019 OA 
HETATM   17  O   UNL     1      -8.302   7.392  63.521  1.00  0.00     0.011 OA 
HETATM   18  S   UNL     1      -8.279   6.199  64.326  1.00  0.00     0.017 S  
HETATM   19  O   UNL     1      -6.807   5.552  64.229  1.00  0.00    -0.045 OA 
ENDBRANCH  10  15
ENDBRANCH   9  10
ENDBRANCH   7   9
ENDBRANCH   3   4
ENDBRANCH   2   3
TORSDOF 6
ENDMDL
MODEL      355
REMARK 921   NORMALIZED FREE ENERGY PREDICTED BY IDOCK:   -2.07 KCAL/MOL
REMARK 922        TOTAL FREE ENERGY PREDICTED BY IDOCK:   -3.56 KCAL/MOL
REMARK 923 INTER-LIGAND FREE ENERGY PREDICTED BY IDOCK:   -3.76 KCAL/MOL
REMARK 924 INTRA-LIGAND FREE ENERGY PREDICTED BY IDOCK:    0.20 KCAL/MOL
REMARK 927      BINDING AFFINITY PREDICTED BY RF-SCORE:    0.00 PKD
ROOT
HETATM    1  C   UNL     1     -14.400   8.343  71.841  1.00  0.00    -0.561 C  
HETATM    2  C   UNL     1     -12.991   8.870  71.619  1.00  0.00    -0.404 C  
ENDROOT
BRANCH   2   3
HETATM    3  C   UNL     1     -11.964   7.739  71.712  1.00  0.00    -0.332 C  
BRANCH   3   4
HETATM    4  C   UNL     1     -11.073   7.687  70.469  1.00  0.00    -0.267 C  
HETATM    5  C   UNL     1      -9.805   8.575  70.554  1.00  0.00    -0.206 C  
HETATM    6  C   UNL     1      -8.924   8.282  71.788  1.00  0.00    -0.241 C  
HETATM    7  C   UNL     1      -8.963   8.483  69.257  1.00  0.00    -0.146 C  
HETATM    8  C   UNL     1      -8.265   6.909  71.798  1.00  0.00    -0.105 C  
BRANCH   7   9
HETATM    9  C   UNL     1      -9.727   8.994  68.035  1.00  0.00    -0.179 C  
BRANCH   9  10
HETATM   10  C   UNL     1      -8.912   9.798  67.004  1.00  0.00    -0.138 C  
BRANCH  10  11
HETATM   11  C   UNL     1      -9.392  11.264  66.922  1.00  0.00    -0.190 C  
HETATM   12  C   UNL     1     -10.942  11.033  64.895  1.00  0.00    -0.130 C  
HETATM   13  C   UNL     1      -9.756  11.777  65.511  1.00  0.00    -0.248 C  
HETATM   14  C   UNL     1     -10.098  13.274  65.582  1.00  0.00    -0.281 C  
ENDBRANCH  10  11
BRANCH  10  15
HETATM   15  O   UNL     1      -7.542   9.820  67.428  1.00  0.00    -0.091 OA 
HETATM   16  O   UNL     1      -6.557  12.003  66.700  1.00  0.00    -0.041 OA 
HETATM   17  O   UNL     1      -7.608  11.770  68.994  1.00  0.00    -0.089 OA 
HETATM   18  S   UNL     1      -6.866  11.226  67.887  1.00  0.00    -0.070 S  
HETATM   19  O   UNL     1      -5.426  10.749  68.429  1.00  0.00    -0.044 OA 
ENDBRANCH  10  15
ENDBRANCH   9  10
ENDBRANCH   7   9
ENDBRANCH   3   4
ENDBRANCH   2   3
TORSDOF 6
ENDMDL
MODEL      356
REMARK 921   NORMALIZED FREE ENERGY PREDICTED BY IDOCK:   -2.05 KCAL/MOL
REMARK 922        TOTAL FREE ENERGY PREDICTED BY IDOCK:   -3.54 KCAL/MOL
REMARK 923 INTER-LIGAND FREE ENERGY PREDICTED BY IDOCK:   -3.13 KCAL/MOL
REMARK 924 INTRA-LIGAND FREE ENERGY PREDICTED BY IDOCK:   -0.40 KCAL/MOL
REMARK 927      BINDING AFFINITY PREDICTED BY RF-SCORE:    0.00 PKD
ROOT
HETATM    1  C   UNL     1      -7.164   2.775  67.052  1.00  0.00    -0.057 C  
HETATM    2  C   UNL     1      -8.603   2.335  67.273  1.00  0.00    -0.119 C  
ENDROOT
BRANCH   2   3
HETATM    3  C   UNL     1      -9.526   3.544  67.429  1.00  0.00    -0.234 C  
BRANCH   3   4
HETATM    4  C   UNL     1      -8.779   4.751  68.003  1.00  0.00    -0.110 C  
HETATM    5  C   UNL     1      -9.629   5.635  68.952  1.00  0.00    -0.168 C  
HETATM    6  C   UNL     1     -10.259   4.856  70.128  1.00  0.00    -0.310 C  
HETATM    7  C   UNL     1      -8.814   6.842  69.480  1.00  0.00    -0.139 C  
HETATM    8  C   UNL     1      -9.264   4.297  71.137  1.00  0.00    -0.203 C  
BRANCH   7   9
HETATM    9  C   UNL     1      -8.370   7.776  68.354  1.00  0.00    -0.125 C  
BRANCH   9  10
HETATM   10  C   UNL     1      -9.228   7.764  67.074  1.00  0.00    -0.145 C  
BRANCH  10  11
HETATM   11  C   UNL     1     -10.409   8.756  67.176  1.00  0.00    -0.364 C  
HETATM   12  C   UNL     1      -9.060  10.900  67.555  1.00  0.00    -0.142 C  
HETATM   13  C   UNL     1     -10.176   9.992  68.073  1.00  0.00    -0.216 C  
HETATM   14  C   UNL     1     -11.473  10.811  68.164  1.00  0.00    -0.346 C  
ENDBRANCH  10  11
BRANCH  10  15
HETATM   15  O   UNL     1      -8.409   8.188  65.976  1.00  0.00    -0.116 OA 
HETATM   16  O   UNL     1      -6.363   6.747  65.954  1.00  0.00    -0.046 OA 
HETATM   17  O   UNL     1      -8.407   6.093  64.608  1.00  0.00    -0.123 OA 
HETATM   18  S   UNL     1      -7.529   7.090  65.160  1.00  0.00    -0.101 S  
HETATM   19  O   UNL     1      -6.933   7.967  63.948  1.00  0.00    -0.068 OA 
ENDBRANCH  10  15
ENDBRANCH   9  10
ENDBRANCH   7   9
ENDBRANCH   3   4
ENDBRANCH   2   3
TORSDOF 6
ENDMDL
MODEL      357
REMARK 921   NORMALIZED FREE ENERGY PREDICTED BY IDOCK:   -2.04 KCAL/MOL
REMARK 922        TOTAL FREE ENERGY PREDICTED BY IDOCK:   -3.52 KCAL/MOL
REMARK 923 INTER-LIGAND FREE ENERGY PREDICTED BY IDOCK:   -3.78 KCAL/MOL
REMARK 924 INTRA-LIGAND FREE ENERGY PREDICTED BY IDOCK:    0.26 KCAL/MOL
REMARK 927      BINDING AFFINITY PREDICTED BY RF-SCORE:    0.00 PKD
ROOT
HETATM    1  C   UNL     1      -9.136  11.070  62.609  1.00  0.00    -0.375 C  
HETATM    2  C   UNL     1     -10.580  11.519  62.771  1.00  0.00     0.167 C  
ENDROOT
BRANCH   2   3
HETATM    3  C   UNL     1     -10.930  11.708  64.249  1.00  0.00    -0.418 C  
BRANCH   3   4
HETATM    4  C   UNL     1      -9.672  11.809  65.115  1.00  0.00    -0.228 C  
HETATM    5  C   UNL     1      -9.728  10.975  66.421  1.00  0.00    -0.235 C  
HETATM    6  C   UNL     1     -10.033   9.478  66.189  1.00  0.00    -0.342 C  
HETATM    7  C   UNL     1      -8.431  11.138  67.251  1.00  0.00    -0.137 C  
HETATM    8  C   UNL     1      -8.947   8.707  65.449  1.00  0.00    -0.181 C  
BRANCH   7   9
HETATM    9  C   UNL     1      -8.215  12.581  67.709  1.00  0.00    -0.166 C  
BRANCH   9  10
HETATM   10  C   UNL     1      -9.457  13.328  68.231  1.00  0.00    -0.209 C  
BRANCH  10  11
HETATM   11  C   UNL     1      -9.768  14.576  67.375  1.00  0.00    -0.222 C  
HETATM   12  C   UNL     1     -10.512  16.143  69.261  1.00  0.00    -0.267 C  
HETATM   13  C   UNL     1     -10.874  15.508  67.918  1.00  0.00    -0.307 C  
HETATM   14  C   UNL     1     -11.145  16.629  66.901  1.00  0.00     0.187 C  
ENDBRANCH  10  11
BRANCH  10  15
HETATM   15  O   UNL     1     -10.588  12.451  68.133  1.00  0.00    -0.203 OA 
HETATM   16  O   UNL     1     -10.366  10.721  69.929  1.00  0.00    -0.127 OA 
HETATM   17  O   UNL     1     -11.648  12.864  70.361  1.00  0.00    -0.113 OA 
HETATM   18  S   UNL     1     -11.224  11.805  69.483  1.00  0.00    -0.147 S  
HETATM   19  O   UNL     1     -12.535  11.060  68.917  1.00  0.00    -0.460 OA 
ENDBRANCH  10  15
ENDBRANCH   9  10
ENDBRANCH   7   9
ENDBRANCH   3   4
ENDBRANCH   2   3
TORSDOF 6
ENDMDL
MODEL      358
REMARK 921   NORMALIZED FREE ENERGY PREDICTED BY IDOCK:   -2.03 KCAL/MOL
REMARK 922        TOTAL FREE ENERGY PREDICTED BY IDOCK:   -3.51 KCAL/MOL
REMARK 923 INTER-LIGAND FREE ENERGY PREDICTED BY IDOCK:   -3.34 KCAL/MOL
REMARK 924 INTRA-LIGAND FREE ENERGY PREDICTED BY IDOCK:   -0.16 KCAL/MOL
REMARK 927      BINDING AFFINITY PREDICTED BY RF-SCORE:    0.00 PKD
ROOT
HETATM    1  C   UNL     1     -12.501  10.650  70.259  1.00  0.00    -0.381 C  
HETATM    2  C   UNL     1     -12.143   9.903  71.534  1.00  0.00    -0.496 C  
ENDROOT
BRANCH   2   3
HETATM    3  C   UNL     1     -10.870   9.076  71.343  1.00  0.00    -0.400 C  
BRANCH   3   4
HETATM    4  C   UNL     1     -11.092   7.921  70.363  1.00  0.00    -0.249 C  
HETATM    5  C   UNL     1     -10.449   6.580  70.801  1.00  0.00    -0.262 C  
HETATM    6  C   UNL     1     -10.889   6.110  72.205  1.00  0.00    -0.284 C  
HETATM    7  C   UNL     1     -10.702   5.465  69.756  1.00  0.00    -0.280 C  
HETATM    8  C   UNL     1     -12.359   5.729  72.326  1.00  0.00     0.149 C  
BRANCH   7   9
HETATM    9  C   UNL     1     -10.069   5.788  68.402  1.00  0.00    -0.216 C  
BRANCH   9  10
HETATM   10  C   UNL     1      -8.602   5.357  68.210  1.00  0.00    -0.096 C  
BRANCH  10  11
HETATM   11  C   UNL     1      -8.496   3.856  67.860  1.00  0.00    -0.105 C  
HETATM   12  C   UNL     1      -8.338   4.081  65.313  1.00  0.00    -0.105 C  
HETATM   13  C   UNL     1      -9.075   3.440  66.489  1.00  0.00    -0.172 C  
HETATM   14  C   UNL     1      -9.001   1.912  66.344  1.00  0.00    -0.099 C  
ENDBRANCH  10  11
BRANCH  10  15
HETATM   15  O   UNL     1      -8.055   6.093  67.108  1.00  0.00    -0.105 OA 
HETATM   16  O   UNL     1      -7.802   8.475  67.833  1.00  0.00    -0.101 OA 
HETATM   17  O   UNL     1      -5.891   6.836  68.119  1.00  0.00    -0.018 OA 
HETATM   18  S   UNL     1      -7.033   7.325  67.392  1.00  0.00    -0.081 S  
HETATM   19  O   UNL     1      -6.556   7.720  65.906  1.00  0.00    -0.045 OA 
ENDBRANCH  10  15
ENDBRANCH   9  10
ENDBRANCH   7   9
ENDBRANCH   3   4
ENDBRANCH   2   3
TORSDOF 6
ENDMDL
MODEL      359
REMARK 921   NORMALIZED FREE ENERGY PREDICTED BY IDOCK:   -2.03 KCAL/MOL
REMARK 922        TOTAL FREE ENERGY PREDICTED BY IDOCK:   -3.50 KCAL/MOL
REMARK 923 INTER-LIGAND FREE ENERGY PREDICTED BY IDOCK:   -3.02 KCAL/MOL
REMARK 924 INTRA-LIGAND FREE ENERGY PREDICTED BY IDOCK:   -0.49 KCAL/MOL
REMARK 927      BINDING AFFINITY PREDICTED BY RF-SCORE:    0.00 PKD
ROOT
HETATM    1  C   UNL     1      -5.975   2.901  67.128  1.00  0.00    -0.024 C  
HETATM    2  C   UNL     1      -7.152   1.991  66.815  1.00  0.00    -0.051 C  
ENDROOT
BRANCH   2   3
HETATM    3  C   UNL     1      -8.439   2.526  67.446  1.00  0.00    -0.108 C  
BRANCH   3   4
HETATM    4  C   UNL     1      -8.142   3.527  68.564  1.00  0.00    -0.077 C  
HETATM    5  C   UNL     1      -9.259   3.640  69.633  1.00  0.00    -0.221 C  
HETATM    6  C   UNL     1      -9.634   2.291  70.284  1.00  0.00    -0.093 C  
HETATM    7  C   UNL     1      -8.897   4.681  70.721  1.00  0.00    -0.155 C  
HETATM    8  C   UNL     1      -8.541   1.660  71.137  1.00  0.00    -0.083 C  
BRANCH   7   9
HETATM    9  C   UNL     1      -8.749   6.091  70.147  1.00  0.00    -0.139 C  
BRANCH   9  10
HETATM   10  C   UNL     1      -9.967   6.652  69.388  1.00  0.00    -0.156 C  
BRANCH  10  11
HETATM   11  C   UNL     1     -11.012   7.247  70.358  1.00  0.00    -0.273 C  
HETATM   12  C   UNL     1      -9.533   9.033  71.447  1.00  0.00    -0.334 C  
HETATM   13  C   UNL     1     -10.455   7.834  71.674  1.00  0.00    -0.241 C  
HETATM   14  C   UNL     1     -11.620   8.273  72.574  1.00  0.00    -0.454 C  
ENDBRANCH  10  11
BRANCH  10  15
HETATM   15  O   UNL     1      -9.518   7.717  68.538  1.00  0.00    -0.146 OA 
HETATM   16  O   UNL     1      -7.390   6.976  67.449  1.00  0.00    -0.087 OA 
HETATM   17  O   UNL     1      -9.620   6.568  66.318  1.00  0.00    -0.140 OA 
HETATM   18  S   UNL     1      -8.755   7.366  67.145  1.00  0.00    -0.123 S  
HETATM   19  O   UNL     1      -8.605   8.819  66.467  1.00  0.00    -0.112 OA 
ENDBRANCH  10  15
ENDBRANCH   9  10
ENDBRANCH   7   9
ENDBRANCH   3   4
ENDBRANCH   2   3
TORSDOF 6
ENDMDL
MODEL      360
REMARK 921   NORMALIZED FREE ENERGY PREDICTED BY IDOCK:   -2.02 KCAL/MOL
REMARK 922        TOTAL FREE ENERGY PREDICTED BY IDOCK:   -3.49 KCAL/MOL
REMARK 923 INTER-LIGAND FREE ENERGY PREDICTED BY IDOCK:   -3.53 KCAL/MOL
REMARK 924 INTRA-LIGAND FREE ENERGY PREDICTED BY IDOCK:    0.04 KCAL/MOL
REMARK 927      BINDING AFFINITY PREDICTED BY RF-SCORE:    0.00 PKD
ROOT
HETATM    1  C   UNL     1      -5.712   3.106  65.485  1.00  0.00    -0.018 C  
HETATM    2  C   UNL     1      -6.489   1.806  65.624  1.00  0.00    -0.023 C  
ENDROOT
BRANCH   2   3
HETATM    3  C   UNL     1      -7.982   2.080  65.820  1.00  0.00    -0.078 C  
BRANCH   3   4
HETATM    4  C   UNL     1      -8.219   3.402  66.554  1.00  0.00    -0.096 C  
HETATM    5  C   UNL     1      -9.466   3.406  67.474  1.00  0.00    -0.227 C  
HETATM    6  C   UNL     1      -9.470   2.269  68.520  1.00  0.00    -0.213 C  
HETATM    7  C   UNL     1      -9.650   4.778  68.170  1.00  0.00    -0.200 C  
HETATM    8  C   UNL     1      -8.380   2.365  69.580  1.00  0.00    -0.076 C  
BRANCH   7   9
HETATM    9  C   UNL     1      -9.890   5.907  67.167  1.00  0.00    -0.162 C  
BRANCH   9  10
HETATM   10  C   UNL     1     -10.759   7.082  67.653  1.00  0.00    -0.261 C  
BRANCH  10  11
HETATM   11  C   UNL     1     -10.160   7.743  68.915  1.00  0.00    -0.201 C  
HETATM   12  C   UNL     1     -11.527   6.482  70.677  1.00  0.00    -0.433 C  
HETATM   13  C   UNL     1     -11.104   7.847  70.134  1.00  0.00    -0.204 C  
HETATM   14  C   UNL     1     -10.405   8.628  71.258  1.00  0.00    -0.308 C  
ENDBRANCH  10  11
BRANCH  10  15
HETATM   15  O   UNL     1     -10.790   8.079  66.623  1.00  0.00    -0.115 OA 
HETATM   16  O   UNL     1     -10.706  10.322  67.732  1.00  0.00    -0.233 OA 
HETATM   17  O   UNL     1      -8.570   9.166  67.009  1.00  0.00    -0.122 OA 
HETATM   18  S   UNL     1      -9.965   9.467  66.822  1.00  0.00    -0.257 S  
HETATM   19  O   UNL     1     -10.142  10.175  65.386  1.00  0.00    -0.303 OA 
ENDBRANCH  10  15
ENDBRANCH   9  10
ENDBRANCH   7   9
ENDBRANCH   3   4
ENDBRANCH   2   3
TORSDOF 6
ENDMDL
MODEL      361
REMARK 921   NORMALIZED FREE ENERGY PREDICTED BY IDOCK:   -2.01 KCAL/MOL
REMARK 922        TOTAL FREE ENERGY PREDICTED BY IDOCK:   -3.48 KCAL/MOL
REMARK 923 INTER-LIGAND FREE ENERGY PREDICTED BY IDOCK:   -2.70 KCAL/MOL
REMARK 924 INTRA-LIGAND FREE ENERGY PREDICTED BY IDOCK:   -0.78 KCAL/MOL
REMARK 927      BINDING AFFINITY PREDICTED BY RF-SCORE:    0.00 PKD
ROOT
HETATM    1  C   UNL     1      -8.830   4.528  62.934  1.00  0.00    -0.120 C  
HETATM    2  C   UNL     1      -9.627   3.566  63.801  1.00  0.00    -0.138 C  
ENDROOT
BRANCH   2   3
HETATM    3  C   UNL     1      -8.769   3.024  64.946  1.00  0.00    -0.106 C  
BRANCH   3   4
HETATM    4  C   UNL     1      -8.772   3.972  66.147  1.00  0.00    -0.116 C  
HETATM    5  C   UNL     1      -7.628   3.720  67.162  1.00  0.00    -0.079 C  
HETATM    6  C   UNL     1      -6.219   3.752  66.530  1.00  0.00    -0.032 C  
HETATM    7  C   UNL     1      -7.705   4.704  68.356  1.00  0.00    -0.080 C  
HETATM    8  C   UNL     1      -5.782   5.111  65.998  1.00  0.00    -0.018 C  
BRANCH   7   9
HETATM    9  C   UNL     1      -8.996   4.539  69.159  1.00  0.00    -0.145 C  
BRANCH   9  10
HETATM   10  C   UNL     1      -9.374   5.702  70.095  1.00  0.00    -0.154 C  
BRANCH  10  11
HETATM   11  C   UNL     1     -10.900   5.764  70.332  1.00  0.00    -0.360 C  
HETATM   12  C   UNL     1     -11.171   8.311  70.342  1.00  0.00    -0.222 C  
HETATM   13  C   UNL     1     -11.415   7.004  71.096  1.00  0.00    -0.333 C  
HETATM   14  C   UNL     1     -12.923   6.858  71.353  1.00  0.00    -0.339 C  
ENDBRANCH  10  11
BRANCH  10  15
HETATM   15  O   UNL     1      -8.754   5.480  71.369  1.00  0.00    -0.129 OA 
HETATM   16  O   UNL     1      -6.385   6.273  71.210  1.00  0.00    -0.045 OA 
HETATM   17  O   UNL     1      -8.212   7.838  72.003  1.00  0.00    -0.100 OA 
HETATM   18  S   UNL     1      -7.631   6.525  71.910  1.00  0.00    -0.094 S  
HETATM   19  O   UNL     1      -7.358   5.986  73.403  1.00  0.00    -0.088 OA 
ENDBRANCH  10  15
ENDBRANCH   9  10
ENDBRANCH   7   9
ENDBRANCH   3   4
ENDBRANCH   2   3
TORSDOF 6
ENDMDL
MODEL      362
REMARK 921   NORMALIZED FREE ENERGY PREDICTED BY IDOCK:   -1.95 KCAL/MOL
REMARK 922        TOTAL FREE ENERGY PREDICTED BY IDOCK:   -3.39 KCAL/MOL
REMARK 923 INTER-LIGAND FREE ENERGY PREDICTED BY IDOCK:   -2.76 KCAL/MOL
REMARK 924 INTRA-LIGAND FREE ENERGY PREDICTED BY IDOCK:   -0.64 KCAL/MOL
REMARK 927      BINDING AFFINITY PREDICTED BY RF-SCORE:    0.00 PKD
ROOT
HETATM    1  C   UNL     1     -11.495  13.348  65.473  1.00  0.00    -0.324 C  
HETATM    2  C   UNL     1     -11.450  11.847  65.231  1.00  0.00    -0.313 C  
ENDROOT
BRANCH   2   3
HETATM    3  C   UNL     1     -10.019  11.317  65.350  1.00  0.00    -0.297 C  
BRANCH   3   4
HETATM    4  C   UNL     1     -10.000   9.826  65.694  1.00  0.00    -0.352 C  
HETATM    5  C   UNL     1      -9.282   9.487  67.026  1.00  0.00    -0.166 C  
HETATM    6  C   UNL     1      -9.840  10.254  68.245  1.00  0.00    -0.161 C  
HETATM    7  C   UNL     1      -9.288   7.963  67.299  1.00  0.00    -0.180 C  
HETATM    8  C   UNL     1     -11.267   9.892  68.636  1.00  0.00    -0.122 C  
BRANCH   7   9
HETATM    9  C   UNL     1      -8.531   7.180  66.225  1.00  0.00    -0.138 C  
BRANCH   9  10
HETATM   10  C   UNL     1      -8.324   5.676  66.491  1.00  0.00    -0.110 C  
BRANCH  10  11
HETATM   11  C   UNL     1      -9.194   5.186  67.670  1.00  0.00    -0.127 C  
HETATM   12  C   UNL     1      -7.447   3.717  68.833  1.00  0.00    -0.053 C  
HETATM   13  C   UNL     1      -8.850   3.787  68.227  1.00  0.00    -0.147 C  
HETATM   14  C   UNL     1      -9.872   3.399  69.306  1.00  0.00     0.168 C  
ENDBRANCH  10  11
BRANCH  10  15
HETATM   15  O   UNL     1      -8.737   4.950  65.325  1.00  0.00    -0.135 OA 
HETATM   16  O   UNL     1      -7.786   6.117  63.326  1.00  0.00    -0.092 OA 
HETATM   17  O   UNL     1      -6.504   4.241  64.447  1.00  0.00    -0.039 OA 
HETATM   18  S   UNL     1      -7.741   4.856  64.043  1.00  0.00    -0.081 S  
HETATM   19  O   UNL     1      -8.525   3.830  63.080  1.00  0.00    -0.088 OA 
ENDBRANCH  10  15
ENDBRANCH   9  10
ENDBRANCH   7   9
ENDBRANCH   3   4
ENDBRANCH   2   3
TORSDOF 6
ENDMDL
MODEL      363
REMARK 921   NORMALIZED FREE ENERGY PREDICTED BY IDOCK:   -1.94 KCAL/MOL
REMARK 922        TOTAL FREE ENERGY PREDICTED BY IDOCK:   -3.38 KCAL/MOL
REMARK 923 INTER-LIGAND FREE ENERGY PREDICTED BY IDOCK:   -2.80 KCAL/MOL
REMARK 924 INTRA-LIGAND FREE ENERGY PREDICTED BY IDOCK:   -0.58 KCAL/MOL
REMARK 927      BINDING AFFINITY PREDICTED BY RF-SCORE:    0.00 PKD
ROOT
HETATM    1  C   UNL     1     -10.388  11.961  64.790  1.00  0.00    -0.323 C  
HETATM    2  C   UNL     1     -10.025  11.288  66.105  1.00  0.00    -0.268 C  
ENDROOT
BRANCH   2   3
HETATM    3  C   UNL     1      -9.432  12.298  67.090  1.00  0.00    -0.196 C  
BRANCH   3   4
HETATM    4  C   UNL     1      -8.691  11.599  68.232  1.00  0.00    -0.163 C  
HETATM    5  C   UNL     1      -7.993  10.276  67.824  1.00  0.00    -0.102 C  
HETATM    6  C   UNL     1      -7.014  10.430  66.639  1.00  0.00    -0.111 C  
HETATM    7  C   UNL     1      -7.278   9.619  69.031  1.00  0.00    -0.071 C  
HETATM    8  C   UNL     1      -5.783  11.280  66.927  1.00  0.00    -0.107 C  
BRANCH   7   9
HETATM    9  C   UNL     1      -8.257   9.229  70.140  1.00  0.00    -0.176 C  
BRANCH   9  10
HETATM   10  C   UNL     1      -8.467   7.720  70.369  1.00  0.00    -0.132 C  
BRANCH  10  11
HETATM   11  C   UNL     1      -7.831   7.256  71.699  1.00  0.00    -0.091 C  
HETATM   12  C   UNL     1      -6.619   5.175  70.825  1.00  0.00    -0.035 C  
HETATM   13  C   UNL     1      -7.610   5.734  71.847  1.00  0.00    -0.097 C  
HETATM   14  C   UNL     1      -7.086   5.427  73.259  1.00  0.00    -0.082 C  
ENDBRANCH  10  11
BRANCH  10  15
HETATM   15  O   UNL     1      -9.875   7.467  70.458  1.00  0.00    -0.180 OA 
HETATM   16  O   UNL     1     -10.861   7.842  68.188  1.00  0.00    -0.085 OA 
HETATM   17  O   UNL     1     -10.068   5.537  68.878  1.00  0.00    -0.165 OA 
HETATM   18  S   UNL     1     -10.657   6.813  69.191  1.00  0.00    -0.249 S  
HETATM   19  O   UNL     1     -12.127   6.557  69.795  1.00  0.00    -0.167 OA 
ENDBRANCH  10  15
ENDBRANCH   9  10
ENDBRANCH   7   9
ENDBRANCH   3   4
ENDBRANCH   2   3
TORSDOF 6
ENDMDL
MODEL      364
REMARK 921   NORMALIZED FREE ENERGY PREDICTED BY IDOCK:   -1.83 KCAL/MOL
REMARK 922        TOTAL FREE ENERGY PREDICTED BY IDOCK:   -3.24 KCAL/MOL
REMARK 923 INTER-LIGAND FREE ENERGY PREDICTED BY IDOCK:   -2.51 KCAL/MOL
REMARK 924 INTRA-LIGAND FREE ENERGY PREDICTED BY IDOCK:   -0.73 KCAL/MOL
REMARK 927      BINDING AFFINITY PREDICTED BY RF-SCORE:    0.00 PKD
ROOT
HETATM    1  C   UNL     1      -9.757   4.332  62.336  1.00  0.00    -0.135 C  
HETATM    2  C   UNL     1     -10.750   3.482  63.114  1.00  0.00    -0.215 C  
ENDROOT
BRANCH   2   3
HETATM    3  C   UNL     1     -10.025   2.518  64.055  1.00  0.00    -0.116 C  
BRANCH   3   4
HETATM    4  C   UNL     1      -9.358   3.260  65.215  1.00  0.00    -0.146 C  
HETATM    5  C   UNL     1      -8.041   2.613  65.714  1.00  0.00    -0.084 C  
HETATM    6  C   UNL     1      -6.987   2.415  64.602  1.00  0.00    -0.048 C  
HETATM    7  C   UNL     1      -7.433   3.408  66.896  1.00  0.00    -0.075 C  
HETATM    8  C   UNL     1      -6.422   3.701  64.012  1.00  0.00    -0.034 C  
BRANCH   7   9
HETATM    9  C   UNL     1      -8.356   3.426  68.116  1.00  0.00    -0.097 C  
BRANCH   9  10
HETATM   10  C   UNL     1      -8.673   4.809  68.715  1.00  0.00    -0.093 C  
BRANCH  10  11
HETATM   11  C   UNL     1      -9.577   5.638  67.776  1.00  0.00    -0.128 C  
HETATM   12  C   UNL     1      -7.996   7.617  67.392  1.00  0.00    -0.119 C  
HETATM   13  C   UNL     1      -9.389   7.170  67.837  1.00  0.00    -0.128 C  
HETATM   14  C   UNL     1     -10.434   7.852  66.941  1.00  0.00    -0.388 C  
ENDBRANCH  10  11
BRANCH  10  15
HETATM   15  O   UNL     1      -9.392   4.617  69.941  1.00  0.00    -0.117 OA 
HETATM   16  O   UNL     1      -7.816   5.087  71.828  1.00  0.00    -0.103 OA 
HETATM   17  O   UNL     1      -9.269   6.933  70.879  1.00  0.00    -0.156 OA 
HETATM   18  S   UNL     1      -9.052   5.553  71.227  1.00  0.00    -0.143 S  
HETATM   19  O   UNL     1     -10.190   5.111  72.277  1.00  0.00    -0.188 OA 
ENDBRANCH  10  15
ENDBRANCH   9  10
ENDBRANCH   7   9
ENDBRANCH   3   4
ENDBRANCH   2   3
TORSDOF 6
ENDMDL
MODEL      365
REMARK 921   NORMALIZED FREE ENERGY PREDICTED BY IDOCK:   -1.78 KCAL/MOL
REMARK 922        TOTAL FREE ENERGY PREDICTED BY IDOCK:   -3.16 KCAL/MOL
REMARK 923 INTER-LIGAND FREE ENERGY PREDICTED BY IDOCK:   -2.49 KCAL/MOL
REMARK 924 INTRA-LIGAND FREE ENERGY PREDICTED BY IDOCK:   -0.67 KCAL/MOL
REMARK 927      BINDING AFFINITY PREDICTED BY RF-SCORE:    0.00 PKD
ROOT
HETATM    1  C   UNL     1      -8.829   4.529  62.935  1.00  0.00    -0.120 C  
HETATM    2  C   UNL     1      -9.627   3.578  63.813  1.00  0.00    -0.138 C  
ENDROOT
BRANCH   2   3
HETATM    3  C   UNL     1      -8.763   3.028  64.949  1.00  0.00    -0.106 C  
BRANCH   3   4
HETATM    4  C   UNL     1      -8.727   3.986  66.142  1.00  0.00    -0.116 C  
HETATM    5  C   UNL     1      -8.780   3.287  67.524  1.00  0.00    -0.137 C  
HETATM    6  C   UNL     1      -7.674   2.227  67.727  1.00  0.00    -0.059 C  
HETATM    7  C   UNL     1      -8.756   4.318  68.680  1.00  0.00    -0.122 C  
HETATM    8  C   UNL     1      -6.255   2.779  67.783  1.00  0.00    -0.032 C  
BRANCH   7   9
HETATM    9  C   UNL     1      -9.972   5.244  68.654  1.00  0.00    -0.234 C  
BRANCH   9  10
HETATM   10  C   UNL     1      -9.865   6.541  69.479  1.00  0.00    -0.151 C  
BRANCH  10  11
HETATM   11  C   UNL     1     -10.768   7.654  68.903  1.00  0.00    -0.117 C  
HETATM   12  C   UNL     1      -9.202   9.642  69.297  1.00  0.00    -0.186 C  
HETATM   13  C   UNL     1     -10.595   9.055  69.529  1.00  0.00    -0.231 C  
HETATM   14  C   UNL     1     -11.638  10.015  68.936  1.00  0.00     0.029 C  
ENDBRANCH  10  11
BRANCH  10  15
HETATM   15  O   UNL     1     -10.319   6.269  70.812  1.00  0.00    -0.195 OA 
HETATM   16  O   UNL     1      -8.423   5.218  72.063  1.00  0.00    -0.123 OA 
HETATM   17  O   UNL     1      -8.755   7.729  72.107  1.00  0.00    -0.116 OA 
HETATM   18  S   UNL     1      -9.280   6.390  72.056  1.00  0.00    -0.146 S  
HETATM   19  O   UNL     1     -10.246   6.176  73.327  1.00  0.00    -0.185 OA 
ENDBRANCH  10  15
ENDBRANCH   9  10
ENDBRANCH   7   9
ENDBRANCH   3   4
ENDBRANCH   2   3
TORSDOF 6
ENDMDL
MODEL      366
REMARK 921   NORMALIZED FREE ENERGY PREDICTED BY IDOCK:   -1.77 KCAL/MOL
REMARK 922        TOTAL FREE ENERGY PREDICTED BY IDOCK:   -3.15 KCAL/MOL
REMARK 923 INTER-LIGAND FREE ENERGY PREDICTED BY IDOCK:   -2.41 KCAL/MOL
REMARK 924 INTRA-LIGAND FREE ENERGY PREDICTED BY IDOCK:   -0.75 KCAL/MOL
REMARK 927      BINDING AFFINITY PREDICTED BY RF-SCORE:    0.00 PKD
ROOT
HETATM    1  C   UNL     1      -6.079   2.748  67.051  1.00  0.00    -0.024 C  
HETATM    2  C   UNL     1      -7.114   1.676  66.747  1.00  0.00    -0.046 C  
ENDROOT
BRANCH   2   3
HETATM    3  C   UNL     1      -8.492   2.082  67.274  1.00  0.00    -0.099 C  
BRANCH   3   4
HETATM    4  C   UNL     1      -8.404   3.300  68.196  1.00  0.00    -0.094 C  
HETATM    5  C   UNL     1      -9.569   3.415  69.213  1.00  0.00    -0.137 C  
HETATM    6  C   UNL     1      -9.752   2.159  70.093  1.00  0.00     0.021 C  
HETATM    7  C   UNL     1      -9.421   4.677  70.099  1.00  0.00    -0.246 C  
HETATM    8  C   UNL     1      -8.609   1.876  71.059  1.00  0.00    -0.089 C  
BRANCH   7   9
HETATM    9  C   UNL     1      -9.475   5.968  69.281  1.00  0.00    -0.152 C  
BRANCH   9  10
HETATM   10  C   UNL     1      -8.324   6.968  69.503  1.00  0.00    -0.133 C  
BRANCH  10  11
HETATM   11  C   UNL     1      -7.183   6.751  68.484  1.00  0.00    -0.085 C  
HETATM   12  C   UNL     1      -8.371   7.651  66.400  1.00  0.00    -0.129 C  
HETATM   13  C   UNL     1      -7.621   6.475  67.029  1.00  0.00    -0.095 C  
HETATM   14  C   UNL     1      -6.385   6.165  66.171  1.00  0.00    -0.038 C  
ENDBRANCH  10  11
BRANCH  10  15
HETATM   15  O   UNL     1      -8.831   8.294  69.299  1.00  0.00    -0.141 OA 
HETATM   16  O   UNL     1     -10.947   8.510  70.619  1.00  0.00    -0.231 OA 
HETATM   17  O   UNL     1      -8.723   9.162  71.643  1.00  0.00    -0.343 OA 
HETATM   18  S   UNL     1      -9.605   9.054  70.511  1.00  0.00    -0.238 S  
HETATM   19  O   UNL     1      -9.827  10.527  69.900  1.00  0.00    -0.107 OA 
ENDBRANCH  10  15
ENDBRANCH   9  10
ENDBRANCH   7   9
ENDBRANCH   3   4
ENDBRANCH   2   3
TORSDOF 6
ENDMDL
MODEL      367
REMARK 921   NORMALIZED FREE ENERGY PREDICTED BY IDOCK:   -1.69 KCAL/MOL
REMARK 922        TOTAL FREE ENERGY PREDICTED BY IDOCK:   -3.05 KCAL/MOL
REMARK 923 INTER-LIGAND FREE ENERGY PREDICTED BY IDOCK:   -4.49 KCAL/MOL
REMARK 924 INTRA-LIGAND FREE ENERGY PREDICTED BY IDOCK:    1.44 KCAL/MOL
REMARK 927      BINDING AFFINITY PREDICTED BY RF-SCORE:    0.00 PKD
ROOT
HETATM    1  C   UNL     1      -9.448  12.591  64.461  1.00  0.00     0.338 C  
HETATM    2  C   UNL     1      -9.047  11.204  64.939  1.00  0.00    -0.111 C  
ENDROOT
BRANCH   2   3
HETATM    3  C   UNL     1      -8.214  11.288  66.220  1.00  0.00    -0.126 C  
BRANCH   3   4
HETATM    4  C   UNL     1      -9.102  11.429  67.458  1.00  0.00    -0.157 C  
HETATM    5  C   UNL     1     -10.592  11.074  67.219  1.00  0.00    -0.287 C  
HETATM    6  C   UNL     1     -10.807   9.662  66.632  1.00  0.00     0.001 C  
HETATM    7  C   UNL     1     -11.430  11.256  68.509  1.00  0.00    -0.372 C  
HETATM    8  C   UNL     1     -10.426   8.514  67.559  1.00  0.00    -0.328 C  
BRANCH   7   9
HETATM    9  C   UNL     1     -11.438  12.706  68.994  1.00  0.00    -0.354 C  
BRANCH   9  10
HETATM   10  C   UNL     1     -11.959  13.759  67.999  1.00  0.00    -0.355 C  
BRANCH  10  11
HETATM   11  C   UNL     1     -10.901  14.851  67.725  1.00  0.00    -0.286 C  
HETATM   12  C   UNL     1     -11.084  16.108  69.951  1.00  0.00    -0.357 C  
HETATM   13  C   UNL     1     -11.136  16.209  68.426  1.00  0.00    -0.359 C  
HETATM   14  C   UNL     1     -10.071  17.216  67.962  1.00  0.00    -0.311 C  
ENDBRANCH  10  11
BRANCH  10  15
HETATM   15  O   UNL     1     -12.232  13.107  66.751  1.00  0.00    -0.354 OA 
HETATM   16  O   UNL     1     -13.969  14.453  65.553  1.00  0.00     0.339 OA 
HETATM   17  O   UNL     1     -11.506  14.898  65.162  1.00  0.00    -0.353 OA 
HETATM   18  S   UNL     1     -12.595  13.999  65.440  1.00  0.00    -0.454 S  
HETATM   19  O   UNL     1     -12.644  12.887  64.276  1.00  0.00    -0.604 OA 
ENDBRANCH  10  15
ENDBRANCH   9  10
ENDBRANCH   7   9
ENDBRANCH   3   4
ENDBRANCH   2   3
TORSDOF 6
ENDMDL
MODEL      368
REMARK 921   NORMALIZED FREE ENERGY PREDICTED BY IDOCK:   -1.60 KCAL/MOL
REMARK 922        TOTAL FREE ENERGY PREDICTED BY IDOCK:   -2.92 KCAL/MOL
REMARK 923 INTER-LIGAND FREE ENERGY PREDICTED BY IDOCK:   -2.58 KCAL/MOL
REMARK 924 INTRA-LIGAND FREE ENERGY PREDICTED BY IDOCK:   -0.34 KCAL/MOL
REMARK 927      BINDING AFFINITY PREDICTED BY RF-SCORE:    0.00 PKD
ROOT
HETATM    1  C   UNL     1     -10.104  12.206  64.529  1.00  0.00    -0.286 C  
HETATM    2  C   UNL     1      -9.384  11.137  65.336  1.00  0.00    -0.243 C  
ENDROOT
BRANCH   2   3
HETATM    3  C   UNL     1      -8.456  11.771  66.375  1.00  0.00    -0.081 C  
BRANCH   3   4
HETATM    4  C   UNL     1      -7.515  10.734  66.994  1.00  0.00    -0.114 C  
HETATM    5  C   UNL     1      -7.304   9.466  66.127  1.00  0.00    -0.096 C  
HETATM    6  C   UNL     1      -6.811   9.768  64.695  1.00  0.00    -0.123 C  
HETATM    7  C   UNL     1      -6.356   8.458  66.822  1.00  0.00    -0.056 C  
HETATM    8  C   UNL     1      -5.410  10.362  64.608  1.00  0.00    -0.140 C  
BRANCH   7   9
HETATM    9  C   UNL     1      -6.926   7.947  68.146  1.00  0.00    -0.073 C  
BRANCH   9  10
HETATM   10  C   UNL     1      -7.810   6.687  68.071  1.00  0.00    -0.113 C  
BRANCH  10  11
HETATM   11  C   UNL     1      -9.240   6.968  68.585  1.00  0.00    -0.131 C  
HETATM   12  C   UNL     1      -8.761   6.834  71.099  1.00  0.00    -0.136 C  
HETATM   13  C   UNL     1      -9.611   6.317  69.937  1.00  0.00    -0.174 C  
HETATM   14  C   UNL     1     -11.090   6.591  70.249  1.00  0.00    -0.392 C  
ENDBRANCH  10  11
BRANCH  10  15
HETATM   15  O   UNL     1      -7.921   6.293  66.696  1.00  0.00    -0.106 OA 
HETATM   16  O   UNL     1      -6.251   4.473  66.290  1.00  0.00    -0.030 OA 
HETATM   17  O   UNL     1      -8.621   3.909  66.987  1.00  0.00    -0.102 OA 
HETATM   18  S   UNL     1      -7.678   4.739  66.284  1.00  0.00    -0.092 S  
HETATM   19  O   UNL     1      -8.070   4.738  64.722  1.00  0.00    -0.097 OA 
ENDBRANCH  10  15
ENDBRANCH   9  10
ENDBRANCH   7   9
ENDBRANCH   3   4
ENDBRANCH   2   3
TORSDOF 6
ENDMDL
MODEL      369
REMARK 921   NORMALIZED FREE ENERGY PREDICTED BY IDOCK:   -1.26 KCAL/MOL
REMARK 922        TOTAL FREE ENERGY PREDICTED BY IDOCK:   -2.46 KCAL/MOL
REMARK 923 INTER-LIGAND FREE ENERGY PREDICTED BY IDOCK:   -2.84 KCAL/MOL
REMARK 924 INTRA-LIGAND FREE ENERGY PREDICTED BY IDOCK:    0.38 KCAL/MOL
REMARK 927      BINDING AFFINITY PREDICTED BY RF-SCORE:    0.00 PKD
ROOT
HETATM    1  C   UNL     1     -10.765  11.424  63.316  1.00  0.00    -0.332 C  
HETATM    2  C   UNL     1     -12.126  11.652  63.957  1.00  0.00    -0.252 C  
ENDROOT
BRANCH   2   3
HETATM    3  C   UNL     1     -12.026  11.604  65.483  1.00  0.00     0.320 C  
BRANCH   3   4
HETATM    4  C   UNL     1     -10.626  11.990  65.966  1.00  0.00    -0.303 C  
HETATM    5  C   UNL     1     -10.552  12.376  67.466  1.00  0.00    -0.240 C  
HETATM    6  C   UNL     1     -11.105  11.289  68.415  1.00  0.00    -0.296 C  
HETATM    7  C   UNL     1      -9.112  12.769  67.878  1.00  0.00    -0.204 C  
HETATM    8  C   UNL     1     -10.299   9.997  68.453  1.00  0.00    -0.218 C  
BRANCH   7   9
HETATM    9  C   UNL     1      -8.610  14.001  67.124  1.00  0.00    -0.220 C  
BRANCH   9  10
HETATM   10  C   UNL     1      -9.392  15.309  67.350  1.00  0.00    -0.199 C  
BRANCH  10  11
HETATM   11  C   UNL     1      -9.966  15.861  66.026  1.00  0.00    -0.360 C  
HETATM   12  C   UNL     1     -12.408  15.161  66.361  1.00  0.00     0.583 C  
HETATM   13  C   UNL     1     -11.182  15.101  65.449  1.00  0.00    -0.338 C  
HETATM   14  C   UNL     1     -11.556  15.695  64.082  1.00  0.00    -0.082 C  
ENDBRANCH  10  11
BRANCH  10  15
HETATM   15  O   UNL     1     -10.503  15.029  68.213  1.00  0.00    -0.231 OA 
HETATM   16  O   UNL     1     -10.069  16.161  70.403  1.00  0.00     0.149 OA 
HETATM   17  O   UNL     1     -11.361  17.350  68.577  1.00  0.00     0.066 OA 
HETATM   18  S   UNL     1     -10.992  16.152  69.283  1.00  0.00    -0.332 S  
HETATM   19  O   UNL     1     -12.330  15.486  69.884  1.00  0.00    -0.357 OA 
ENDBRANCH  10  15
ENDBRANCH   9  10
ENDBRANCH   7   9
ENDBRANCH   3   4
ENDBRANCH   2   3
TORSDOF 6
ENDMDL
MODEL      370
REMARK 921   NORMALIZED FREE ENERGY PREDICTED BY IDOCK:   -0.49 KCAL/MOL
REMARK 922        TOTAL FREE ENERGY PREDICTED BY IDOCK:   -1.43 KCAL/MOL
REMARK 923 INTER-LIGAND FREE ENERGY PREDICTED BY IDOCK:   -2.64 KCAL/MOL
REMARK 924 INTRA-LIGAND FREE ENERGY PREDICTED BY IDOCK:    1.22 KCAL/MOL
REMARK 927      BINDING AFFINITY PREDICTED BY RF-SCORE:    0.00 PKD
ROOT
HETATM    1  C   UNL     1      -6.165  17.805  65.687  1.00  0.00    -0.142 C  
HETATM    2  C   UNL     1      -5.165  17.877  66.831  1.00  0.00    -0.162 C  
ENDROOT
BRANCH   2   3
HETATM    3  C   UNL     1      -5.448  16.793  67.873  1.00  0.00    -0.129 C  
BRANCH   3   4
HETATM    4  C   UNL     1      -6.878  16.262  67.756  1.00  0.00    -0.155 C  
HETATM    5  C   UNL     1      -6.977  14.720  67.622  1.00  0.00    -0.204 C  
HETATM    6  C   UNL     1      -6.270  13.951  68.759  1.00  0.00    -0.088 C  
HETATM    7  C   UNL     1      -8.449  14.258  67.492  1.00  0.00    -0.195 C  
HETATM    8  C   UNL     1      -6.897  14.119  70.137  1.00  0.00     0.122 C  
BRANCH   7   9
HETATM    9  C   UNL     1      -9.121  14.812  66.236  1.00  0.00    -0.231 C  
BRANCH   9  10
HETATM   10  C   UNL     1     -10.654  14.671  66.159  1.00  0.00    -0.312 C  
BRANCH  10  11
HETATM   11  C   UNL     1     -11.161  13.523  67.060  1.00  0.00    -0.330 C  
HETATM   12  C   UNL     1     -11.885  14.929  69.076  1.00  0.00    -0.333 C  
HETATM   13  C   UNL     1     -11.037  13.756  68.583  1.00  0.00    -0.293 C  
HETATM   14  C   UNL     1     -11.469  12.486  69.332  1.00  0.00    -0.327 C  
ENDBRANCH  10  11
BRANCH  10  15
HETATM   15  O   UNL     1     -11.246  15.885  66.640  1.00  0.00    -0.129 OA 
HETATM   16  O   UNL     1      -9.389  17.478  67.171  1.00  0.00    -0.242 OA 
HETATM   17  O   UNL     1     -10.461  17.475  64.876  1.00  0.00    -0.291 OA 
HETATM   18  S   UNL     1     -10.540  17.312  66.303  1.00  0.00    -0.108 S  
HETATM   19  O   UNL     1     -11.617  18.365  66.874  1.00  0.00     0.905 OA 
ENDBRANCH  10  15
ENDBRANCH   9  10
ENDBRANCH   7   9
ENDBRANCH   3   4
ENDBRANCH   2   3
TORSDOF 6
ENDMDL
MODEL      371
REMARK 921   NORMALIZED FREE ENERGY PREDICTED BY IDOCK:   -0.35 KCAL/MOL
REMARK 922        TOTAL FREE ENERGY PREDICTED BY IDOCK:   -1.24 KCAL/MOL
REMARK 923 INTER-LIGAND FREE ENERGY PREDICTED BY IDOCK:   -0.84 KCAL/MOL
REMARK 924 INTRA-LIGAND FREE ENERGY PREDICTED BY IDOCK:   -0.40 KCAL/MOL
REMARK 927      BINDING AFFINITY PREDICTED BY RF-SCORE:    0.00 PKD
ROOT
HETATM    1  C   UNL     1      -5.855  19.667  70.395  1.00  0.00    -0.304 C  
HETATM    2  C   UNL     1      -5.646  19.230  68.953  1.00  0.00    -0.217 C  
ENDROOT
BRANCH   2   3
HETATM    3  C   UNL     1      -5.339  17.734  68.874  1.00  0.00    -0.169 C  
BRANCH   3   4
HETATM    4  C   UNL     1      -6.543  16.891  69.301  1.00  0.00    -0.232 C  
HETATM    5  C   UNL     1      -6.183  15.463  69.788  1.00  0.00    -0.157 C  
HETATM    6  C   UNL     1      -5.150  15.441  70.936  1.00  0.00    -0.153 C  
HETATM    7  C   UNL     1      -7.449  14.666  70.186  1.00  0.00     0.352 C  
HETATM    8  C   UNL     1      -5.638  16.035  72.252  1.00  0.00     0.937 C  
BRANCH   7   9
HETATM    9  C   UNL     1      -8.397  14.458  69.004  1.00  0.00    -0.017 C  
BRANCH   9  10
HETATM   10  C   UNL     1      -9.493  13.389  69.184  1.00  0.00     0.521 C  
BRANCH  10  11
HETATM   11  C   UNL     1     -10.891  14.032  69.319  1.00  0.00    -0.192 C  
HETATM   12  C   UNL     1     -10.540  16.018  67.740  1.00  0.00    -0.309 C  
HETATM   13  C   UNL     1     -10.949  15.566  69.142  1.00  0.00    -0.259 C  
HETATM   14  C   UNL     1     -12.377  16.060  69.422  1.00  0.00     0.176 C  
ENDBRANCH  10  11
BRANCH  10  15
HETATM   15  O   UNL     1      -9.514  12.562  68.013  1.00  0.00    -0.196 OA 
HETATM   16  O   UNL     1      -7.768  10.791  68.301  1.00  0.00    -0.100 OA 
HETATM   17  O   UNL     1     -10.154  10.374  69.044  1.00  0.00    -0.192 OA 
HETATM   18  S   UNL     1      -9.200  10.971  68.147  1.00  0.00    -0.172 S  
HETATM   19  O   UNL     1      -9.504  10.440  66.658  1.00  0.00    -0.159 OA 
ENDBRANCH  10  15
ENDBRANCH   9  10
ENDBRANCH   7   9
ENDBRANCH   3   4
ENDBRANCH   2   3
TORSDOF 6
ENDMDL
MODEL      372
REMARK 921   NORMALIZED FREE ENERGY PREDICTED BY IDOCK:    0.06 KCAL/MOL
REMARK 922        TOTAL FREE ENERGY PREDICTED BY IDOCK:   -0.69 KCAL/MOL
REMARK 923 INTER-LIGAND FREE ENERGY PREDICTED BY IDOCK:   -1.52 KCAL/MOL
REMARK 924 INTRA-LIGAND FREE ENERGY PREDICTED BY IDOCK:    0.83 KCAL/MOL
REMARK 927      BINDING AFFINITY PREDICTED BY RF-SCORE:    0.00 PKD
ROOT
HETATM    1  C   UNL     1      -6.103   6.756  71.138  1.00  0.00    -0.036 C  
HETATM    2  C   UNL     1      -6.155   6.540  69.633  1.00  0.00    -0.022 C  
ENDROOT
BRANCH   2   3
HETATM    3  C   UNL     1      -6.041   7.871  68.886  1.00  0.00    -0.039 C  
BRANCH   3   4
HETATM    4  C   UNL     1      -7.419   8.445  68.548  1.00  0.00    -0.094 C  
HETATM    5  C   UNL     1      -7.845   8.251  67.070  1.00  0.00    -0.096 C  
HETATM    6  C   UNL     1      -7.810   6.779  66.601  1.00  0.00    -0.107 C  
HETATM    7  C   UNL     1      -9.239   8.869  66.799  1.00  0.00    -0.201 C  
HETATM    8  C   UNL     1      -8.826   5.865  67.273  1.00  0.00    -0.106 C  
BRANCH   7   9
HETATM    9  C   UNL     1      -9.254  10.382  67.024  1.00  0.00    -0.165 C  
BRANCH   9  10
HETATM   10  C   UNL     1      -8.359  11.222  66.094  1.00  0.00    -0.111 C  
BRANCH  10  11
HETATM   11  C   UNL     1      -7.521  10.326  65.154  1.00  0.00    -0.130 C  
HETATM   12  C   UNL     1      -5.212  11.309  65.666  1.00  0.00     0.078 C  
HETATM   13  C   UNL     1      -6.235  10.963  64.583  1.00  0.00     0.343 C  
HETATM   14  C   UNL     1      -5.584   9.996  63.583  1.00  0.00    -0.115 C  
ENDBRANCH  10  11
BRANCH  10  15
HETATM   15  O   UNL     1      -9.202  12.037  65.267  1.00  0.00    -0.026 OA 
HETATM   16  O   UNL     1      -9.686  10.751  63.175  1.00  0.00    -0.305 OA 
HETATM   17  O   UNL     1     -11.238  10.587  65.170  1.00  0.00     0.368 OA 
HETATM   18  S   UNL     1     -10.334  11.334  64.335  1.00  0.00    -0.353 S  
HETATM   19  O   UNL     1     -11.125  12.607  63.745  1.00  0.00    -0.402 OA 
ENDBRANCH  10  15
ENDBRANCH   9  10
ENDBRANCH   7   9
ENDBRANCH   3   4
ENDBRANCH   2   3
TORSDOF 6
ENDMDL
MODEL      373
REMARK 921   NORMALIZED FREE ENERGY PREDICTED BY IDOCK:    0.12 KCAL/MOL
REMARK 922        TOTAL FREE ENERGY PREDICTED BY IDOCK:   -0.59 KCAL/MOL
REMARK 923 INTER-LIGAND FREE ENERGY PREDICTED BY IDOCK:   -2.25 KCAL/MOL
REMARK 924 INTRA-LIGAND FREE ENERGY PREDICTED BY IDOCK:    1.66 KCAL/MOL
REMARK 927      BINDING AFFINITY PREDICTED BY RF-SCORE:    0.00 PKD
ROOT
HETATM    1  C   UNL     1      -5.237  15.418  71.383  1.00  0.00    -0.067 C  
HETATM    2  C   UNL     1      -5.579  14.846  70.015  1.00  0.00    -0.119 C  
ENDROOT
BRANCH   2   3
HETATM    3  C   UNL     1      -7.090  14.877  69.773  1.00  0.00    -0.156 C  
BRANCH   3   4
HETATM    4  C   UNL     1      -7.637  13.481  69.465  1.00  0.00     0.542 C  
HETATM    5  C   UNL     1      -6.598  12.510  68.849  1.00  0.00    -0.095 C  
HETATM    6  C   UNL     1      -5.320  12.347  69.701  1.00  0.00    -0.079 C  
HETATM    7  C   UNL     1      -7.226  11.126  68.550  1.00  0.00    -0.088 C  
HETATM    8  C   UNL     1      -5.525  11.666  71.048  1.00  0.00    -0.063 C  
BRANCH   7   9
HETATM    9  C   UNL     1      -8.352  11.213  67.519  1.00  0.00    -0.122 C  
BRANCH   9  10
HETATM   10  C   UNL     1      -8.427  10.069  66.489  1.00  0.00    -0.126 C  
BRANCH  10  11
HETATM   11  C   UNL     1      -8.779   8.724  67.163  1.00  0.00    -0.127 C  
HETATM   12  C   UNL     1      -7.975   7.157  65.303  1.00  0.00    -0.127 C  
HETATM   13  C   UNL     1      -9.138   7.564  66.208  1.00  0.00    -0.198 C  
HETATM   14  C   UNL     1      -9.575   6.341  67.028  1.00  0.00    -0.162 C  
ENDBRANCH  10  11
BRANCH  10  15
HETATM   15  O   UNL     1      -9.477  10.367  65.558  1.00  0.00    -0.185 OA 
HETATM   16  O   UNL     1     -11.549  10.850  66.877  1.00  0.00    -0.327 OA 
HETATM   17  O   UNL     1      -9.981  12.727  66.217  1.00  0.00    -0.254 OA 
HETATM   18  S   UNL     1     -10.613  11.462  65.951  1.00  0.00    -0.250 S  
HETATM   19  O   UNL     1     -11.447  11.592  64.579  1.00  0.00    -0.248 OA 
ENDBRANCH  10  15
ENDBRANCH   9  10
ENDBRANCH   7   9
ENDBRANCH   3   4
ENDBRANCH   2   3
TORSDOF 6
ENDMDL
MODEL      374
REMARK 921   NORMALIZED FREE ENERGY PREDICTED BY IDOCK:    0.34 KCAL/MOL
REMARK 922        TOTAL FREE ENERGY PREDICTED BY IDOCK:   -0.30 KCAL/MOL
REMARK 923 INTER-LIGAND FREE ENERGY PREDICTED BY IDOCK:   -2.63 KCAL/MOL
REMARK 924 INTRA-LIGAND FREE ENERGY PREDICTED BY IDOCK:    2.33 KCAL/MOL
REMARK 927      BINDING AFFINITY PREDICTED BY RF-SCORE:    0.00 PKD
ROOT
HETATM    1  C   UNL     1      -6.219  17.447  65.697  1.00  0.00     0.280 C  
HETATM    2  C   UNL     1      -5.306  17.053  66.847  1.00  0.00    -0.195 C  
ENDROOT
BRANCH   2   3
HETATM    3  C   UNL     1      -5.781  15.754  67.502  1.00  0.00    -0.112 C  
BRANCH   3   4
HETATM    4  C   UNL     1      -7.263  15.824  67.877  1.00  0.00    -0.154 C  
HETATM    5  C   UNL     1      -8.096  14.600  67.417  1.00  0.00    -0.216 C  
HETATM    6  C   UNL     1      -7.538  13.247  67.912  1.00  0.00    -0.152 C  
HETATM    7  C   UNL     1      -9.585  14.748  67.817  1.00  0.00    -0.209 C  
HETATM    8  C   UNL     1      -7.603  13.037  69.420  1.00  0.00     0.521 C  
BRANCH   7   9
HETATM    9  C   UNL     1     -10.246  15.955  67.150  1.00  0.00    -0.278 C  
BRANCH   9  10
HETATM   10  C   UNL     1     -11.529  16.489  67.815  1.00  0.00     0.132 C  
BRANCH  10  11
HETATM   11  C   UNL     1     -12.218  15.399  68.668  1.00  0.00     0.012 C  
HETATM   12  C   UNL     1     -11.432  16.184  70.976  1.00  0.00    -0.424 C  
HETATM   13  C   UNL     1     -11.505  15.022  69.985  1.00  0.00    -0.310 C  
HETATM   14  C   UNL     1     -12.245  13.852  70.652  1.00  0.00    -0.443 C  
ENDBRANCH  10  11
BRANCH  10  15
HETATM   15  O   UNL     1     -11.169  17.558  68.700  1.00  0.00     0.078 OA 
HETATM   16  O   UNL     1      -8.690  17.463  69.039  1.00  0.00    -0.191 OA 
HETATM   17  O   UNL     1      -9.680  18.884  67.189  1.00  0.00    -0.291 OA 
HETATM   18  S   UNL     1      -9.741  18.314  68.509  1.00  0.00    -0.372 S  
HETATM   19  O   UNL     1      -9.848  19.516  69.575  1.00  0.00    -0.307 OA 
ENDBRANCH  10  15
ENDBRANCH   9  10
ENDBRANCH   7   9
ENDBRANCH   3   4
ENDBRANCH   2   3
TORSDOF 6
ENDMDL
MODEL      375
REMARK 921   NORMALIZED FREE ENERGY PREDICTED BY IDOCK:    0.80 KCAL/MOL
REMARK 922        TOTAL FREE ENERGY PREDICTED BY IDOCK:    0.32 KCAL/MOL
REMARK 923 INTER-LIGAND FREE ENERGY PREDICTED BY IDOCK:    0.02 KCAL/MOL
REMARK 924 INTRA-LIGAND FREE ENERGY PREDICTED BY IDOCK:    0.31 KCAL/MOL
REMARK 927      BINDING AFFINITY PREDICTED BY RF-SCORE:    0.00 PKD
ROOT
HETATM    1  C   UNL     1      -5.857  19.668  70.403  1.00  0.00    -0.304 C  
HETATM    2  C   UNL     1      -5.677  19.161  68.981  1.00  0.00    -0.226 C  
ENDROOT
BRANCH   2   3
HETATM    3  C   UNL     1      -5.389  17.658  68.969  1.00  0.00    -0.172 C  
BRANCH   3   4
HETATM    4  C   UNL     1      -6.584  16.853  69.485  1.00  0.00    -0.203 C  
HETATM    5  C   UNL     1      -6.217  15.456  70.048  1.00  0.00    -0.146 C  
HETATM    6  C   UNL     1      -5.148  15.496  71.161  1.00  0.00    -0.149 C  
HETATM    7  C   UNL     1      -7.475  14.695  70.536  1.00  0.00     0.875 C  
HETATM    8  C   UNL     1      -5.587  16.173  72.453  1.00  0.00     1.162 C  
BRANCH   7   9
HETATM    9  C   UNL     1      -8.463  14.423  69.401  1.00  0.00     0.269 C  
BRANCH   9  10
HETATM   10  C   UNL     1      -8.183  15.134  68.063  1.00  0.00    -0.142 C  
BRANCH  10  11
HETATM   11  C   UNL     1      -7.711  14.137  66.981  1.00  0.00     0.128 C  
HETATM   12  C   UNL     1      -9.114  12.117  67.701  1.00  0.00    -0.181 C  
HETATM   13  C   UNL     1      -7.713  12.647  67.390  1.00  0.00    -0.161 C  
HETATM   14  C   UNL     1      -7.109  11.803  66.256  1.00  0.00     0.352 C  
ENDBRANCH  10  11
BRANCH  10  15
HETATM   15  O   UNL     1      -9.406  15.721  67.598  1.00  0.00    -0.213 OA 
HETATM   16  O   UNL     1      -9.650  17.950  68.709  1.00  0.00    -0.310 OA 
HETATM   17  O   UNL     1      -8.501  17.756  66.460  1.00  0.00    -0.248 OA 
HETATM   18  S   UNL     1      -9.501  17.333  67.404  1.00  0.00    -0.249 S  
HETATM   19  O   UNL     1     -10.949  17.507  66.720  1.00  0.00    -0.065 OA 
ENDBRANCH  10  15
ENDBRANCH   9  10
ENDBRANCH   7   9
ENDBRANCH   3   4
ENDBRANCH   2   3
TORSDOF 6
ENDMDL
MODEL      376
REMARK 921   NORMALIZED FREE ENERGY PREDICTED BY IDOCK:    0.98 KCAL/MOL
REMARK 922        TOTAL FREE ENERGY PREDICTED BY IDOCK:    0.56 KCAL/MOL
REMARK 923 INTER-LIGAND FREE ENERGY PREDICTED BY IDOCK:   -1.38 KCAL/MOL
REMARK 924 INTRA-LIGAND FREE ENERGY PREDICTED BY IDOCK:    1.95 KCAL/MOL
REMARK 927      BINDING AFFINITY PREDICTED BY RF-SCORE:    0.00 PKD
ROOT
HETATM    1  C   UNL     1      -5.192  16.289  71.889  1.00  0.00     0.370 C  
HETATM    2  C   UNL     1      -5.341  15.688  70.500  1.00  0.00    -0.157 C  
ENDROOT
BRANCH   2   3
HETATM    3  C   UNL     1      -6.797  15.748  70.033  1.00  0.00     0.058 C  
BRANCH   3   4
HETATM    4  C   UNL     1      -7.318  14.362  69.643  1.00  0.00     0.046 C  
HETATM    5  C   UNL     1      -6.207  13.316  69.373  1.00  0.00    -0.110 C  
HETATM    6  C   UNL     1      -5.216  13.144  70.546  1.00  0.00    -0.122 C  
HETATM    7  C   UNL     1      -6.807  11.946  68.969  1.00  0.00    -0.105 C  
HETATM    8  C   UNL     1      -5.815  12.545  71.812  1.00  0.00     1.010 C  
BRANCH   7   9
HETATM    9  C   UNL     1      -7.606  12.026  67.668  1.00  0.00    -0.136 C  
BRANCH   9  10
HETATM   10  C   UNL     1      -9.094  12.405  67.799  1.00  0.00    -0.193 C  
BRANCH  10  11
HETATM   11  C   UNL     1      -9.407  13.725  67.060  1.00  0.00    -0.250 C  
HETATM   12  C   UNL     1     -11.879  13.930  67.701  1.00  0.00    -0.422 C  
HETATM   13  C   UNL     1     -10.860  13.890  66.561  1.00  0.00    -0.295 C  
HETATM   14  C   UNL     1     -10.979  15.190  65.749  1.00  0.00    -0.350 C  
ENDBRANCH  10  11
BRANCH  10  15
HETATM   15  O   UNL     1      -9.880  11.375  67.186  1.00  0.00    -0.188 OA 
HETATM   16  O   UNL     1      -9.126  11.157  64.809  1.00  0.00    -0.174 OA 
HETATM   17  O   UNL     1      -8.077   9.734  66.624  1.00  0.00    -0.115 OA 
HETATM   18  S   UNL     1      -9.209  10.417  66.055  1.00  0.00    -0.175 S  
HETATM   19  O   UNL     1     -10.373   9.336  65.793  1.00  0.00    -0.078 OA 
ENDBRANCH  10  15
ENDBRANCH   9  10
ENDBRANCH   7   9
ENDBRANCH   3   4
ENDBRANCH   2   3
TORSDOF 6
ENDMDL
MODEL      377
REMARK 921   NORMALIZED FREE ENERGY PREDICTED BY IDOCK:    1.66 KCAL/MOL
REMARK 922        TOTAL FREE ENERGY PREDICTED BY IDOCK:    1.48 KCAL/MOL
REMARK 923 INTER-LIGAND FREE ENERGY PREDICTED BY IDOCK:    0.73 KCAL/MOL
REMARK 924 INTRA-LIGAND FREE ENERGY PREDICTED BY IDOCK:    0.76 KCAL/MOL
REMARK 927      BINDING AFFINITY PREDICTED BY RF-SCORE:    0.00 PKD
ROOT
HETATM    1  C   UNL     1      -5.128  16.298  71.827  1.00  0.00     0.211 C  
HETATM    2  C   UNL     1      -5.317  15.515  70.537  1.00  0.00    -0.142 C  
ENDROOT
BRANCH   2   3
HETATM    3  C   UNL     1      -6.800  15.410  70.174  1.00  0.00     0.035 C  
BRANCH   3   4
HETATM    4  C   UNL     1      -7.271  13.954  70.151  1.00  0.00     0.641 C  
HETATM    5  C   UNL     1      -6.124  12.912  70.189  1.00  0.00    -0.092 C  
HETATM    6  C   UNL     1      -5.165  13.087  71.386  1.00  0.00    -0.170 C  
HETATM    7  C   UNL     1      -6.675  11.465  70.147  1.00  0.00     0.156 C  
HETATM    8  C   UNL     1      -5.784  12.822  72.753  1.00  0.00     1.255 C  
BRANCH   7   9
HETATM    9  C   UNL     1      -7.438  11.173  68.854  1.00  0.00    -0.125 C  
BRANCH   9  10
HETATM   10  C   UNL     1      -7.459   9.705  68.387  1.00  0.00    -0.080 C  
BRANCH  10  11
HETATM   11  C   UNL     1      -8.421   8.853  69.245  1.00  0.00    -0.121 C  
HETATM   12  C   UNL     1      -7.446   6.545  68.712  1.00  0.00    -0.088 C  
HETATM   13  C   UNL     1      -8.698   7.423  68.729  1.00  0.00    -0.128 C  
HETATM   14  C   UNL     1      -9.757   6.753  69.618  1.00  0.00    -0.160 C  
ENDBRANCH  10  11
BRANCH  10  15
HETATM   15  O   UNL     1      -7.941   9.666  67.037  1.00  0.00    -0.108 OA 
HETATM   16  O   UNL     1      -6.137  10.573  65.558  1.00  0.00    -0.116 OA 
HETATM   17  O   UNL     1      -6.282   8.088  66.032  1.00  0.00    -0.044 OA 
HETATM   18  S   UNL     1      -6.904   9.369  65.821  1.00  0.00    -0.087 S  
HETATM   19  O   UNL     1      -7.892   9.249  64.555  1.00  0.00    -0.109 OA 
ENDBRANCH  10  15
ENDBRANCH   9  10
ENDBRANCH   7   9
ENDBRANCH   3   4
ENDBRANCH   2   3
TORSDOF 6
ENDMDL
MODEL      378
REMARK 921   NORMALIZED FREE ENERGY PREDICTED BY IDOCK:    2.00 KCAL/MOL
REMARK 922        TOTAL FREE ENERGY PREDICTED BY IDOCK:    1.95 KCAL/MOL
REMARK 923 INTER-LIGAND FREE ENERGY PREDICTED BY IDOCK:    0.92 KCAL/MOL
REMARK 924 INTRA-LIGAND FREE ENERGY PREDICTED BY IDOCK:    1.03 KCAL/MOL
REMARK 927      BINDING AFFINITY PREDICTED BY RF-SCORE:    0.00 PKD
ROOT
HETATM    1  C   UNL     1      -5.186  16.293  71.890  1.00  0.00     0.370 C  
HETATM    2  C   UNL     1      -5.440  15.659  70.531  1.00  0.00    -0.144 C  
ENDROOT
BRANCH   2   3
HETATM    3  C   UNL     1      -6.931  15.678  70.190  1.00  0.00     0.186 C  
BRANCH   3   4
HETATM    4  C   UNL     1      -7.457  14.270  69.896  1.00  0.00     0.343 C  
HETATM    5  C   UNL     1      -6.366  13.262  69.452  1.00  0.00    -0.111 C  
HETATM    6  C   UNL     1      -5.193  13.137  70.448  1.00  0.00    -0.114 C  
HETATM    7  C   UNL     1      -6.973  11.868  69.157  1.00  0.00    -0.079 C  
HETATM    8  C   UNL     1      -5.555  12.531  71.798  1.00  0.00     0.429 C  
BRANCH   7   9
HETATM    9  C   UNL     1      -7.976  11.905  68.003  1.00  0.00    -0.147 C  
BRANCH   9  10
HETATM   10  C   UNL     1      -8.048  10.648  67.116  1.00  0.00    -0.121 C  
BRANCH  10  11
HETATM   11  C   UNL     1      -9.454  10.007  67.158  1.00  0.00    -0.184 C  
HETATM   12  C   UNL     1     -10.834  12.116  66.696  1.00  0.00    -0.307 C  
HETATM   13  C   UNL     1     -10.601  10.928  67.631  1.00  0.00    -0.263 C  
HETATM   14  C   UNL     1     -11.902  10.117  67.730  1.00  0.00     1.247 C  
ENDBRANCH  10  11
BRANCH  10  15
HETATM   15  O   UNL     1      -7.795  11.035  65.759  1.00  0.00    -0.106 OA 
HETATM   16  O   UNL     1      -5.329  10.866  65.366  1.00  0.00    -0.140 OA 
HETATM   17  O   UNL     1      -6.846   8.898  64.870  1.00  0.00    -0.072 OA 
HETATM   18  S   UNL     1      -6.598  10.315  64.927  1.00  0.00    -0.069 S  
HETATM   19  O   UNL     1      -6.799  10.923  63.449  1.00  0.00     0.199 OA 
ENDBRANCH  10  15
ENDBRANCH   9  10
ENDBRANCH   7   9
ENDBRANCH   3   4
ENDBRANCH   2   3
TORSDOF 6
ENDMDL
MODEL      379
REMARK 921   NORMALIZED FREE ENERGY PREDICTED BY IDOCK:    2.27 KCAL/MOL
REMARK 922        TOTAL FREE ENERGY PREDICTED BY IDOCK:    2.31 KCAL/MOL
REMARK 923 INTER-LIGAND FREE ENERGY PREDICTED BY IDOCK:    1.23 KCAL/MOL
REMARK 924 INTRA-LIGAND FREE ENERGY PREDICTED BY IDOCK:    1.08 KCAL/MOL
REMARK 927      BINDING AFFINITY PREDICTED BY RF-SCORE:    0.00 PKD
ROOT
HETATM    1  C   UNL     1      -5.186  16.293  71.890  1.00  0.00     0.370 C  
HETATM    2  C   UNL     1      -5.440  15.659  70.531  1.00  0.00    -0.144 C  
ENDROOT
BRANCH   2   3
HETATM    3  C   UNL     1      -6.931  15.678  70.190  1.00  0.00     0.186 C  
BRANCH   3   4
HETATM    4  C   UNL     1      -7.457  14.270  69.896  1.00  0.00     0.343 C  
HETATM    5  C   UNL     1      -6.366  13.262  69.452  1.00  0.00    -0.111 C  
HETATM    6  C   UNL     1      -5.193  13.137  70.448  1.00  0.00    -0.114 C  
HETATM    7  C   UNL     1      -6.973  11.868  69.157  1.00  0.00    -0.079 C  
HETATM    8  C   UNL     1      -5.555  12.531  71.798  1.00  0.00     0.429 C  
BRANCH   7   9
HETATM    9  C   UNL     1      -7.976  11.905  68.003  1.00  0.00    -0.147 C  
BRANCH   9  10
HETATM   10  C   UNL     1      -9.443  12.188  68.379  1.00  0.00    -0.179 C  
BRANCH  10  11
HETATM   11  C   UNL     1      -9.958  13.482  67.710  1.00  0.00    -0.232 C  
HETATM   12  C   UNL     1      -9.208  12.982  65.311  1.00  0.00     0.642 C  
HETATM   13  C   UNL     1      -9.161  13.969  66.479  1.00  0.00    -0.173 C  
HETATM   14  C   UNL     1      -9.722  15.319  66.006  1.00  0.00    -0.367 C  
ENDBRANCH  10  11
BRANCH  10  15
HETATM   15  O   UNL     1     -10.251  11.107  67.895  1.00  0.00    -0.173 OA 
HETATM   16  O   UNL     1     -10.380   9.384  69.707  1.00  0.00    -0.199 OA 
HETATM   17  O   UNL     1     -12.133  11.206  69.540  1.00  0.00    -0.322 OA 
HETATM   18  S   UNL     1     -11.205  10.291  68.929  1.00  0.00    -0.172 S  
HETATM   19  O   UNL     1     -12.027   9.322  67.939  1.00  0.00     1.672 OA 
ENDBRANCH  10  15
ENDBRANCH   9  10
ENDBRANCH   7   9
ENDBRANCH   3   4
ENDBRANCH   2   3
TORSDOF 6
ENDMDL
MODEL      380
REMARK 921   NORMALIZED FREE ENERGY PREDICTED BY IDOCK:    2.41 KCAL/MOL
REMARK 922        TOTAL FREE ENERGY PREDICTED BY IDOCK:    2.50 KCAL/MOL
REMARK 923 INTER-LIGAND FREE ENERGY PREDICTED BY IDOCK:   -1.01 KCAL/MOL
REMARK 924 INTRA-LIGAND FREE ENERGY PREDICTED BY IDOCK:    3.51 KCAL/MOL
REMARK 927      BINDING AFFINITY PREDICTED BY RF-SCORE:    0.00 PKD
ROOT
HETATM    1  C   UNL     1     -10.641  14.134  71.140  1.00  0.00     2.279 C  
HETATM    2  C   UNL     1     -12.037  14.738  71.117  1.00  0.00    -0.391 C  
ENDROOT
BRANCH   2   3
HETATM    3  C   UNL     1     -12.488  15.015  69.681  1.00  0.00    -0.168 C  
BRANCH   3   4
HETATM    4  C   UNL     1     -11.486  14.468  68.662  1.00  0.00    -0.321 C  
HETATM    5  C   UNL     1     -10.670  13.248  69.162  1.00  0.00    -0.086 C  
HETATM    6  C   UNL     1     -11.546  12.074  69.653  1.00  0.00    -0.371 C  
HETATM    7  C   UNL     1      -9.668  12.759  68.086  1.00  0.00    -0.223 C  
HETATM    8  C   UNL     1     -12.373  11.391  68.571  1.00  0.00     0.294 C  
BRANCH   7   9
HETATM    9  C   UNL     1      -8.626  13.824  67.742  1.00  0.00    -0.184 C  
BRANCH   9  10
HETATM   10  C   UNL     1      -8.587  15.066  68.653  1.00  0.00    -0.174 C  
BRANCH  10  11
HETATM   11  C   UNL     1      -7.516  14.924  69.757  1.00  0.00    -0.067 C  
HETATM   12  C   UNL     1      -5.443  14.840  68.252  1.00  0.00    -0.117 C  
HETATM   13  C   UNL     1      -6.238  14.149  69.362  1.00  0.00    -0.109 C  
HETATM   14  C   UNL     1      -5.332  13.993  70.592  1.00  0.00    -0.127 C  
ENDBRANCH  10  11
BRANCH  10  15
HETATM   15  O   UNL     1      -8.229  16.202  67.854  1.00  0.00    -0.150 OA 
HETATM   16  O   UNL     1     -10.300  17.000  66.696  1.00  0.00    -0.308 OA 
HETATM   17  O   UNL     1      -9.638  17.957  68.946  1.00  0.00    -0.283 OA 
HETATM   18  S   UNL     1      -9.295  17.414  67.658  1.00  0.00    -0.248 S  
HETATM   19  O   UNL     1      -8.420  18.509  66.864  1.00  0.00    -0.257 OA 
ENDBRANCH  10  15
ENDBRANCH   9  10
ENDBRANCH   7   9
ENDBRANCH   3   4
ENDBRANCH   2   3
TORSDOF 6
ENDMDL
MODEL      381
REMARK 921   NORMALIZED FREE ENERGY PREDICTED BY IDOCK:    3.48 KCAL/MOL
REMARK 922        TOTAL FREE ENERGY PREDICTED BY IDOCK:    3.94 KCAL/MOL
REMARK 923 INTER-LIGAND FREE ENERGY PREDICTED BY IDOCK:   -0.13 KCAL/MOL
REMARK 924 INTRA-LIGAND FREE ENERGY PREDICTED BY IDOCK:    4.07 KCAL/MOL
REMARK 927      BINDING AFFINITY PREDICTED BY RF-SCORE:    0.00 PKD
ROOT
HETATM    1  C   UNL     1      -5.998  19.210  64.872  1.00  0.00    -0.316 C  
HETATM    2  C   UNL     1      -5.157  18.061  65.406  1.00  0.00    -0.186 C  
ENDROOT
BRANCH   2   3
HETATM    3  C   UNL     1      -6.034  16.853  65.744  1.00  0.00     1.175 C  
BRANCH   3   4
HETATM    4  C   UNL     1      -7.174  17.236  66.691  1.00  0.00    -0.278 C  
HETATM    5  C   UNL     1      -8.588  17.131  66.061  1.00  0.00    -0.140 C  
HETATM    6  C   UNL     1      -8.902  15.740  65.469  1.00  0.00     0.689 C  
HETATM    7  C   UNL     1      -9.687  17.548  67.070  1.00  0.00    -0.284 C  
HETATM    8  C   UNL     1      -9.001  14.612  66.489  1.00  0.00    -0.236 C  
BRANCH   7   9
HETATM    9  C   UNL     1      -9.550  19.008  67.504  1.00  0.00    -0.358 C  
BRANCH   9  10
HETATM   10  C   UNL     1      -9.859  19.315  68.981  1.00  0.00    -0.401 C  
BRANCH  10  11
HETATM   11  C   UNL     1     -10.388  18.066  69.720  1.00  0.00     0.643 C  
HETATM   12  C   UNL     1      -8.303  16.594  69.500  1.00  0.00     0.338 C  
HETATM   13  C   UNL     1      -9.808  16.711  69.256  1.00  0.00    -0.194 C  
HETATM   14  C   UNL     1     -10.517  15.568  69.999  1.00  0.00    -0.322 C  
ENDBRANCH  10  11
BRANCH  10  15
HETATM   15  O   UNL     1      -8.639  19.707  69.626  1.00  0.00     0.119 OA 
HETATM   16  O   UNL     1      -6.743  19.058  68.127  1.00  0.00    -0.227 OA 
HETATM   17  O   UNL     1      -7.782  21.362  67.958  1.00  0.00     0.170 OA 
HETATM   18  S   UNL     1      -7.382  20.214  68.728  1.00  0.00    -0.010 S  
HETATM   19  O   UNL     1      -6.336  20.699  69.853  1.00  0.00    -0.312 OA 
ENDBRANCH  10  15
ENDBRANCH   9  10
ENDBRANCH   7   9
ENDBRANCH   3   4
ENDBRANCH   2   3
TORSDOF 6
ENDMDL
MODEL      382
REMARK 921   NORMALIZED FREE ENERGY PREDICTED BY IDOCK:    6.71 KCAL/MOL
REMARK 922        TOTAL FREE ENERGY PREDICTED BY IDOCK:    8.30 KCAL/MOL
REMARK 923 INTER-LIGAND FREE ENERGY PREDICTED BY IDOCK:    8.17 KCAL/MOL
REMARK 924 INTRA-LIGAND FREE ENERGY PREDICTED BY IDOCK:    0.13 KCAL/MOL
REMARK 927      BINDING AFFINITY PREDICTED BY RF-SCORE:    0.00 PKD
ROOT
HETATM    1  C   UNL     1      -6.545   7.039  72.521  1.00  0.00    -0.057 C  
HETATM    2  C   UNL     1      -6.592   7.849  71.234  1.00  0.00    -0.041 C  
ENDROOT
BRANCH   2   3
HETATM    3  C   UNL     1      -6.729   9.343  71.534  1.00  0.00     0.097 C  
BRANCH   3   4
HETATM    4  C   UNL     1      -6.940  10.155  70.254  1.00  0.00    -0.150 C  
HETATM    5  C   UNL     1      -7.490  11.586  70.489  1.00  0.00     2.554 C  
HETATM    6  C   UNL     1      -6.632  12.430  71.457  1.00  0.00     3.453 C  
HETATM    7  C   UNL     1      -7.693  12.340  69.152  1.00  0.00     0.260 C  
HETATM    8  C   UNL     1      -5.241  12.782  70.946  1.00  0.00    -0.160 C  
BRANCH   7   9
HETATM    9  C   UNL     1      -8.725  11.657  68.254  1.00  0.00    -0.163 C  
BRANCH   9  10
HETATM   10  C   UNL     1      -9.934  12.512  67.827  1.00  0.00    -0.210 C  
BRANCH  10  11
HETATM   11  C   UNL     1      -9.753  13.991  68.236  1.00  0.00    -0.225 C  
HETATM   12  C   UNL     1     -11.445  14.052  70.159  1.00  0.00    -0.199 C  
HETATM   13  C   UNL     1     -10.997  14.681  68.839  1.00  0.00    -0.264 C  
HETATM   14  C   UNL     1     -10.691  16.168  69.080  1.00  0.00    -0.292 C  
ENDBRANCH  10  11
BRANCH  10  15
HETATM   15  O   UNL     1     -10.033  12.473  66.397  1.00  0.00    -0.240 OA 
HETATM   16  O   UNL     1      -7.943  13.484  65.462  1.00  0.00     2.945 OA 
HETATM   17  O   UNL     1      -8.091  10.988  65.870  1.00  0.00    -0.150 OA 
HETATM   18  S   UNL     1      -8.694  12.242  65.504  1.00  0.00     0.914 S  
HETATM   19  O   UNL     1      -9.297  12.099  64.018  1.00  0.00     0.097 OA 
ENDBRANCH  10  15
ENDBRANCH   9  10
ENDBRANCH   7   9
ENDBRANCH   3   4
ENDBRANCH   2   3
TORSDOF 6
ENDMDL
MODEL      383
REMARK 921   NORMALIZED FREE ENERGY PREDICTED BY IDOCK:    9.35 KCAL/MOL
REMARK 922        TOTAL FREE ENERGY PREDICTED BY IDOCK:   11.87 KCAL/MOL
REMARK 923 INTER-LIGAND FREE ENERGY PREDICTED BY IDOCK:   11.64 KCAL/MOL
REMARK 924 INTRA-LIGAND FREE ENERGY PREDICTED BY IDOCK:    0.23 KCAL/MOL
REMARK 927      BINDING AFFINITY PREDICTED BY RF-SCORE:    0.00 PKD
ROOT
HETATM    1  C   UNL     1      -6.551   7.046  72.541  1.00  0.00    -0.057 C  
HETATM    2  C   UNL     1      -6.579   7.993  71.351  1.00  0.00    -0.044 C  
ENDROOT
BRANCH   2   3
HETATM    3  C   UNL     1      -6.735   9.444  71.812  1.00  0.00     0.225 C  
BRANCH   3   4
HETATM    4  C   UNL     1      -6.877  10.398  70.623  1.00  0.00     0.145 C  
HETATM    5  C   UNL     1      -7.473  11.783  70.984  1.00  0.00     5.150 C  
HETATM    6  C   UNL     1      -6.702  12.519  72.101  1.00  0.00     5.629 C  
HETATM    7  C   UNL     1      -7.602  12.686  69.732  1.00  0.00     1.206 C  
HETATM    8  C   UNL     1      -5.287  12.949  71.732  1.00  0.00     0.011 C  
BRANCH   7   9
HETATM    9  C   UNL     1      -8.555  12.099  68.691  1.00  0.00     0.003 C  
BRANCH   9  10
HETATM   10  C   UNL     1      -9.741  12.988  68.269  1.00  0.00    -0.221 C  
BRANCH  10  11
HETATM   11  C   UNL     1      -9.544  13.554  66.845  1.00  0.00    -0.258 C  
HETATM   12  C   UNL     1      -9.008  15.977  67.481  1.00  0.00    -0.201 C  
HETATM   13  C   UNL     1      -9.899  15.046  66.658  1.00  0.00    -0.266 C  
HETATM   14  C   UNL     1      -9.764  15.422  65.174  1.00  0.00    -0.015 C  
ENDBRANCH  10  11
BRANCH  10  15
HETATM   15  O   UNL     1     -10.927  12.181  68.248  1.00  0.00    -0.209 OA 
HETATM   16  O   UNL     1     -10.595  10.387  66.534  1.00  0.00    -0.218 OA 
HETATM   17  O   UNL     1      -9.964   9.983  68.954  1.00  0.00    -0.175 OA 
HETATM   18  S   UNL     1     -10.808  10.586  67.956  1.00  0.00    -0.283 S  
HETATM   19  O   UNL     1     -12.319  10.084  68.200  1.00  0.00     1.216 OA 
ENDBRANCH  10  15
ENDBRANCH   9  10
ENDBRANCH   7   9
ENDBRANCH   3   4
ENDBRANCH   2   3
TORSDOF 6
ENDMDL
MODEL      384
REMARK 921   NORMALIZED FREE ENERGY PREDICTED BY IDOCK:   27.14 KCAL/MOL
REMARK 922        TOTAL FREE ENERGY PREDICTED BY IDOCK:   35.90 KCAL/MOL
REMARK 923 INTER-LIGAND FREE ENERGY PREDICTED BY IDOCK:   11.75 KCAL/MOL
REMARK 924 INTRA-LIGAND FREE ENERGY PREDICTED BY IDOCK:   24.15 KCAL/MOL
REMARK 927      BINDING AFFINITY PREDICTED BY RF-SCORE:    0.00 PKD
ROOT
HETATM    1  C   UNL     1      -9.662  13.096  63.973  1.00  0.00     0.787 C  
HETATM    2  C   UNL     1      -9.347  11.755  64.619  1.00  0.00     0.090 C  
ENDROOT
BRANCH   2   3
HETATM    3  C   UNL     1      -8.791  11.946  66.031  1.00  0.00    -0.007 C  
BRANCH   3   4
HETATM    4  C   UNL     1      -9.629  12.944  66.834  1.00  0.00    -0.240 C  
HETATM    5  C   UNL     1     -11.144  12.620  66.871  1.00  0.00    -0.315 C  
HETATM    6  C   UNL     1     -11.463  11.200  67.389  1.00  0.00    -0.261 C  
HETATM    7  C   UNL     1     -11.928  13.679  67.686  1.00  0.00    -0.386 C  
HETATM    8  C   UNL     1     -11.123  10.956  68.853  1.00  0.00    -0.307 C  
BRANCH   7   9
HETATM    9  C   UNL     1     -11.833  15.073  67.065  1.00  0.00    -0.124 C  
BRANCH   9  10
HETATM   10  C   UNL     1     -11.846  15.140  65.526  1.00  0.00     0.020 C  
BRANCH  10  11
HETATM   11  C   UNL     1     -10.563  14.527  64.922  1.00  0.00    -0.450 C  
HETATM   12  C   UNL     1      -8.870  15.512  66.574  1.00  0.00    -0.348 C  
HETATM   13  C   UNL     1      -9.270  15.352  65.106  1.00  0.00     0.979 C  
HETATM   14  C   UNL     1      -8.116  14.671  64.354  1.00  0.00    11.645 C  
ENDBRANCH  10  11
BRANCH  10  15
HETATM   15  O   UNL     1     -12.955  14.367  65.048  1.00  0.00    -0.643 OA 
HETATM   16  O   UNL     1     -12.031  12.375  63.847  1.00  0.00    -0.404 OA 
HETATM   17  O   UNL     1     -12.578  12.244  66.317  1.00  0.00    -0.184 OA 
HETATM   18  S   UNL     1     -12.840  12.745  64.994  1.00  0.00     0.019 S  
HETATM   19  O   UNL     1     -14.334  12.313  64.576  1.00  0.00     1.883 OA 
ENDBRANCH  10  15
ENDBRANCH   9  10
ENDBRANCH   7   9
ENDBRANCH   3   4
ENDBRANCH   2   3
TORSDOF 6
ENDMDL
