MODEL        1
REMARK 921   NORMALIZED FREE ENERGY PREDICTED BY IDOCK:   -6.93 KCAL/MOL
REMARK 922        TOTAL FREE ENERGY PREDICTED BY IDOCK:   -8.48 KCAL/MOL
REMARK 923 INTER-LIGAND FREE ENERGY PREDICTED BY IDOCK:   -8.15 KCAL/MOL
REMARK 924 INTRA-LIGAND FREE ENERGY PREDICTED BY IDOCK:   -0.34 KCAL/MOL
REMARK 927      BINDING AFFINITY PREDICTED BY RF-SCORE:    0.00 PKD
ROOT
HETATM    1  C   UNL     1      -7.154  17.689  66.214  1.00  0.00    -0.301 C  
HETATM    2  O   UNL     1      -8.511  17.756  65.788  1.00  0.00    -0.519 OA 
ENDROOT
BRANCH   2   3
HETATM    3  C   UNL     1      -9.401  16.926  66.427  1.00  0.00    -0.276 A  
HETATM    4  C   UNL     1     -10.428  17.305  67.301  1.00  0.00    -0.319 A  
HETATM    5  C   UNL     1     -11.247  16.310  67.840  1.00  0.00    -0.213 A  
HETATM    6  C   UNL     1      -9.174  15.561  66.178  1.00  0.00    -0.379 A  
HETATM    7  C   UNL     1     -10.989  14.941  67.644  1.00  0.00    -0.300 A  
HETATM    8  C   UNL     1      -9.951  14.563  66.796  1.00  0.00    -0.267 A  
HETATM    9  C   UNL     1     -11.782  13.926  68.459  1.00  0.00    -0.355 C  
HETATM   10  C   UNL     1     -11.492  14.205  69.935  1.00  0.00    -0.288 C  
HETATM   11  C   UNL     1     -12.374  13.292  70.710  1.00  0.00    -0.344 C  
HETATM   12  C   UNL     1     -12.042  11.826  70.545  1.00  0.00    -0.439 C  
HETATM   13  O   UNL     1     -13.291  13.725  71.403  1.00  0.00    -0.326 OA 
HETATM   14  C   UNL     1     -12.156  11.526  69.036  1.00  0.00    -0.238 C  
HETATM   15  C   UNL     1      -9.735  13.103  66.509  1.00  0.00    -0.268 C  
HETATM   16  C   UNL     1     -10.193  12.203  67.675  1.00  0.00    -0.197 C  
HETATM   17  N   UNL     1     -11.564  12.507  68.093  1.00  0.00    -0.319 NA 
BRANCH   4  18
HETATM   18  O   UNL     1     -10.596  18.629  67.616  1.00  0.00    -0.407 OA 
HETATM   19  C   UNL     1      -9.825  19.124  68.709  1.00  0.00    -0.439 C  
ENDBRANCH   4  18
BRANCH  12  20
HETATM   20  C   UNL     1     -12.976  11.007  71.459  1.00  0.00    -0.553 C  
HETATM   21  C   UNL     1     -12.897   9.476  71.366  1.00  0.00    -0.443 C  
HETATM   22  C   UNL     1     -13.929   8.864  72.325  1.00  0.00    -0.531 C  
HETATM   23  C   UNL     1     -11.511   8.933  71.714  1.00  0.00    -0.423 C  
ENDBRANCH  12  20
ENDBRANCH   2   3
TORSDOF 3
ENDMDL
MODEL        2
REMARK 921   NORMALIZED FREE ENERGY PREDICTED BY IDOCK:   -6.56 KCAL/MOL
REMARK 922        TOTAL FREE ENERGY PREDICTED BY IDOCK:   -8.04 KCAL/MOL
REMARK 923 INTER-LIGAND FREE ENERGY PREDICTED BY IDOCK:   -7.80 KCAL/MOL
REMARK 924 INTRA-LIGAND FREE ENERGY PREDICTED BY IDOCK:   -0.24 KCAL/MOL
REMARK 927      BINDING AFFINITY PREDICTED BY RF-SCORE:    0.00 PKD
ROOT
HETATM    1  C   UNL     1     -13.715   9.030  72.239  1.00  0.00    -0.492 C  
HETATM    2  O   UNL     1     -12.369   9.418  71.986  1.00  0.00    -0.366 OA 
ENDROOT
BRANCH   2   3
HETATM    3  C   UNL     1     -12.179  10.432  71.079  1.00  0.00    -0.393 A  
HETATM    4  C   UNL     1     -11.527  10.344  69.842  1.00  0.00    -0.297 A  
HETATM    5  C   UNL     1     -11.450  11.489  69.045  1.00  0.00    -0.355 A  
HETATM    6  C   UNL     1     -12.666  11.676  71.516  1.00  0.00    -0.423 A  
HETATM    7  C   UNL     1     -11.881  12.749  69.501  1.00  0.00    -0.379 A  
HETATM    8  C   UNL     1     -12.505  12.841  70.742  1.00  0.00    -0.357 A  
HETATM    9  C   UNL     1     -11.542  13.980  68.669  1.00  0.00    -0.325 C  
HETATM   10  C   UNL     1     -10.017  14.061  68.579  1.00  0.00    -0.230 C  
HETATM   11  C   UNL     1      -9.716  15.189  67.657  1.00  0.00    -0.211 C  
HETATM   12  C   UNL     1     -10.121  16.545  68.189  1.00  0.00    -0.255 C  
HETATM   13  O   UNL     1      -9.194  14.997  66.562  1.00  0.00    -0.256 OA 
HETATM   14  C   UNL     1     -11.638  16.466  68.459  1.00  0.00    -0.100 C  
HETATM   15  C   UNL     1     -13.053  14.168  71.189  1.00  0.00    -0.398 C  
HETATM   16  C   UNL     1     -12.274  15.355  70.586  1.00  0.00    -0.385 C  
HETATM   17  N   UNL     1     -12.155  15.248  69.131  1.00  0.00    -0.276 NA 
BRANCH   4  18
HETATM   18  O   UNL     1     -10.971   9.153  69.451  1.00  0.00    -0.197 OA 
HETATM   19  C   UNL     1     -10.502   9.082  68.106  1.00  0.00    -0.207 C  
ENDBRANCH   4  18
BRANCH  12  20
HETATM   20  C   UNL     1      -9.681  17.620  67.175  1.00  0.00    -0.291 C  
HETATM   21  C   UNL     1     -10.342  19.002  67.272  1.00  0.00    -0.505 C  
HETATM   22  C   UNL     1      -9.790  19.900  66.155  1.00  0.00    -0.562 C  
HETATM   23  C   UNL     1     -10.100  19.680  68.621  1.00  0.00    -0.547 C  
ENDBRANCH  12  20
ENDBRANCH   2   3
TORSDOF 3
ENDMDL
MODEL        3
REMARK 921   NORMALIZED FREE ENERGY PREDICTED BY IDOCK:   -6.45 KCAL/MOL
REMARK 922        TOTAL FREE ENERGY PREDICTED BY IDOCK:   -7.92 KCAL/MOL
REMARK 923 INTER-LIGAND FREE ENERGY PREDICTED BY IDOCK:   -7.64 KCAL/MOL
REMARK 924 INTRA-LIGAND FREE ENERGY PREDICTED BY IDOCK:   -0.27 KCAL/MOL
REMARK 927      BINDING AFFINITY PREDICTED BY RF-SCORE:    0.00 PKD
ROOT
HETATM    1  C   UNL     1     -12.802   8.602  72.130  1.00  0.00    -0.391 C  
HETATM    2  O   UNL     1     -11.632   8.738  71.330  1.00  0.00    -0.265 OA 
ENDROOT
BRANCH   2   3
HETATM    3  C   UNL     1     -11.574   9.835  70.504  1.00  0.00    -0.292 A  
HETATM    4  C   UNL     1     -11.003   9.897  69.226  1.00  0.00    -0.211 A  
HETATM    5  C   UNL     1     -11.058  11.105  68.528  1.00  0.00    -0.298 A  
HETATM    6  C   UNL     1     -12.114  10.999  71.076  1.00  0.00    -0.406 A  
HETATM    7  C   UNL     1     -11.542  12.289  69.117  1.00  0.00    -0.373 A  
HETATM    8  C   UNL     1     -12.086  12.232  70.398  1.00  0.00    -0.385 A  
HETATM    9  C   UNL     1     -11.345  13.605  68.375  1.00  0.00    -0.295 C  
HETATM   10  C   UNL     1      -9.839  13.805  68.199  1.00  0.00    -0.239 C  
HETATM   11  C   UNL     1      -9.678  15.024  67.362  1.00  0.00    -0.216 C  
HETATM   12  C   UNL     1     -10.138  16.298  68.033  1.00  0.00    -0.245 C  
HETATM   13  O   UNL     1      -9.220  14.962  66.224  1.00  0.00    -0.287 OA 
HETATM   14  C   UNL     1     -11.625  16.086  68.387  1.00  0.00    -0.279 C  
HETATM   15  C   UNL     1     -12.692  13.474  70.991  1.00  0.00    -0.399 C  
HETATM   16  C   UNL     1     -12.038  14.761  70.446  1.00  0.00    -0.321 C  
HETATM   17  N   UNL     1     -12.010  14.782  68.982  1.00  0.00    -0.295 NA 
BRANCH   4  18
HETATM   18  O   UNL     1     -10.395   8.786  68.700  1.00  0.00    -0.204 OA 
HETATM   19  C   UNL     1     -10.521   8.599  67.291  1.00  0.00    -0.289 C  
ENDBRANCH   4  18
BRANCH  12  20
HETATM   20  C   UNL     1      -9.842  17.482  67.091  1.00  0.00    -0.297 C  
HETATM   21  C   UNL     1     -10.460  18.843  67.443  1.00  0.00    -0.520 C  
HETATM   22  C   UNL     1     -10.071  19.863  66.362  1.00  0.00    -0.615 C  
HETATM   23  C   UNL     1     -10.003  19.364  68.806  1.00  0.00    -0.522 C  
ENDBRANCH  12  20
ENDBRANCH   2   3
TORSDOF 3
ENDMDL
MODEL        4
REMARK 921   NORMALIZED FREE ENERGY PREDICTED BY IDOCK:   -6.44 KCAL/MOL
REMARK 922        TOTAL FREE ENERGY PREDICTED BY IDOCK:   -7.90 KCAL/MOL
REMARK 923 INTER-LIGAND FREE ENERGY PREDICTED BY IDOCK:   -7.55 KCAL/MOL
REMARK 924 INTRA-LIGAND FREE ENERGY PREDICTED BY IDOCK:   -0.35 KCAL/MOL
REMARK 927      BINDING AFFINITY PREDICTED BY RF-SCORE:    0.00 PKD
ROOT
HETATM    1  C   UNL     1     -10.694   7.108  67.000  1.00  0.00    -0.350 C  
HETATM    2  O   UNL     1      -9.820   7.989  66.303  1.00  0.00    -0.195 OA 
ENDROOT
BRANCH   2   3
HETATM    3  C   UNL     1     -10.176   9.316  66.273  1.00  0.00    -0.203 A  
HETATM    4  C   UNL     1     -10.014  10.207  65.204  1.00  0.00    -0.309 A  
HETATM    5  C   UNL     1     -10.458  11.522  65.359  1.00  0.00    -0.333 A  
HETATM    6  C   UNL     1     -10.706   9.783  67.488  1.00  0.00    -0.327 A  
HETATM    7  C   UNL     1     -10.933  12.012  66.590  1.00  0.00    -0.330 A  
HETATM    8  C   UNL     1     -11.070  11.132  67.661  1.00  0.00    -0.348 A  
HETATM    9  C   UNL     1     -11.170  13.510  66.736  1.00  0.00    -0.310 C  
HETATM   10  C   UNL     1      -9.829  14.206  66.492  1.00  0.00    -0.298 C  
HETATM   11  C   UNL     1     -10.111  15.666  66.510  1.00  0.00    -0.282 C  
HETATM   12  C   UNL     1     -10.554  16.193  67.856  1.00  0.00    -0.309 C  
HETATM   13  O   UNL     1      -9.996  16.352  65.497  1.00  0.00    -0.518 OA 
HETATM   14  C   UNL     1     -11.823  15.399  68.232  1.00  0.00    -0.206 C  
HETATM   15  C   UNL     1     -11.668  11.630  68.947  1.00  0.00    -0.397 C  
HETATM   16  C   UNL     1     -11.411  13.136  69.166  1.00  0.00    -0.305 C  
HETATM   17  N   UNL     1     -11.809  13.933  68.004  1.00  0.00    -0.360 NA 
BRANCH   4  18
HETATM   18  O   UNL     1      -9.415   9.778  64.048  1.00  0.00    -0.242 OA 
HETATM   19  C   UNL     1      -9.537  10.635  62.914  1.00  0.00    -0.327 C  
ENDBRANCH   4  18
BRANCH  12  20
HETATM   20  C   UNL     1     -10.733  17.721  67.750  1.00  0.00    -0.332 C  
HETATM   21  C   UNL     1      -9.846  18.604  68.640  1.00  0.00    -0.427 C  
HETATM   22  C   UNL     1     -10.211  20.077  68.405  1.00  0.00    -0.510 C  
HETATM   23  C   UNL     1      -8.355  18.411  68.364  1.00  0.00    -0.328 C  
ENDBRANCH  12  20
ENDBRANCH   2   3
TORSDOF 3
ENDMDL
MODEL        5
REMARK 921   NORMALIZED FREE ENERGY PREDICTED BY IDOCK:   -6.20 KCAL/MOL
REMARK 922        TOTAL FREE ENERGY PREDICTED BY IDOCK:   -7.62 KCAL/MOL
REMARK 923 INTER-LIGAND FREE ENERGY PREDICTED BY IDOCK:   -7.33 KCAL/MOL
REMARK 924 INTRA-LIGAND FREE ENERGY PREDICTED BY IDOCK:   -0.29 KCAL/MOL
REMARK 927      BINDING AFFINITY PREDICTED BY RF-SCORE:    0.00 PKD
ROOT
HETATM    1  C   UNL     1     -11.407   9.332  71.603  1.00  0.00    -0.397 C  
HETATM    2  O   UNL     1     -12.406   9.843  70.727  1.00  0.00    -0.295 OA 
ENDROOT
BRANCH   2   3
HETATM    3  C   UNL     1     -12.090  10.985  70.030  1.00  0.00    -0.364 A  
HETATM    4  C   UNL     1     -11.553  11.061  68.738  1.00  0.00    -0.318 A  
HETATM    5  C   UNL     1     -11.316  12.323  68.188  1.00  0.00    -0.349 A  
HETATM    6  C   UNL     1     -12.303  12.167  70.761  1.00  0.00    -0.391 A  
HETATM    7  C   UNL     1     -11.470  13.506  68.934  1.00  0.00    -0.348 A  
HETATM    8  C   UNL     1     -11.979  13.428  70.228  1.00  0.00    -0.378 A  
HETATM    9  C   UNL     1     -10.963  14.814  68.339  1.00  0.00    -0.252 C  
HETATM   10  C   UNL     1      -9.460  14.653  68.104  1.00  0.00    -0.212 C  
HETATM   11  C   UNL     1      -9.015  15.888  67.405  1.00  0.00    -0.192 C  
HETATM   12  C   UNL     1      -9.120  17.143  68.242  1.00  0.00    -0.259 C  
HETATM   13  O   UNL     1      -8.615  15.856  66.244  1.00  0.00    -0.312 OA 
HETATM   14  C   UNL     1     -10.602  17.265  68.650  1.00  0.00    -0.329 C  
HETATM   15  C   UNL     1     -12.235  14.698  70.992  1.00  0.00    -0.399 C  
HETATM   16  C   UNL     1     -11.289  15.839  70.563  1.00  0.00    -0.380 C  
HETATM   17  N   UNL     1     -11.292  16.035  69.112  1.00  0.00    -0.342 NA 
BRANCH   4  18
HETATM   18  O   UNL     1     -11.260   9.909  68.056  1.00  0.00    -0.214 OA 
HETATM   19  C   UNL     1     -10.406  10.042  66.921  1.00  0.00    -0.234 C  
ENDBRANCH   4  18
BRANCH  12  20
HETATM   20  C   UNL     1      -8.555  18.323  67.427  1.00  0.00    -0.250 C  
HETATM   21  C   UNL     1      -7.992  19.521  68.206  1.00  0.00    -0.368 C  
HETATM   22  C   UNL     1      -7.521  20.590  67.209  1.00  0.00    -0.384 C  
HETATM   23  C   UNL     1      -6.823  19.138  69.114  1.00  0.00    -0.361 C  
ENDBRANCH  12  20
ENDBRANCH   2   3
TORSDOF 3
ENDMDL
MODEL        6
REMARK 921   NORMALIZED FREE ENERGY PREDICTED BY IDOCK:   -6.11 KCAL/MOL
REMARK 922        TOTAL FREE ENERGY PREDICTED BY IDOCK:   -7.52 KCAL/MOL
REMARK 923 INTER-LIGAND FREE ENERGY PREDICTED BY IDOCK:   -7.23 KCAL/MOL
REMARK 924 INTRA-LIGAND FREE ENERGY PREDICTED BY IDOCK:   -0.29 KCAL/MOL
REMARK 927      BINDING AFFINITY PREDICTED BY RF-SCORE:    0.00 PKD
ROOT
HETATM    1  C   UNL     1     -10.736   8.022  72.824  1.00  0.00    -0.362 C  
HETATM    2  O   UNL     1     -11.853   8.166  71.954  1.00  0.00    -0.282 OA 
ENDROOT
BRANCH   2   3
HETATM    3  C   UNL     1     -11.802   9.197  71.048  1.00  0.00    -0.292 A  
HETATM    4  C   UNL     1     -11.253   9.159  69.759  1.00  0.00    -0.056 A  
HETATM    5  C   UNL     1     -11.312  10.312  68.974  1.00  0.00    -0.237 A  
HETATM    6  C   UNL     1     -12.325  10.405  71.540  1.00  0.00    -0.468 A  
HETATM    7  C   UNL     1     -11.778  11.540  69.481  1.00  0.00    -0.413 A  
HETATM    8  C   UNL     1     -12.300  11.583  70.771  1.00  0.00    -0.472 A  
HETATM    9  C   UNL     1     -11.586  12.795  68.639  1.00  0.00    -0.314 C  
HETATM   10  C   UNL     1     -10.081  12.970  68.423  1.00  0.00    -0.225 C  
HETATM   11  C   UNL     1      -9.927  14.122  67.495  1.00  0.00    -0.236 C  
HETATM   12  C   UNL     1     -10.367  15.446  68.076  1.00  0.00    -0.249 C  
HETATM   13  O   UNL     1      -9.489  13.971  66.357  1.00  0.00    -0.282 OA 
HETATM   14  C   UNL     1     -11.849  15.273  68.470  1.00  0.00    -0.281 C  
HETATM   15  C   UNL     1     -12.888  12.871  71.280  1.00  0.00    -0.361 C  
HETATM   16  C   UNL     1     -12.235  14.108  70.629  1.00  0.00    -0.362 C  
HETATM   17  N   UNL     1     -12.233  14.020  69.167  1.00  0.00    -0.323 NA 
BRANCH   4  18
HETATM   18  O   UNL     1     -10.661   8.007  69.308  1.00  0.00    -0.222 OA 
HETATM   19  C   UNL     1     -10.430   7.920  67.903  1.00  0.00    -0.198 C  
ENDBRANCH   4  18
BRANCH  12  20
HETATM   20  C   UNL     1     -10.079  16.554  67.043  1.00  0.00    -0.279 C  
HETATM   21  C   UNL     1     -10.524  17.982  67.390  1.00  0.00    -0.399 C  
HETATM   22  C   UNL     1     -10.177  18.912  66.217  1.00  0.00    -0.491 C  
HETATM   23  C   UNL     1      -9.862  18.515  68.660  1.00  0.00    -0.419 C  
ENDBRANCH  12  20
ENDBRANCH   2   3
TORSDOF 3
ENDMDL
MODEL        7
REMARK 921   NORMALIZED FREE ENERGY PREDICTED BY IDOCK:   -5.93 KCAL/MOL
REMARK 922        TOTAL FREE ENERGY PREDICTED BY IDOCK:   -7.30 KCAL/MOL
REMARK 923 INTER-LIGAND FREE ENERGY PREDICTED BY IDOCK:   -7.11 KCAL/MOL
REMARK 924 INTRA-LIGAND FREE ENERGY PREDICTED BY IDOCK:   -0.19 KCAL/MOL
REMARK 927      BINDING AFFINITY PREDICTED BY RF-SCORE:    0.00 PKD
ROOT
HETATM    1  C   UNL     1     -13.777  15.720  73.000  1.00  0.00    -0.502 C  
HETATM    2  O   UNL     1     -14.313  14.730  72.128  1.00  0.00    -0.479 OA 
ENDROOT
BRANCH   2   3
HETATM    3  C   UNL     1     -13.408  13.954  71.445  1.00  0.00    -0.293 A  
HETATM    4  C   UNL     1     -12.561  14.364  70.407  1.00  0.00    -0.345 A  
HETATM    5  C   UNL     1     -11.690  13.426  69.846  1.00  0.00    -0.337 A  
HETATM    6  C   UNL     1     -13.414  12.604  71.840  1.00  0.00    -0.424 A  
HETATM    7  C   UNL     1     -11.733  12.063  70.193  1.00  0.00    -0.316 A  
HETATM    8  C   UNL     1     -12.594  11.651  71.208  1.00  0.00    -0.425 A  
HETATM    9  C   UNL     1     -10.921  11.074  69.366  1.00  0.00    -0.248 C  
HETATM   10  C   UNL     1     -11.431  11.162  67.926  1.00  0.00    -0.359 C  
HETATM   11  C   UNL     1     -10.539  10.288  67.118  1.00  0.00    -0.260 C  
HETATM   12  C   UNL     1     -10.646   8.818  67.453  1.00  0.00    -0.304 C  
HETATM   13  O   UNL     1      -9.786  10.756  66.268  1.00  0.00    -0.191 OA 
HETATM   14  C   UNL     1     -10.301   8.692  68.951  1.00  0.00    -0.211 C  
HETATM   15  C   UNL     1     -12.572  10.213  71.647  1.00  0.00    -0.533 C  
HETATM   16  C   UNL     1     -12.148   9.260  70.509  1.00  0.00    -0.013 C  
HETATM   17  N   UNL     1     -10.896   9.685  69.880  1.00  0.00    -0.243 NA 
BRANCH   4  18
HETATM   18  O   UNL     1     -12.615  15.658  69.959  1.00  0.00    -0.334 OA 
HETATM   19  C   UNL     1     -11.400  16.206  69.451  1.00  0.00    -0.323 C  
ENDBRANCH   4  18
BRANCH  12  20
HETATM   20  C   UNL     1      -9.734   8.029  66.491  1.00  0.00    -0.297 C  
HETATM   21  C   UNL     1      -9.544   6.530  66.762  1.00  0.00    -0.198 C  
HETATM   22  C   UNL     1      -8.577   5.952  65.717  1.00  0.00    -0.154 C  
HETATM   23  C   UNL     1     -10.857   5.749  66.709  1.00  0.00    -0.327 C  
ENDBRANCH  12  20
ENDBRANCH   2   3
TORSDOF 3
ENDMDL
MODEL        8
REMARK 921   NORMALIZED FREE ENERGY PREDICTED BY IDOCK:   -5.89 KCAL/MOL
REMARK 922        TOTAL FREE ENERGY PREDICTED BY IDOCK:   -7.26 KCAL/MOL
REMARK 923 INTER-LIGAND FREE ENERGY PREDICTED BY IDOCK:   -6.97 KCAL/MOL
REMARK 924 INTRA-LIGAND FREE ENERGY PREDICTED BY IDOCK:   -0.28 KCAL/MOL
REMARK 927      BINDING AFFINITY PREDICTED BY RF-SCORE:    0.00 PKD
ROOT
HETATM    1  C   UNL     1     -12.238  15.181  64.230  1.00  0.00    -0.240 C  
HETATM    2  O   UNL     1     -12.455  13.785  64.054  1.00  0.00    -0.674 OA 
ENDROOT
BRANCH   2   3
HETATM    3  C   UNL     1     -11.786  12.943  64.908  1.00  0.00    -0.348 A  
HETATM    4  C   UNL     1     -10.895  11.920  64.557  1.00  0.00    -0.316 A  
HETATM    5  C   UNL     1     -10.295  11.178  65.577  1.00  0.00    -0.326 A  
HETATM    6  C   UNL     1     -12.108  13.145  66.262  1.00  0.00    -0.460 A  
HETATM    7  C   UNL     1     -10.657  11.333  66.928  1.00  0.00    -0.300 A  
HETATM    8  C   UNL     1     -11.563  12.334  67.275  1.00  0.00    -0.427 A  
HETATM    9  C   UNL     1     -10.134  10.325  67.944  1.00  0.00    -0.170 C  
HETATM   10  C   UNL     1     -10.650   8.948  67.522  1.00  0.00    -0.307 C  
HETATM   11  C   UNL     1     -10.021   7.968  68.448  1.00  0.00    -0.185 C  
HETATM   12  C   UNL     1     -10.471   8.101  69.885  1.00  0.00    -0.226 C  
HETATM   13  O   UNL     1      -9.201   7.146  68.047  1.00  0.00    -0.132 OA 
HETATM   14  C   UNL     1     -10.123   9.541  70.314  1.00  0.00    -0.262 C  
HETATM   15  C   UNL     1     -11.877  12.565  68.727  1.00  0.00    -0.347 C  
HETATM   16  C   UNL     1     -11.731  11.280  69.569  1.00  0.00    -0.345 C  
HETATM   17  N   UNL     1     -10.432  10.636  69.361  1.00  0.00    -0.228 NA 
BRANCH   4  18
HETATM   18  O   UNL     1     -10.647  11.661  63.234  1.00  0.00    -0.380 OA 
HETATM   19  C   UNL     1      -9.424  10.991  62.936  1.00  0.00    -0.356 C  
ENDBRANCH   4  18
BRANCH  12  20
HETATM   20  C   UNL     1      -9.807   6.981  70.711  1.00  0.00    -0.190 C  
HETATM   21  C   UNL     1     -10.403   6.666  72.091  1.00  0.00    -0.222 C  
HETATM   22  C   UNL     1      -9.573   5.556  72.752  1.00  0.00    -0.163 C  
HETATM   23  C   UNL     1     -11.863   6.218  72.015  1.00  0.00    -0.370 C  
ENDBRANCH  12  20
ENDBRANCH   2   3
TORSDOF 3
ENDMDL
MODEL        9
REMARK 921   NORMALIZED FREE ENERGY PREDICTED BY IDOCK:   -5.87 KCAL/MOL
REMARK 922        TOTAL FREE ENERGY PREDICTED BY IDOCK:   -7.23 KCAL/MOL
REMARK 923 INTER-LIGAND FREE ENERGY PREDICTED BY IDOCK:   -7.50 KCAL/MOL
REMARK 924 INTRA-LIGAND FREE ENERGY PREDICTED BY IDOCK:    0.27 KCAL/MOL
REMARK 927      BINDING AFFINITY PREDICTED BY RF-SCORE:    0.00 PKD
ROOT
HETATM    1  C   UNL     1      -5.864  20.155  70.637  1.00  0.00    -0.337 C  
HETATM    2  O   UNL     1      -6.120  20.572  69.300  1.00  0.00    -0.341 OA 
ENDROOT
BRANCH   2   3
HETATM    3  C   UNL     1      -6.732  19.659  68.475  1.00  0.00    -0.299 A  
HETATM    4  C   UNL     1      -7.178  19.875  67.164  1.00  0.00    -0.239 A  
HETATM    5  C   UNL     1      -7.763  18.810  66.475  1.00  0.00    -0.273 A  
HETATM    6  C   UNL     1      -6.951  18.410  69.083  1.00  0.00    -0.240 A  
HETATM    7  C   UNL     1      -8.040  17.578  67.095  1.00  0.00    -0.229 A  
HETATM    8  C   UNL     1      -7.620  17.372  68.408  1.00  0.00    -0.255 A  
HETATM    9  C   UNL     1      -8.892  16.560  66.347  1.00  0.00    -0.310 C  
HETATM   10  C   UNL     1     -10.249  17.215  66.079  1.00  0.00    -0.332 C  
HETATM   11  C   UNL     1     -11.012  16.255  65.237  1.00  0.00    -0.236 C  
HETATM   12  C   UNL     1     -11.364  14.963  65.939  1.00  0.00    -0.306 C  
HETATM   13  O   UNL     1     -11.303  16.517  64.073  1.00  0.00    -1.064 OA 
HETATM   14  C   UNL     1     -10.026  14.336  66.383  1.00  0.00    -0.292 C  
HETATM   15  C   UNL     1      -7.828  16.025  69.040  1.00  0.00    -0.222 C  
HETATM   16  C   UNL     1      -9.054  15.290  68.460  1.00  0.00    -0.192 C  
HETATM   17  N   UNL     1      -9.016  15.234  66.997  1.00  0.00    -0.217 NA 
BRANCH   4  18
HETATM   18  O   UNL     1      -7.047  21.117  66.599  1.00  0.00    -0.202 OA 
HETATM   19  C   UNL     1      -5.888  21.331  65.796  1.00  0.00    -0.200 C  
ENDBRANCH   4  18
BRANCH  12  20
HETATM   20  C   UNL     1     -12.216  14.103  64.984  1.00  0.00    -0.450 C  
HETATM   21  C   UNL     1     -11.666  12.727  64.583  1.00  0.00    -0.405 C  
HETATM   22  C   UNL     1     -12.646  12.061  63.606  1.00  0.00    -0.605 C  
HETATM   23  C   UNL     1     -11.456  11.803  65.783  1.00  0.00    -0.258 C  
ENDBRANCH  12  20
ENDBRANCH   2   3
TORSDOF 3
ENDMDL
MODEL       10
REMARK 921   NORMALIZED FREE ENERGY PREDICTED BY IDOCK:   -5.80 KCAL/MOL
REMARK 922        TOTAL FREE ENERGY PREDICTED BY IDOCK:   -7.15 KCAL/MOL
REMARK 923 INTER-LIGAND FREE ENERGY PREDICTED BY IDOCK:   -7.23 KCAL/MOL
REMARK 924 INTRA-LIGAND FREE ENERGY PREDICTED BY IDOCK:    0.08 KCAL/MOL
REMARK 927      BINDING AFFINITY PREDICTED BY RF-SCORE:    0.00 PKD
ROOT
HETATM    1  C   UNL     1     -12.534  16.400  73.948  1.00  0.00    -0.482 C  
HETATM    2  O   UNL     1     -11.929  15.182  73.528  1.00  0.00    -0.427 OA 
ENDROOT
BRANCH   2   3
HETATM    3  C   UNL     1     -12.019  14.877  72.191  1.00  0.00    -0.331 A  
HETATM    4  C   UNL     1     -12.779  13.853  71.611  1.00  0.00    -0.330 A  
HETATM    5  C   UNL     1     -12.756  13.710  70.222  1.00  0.00    -0.163 A  
HETATM    6  C   UNL     1     -11.201  15.678  71.375  1.00  0.00    -0.392 A  
HETATM    7  C   UNL     1     -11.895  14.467  69.405  1.00  0.00    -0.369 A  
HETATM    8  C   UNL     1     -11.119  15.467  69.986  1.00  0.00    -0.326 A  
HETATM    9  C   UNL     1     -11.759  14.083  67.937  1.00  0.00    -0.362 C  
HETATM   10  C   UNL     1     -11.234  12.647  67.891  1.00  0.00    -0.310 C  
HETATM   11  C   UNL     1     -11.235  12.252  66.457  1.00  0.00    -0.324 C  
HETATM   12  C   UNL     1     -10.255  13.025  65.603  1.00  0.00    -0.296 C  
HETATM   13  O   UNL     1     -11.988  11.378  66.035  1.00  0.00    -0.091 OA 
HETATM   14  C   UNL     1     -10.638  14.512  65.747  1.00  0.00    -0.317 C  
HETATM   15  C   UNL     1     -10.272  16.341  69.103  1.00  0.00    -0.266 C  
HETATM   16  C   UNL     1      -9.824  15.614  67.818  1.00  0.00    -0.220 C  
HETATM   17  N   UNL     1     -10.955  15.012  67.109  1.00  0.00    -0.323 NA 
BRANCH   4  18
HETATM   18  O   UNL     1     -13.509  13.012  72.412  1.00  0.00    -0.567 OA 
HETATM   19  C   UNL     1     -13.518  11.634  72.045  1.00  0.00    -0.199 C  
ENDBRANCH   4  18
BRANCH  12  20
HETATM   20  C   UNL     1     -10.304  12.462  64.169  1.00  0.00    -0.409 C  
HETATM   21  C   UNL     1      -9.324  11.334  63.814  1.00  0.00    -0.160 C  
HETATM   22  C   UNL     1      -9.516  10.951  62.339  1.00  0.00    -0.205 C  
HETATM   23  C   UNL     1      -9.517  10.089  64.680  1.00  0.00    -0.367 C  
ENDBRANCH  12  20
ENDBRANCH   2   3
TORSDOF 3
ENDMDL
MODEL       11
REMARK 921   NORMALIZED FREE ENERGY PREDICTED BY IDOCK:   -5.78 KCAL/MOL
REMARK 922        TOTAL FREE ENERGY PREDICTED BY IDOCK:   -7.13 KCAL/MOL
REMARK 923 INTER-LIGAND FREE ENERGY PREDICTED BY IDOCK:   -6.83 KCAL/MOL
REMARK 924 INTRA-LIGAND FREE ENERGY PREDICTED BY IDOCK:   -0.30 KCAL/MOL
REMARK 927      BINDING AFFINITY PREDICTED BY RF-SCORE:    0.00 PKD
ROOT
HETATM    1  C   UNL     1     -14.074  14.326  72.278  1.00  0.00    -0.526 C  
HETATM    2  O   UNL     1     -12.712  14.026  71.989  1.00  0.00    -0.320 OA 
ENDROOT
BRANCH   2   3
HETATM    3  C   UNL     1     -12.469  13.280  70.862  1.00  0.00    -0.342 A  
HETATM    4  C   UNL     1     -12.393  11.884  70.776  1.00  0.00    -0.320 A  
HETATM    5  C   UNL     1     -12.154  11.303  69.529  1.00  0.00    -0.386 A  
HETATM    6  C   UNL     1     -12.230  14.057  69.714  1.00  0.00    -0.396 A  
HETATM    7  C   UNL     1     -11.854  12.073  68.389  1.00  0.00    -0.360 A  
HETATM    8  C   UNL     1     -11.904  13.462  68.481  1.00  0.00    -0.401 A  
HETATM    9  C   UNL     1     -11.373  11.359  67.133  1.00  0.00    -0.255 C  
HETATM   10  C   UNL     1     -10.083  10.621  67.497  1.00  0.00    -0.217 C  
HETATM   11  C   UNL     1      -9.706   9.829  66.296  1.00  0.00    -0.234 C  
HETATM   12  C   UNL     1      -9.319  10.669  65.100  1.00  0.00    -0.254 C  
HETATM   13  O   UNL     1      -9.730   8.601  66.306  1.00  0.00    -0.244 OA 
HETATM   14  C   UNL     1     -10.537  11.563  64.789  1.00  0.00    -0.305 C  
HETATM   15  C   UNL     1     -11.680  14.285  67.243  1.00  0.00    -0.422 C  
HETATM   16  C   UNL     1     -10.762  13.575  66.226  1.00  0.00    -0.288 C  
HETATM   17  N   UNL     1     -11.221  12.215  65.933  1.00  0.00    -0.326 NA 
BRANCH   4  18
HETATM   18  O   UNL     1     -12.537  11.126  71.910  1.00  0.00    -0.266 OA 
HETATM   19  C   UNL     1     -13.080   9.819  71.736  1.00  0.00    -0.431 C  
ENDBRANCH   4  18
BRANCH  12  20
HETATM   20  C   UNL     1      -8.878   9.726  63.962  1.00  0.00    -0.258 C  
HETATM   21  C   UNL     1      -7.373   9.604  63.683  1.00  0.00    -0.115 C  
HETATM   22  C   UNL     1      -7.160   8.652  62.496  1.00  0.00    -0.097 C  
HETATM   23  C   UNL     1      -6.590   9.080  64.887  1.00  0.00    -0.069 C  
ENDBRANCH  12  20
ENDBRANCH   2   3
TORSDOF 3
ENDMDL
MODEL       12
REMARK 921   NORMALIZED FREE ENERGY PREDICTED BY IDOCK:   -5.68 KCAL/MOL
REMARK 922        TOTAL FREE ENERGY PREDICTED BY IDOCK:   -7.02 KCAL/MOL
REMARK 923 INTER-LIGAND FREE ENERGY PREDICTED BY IDOCK:   -6.78 KCAL/MOL
REMARK 924 INTRA-LIGAND FREE ENERGY PREDICTED BY IDOCK:   -0.23 KCAL/MOL
REMARK 927      BINDING AFFINITY PREDICTED BY RF-SCORE:    0.00 PKD
ROOT
HETATM    1  C   UNL     1     -11.576  14.501  67.320  1.00  0.00    -0.385 C  
HETATM    2  O   UNL     1     -11.749  14.391  68.729  1.00  0.00    -0.301 OA 
ENDROOT
BRANCH   2   3
HETATM    3  C   UNL     1     -11.819  13.120  69.245  1.00  0.00    -0.323 A  
HETATM    4  C   UNL     1     -12.284  12.750  70.513  1.00  0.00    -0.307 A  
HETATM    5  C   UNL     1     -12.295  11.395  70.852  1.00  0.00    -0.483 A  
HETATM    6  C   UNL     1     -11.309  12.134  68.381  1.00  0.00    -0.336 A  
HETATM    7  C   UNL     1     -11.732  10.410  70.019  1.00  0.00    -0.366 A  
HETATM    8  C   UNL     1     -11.245  10.782  68.767  1.00  0.00    -0.331 A  
HETATM    9  C   UNL     1     -11.570   8.998  70.566  1.00  0.00    -0.175 C  
HETATM   10  C   UNL     1     -10.659   9.088  71.791  1.00  0.00    -0.426 C  
HETATM   11  C   UNL     1     -10.623   7.723  72.382  1.00  0.00    -0.278 C  
HETATM   12  C   UNL     1      -9.953   6.689  71.506  1.00  0.00    -0.189 C  
HETATM   13  O   UNL     1     -11.116   7.490  73.483  1.00  0.00    -0.312 OA 
HETATM   14  C   UNL     1     -10.738   6.676  70.178  1.00  0.00    -0.239 C  
HETATM   15  C   UNL     1     -10.732   9.719  67.837  1.00  0.00    -0.312 C  
HETATM   16  C   UNL     1     -10.164   8.501  68.596  1.00  0.00    -0.197 C  
HETATM   17  N   UNL     1     -11.111   7.985  69.586  1.00  0.00    -0.094 NA 
BRANCH   4  18
HETATM   18  O   UNL     1     -12.699  13.717  71.392  1.00  0.00    -0.345 OA 
HETATM   19  C   UNL     1     -13.733  13.348  72.303  1.00  0.00    -0.607 C  
ENDBRANCH   4  18
BRANCH  12  20
HETATM   20  C   UNL     1      -9.915   5.351  72.270  1.00  0.00    -0.219 C  
HETATM   21  C   UNL     1      -9.691   4.071  71.452  1.00  0.00    -0.253 C  
HETATM   22  C   UNL     1      -9.726   2.860  72.397  1.00  0.00    -0.217 C  
HETATM   23  C   UNL     1      -8.360   4.076  70.700  1.00  0.00    -0.088 C  
ENDBRANCH  12  20
ENDBRANCH   2   3
TORSDOF 3
ENDMDL
MODEL       13
REMARK 921   NORMALIZED FREE ENERGY PREDICTED BY IDOCK:   -5.66 KCAL/MOL
REMARK 922        TOTAL FREE ENERGY PREDICTED BY IDOCK:   -6.98 KCAL/MOL
REMARK 923 INTER-LIGAND FREE ENERGY PREDICTED BY IDOCK:   -6.68 KCAL/MOL
REMARK 924 INTRA-LIGAND FREE ENERGY PREDICTED BY IDOCK:   -0.30 KCAL/MOL
REMARK 927      BINDING AFFINITY PREDICTED BY RF-SCORE:    0.00 PKD
ROOT
HETATM    1  C   UNL     1     -11.342   8.608  70.510  1.00  0.00    -0.218 C  
HETATM    2  O   UNL     1     -10.831   8.831  69.200  1.00  0.00    -0.173 OA 
ENDROOT
BRANCH   2   3
HETATM    3  C   UNL     1     -10.951  10.104  68.698  1.00  0.00    -0.230 A  
HETATM    4  C   UNL     1     -10.718  10.514  67.379  1.00  0.00    -0.281 A  
HETATM    5  C   UNL     1     -10.913  11.858  67.054  1.00  0.00    -0.326 A  
HETATM    6  C   UNL     1     -11.297  11.060  69.668  1.00  0.00    -0.363 A  
HETATM    7  C   UNL     1     -11.200  12.831  68.030  1.00  0.00    -0.310 A  
HETATM    8  C   UNL     1     -11.405  12.426  69.347  1.00  0.00    -0.286 A  
HETATM    9  C   UNL     1     -11.159  14.300  67.629  1.00  0.00    -0.292 C  
HETATM   10  C   UNL     1      -9.740  14.597  67.139  1.00  0.00    -0.235 C  
HETATM   11  C   UNL     1      -9.761  15.995  66.632  1.00  0.00    -0.244 C  
HETATM   12  C   UNL     1     -10.001  17.035  67.703  1.00  0.00    -0.280 C  
HETATM   13  O   UNL     1      -9.606  16.245  65.440  1.00  0.00    -0.448 OA 
HETATM   14  C   UNL     1     -11.356  16.682  68.350  1.00  0.00    -0.142 C  
HETATM   15  C   UNL     1     -11.807  13.449  70.372  1.00  0.00    -0.283 C  
HETATM   16  C   UNL     1     -11.275  14.858  70.033  1.00  0.00    -0.259 C  
HETATM   17  N   UNL     1     -11.616  15.255  68.665  1.00  0.00    -0.341 NA 
BRANCH   4  18
HETATM   18  O   UNL     1     -10.293   9.600  66.449  1.00  0.00    -0.237 OA 
HETATM   19  C   UNL     1      -8.883   9.493  66.261  1.00  0.00    -0.149 C  
ENDBRANCH   4  18
BRANCH  12  20
HETATM   20  C   UNL     1      -9.918  18.432  67.055  1.00  0.00    -0.355 C  
HETATM   21  C   UNL     1      -9.538  19.614  67.960  1.00  0.00    -0.469 C  
HETATM   22  C   UNL     1      -9.550  20.905  67.127  1.00  0.00    -0.362 C  
HETATM   23  C   UNL     1      -8.159  19.448  68.600  1.00  0.00    -0.402 C  
ENDBRANCH  12  20
ENDBRANCH   2   3
TORSDOF 3
ENDMDL
MODEL       14
REMARK 921   NORMALIZED FREE ENERGY PREDICTED BY IDOCK:   -5.64 KCAL/MOL
REMARK 922        TOTAL FREE ENERGY PREDICTED BY IDOCK:   -6.97 KCAL/MOL
REMARK 923 INTER-LIGAND FREE ENERGY PREDICTED BY IDOCK:   -6.62 KCAL/MOL
REMARK 924 INTRA-LIGAND FREE ENERGY PREDICTED BY IDOCK:   -0.35 KCAL/MOL
REMARK 927      BINDING AFFINITY PREDICTED BY RF-SCORE:    0.00 PKD
ROOT
HETATM    1  C   UNL     1     -10.620  17.118  68.086  1.00  0.00    -0.380 C  
HETATM    2  O   UNL     1     -11.110  16.714  69.361  1.00  0.00    -0.285 OA 
ENDROOT
BRANCH   2   3
HETATM    3  C   UNL     1     -11.435  15.387  69.505  1.00  0.00    -0.319 A  
HETATM    4  C   UNL     1     -12.511  14.858  70.230  1.00  0.00    -0.336 A  
HETATM    5  C   UNL     1     -12.690  13.473  70.244  1.00  0.00    -0.118 A  
HETATM    6  C   UNL     1     -10.528  14.515  68.879  1.00  0.00    -0.246 A  
HETATM    7  C   UNL     1     -11.754  12.591  69.672  1.00  0.00    -0.372 A  
HETATM    8  C   UNL     1     -10.669  13.118  68.973  1.00  0.00    -0.144 A  
HETATM    9  C   UNL     1     -11.900  11.099  69.939  1.00  0.00    -0.363 C  
HETATM   10  C   UNL     1     -11.802  10.898  71.452  1.00  0.00     0.063 C  
HETATM   11  C   UNL     1     -12.078   9.457  71.697  1.00  0.00    -0.388 C  
HETATM   12  C   UNL     1     -11.029   8.523  71.137  1.00  0.00    -0.306 C  
HETATM   13  O   UNL     1     -13.088   9.092  72.294  1.00  0.00    -0.396 OA 
HETATM   14  C   UNL     1     -10.966   8.805  69.622  1.00  0.00    -0.105 C  
HETATM   15  C   UNL     1      -9.721  12.180  68.279  1.00  0.00    -0.216 C  
HETATM   16  C   UNL     1      -9.644  10.805  68.976  1.00  0.00    -0.180 C  
HETATM   17  N   UNL     1     -10.972  10.223  69.185  1.00  0.00    -0.227 NA 
BRANCH   4  18
HETATM   18  O   UNL     1     -13.347  15.701  70.916  1.00  0.00    -0.556 OA 
HETATM   19  C   UNL     1     -14.135  15.113  71.949  1.00  0.00    -0.552 C  
ENDBRANCH   4  18
BRANCH  12  20
HETATM   20  C   UNL     1     -11.398   7.079  71.531  1.00  0.00    -0.290 C  
HETATM   21  C   UNL     1     -10.480   6.357  72.529  1.00  0.00    -0.225 C  
HETATM   22  C   UNL     1     -11.006   4.931  72.750  1.00  0.00    -0.294 C  
HETATM   23  C   UNL     1     -10.397   7.071  73.878  1.00  0.00    -0.386 C  
ENDBRANCH  12  20
ENDBRANCH   2   3
TORSDOF 3
ENDMDL
MODEL       15
REMARK 921   NORMALIZED FREE ENERGY PREDICTED BY IDOCK:   -5.62 KCAL/MOL
REMARK 922        TOTAL FREE ENERGY PREDICTED BY IDOCK:   -6.94 KCAL/MOL
REMARK 923 INTER-LIGAND FREE ENERGY PREDICTED BY IDOCK:   -6.64 KCAL/MOL
REMARK 924 INTRA-LIGAND FREE ENERGY PREDICTED BY IDOCK:   -0.31 KCAL/MOL
REMARK 927      BINDING AFFINITY PREDICTED BY RF-SCORE:    0.00 PKD
ROOT
HETATM    1  C   UNL     1      -7.949  18.575  66.952  1.00  0.00    -0.239 C  
HETATM    2  O   UNL     1      -8.013  17.683  65.844  1.00  0.00    -0.531 OA 
ENDROOT
BRANCH   2   3
HETATM    3  C   UNL     1      -8.435  16.402  66.107  1.00  0.00    -0.294 A  
HETATM    4  C   UNL     1      -9.658  15.825  65.739  1.00  0.00    -0.320 A  
HETATM    5  C   UNL     1      -9.898  14.493  66.083  1.00  0.00    -0.339 A  
HETATM    6  C   UNL     1      -7.521  15.655  66.871  1.00  0.00    -0.169 A  
HETATM    7  C   UNL     1      -9.017  13.759  66.898  1.00  0.00    -0.234 A  
HETATM    8  C   UNL     1      -7.812  14.341  67.285  1.00  0.00    -0.170 A  
HETATM    9  C   UNL     1      -9.467  12.401  67.421  1.00  0.00    -0.186 C  
HETATM   10  C   UNL     1     -10.726  12.633  68.259  1.00  0.00    -0.248 C  
HETATM   11  C   UNL     1     -11.218  11.284  68.647  1.00  0.00    -0.250 C  
HETATM   12  C   UNL     1     -10.294  10.534  69.579  1.00  0.00    -0.251 C  
HETATM   13  O   UNL     1     -12.283  10.845  68.219  1.00  0.00    -0.526 OA 
HETATM   14  C   UNL     1      -8.943  10.417  68.843  1.00  0.00    -0.169 C  
HETATM   15  C   UNL     1      -6.825  13.526  68.074  1.00  0.00    -0.136 C  
HETATM   16  C   UNL     1      -7.515  12.446  68.934  1.00  0.00     0.001 C  
HETATM   17  N   UNL     1      -8.434  11.623  68.145  1.00  0.00    -0.150 NA 
BRANCH   4  18
HETATM   18  O   UNL     1     -10.589  16.579  65.072  1.00  0.00    -0.670 OA 
HETATM   19  C   UNL     1     -11.592  15.861  64.355  1.00  0.00    -0.234 C  
ENDBRANCH   4  18
BRANCH  12  20
HETATM   20  C   UNL     1     -10.962   9.197  69.960  1.00  0.00    -0.240 C  
HETATM   21  C   UNL     1     -11.569   9.081  71.366  1.00  0.00    -0.396 C  
HETATM   22  C   UNL     1     -12.142   7.668  71.547  1.00  0.00    -0.338 C  
HETATM   23  C   UNL     1     -12.677  10.103  71.617  1.00  0.00    -0.549 C  
ENDBRANCH  12  20
ENDBRANCH   2   3
TORSDOF 3
ENDMDL
MODEL       16
REMARK 921   NORMALIZED FREE ENERGY PREDICTED BY IDOCK:   -5.61 KCAL/MOL
REMARK 922        TOTAL FREE ENERGY PREDICTED BY IDOCK:   -6.93 KCAL/MOL
REMARK 923 INTER-LIGAND FREE ENERGY PREDICTED BY IDOCK:   -6.68 KCAL/MOL
REMARK 924 INTRA-LIGAND FREE ENERGY PREDICTED BY IDOCK:   -0.26 KCAL/MOL
REMARK 927      BINDING AFFINITY PREDICTED BY RF-SCORE:    0.00 PKD
ROOT
HETATM    1  C   UNL     1     -12.240  14.433  64.310  1.00  0.00    -0.423 C  
HETATM    2  O   UNL     1     -11.888  13.163  63.770  1.00  0.00    -0.444 OA 
ENDROOT
BRANCH   2   3
HETATM    3  C   UNL     1     -11.324  12.258  64.637  1.00  0.00    -0.322 A  
HETATM    4  C   UNL     1     -10.479  11.190  64.308  1.00  0.00    -0.362 A  
HETATM    5  C   UNL     1      -9.988  10.385  65.338  1.00  0.00    -0.362 A  
HETATM    6  C   UNL     1     -11.714  12.444  65.975  1.00  0.00    -0.469 A  
HETATM    7  C   UNL     1     -10.421  10.527  66.670  1.00  0.00    -0.290 A  
HETATM    8  C   UNL     1     -11.282  11.573  66.993  1.00  0.00    -0.365 A  
HETATM    9  C   UNL     1     -10.023   9.461  67.683  1.00  0.00    -0.190 C  
HETATM   10  C   UNL     1     -10.596   8.131  67.190  1.00  0.00    -0.355 C  
HETATM   11  C   UNL     1     -10.085   7.090  68.122  1.00  0.00    -0.169 C  
HETATM   12  C   UNL     1     -10.612   7.212  69.533  1.00  0.00    -0.247 C  
HETATM   13  O   UNL     1      -9.295   6.228  67.745  1.00  0.00    -0.116 OA 
HETATM   14  C   UNL     1     -10.202   8.616  70.026  1.00  0.00    -0.194 C  
HETATM   15  C   UNL     1     -11.669  11.785  68.430  1.00  0.00    -0.389 C  
HETATM   16  C   UNL     1     -11.653  10.472  69.240  1.00  0.00    -0.236 C  
HETATM   17  N   UNL     1     -10.386   9.753  69.090  1.00  0.00    -0.200 NA 
BRANCH   4  18
HETATM   18  O   UNL     1     -10.169  10.951  62.993  1.00  0.00    -0.292 OA 
HETATM   19  C   UNL     1      -9.213   9.922  62.744  1.00  0.00    -0.268 C  
ENDBRANCH   4  18
BRANCH  12  20
HETATM   20  C   UNL     1     -10.068   6.032  70.363  1.00  0.00    -0.249 C  
HETATM   21  C   UNL     1     -10.185   6.124  71.892  1.00  0.00    -0.231 C  
HETATM   22  C   UNL     1      -9.554   4.871  72.517  1.00  0.00    -0.176 C  
HETATM   23  C   UNL     1     -11.633   6.241  72.367  1.00  0.00    -0.325 C  
ENDBRANCH  12  20
ENDBRANCH   2   3
TORSDOF 3
ENDMDL
MODEL       17
REMARK 921   NORMALIZED FREE ENERGY PREDICTED BY IDOCK:   -5.61 KCAL/MOL
REMARK 922        TOTAL FREE ENERGY PREDICTED BY IDOCK:   -6.93 KCAL/MOL
REMARK 923 INTER-LIGAND FREE ENERGY PREDICTED BY IDOCK:   -6.69 KCAL/MOL
REMARK 924 INTRA-LIGAND FREE ENERGY PREDICTED BY IDOCK:   -0.25 KCAL/MOL
REMARK 927      BINDING AFFINITY PREDICTED BY RF-SCORE:    0.00 PKD
ROOT
HETATM    1  C   UNL     1     -10.178   5.012  69.832  1.00  0.00    -0.270 C  
HETATM    2  O   UNL     1     -11.274   5.905  70.003  1.00  0.00    -0.364 OA 
ENDROOT
BRANCH   2   3
HETATM    3  C   UNL     1     -11.012   7.244  69.836  1.00  0.00    -0.243 A  
HETATM    4  C   UNL     1     -11.161   8.256  70.793  1.00  0.00    -0.258 A  
HETATM    5  C   UNL     1     -10.822   9.564  70.438  1.00  0.00    -0.338 A  
HETATM    6  C   UNL     1     -10.602   7.578  68.534  1.00  0.00    -0.172 A  
HETATM    7  C   UNL     1     -10.471   9.916  69.122  1.00  0.00    -0.235 A  
HETATM    8  C   UNL     1     -10.348   8.912  68.164  1.00  0.00    -0.261 A  
HETATM    9  C   UNL     1     -10.352  11.394  68.769  1.00  0.00    -0.204 C  
HETATM   10  C   UNL     1     -11.718  12.032  69.028  1.00  0.00    -0.382 C  
HETATM   11  C   UNL     1     -11.542  13.492  68.803  1.00  0.00    -0.325 C  
HETATM   12  C   UNL     1     -11.233  13.863  67.371  1.00  0.00    -0.330 C  
HETATM   13  O   UNL     1     -11.634  14.297  69.727  1.00  0.00    -0.267 OA 
HETATM   14  C   UNL     1      -9.941  13.106  66.999  1.00  0.00    -0.244 C  
HETATM   15  C   UNL     1      -9.878   9.273  66.782  1.00  0.00    -0.289 C  
HETATM   16  C   UNL     1     -10.256  10.718  66.395  1.00  0.00    -0.240 C  
HETATM   17  N   UNL     1      -9.835  11.684  67.411  1.00  0.00    -0.183 NA 
BRANCH   4  18
HETATM   18  O   UNL     1     -11.645   7.947  72.038  1.00  0.00    -0.275 OA 
HETATM   19  C   UNL     1     -10.676   7.642  73.039  1.00  0.00    -0.391 C  
ENDBRANCH   4  18
BRANCH  12  20
HETATM   20  C   UNL     1     -11.156  15.399  67.268  1.00  0.00    -0.302 C  
HETATM   21  C   UNL     1     -10.395  15.995  66.075  1.00  0.00    -0.366 C  
HETATM   22  C   UNL     1     -10.410  17.527  66.187  1.00  0.00    -0.330 C  
HETATM   23  C   UNL     1     -10.996  15.590  64.729  1.00  0.00    -0.416 C  
ENDBRANCH  12  20
ENDBRANCH   2   3
TORSDOF 3
ENDMDL
MODEL       18
REMARK 921   NORMALIZED FREE ENERGY PREDICTED BY IDOCK:   -5.61 KCAL/MOL
REMARK 922        TOTAL FREE ENERGY PREDICTED BY IDOCK:   -6.93 KCAL/MOL
REMARK 923 INTER-LIGAND FREE ENERGY PREDICTED BY IDOCK:   -6.60 KCAL/MOL
REMARK 924 INTRA-LIGAND FREE ENERGY PREDICTED BY IDOCK:   -0.33 KCAL/MOL
REMARK 927      BINDING AFFINITY PREDICTED BY RF-SCORE:    0.00 PKD
ROOT
HETATM    1  C   UNL     1     -10.149   6.697  74.383  1.00  0.00    -0.315 C  
HETATM    2  O   UNL     1     -10.920   6.284  73.260  1.00  0.00    -0.254 OA 
ENDROOT
BRANCH   2   3
HETATM    3  C   UNL     1     -10.921   7.121  72.170  1.00  0.00    -0.241 A  
HETATM    4  C   UNL     1     -10.185   6.966  70.988  1.00  0.00    -0.197 A  
HETATM    5  C   UNL     1     -10.335   7.920  69.979  1.00  0.00    -0.221 A  
HETATM    6  C   UNL     1     -11.725   8.262  72.339  1.00  0.00    -0.463 A  
HETATM    7  C   UNL     1     -11.089   9.094  70.163  1.00  0.00    -0.248 A  
HETATM    8  C   UNL     1     -11.800   9.260  71.350  1.00  0.00    -0.428 A  
HETATM    9  C   UNL     1     -11.005  10.188  69.107  1.00  0.00    -0.230 C  
HETATM   10  C   UNL     1      -9.543  10.632  69.030  1.00  0.00    -0.207 C  
HETATM   11  C   UNL     1      -9.463  11.602  67.906  1.00  0.00    -0.181 C  
HETATM   12  C   UNL     1     -10.221  12.888  68.146  1.00  0.00    -0.239 C  
HETATM   13  O   UNL     1      -8.838  11.343  66.881  1.00  0.00    -0.162 OA 
HETATM   14  C   UNL     1     -11.688  12.483  68.398  1.00  0.00    -0.328 C  
HETATM   15  C   UNL     1     -12.683  10.466  71.510  1.00  0.00    -0.564 C  
HETATM   16  C   UNL     1     -12.177  11.674  70.695  1.00  0.00    -0.366 C  
HETATM   17  N   UNL     1     -11.937  11.325  69.293  1.00  0.00    -0.339 NA 
BRANCH   4  18
HETATM   18  O   UNL     1      -9.331   5.901  70.855  1.00  0.00    -0.158 OA 
HETATM   19  C   UNL     1      -7.976   6.123  71.240  1.00  0.00    -0.113 C  
ENDBRANCH   4  18
BRANCH  12  20
HETATM   20  C   UNL     1      -9.988  13.826  66.944  1.00  0.00    -0.264 C  
HETATM   21  C   UNL     1     -10.912  15.044  66.803  1.00  0.00    -0.323 C  
HETATM   22  C   UNL     1     -10.532  15.814  65.529  1.00  0.00    -0.425 C  
HETATM   23  C   UNL     1     -10.829  15.991  68.000  1.00  0.00    -0.335 C  
ENDBRANCH  12  20
ENDBRANCH   2   3
TORSDOF 3
ENDMDL
MODEL       19
REMARK 921   NORMALIZED FREE ENERGY PREDICTED BY IDOCK:   -5.60 KCAL/MOL
REMARK 922        TOTAL FREE ENERGY PREDICTED BY IDOCK:   -6.92 KCAL/MOL
REMARK 923 INTER-LIGAND FREE ENERGY PREDICTED BY IDOCK:   -6.93 KCAL/MOL
REMARK 924 INTRA-LIGAND FREE ENERGY PREDICTED BY IDOCK:    0.02 KCAL/MOL
REMARK 927      BINDING AFFINITY PREDICTED BY RF-SCORE:    0.00 PKD
ROOT
HETATM    1  C   UNL     1     -11.402  15.961  70.140  1.00  0.00    -0.365 C  
HETATM    2  O   UNL     1     -12.634  15.309  70.432  1.00  0.00    -0.370 OA 
ENDROOT
BRANCH   2   3
HETATM    3  C   UNL     1     -12.595  13.942  70.556  1.00  0.00    -0.312 A  
HETATM    4  C   UNL     1     -13.077  13.179  71.627  1.00  0.00    -0.353 A  
HETATM    5  C   UNL     1     -12.964  11.788  71.561  1.00  0.00    -0.446 A  
HETATM    6  C   UNL     1     -11.947  13.299  69.486  1.00  0.00    -0.366 A  
HETATM    7  C   UNL     1     -12.264  11.142  70.525  1.00  0.00    -0.475 A  
HETATM    8  C   UNL     1     -11.762  11.904  69.472  1.00  0.00    -0.410 A  
HETATM    9  C   UNL     1     -11.982   9.651  70.655  1.00  0.00    -0.229 C  
HETATM   10  C   UNL     1     -11.142   9.457  71.919  1.00  0.00    -0.194 C  
HETATM   11  C   UNL     1     -10.992   7.987  72.095  1.00  0.00    -0.295 C  
HETATM   12  C   UNL     1     -10.179   7.316  71.011  1.00  0.00    -0.198 C  
HETATM   13  O   UNL     1     -11.508   7.401  73.043  1.00  0.00    -0.277 OA 
HETATM   14  C   UNL     1     -10.897   7.624  69.681  1.00  0.00    -0.191 C  
HETATM   15  C   UNL     1     -11.099  11.207  68.316  1.00  0.00    -0.310 C  
HETATM   16  C   UNL     1     -10.443   9.875  68.735  1.00  0.00    -0.213 C  
HETATM   17  N   UNL     1     -11.376   9.012  69.463  1.00  0.00     0.077 NA 
BRANCH   4  18
HETATM   18  O   UNL     1     -13.630  13.808  72.713  1.00  0.00    -0.666 OA 
HETATM   19  C   UNL     1     -12.791  14.728  73.409  1.00  0.00    -0.475 C  
ENDBRANCH   4  18
BRANCH  12  20
HETATM   20  C   UNL     1     -10.038   5.821  71.360  1.00  0.00    -0.249 C  
HETATM   21  C   UNL     1      -9.680   4.855  70.221  1.00  0.00    -0.287 C  
HETATM   22  C   UNL     1      -9.627   3.424  70.776  1.00  0.00    -0.236 C  
HETATM   23  C   UNL     1      -8.338   5.185  69.567  1.00  0.00    -0.093 C  
ENDBRANCH  12  20
ENDBRANCH   2   3
TORSDOF 3
ENDMDL
MODEL       20
REMARK 921   NORMALIZED FREE ENERGY PREDICTED BY IDOCK:   -5.57 KCAL/MOL
REMARK 922        TOTAL FREE ENERGY PREDICTED BY IDOCK:   -6.88 KCAL/MOL
REMARK 923 INTER-LIGAND FREE ENERGY PREDICTED BY IDOCK:   -6.52 KCAL/MOL
REMARK 924 INTRA-LIGAND FREE ENERGY PREDICTED BY IDOCK:   -0.35 KCAL/MOL
REMARK 927      BINDING AFFINITY PREDICTED BY RF-SCORE:    0.00 PKD
ROOT
HETATM    1  C   UNL     1      -9.775  17.579  68.017  1.00  0.00    -0.287 C  
HETATM    2  O   UNL     1     -11.023  17.185  68.576  1.00  0.00    -0.317 OA 
ENDROOT
BRANCH   2   3
HETATM    3  C   UNL     1     -11.288  15.838  68.610  1.00  0.00    -0.369 A  
HETATM    4  C   UNL     1     -12.007  15.145  69.593  1.00  0.00    -0.329 A  
HETATM    5  C   UNL     1     -12.187  13.768  69.441  1.00  0.00    -0.325 A  
HETATM    6  C   UNL     1     -10.707  15.124  67.547  1.00  0.00    -0.284 A  
HETATM    7  C   UNL     1     -11.559  13.039  68.414  1.00  0.00    -0.370 A  
HETATM    8  C   UNL     1     -10.822  13.725  67.452  1.00  0.00    -0.285 A  
HETATM    9  C   UNL     1     -11.613  11.517  68.463  1.00  0.00    -0.313 C  
HETATM   10  C   UNL     1     -10.940  11.081  69.766  1.00  0.00    -0.258 C  
HETATM   11  C   UNL     1     -11.121   9.607  69.852  1.00  0.00    -0.235 C  
HETATM   12  C   UNL     1     -10.385   8.831  68.784  1.00  0.00    -0.234 C  
HETATM   13  O   UNL     1     -11.826   9.100  70.721  1.00  0.00    -0.281 OA 
HETATM   14  C   UNL     1     -10.910   9.354  67.432  1.00  0.00    -0.119 C  
HETATM   15  C   UNL     1     -10.231  12.960  66.300  1.00  0.00    -0.285 C  
HETATM   16  C   UNL     1      -9.911  11.497  66.672  1.00  0.00    -0.207 C  
HETATM   17  N   UNL     1     -11.063  10.822  67.275  1.00  0.00    -0.305 NA 
BRANCH   4  18
HETATM   18  O   UNL     1     -12.499  15.823  70.678  1.00  0.00    -0.420 OA 
HETATM   19  C   UNL     1     -13.653  15.267  71.305  1.00  0.00    -0.507 C  
ENDBRANCH   4  18
BRANCH  12  20
HETATM   20  C   UNL     1     -10.594   7.325  69.041  1.00  0.00    -0.214 C  
HETATM   21  C   UNL     1      -9.367   6.495  69.445  1.00  0.00    -0.143 C  
HETATM   22  C   UNL     1      -9.790   5.027  69.613  1.00  0.00    -0.290 C  
HETATM   23  C   UNL     1      -8.728   6.980  70.746  1.00  0.00    -0.148 C  
ENDBRANCH  12  20
ENDBRANCH   2   3
TORSDOF 3
ENDMDL
MODEL       21
REMARK 921   NORMALIZED FREE ENERGY PREDICTED BY IDOCK:   -5.53 KCAL/MOL
REMARK 922        TOTAL FREE ENERGY PREDICTED BY IDOCK:   -6.84 KCAL/MOL
REMARK 923 INTER-LIGAND FREE ENERGY PREDICTED BY IDOCK:   -7.10 KCAL/MOL
REMARK 924 INTRA-LIGAND FREE ENERGY PREDICTED BY IDOCK:    0.27 KCAL/MOL
REMARK 927      BINDING AFFINITY PREDICTED BY RF-SCORE:    0.00 PKD
ROOT
HETATM    1  C   UNL     1     -12.780  11.723  63.422  1.00  0.00    -0.267 C  
HETATM    2  O   UNL     1     -12.862  12.141  64.781  1.00  0.00    -0.555 OA 
ENDROOT
BRANCH   2   3
HETATM    3  C   UNL     1     -11.862  12.966  65.235  1.00  0.00    -0.392 A  
HETATM    4  C   UNL     1     -10.850  12.640  66.148  1.00  0.00    -0.273 A  
HETATM    5  C   UNL     1      -9.906  13.616  66.474  1.00  0.00    -0.295 A  
HETATM    6  C   UNL     1     -11.944  14.277  64.734  1.00  0.00    -0.449 A  
HETATM    7  C   UNL     1     -10.016  14.945  66.025  1.00  0.00    -0.337 A  
HETATM    8  C   UNL     1     -11.038  15.276  65.137  1.00  0.00    -0.412 A  
HETATM    9  C   UNL     1      -9.085  15.995  66.618  1.00  0.00    -0.252 C  
HETATM   10  C   UNL     1      -9.348  16.034  68.125  1.00  0.00    -0.200 C  
HETATM   11  C   UNL     1      -8.340  16.966  68.697  1.00  0.00    -0.261 C  
HETATM   12  C   UNL     1      -8.513  18.404  68.261  1.00  0.00    -0.321 C  
HETATM   13  O   UNL     1      -7.452  16.567  69.445  1.00  0.00    -0.223 OA 
HETATM   14  C   UNL     1      -8.423  18.400  66.721  1.00  0.00    -0.264 C  
HETATM   15  C   UNL     1     -11.100  16.671  64.580  1.00  0.00    -0.042 C  
HETATM   16  C   UNL     1     -10.500  17.713  65.546  1.00  0.00    -0.040 C  
HETATM   17  N   UNL     1      -9.157  17.336  65.992  1.00  0.00    -0.517 NA 
BRANCH   4  18
HETATM   18  O   UNL     1     -10.819  11.389  66.708  1.00  0.00    -0.262 OA 
HETATM   19  C   UNL     1     -11.508  11.230  67.946  1.00  0.00    -0.288 C  
ENDBRANCH   4  18
BRANCH  12  20
HETATM   20  C   UNL     1      -7.459  19.265  68.986  1.00  0.00    -0.372 C  
HETATM   21  C   UNL     1      -6.432  20.011  68.121  1.00  0.00    -0.301 C  
HETATM   22  C   UNL     1      -5.463  20.770  69.040  1.00  0.00    -0.398 C  
HETATM   23  C   UNL     1      -7.082  21.002  67.156  1.00  0.00    -0.383 C  
ENDBRANCH  12  20
ENDBRANCH   2   3
TORSDOF 3
ENDMDL
MODEL       22
REMARK 921   NORMALIZED FREE ENERGY PREDICTED BY IDOCK:   -5.49 KCAL/MOL
REMARK 922        TOTAL FREE ENERGY PREDICTED BY IDOCK:   -6.79 KCAL/MOL
REMARK 923 INTER-LIGAND FREE ENERGY PREDICTED BY IDOCK:   -6.48 KCAL/MOL
REMARK 924 INTRA-LIGAND FREE ENERGY PREDICTED BY IDOCK:   -0.31 KCAL/MOL
REMARK 927      BINDING AFFINITY PREDICTED BY RF-SCORE:    0.00 PKD
ROOT
HETATM    1  C   UNL     1      -9.016  18.651  68.489  1.00  0.00    -0.334 C  
HETATM    2  O   UNL     1     -10.385  18.308  68.679  1.00  0.00    -0.367 OA 
ENDROOT
BRANCH   2   3
HETATM    3  C   UNL     1     -10.717  16.983  68.533  1.00  0.00    -0.352 A  
HETATM    4  C   UNL     1     -11.174  16.114  69.532  1.00  0.00    -0.337 A  
HETATM    5  C   UNL     1     -11.479  14.797  69.182  1.00  0.00    -0.323 A  
HETATM    6  C   UNL     1     -10.505  16.492  67.233  1.00  0.00    -0.304 A  
HETATM    7  C   UNL     1     -11.213  14.282  67.899  1.00  0.00    -0.305 A  
HETATM    8  C   UNL     1     -10.733  15.140  66.913  1.00  0.00    -0.308 A  
HETATM    9  C   UNL     1     -11.350  12.781  67.674  1.00  0.00    -0.310 C  
HETATM   10  C   UNL     1     -10.368  12.089  68.620  1.00  0.00    -0.211 C  
HETATM   11  C   UNL     1     -10.613  10.629  68.476  1.00  0.00    -0.200 C  
HETATM   12  C   UNL     1     -10.258  10.075  67.115  1.00  0.00    -0.284 C  
HETATM   13  O   UNL     1     -11.077   9.964  69.399  1.00  0.00    -0.232 OA 
HETATM   14  C   UNL     1     -11.107  10.862  66.095  1.00  0.00     0.061 C  
HETATM   15  C   UNL     1     -10.540  14.616  65.517  1.00  0.00    -0.369 C  
HETATM   16  C   UNL     1     -10.224  13.105  65.498  1.00  0.00    -0.287 C  
HETATM   17  N   UNL     1     -11.201  12.333  66.269  1.00  0.00    -0.306 NA 
BRANCH   4  18
HETATM   18  O   UNL     1     -11.296  16.566  70.821  1.00  0.00    -0.314 OA 
HETATM   19  C   UNL     1     -12.003  15.720  71.726  1.00  0.00    -0.467 C  
ENDBRANCH   4  18
BRANCH  12  20
HETATM   20  C   UNL     1     -10.485   8.550  67.132  1.00  0.00    -0.370 C  
HETATM   21  C   UNL     1      -9.399   7.663  66.506  1.00  0.00    -0.241 C  
HETATM   22  C   UNL     1      -9.840   6.194  66.596  1.00  0.00    -0.202 C  
HETATM   23  C   UNL     1      -8.042   7.817  67.192  1.00  0.00    -0.118 C  
ENDBRANCH  12  20
ENDBRANCH   2   3
TORSDOF 3
ENDMDL
MODEL       23
REMARK 921   NORMALIZED FREE ENERGY PREDICTED BY IDOCK:   -5.48 KCAL/MOL
REMARK 922        TOTAL FREE ENERGY PREDICTED BY IDOCK:   -6.78 KCAL/MOL
REMARK 923 INTER-LIGAND FREE ENERGY PREDICTED BY IDOCK:   -6.57 KCAL/MOL
REMARK 924 INTRA-LIGAND FREE ENERGY PREDICTED BY IDOCK:   -0.21 KCAL/MOL
REMARK 927      BINDING AFFINITY PREDICTED BY RF-SCORE:    0.00 PKD
ROOT
HETATM    1  C   UNL     1      -9.623   4.562  71.321  1.00  0.00    -0.172 C  
HETATM    2  O   UNL     1     -10.776   5.398  71.315  1.00  0.00    -0.237 OA 
ENDROOT
BRANCH   2   3
HETATM    3  C   UNL     1     -10.614   6.670  70.823  1.00  0.00    -0.226 A  
HETATM    4  C   UNL     1     -10.738   7.871  71.534  1.00  0.00    -0.227 A  
HETATM    5  C   UNL     1     -10.516   9.073  70.858  1.00  0.00    -0.321 A  
HETATM    6  C   UNL     1     -10.347   6.709  69.443  1.00  0.00    -0.228 A  
HETATM    7  C   UNL     1     -10.309   9.123  69.467  1.00  0.00    -0.220 A  
HETATM    8  C   UNL     1     -10.211   7.929  68.755  1.00  0.00    -0.218 A  
HETATM    9  C   UNL     1     -10.315  10.481  68.778  1.00  0.00    -0.191 C  
HETATM   10  C   UNL     1     -11.689  11.108  69.024  1.00  0.00    -0.408 C  
HETATM   11  C   UNL     1     -11.626  12.481  68.456  1.00  0.00    -0.321 C  
HETATM   12  C   UNL     1     -11.472  12.521  66.953  1.00  0.00    -0.416 C  
HETATM   13  O   UNL     1     -11.683  13.474  69.177  1.00  0.00    -0.282 OA 
HETATM   14  C   UNL     1     -10.175  11.750  66.632  1.00  0.00    -0.210 C  
HETATM   15  C   UNL     1      -9.893   7.977  67.287  1.00  0.00    -0.258 C  
HETATM   16  C   UNL     1     -10.394   9.277  66.622  1.00  0.00    -0.222 C  
HETATM   17  N   UNL     1      -9.943  10.469  67.343  1.00  0.00    -0.174 NA 
BRANCH   4  18
HETATM   18  O   UNL     1     -11.087   7.841  72.860  1.00  0.00    -0.368 OA 
HETATM   19  C   UNL     1     -10.063   7.462  73.777  1.00  0.00    -0.278 C  
ENDBRANCH   4  18
BRANCH  12  20
HETATM   20  C   UNL     1     -11.501  13.993  66.496  1.00  0.00    -0.368 C  
HETATM   21  C   UNL     1     -10.993  14.309  65.082  1.00  0.00    -0.369 C  
HETATM   22  C   UNL     1     -11.075  15.826  64.849  1.00  0.00    -0.411 C  
HETATM   23  C   UNL     1     -11.795  13.595  63.993  1.00  0.00    -0.444 C  
ENDBRANCH  12  20
ENDBRANCH   2   3
TORSDOF 3
ENDMDL
MODEL       24
REMARK 921   NORMALIZED FREE ENERGY PREDICTED BY IDOCK:   -5.46 KCAL/MOL
REMARK 922        TOTAL FREE ENERGY PREDICTED BY IDOCK:   -6.75 KCAL/MOL
REMARK 923 INTER-LIGAND FREE ENERGY PREDICTED BY IDOCK:   -6.45 KCAL/MOL
REMARK 924 INTRA-LIGAND FREE ENERGY PREDICTED BY IDOCK:   -0.30 KCAL/MOL
REMARK 927      BINDING AFFINITY PREDICTED BY RF-SCORE:    0.00 PKD
ROOT
HETATM    1  C   UNL     1     -10.489   7.530  67.032  1.00  0.00    -0.338 C  
HETATM    2  O   UNL     1     -10.499   8.544  68.031  1.00  0.00    -0.221 OA 
ENDROOT
BRANCH   2   3
HETATM    3  C   UNL     1     -10.143   9.809  67.631  1.00  0.00    -0.190 A  
HETATM    4  C   UNL     1      -8.941  10.474  67.909  1.00  0.00    -0.137 A  
HETATM    5  C   UNL     1      -8.755  11.759  67.395  1.00  0.00    -0.162 A  
HETATM    6  C   UNL     1     -11.152  10.476  66.914  1.00  0.00    -0.124 A  
HETATM    7  C   UNL     1      -9.781  12.455  66.730  1.00  0.00    -0.226 A  
HETATM    8  C   UNL     1     -10.986  11.804  66.477  1.00  0.00    -0.342 A  
HETATM    9  C   UNL     1      -9.575  13.932  66.416  1.00  0.00    -0.277 C  
HETATM   10  C   UNL     1      -9.369  14.654  67.749  1.00  0.00    -0.197 C  
HETATM   11  C   UNL     1      -9.041  16.064  67.410  1.00  0.00    -0.199 C  
HETATM   12  C   UNL     1     -10.176  16.822  66.758  1.00  0.00    -0.304 C  
HETATM   13  O   UNL     1      -7.931  16.536  67.642  1.00  0.00    -0.157 OA 
HETATM   14  C   UNL     1     -10.540  16.037  65.481  1.00  0.00    -0.398 C  
HETATM   15  C   UNL     1     -12.048  12.511  65.681  1.00  0.00    -0.464 C  
HETATM   16  C   UNL     1     -11.977  14.044  65.844  1.00  0.00    -0.408 C  
HETATM   17  N   UNL     1     -10.630  14.559  65.585  1.00  0.00    -0.313 NA 
BRANCH   4  18
HETATM   18  O   UNL     1      -7.990   9.861  68.684  1.00  0.00    -0.084 OA 
HETATM   19  C   UNL     1      -8.196   9.905  70.095  1.00  0.00    -0.136 C  
ENDBRANCH   4  18
BRANCH  12  20
HETATM   20  C   UNL     1      -9.727  18.280  66.536  1.00  0.00    -0.343 C  
HETATM   21  C   UNL     1     -10.327  19.356  67.453  1.00  0.00    -0.559 C  
HETATM   22  C   UNL     1      -9.778  20.729  67.039  1.00  0.00    -0.391 C  
HETATM   23  C   UNL     1     -10.009  19.119  68.930  1.00  0.00    -0.481 C  
ENDBRANCH  12  20
ENDBRANCH   2   3
TORSDOF 3
ENDMDL
MODEL       25
REMARK 921   NORMALIZED FREE ENERGY PREDICTED BY IDOCK:   -5.44 KCAL/MOL
REMARK 922        TOTAL FREE ENERGY PREDICTED BY IDOCK:   -6.72 KCAL/MOL
REMARK 923 INTER-LIGAND FREE ENERGY PREDICTED BY IDOCK:   -6.37 KCAL/MOL
REMARK 924 INTRA-LIGAND FREE ENERGY PREDICTED BY IDOCK:   -0.35 KCAL/MOL
REMARK 927      BINDING AFFINITY PREDICTED BY RF-SCORE:    0.00 PKD
ROOT
HETATM    1  C   UNL     1     -10.784  16.802  68.669  1.00  0.00    -0.352 C  
HETATM    2  O   UNL     1     -11.221  16.153  69.859  1.00  0.00    -0.328 OA 
ENDROOT
BRANCH   2   3
HETATM    3  C   UNL     1     -11.433  14.798  69.781  1.00  0.00    -0.291 A  
HETATM    4  C   UNL     1     -12.220  14.018  70.639  1.00  0.00    -0.372 A  
HETATM    5  C   UNL     1     -12.329  12.649  70.385  1.00  0.00    -0.315 A  
HETATM    6  C   UNL     1     -10.720  14.176  68.741  1.00  0.00    -0.265 A  
HETATM    7  C   UNL     1     -11.571  12.011  69.386  1.00  0.00    -0.393 A  
HETATM    8  C   UNL     1     -10.769  12.783  68.549  1.00  0.00    -0.275 A  
HETATM    9  C   UNL     1     -11.569  10.488  69.334  1.00  0.00    -0.246 C  
HETATM   10  C   UNL     1     -11.014   9.990  70.669  1.00  0.00    -0.392 C  
HETATM   11  C   UNL     1     -11.144   8.509  70.645  1.00  0.00    -0.252 C  
HETATM   12  C   UNL     1     -10.273   7.829  69.613  1.00  0.00    -0.206 C  
HETATM   13  O   UNL     1     -11.912   7.922  71.404  1.00  0.00    -0.291 OA 
HETATM   14  C   UNL     1     -10.679   8.423  68.249  1.00  0.00    -0.028 C  
HETATM   15  C   UNL     1     -10.035  12.116  67.419  1.00  0.00    -0.206 C  
HETATM   16  C   UNL     1      -9.695  10.643  67.731  1.00  0.00    -0.161 C  
HETATM   17  N   UNL     1     -10.874   9.892  68.169  1.00  0.00    -0.246 NA 
BRANCH   4  18
HETATM   18  O   UNL     1     -12.845  14.607  71.708  1.00  0.00    -0.306 OA 
HETATM   19  C   UNL     1     -13.839  13.827  72.371  1.00  0.00    -0.579 C  
ENDBRANCH   4  18
BRANCH  12  20
HETATM   20  C   UNL     1     -10.447   6.304  69.753  1.00  0.00    -0.289 C  
HETATM   21  C   UNL     1      -9.223   5.485  70.188  1.00  0.00    -0.173 C  
HETATM   22  C   UNL     1      -9.604   3.998  70.227  1.00  0.00    -0.271 C  
HETATM   23  C   UNL     1      -8.694   5.899  71.562  1.00  0.00    -0.132 C  
ENDBRANCH  12  20
ENDBRANCH   2   3
TORSDOF 3
ENDMDL
MODEL       26
REMARK 921   NORMALIZED FREE ENERGY PREDICTED BY IDOCK:   -5.42 KCAL/MOL
REMARK 922        TOTAL FREE ENERGY PREDICTED BY IDOCK:   -6.70 KCAL/MOL
REMARK 923 INTER-LIGAND FREE ENERGY PREDICTED BY IDOCK:   -6.38 KCAL/MOL
REMARK 924 INTRA-LIGAND FREE ENERGY PREDICTED BY IDOCK:   -0.32 KCAL/MOL
REMARK 927      BINDING AFFINITY PREDICTED BY RF-SCORE:    0.00 PKD
ROOT
HETATM    1  C   UNL     1      -7.274  19.965  68.253  1.00  0.00    -0.299 C  
HETATM    2  O   UNL     1      -8.402  19.276  68.783  1.00  0.00    -0.361 OA 
ENDROOT
BRANCH   2   3
HETATM    3  C   UNL     1      -8.695  18.054  68.228  1.00  0.00    -0.283 A  
HETATM    4  C   UNL     1      -9.815  17.730  67.451  1.00  0.00    -0.311 A  
HETATM    5  C   UNL     1      -9.929  16.428  66.957  1.00  0.00    -0.261 A  
HETATM    6  C   UNL     1      -7.764  17.052  68.552  1.00  0.00    -0.238 A  
HETATM    7  C   UNL     1      -9.035  15.406  67.325  1.00  0.00    -0.213 A  
HETATM    8  C   UNL     1      -7.936  15.723  68.120  1.00  0.00    -0.136 A  
HETATM    9  C   UNL     1      -9.369  13.971  66.937  1.00  0.00    -0.257 C  
HETATM   10  C   UNL     1     -10.706  13.622  67.595  1.00  0.00    -0.253 C  
HETATM   11  C   UNL     1     -11.072  12.270  67.096  1.00  0.00    -0.278 C  
HETATM   12  C   UNL     1     -10.143  11.170  67.557  1.00  0.00    -0.210 C  
HETATM   13  O   UNL     1     -12.045  12.100  66.366  1.00  0.00    -0.630 OA 
HETATM   14  C   UNL     1      -8.735  11.559  67.059  1.00  0.00    -0.169 C  
HETATM   15  C   UNL     1      -6.927  14.654  68.435  1.00  0.00    -0.113 C  
HETATM   16  C   UNL     1      -7.555  13.244  68.449  1.00  0.00    -0.137 C  
HETATM   17  N   UNL     1      -8.313  12.972  67.226  1.00  0.00    -0.190 NA 
BRANCH   4  18
HETATM   18  O   UNL     1     -10.771  18.682  67.207  1.00  0.00    -0.424 OA 
HETATM   19  C   UNL     1     -10.601  19.466  66.029  1.00  0.00    -0.480 C  
ENDBRANCH   4  18
BRANCH  12  20
HETATM   20  C   UNL     1     -10.683   9.823  67.037  1.00  0.00    -0.236 C  
HETATM   21  C   UNL     1     -10.133   8.540  67.679  1.00  0.00    -0.271 C  
HETATM   22  C   UNL     1     -10.772   7.324  66.992  1.00  0.00    -0.406 C  
HETATM   23  C   UNL     1     -10.410   8.466  69.180  1.00  0.00    -0.229 C  
ENDBRANCH  12  20
ENDBRANCH   2   3
TORSDOF 3
ENDMDL
MODEL       27
REMARK 921   NORMALIZED FREE ENERGY PREDICTED BY IDOCK:   -5.41 KCAL/MOL
REMARK 922        TOTAL FREE ENERGY PREDICTED BY IDOCK:   -6.70 KCAL/MOL
REMARK 923 INTER-LIGAND FREE ENERGY PREDICTED BY IDOCK:   -6.34 KCAL/MOL
REMARK 924 INTRA-LIGAND FREE ENERGY PREDICTED BY IDOCK:   -0.36 KCAL/MOL
REMARK 927      BINDING AFFINITY PREDICTED BY RF-SCORE:    0.00 PKD
ROOT
HETATM    1  C   UNL     1     -10.771  17.984  65.338  1.00  0.00     0.163 C  
HETATM    2  O   UNL     1     -11.096  16.851  64.540  1.00  0.00    -1.054 OA 
ENDROOT
BRANCH   2   3
HETATM    3  C   UNL     1     -10.697  15.625  65.016  1.00  0.00    -0.436 A  
HETATM    4  C   UNL     1     -11.236  14.376  64.682  1.00  0.00    -0.360 A  
HETATM    5  C   UNL     1     -10.679  13.233  65.260  1.00  0.00    -0.322 A  
HETATM    6  C   UNL     1      -9.670  15.701  65.973  1.00  0.00    -0.378 A  
HETATM    7  C   UNL     1      -9.694  13.304  66.262  1.00  0.00    -0.274 A  
HETATM    8  C   UNL     1      -9.176  14.549  66.613  1.00  0.00    -0.290 A  
HETATM    9  C   UNL     1      -9.316  12.029  67.005  1.00  0.00    -0.191 C  
HETATM   10  C   UNL     1     -10.582  11.513  67.692  1.00  0.00    -0.235 C  
HETATM   11  C   UNL     1     -10.220  10.204  68.299  1.00  0.00    -0.166 C  
HETATM   12  C   UNL     1      -9.212  10.303  69.421  1.00  0.00    -0.206 C  
HETATM   13  O   UNL     1     -10.707   9.153  67.890  1.00  0.00    -0.230 OA 
HETATM   14  C   UNL     1      -7.961  10.976  68.820  1.00  0.00    -0.144 C  
HETATM   15  C   UNL     1      -8.056  14.620  67.613  1.00  0.00    -0.185 C  
HETATM   16  C   UNL     1      -8.092  13.448  68.616  1.00  0.00    -0.040 C  
HETATM   17  N   UNL     1      -8.171  12.152  67.938  1.00  0.00    -0.145 NA 
BRANCH   4  18
HETATM   18  O   UNL     1     -12.297  14.304  63.817  1.00  0.00    -0.735 OA 
HETATM   19  C   UNL     1     -12.562  13.027  63.240  1.00  0.00    -0.047 C  
ENDBRANCH   4  18
BRANCH  12  20
HETATM   20  C   UNL     1      -8.991   8.893  70.006  1.00  0.00    -0.172 C  
HETATM   21  C   UNL     1      -9.373   8.665  71.476  1.00  0.00    -0.319 C  
HETATM   22  C   UNL     1      -9.039   7.216  71.861  1.00  0.00    -0.144 C  
HETATM   23  C   UNL     1     -10.855   8.923  71.748  1.00  0.00    -0.436 C  
ENDBRANCH  12  20
ENDBRANCH   2   3
TORSDOF 3
ENDMDL
MODEL       28
REMARK 921   NORMALIZED FREE ENERGY PREDICTED BY IDOCK:   -5.41 KCAL/MOL
REMARK 922        TOTAL FREE ENERGY PREDICTED BY IDOCK:   -6.70 KCAL/MOL
REMARK 923 INTER-LIGAND FREE ENERGY PREDICTED BY IDOCK:   -6.38 KCAL/MOL
REMARK 924 INTRA-LIGAND FREE ENERGY PREDICTED BY IDOCK:   -0.32 KCAL/MOL
REMARK 927      BINDING AFFINITY PREDICTED BY RF-SCORE:    0.00 PKD
ROOT
HETATM    1  C   UNL     1     -10.227   4.971  70.278  1.00  0.00    -0.258 C  
HETATM    2  O   UNL     1     -11.158   5.887  70.845  1.00  0.00    -0.282 OA 
ENDROOT
BRANCH   2   3
HETATM    3  C   UNL     1     -10.999   7.212  70.518  1.00  0.00    -0.262 A  
HETATM    4  C   UNL     1     -11.699   8.302  71.053  1.00  0.00    -0.270 A  
HETATM    5  C   UNL     1     -11.380   9.585  70.604  1.00  0.00    -0.364 A  
HETATM    6  C   UNL     1     -10.056   7.430  69.498  1.00  0.00    -0.187 A  
HETATM    7  C   UNL     1     -10.483   9.806  69.542  1.00  0.00    -0.250 A  
HETATM    8  C   UNL     1      -9.806   8.719  68.993  1.00  0.00    -0.183 A  
HETATM    9  C   UNL     1     -10.375  11.209  68.958  1.00  0.00    -0.194 C  
HETATM   10  C   UNL     1     -11.760  11.587  68.428  1.00  0.00    -0.372 C  
HETATM   11  C   UNL     1     -11.661  13.003  67.985  1.00  0.00    -0.355 C  
HETATM   12  C   UNL     1     -10.748  13.216  66.799  1.00  0.00    -0.274 C  
HETATM   13  O   UNL     1     -12.273  13.897  68.563  1.00  0.00    -0.342 OA 
HETATM   14  C   UNL     1      -9.361  12.692  67.225  1.00  0.00    -0.195 C  
HETATM   15  C   UNL     1      -8.776   8.963  67.925  1.00  0.00    -0.129 C  
HETATM   16  C   UNL     1      -9.080  10.228  67.097  1.00  0.00    -0.142 C  
HETATM   17  N   UNL     1      -9.307  11.398  67.949  1.00  0.00    -0.159 NA 
BRANCH   4  18
HETATM   18  O   UNL     1     -12.682   8.085  71.984  1.00  0.00    -0.315 OA 
HETATM   19  C   UNL     1     -13.938   8.717  71.740  1.00  0.00    -0.434 C  
ENDBRANCH   4  18
BRANCH  12  20
HETATM   20  C   UNL     1     -10.803  14.705  66.400  1.00  0.00    -0.315 C  
HETATM   21  C   UNL     1     -10.979  15.035  64.911  1.00  0.00    -0.427 C  
HETATM   22  C   UNL     1     -10.970  16.561  64.734  1.00  0.00    -0.192 C  
HETATM   23  C   UNL     1     -12.277  14.475  64.331  1.00  0.00    -0.480 C  
ENDBRANCH  12  20
ENDBRANCH   2   3
TORSDOF 3
ENDMDL
MODEL       29
REMARK 921   NORMALIZED FREE ENERGY PREDICTED BY IDOCK:   -5.39 KCAL/MOL
REMARK 922        TOTAL FREE ENERGY PREDICTED BY IDOCK:   -6.67 KCAL/MOL
REMARK 923 INTER-LIGAND FREE ENERGY PREDICTED BY IDOCK:   -6.32 KCAL/MOL
REMARK 924 INTRA-LIGAND FREE ENERGY PREDICTED BY IDOCK:   -0.35 KCAL/MOL
REMARK 927      BINDING AFFINITY PREDICTED BY RF-SCORE:    0.00 PKD
ROOT
HETATM    1  C   UNL     1     -11.931  13.604  67.309  1.00  0.00    -0.381 C  
HETATM    2  O   UNL     1     -12.030  12.198  67.109  1.00  0.00    -0.580 OA 
ENDROOT
BRANCH   2   3
HETATM    3  C   UNL     1     -11.453  11.396  68.064  1.00  0.00    -0.307 A  
HETATM    4  C   UNL     1     -10.222  10.733  67.975  1.00  0.00    -0.178 A  
HETATM    5  C   UNL     1      -9.793   9.974  69.066  1.00  0.00    -0.203 A  
HETATM    6  C   UNL     1     -12.252  11.220  69.207  1.00  0.00    -0.290 A  
HETATM    7  C   UNL     1     -10.612   9.743  70.187  1.00  0.00    -0.337 A  
HETATM    8  C   UNL     1     -11.848  10.382  70.263  1.00  0.00    -0.399 A  
HETATM    9  C   UNL     1     -10.165   8.714  71.217  1.00  0.00    -0.239 C  
HETATM   10  C   UNL     1     -10.049   7.370  70.494  1.00  0.00    -0.192 C  
HETATM   11  C   UNL     1      -9.488   6.414  71.485  1.00  0.00    -0.154 C  
HETATM   12  C   UNL     1     -10.407   6.122  72.649  1.00  0.00    -0.219 C  
HETATM   13  O   UNL     1      -8.366   5.932  71.345  1.00  0.00    -0.124 OA 
HETATM   14  C   UNL     1     -10.695   7.480  73.322  1.00  0.00    -0.382 C  
HETATM   15  C   UNL     1     -12.683  10.215  71.502  1.00  0.00    -0.541 C  
HETATM   16  C   UNL     1     -12.426   8.864  72.202  1.00  0.00    -0.389 C  
HETATM   17  N   UNL     1     -10.999   8.633  72.439  1.00  0.00    -0.321 NA 
BRANCH   4  18
HETATM   18  O   UNL     1      -9.480  10.831  66.826  1.00  0.00    -0.169 OA 
HETATM   19  C   UNL     1      -9.665   9.797  65.861  1.00  0.00    -0.266 C  
ENDBRANCH   4  18
BRANCH  12  20
HETATM   20  C   UNL     1      -9.737   5.063  73.548  1.00  0.00    -0.152 C  
HETATM   21  C   UNL     1     -10.302   3.636  73.508  1.00  0.00    -0.238 C  
HETATM   22  C   UNL     1      -9.519   2.760  74.498  1.00  0.00    -0.117 C  
HETATM   23  C   UNL     1     -10.221   3.007  72.117  1.00  0.00    -0.146 C  
ENDBRANCH  12  20
ENDBRANCH   2   3
TORSDOF 3
ENDMDL
MODEL       30
REMARK 921   NORMALIZED FREE ENERGY PREDICTED BY IDOCK:   -5.39 KCAL/MOL
REMARK 922        TOTAL FREE ENERGY PREDICTED BY IDOCK:   -6.67 KCAL/MOL
REMARK 923 INTER-LIGAND FREE ENERGY PREDICTED BY IDOCK:   -6.44 KCAL/MOL
REMARK 924 INTRA-LIGAND FREE ENERGY PREDICTED BY IDOCK:   -0.22 KCAL/MOL
REMARK 927      BINDING AFFINITY PREDICTED BY RF-SCORE:    0.00 PKD
ROOT
HETATM    1  C   UNL     1     -13.241  14.248  72.746  1.00  0.00    -0.522 C  
HETATM    2  O   UNL     1     -13.777  13.222  71.917  1.00  0.00    -0.407 OA 
ENDROOT
BRANCH   2   3
HETATM    3  C   UNL     1     -12.877  12.490  71.181  1.00  0.00    -0.211 A  
HETATM    4  C   UNL     1     -12.202  12.901  70.024  1.00  0.00    -0.222 A  
HETATM    5  C   UNL     1     -11.306  12.015  69.424  1.00  0.00    -0.317 A  
HETATM    6  C   UNL     1     -12.694  11.180  71.659  1.00  0.00    -0.466 A  
HETATM    7  C   UNL     1     -11.162  10.684  69.860  1.00  0.00    -0.378 A  
HETATM    8  C   UNL     1     -11.853  10.267  70.995  1.00  0.00    -0.472 A  
HETATM    9  C   UNL     1     -10.347   9.721  69.005  1.00  0.00    -0.208 C  
HETATM   10  C   UNL     1     -11.024   9.647  67.635  1.00  0.00    -0.190 C  
HETATM   11  C   UNL     1     -10.141   8.808  66.782  1.00  0.00    -0.288 C  
HETATM   12  C   UNL     1     -10.050   7.364  67.221  1.00  0.00    -0.296 C  
HETATM   13  O   UNL     1      -9.543   9.282  65.820  1.00  0.00    -0.254 OA 
HETATM   14  C   UNL     1      -9.526   7.387  68.672  1.00  0.00    -0.139 C  
HETATM   15  C   UNL     1     -11.627   8.876  71.519  1.00  0.00    -0.388 C  
HETATM   16  C   UNL     1     -11.235   7.887  70.402  1.00  0.00    -0.234 C  
HETATM   17  N   UNL     1     -10.115   8.384  69.600  1.00  0.00    -0.194 NA 
BRANCH   4  18
HETATM   18  O   UNL     1     -12.446  14.146  69.503  1.00  0.00    -0.298 OA 
HETATM   19  C   UNL     1     -11.597  14.566  68.438  1.00  0.00    -0.326 C  
ENDBRANCH   4  18
BRANCH  12  20
HETATM   20  C   UNL     1      -9.174   6.599  66.209  1.00  0.00    -0.158 C  
HETATM   21  C   UNL     1      -9.343   5.074  66.132  1.00  0.00    -0.157 C  
HETATM   22  C   UNL     1      -8.357   4.514  65.097  1.00  0.00    -0.122 C  
HETATM   23  C   UNL     1     -10.762   4.656  65.745  1.00  0.00    -0.195 C  
ENDBRANCH  12  20
ENDBRANCH   2   3
TORSDOF 3
ENDMDL
MODEL       31
REMARK 921   NORMALIZED FREE ENERGY PREDICTED BY IDOCK:   -5.38 KCAL/MOL
REMARK 922        TOTAL FREE ENERGY PREDICTED BY IDOCK:   -6.66 KCAL/MOL
REMARK 923 INTER-LIGAND FREE ENERGY PREDICTED BY IDOCK:   -6.32 KCAL/MOL
REMARK 924 INTRA-LIGAND FREE ENERGY PREDICTED BY IDOCK:   -0.34 KCAL/MOL
REMARK 927      BINDING AFFINITY PREDICTED BY RF-SCORE:    0.00 PKD
ROOT
HETATM    1  C   UNL     1     -10.480  16.587  65.725  1.00  0.00    -0.329 C  
HETATM    2  O   UNL     1     -10.854  15.565  64.806  1.00  0.00    -0.430 OA 
ENDROOT
BRANCH   2   3
HETATM    3  C   UNL     1     -10.514  14.277  65.143  1.00  0.00    -0.411 A  
HETATM    4  C   UNL     1     -10.970  13.100  64.536  1.00  0.00    -0.372 A  
HETATM    5  C   UNL     1     -10.493  11.876  65.010  1.00  0.00    -0.333 A  
HETATM    6  C   UNL     1      -9.654  14.194  66.252  1.00  0.00    -0.295 A  
HETATM    7  C   UNL     1      -9.681  11.782  66.156  1.00  0.00    -0.250 A  
HETATM    8  C   UNL     1      -9.248  12.952  66.775  1.00  0.00    -0.230 A  
HETATM    9  C   UNL     1      -9.404  10.403  66.742  1.00  0.00    -0.156 C  
HETATM   10  C   UNL     1     -10.754   9.795  67.127  1.00  0.00    -0.273 C  
HETATM   11  C   UNL     1     -10.470   8.405  67.573  1.00  0.00    -0.257 C  
HETATM   12  C   UNL     1      -9.656   8.318  68.844  1.00  0.00    -0.153 C  
HETATM   13  O   UNL     1     -10.868   7.435  66.932  1.00  0.00    -0.357 OA 
HETATM   14  C   UNL     1      -8.338   9.069  68.563  1.00  0.00    -0.124 C  
HETATM   15  C   UNL     1      -8.303  12.857  67.940  1.00  0.00    -0.170 C  
HETATM   16  C   UNL     1      -8.477  11.542  68.729  1.00  0.00    -0.056 C  
HETATM   17  N   UNL     1      -8.425  10.369  67.853  1.00  0.00    -0.114 NA 
BRANCH   4  18
HETATM   18  O   UNL     1     -11.879  13.173  63.511  1.00  0.00    -0.499 OA 
HETATM   19  C   UNL     1     -12.661  12.005  63.271  1.00  0.00    -0.385 C  
ENDBRANCH   4  18
BRANCH  12  20
HETATM   20  C   UNL     1      -9.507   6.833  69.229  1.00  0.00    -0.142 C  
HETATM   21  C   UNL     1     -10.271   6.339  70.466  1.00  0.00    -0.240 C  
HETATM   22  C   UNL     1      -9.954   4.853  70.689  1.00  0.00    -0.305 C  
HETATM   23  C   UNL     1     -11.784   6.510  70.332  1.00  0.00    -0.439 C  
ENDBRANCH  12  20
ENDBRANCH   2   3
TORSDOF 3
ENDMDL
MODEL       32
REMARK 921   NORMALIZED FREE ENERGY PREDICTED BY IDOCK:   -5.32 KCAL/MOL
REMARK 922        TOTAL FREE ENERGY PREDICTED BY IDOCK:   -6.59 KCAL/MOL
REMARK 923 INTER-LIGAND FREE ENERGY PREDICTED BY IDOCK:   -6.25 KCAL/MOL
REMARK 924 INTRA-LIGAND FREE ENERGY PREDICTED BY IDOCK:   -0.35 KCAL/MOL
REMARK 927      BINDING AFFINITY PREDICTED BY RF-SCORE:    0.00 PKD
ROOT
HETATM    1  C   UNL     1      -9.341  16.957  66.501  1.00  0.00    -0.270 C  
HETATM    2  O   UNL     1     -10.599  16.379  66.169  1.00  0.00    -0.311 OA 
ENDROOT
BRANCH   2   3
HETATM    3  C   UNL     1     -10.866  15.138  66.693  1.00  0.00    -0.318 A  
HETATM    4  C   UNL     1     -11.519  14.856  67.901  1.00  0.00    -0.340 A  
HETATM    5  C   UNL     1     -11.715  13.520  68.258  1.00  0.00    -0.394 A  
HETATM    6  C   UNL     1     -10.363  14.079  65.917  1.00  0.00    -0.327 A  
HETATM    7  C   UNL     1     -11.163  12.458  67.518  1.00  0.00    -0.348 A  
HETATM    8  C   UNL     1     -10.491  12.740  66.330  1.00  0.00    -0.265 A  
HETATM    9  C   UNL     1     -11.221  11.053  68.104  1.00  0.00    -0.302 C  
HETATM   10  C   UNL     1     -10.460  11.085  69.432  1.00  0.00    -0.177 C  
HETATM   11  C   UNL     1     -10.642   9.743  70.045  1.00  0.00    -0.276 C  
HETATM   12  C   UNL     1      -9.985   8.619  69.277  1.00  0.00    -0.195 C  
HETATM   13  O   UNL     1     -11.287   9.595  71.080  1.00  0.00    -0.327 OA 
HETATM   14  C   UNL     1     -10.600   8.647  67.862  1.00  0.00    -0.161 C  
HETATM   15  C   UNL     1      -9.985  11.602  65.488  1.00  0.00    -0.277 C  
HETATM   16  C   UNL     1      -9.646  10.355  66.333  1.00  0.00    -0.179 C  
HETATM   17  N   UNL     1     -10.756   9.970  67.207  1.00  0.00    -0.262 NA 
BRANCH   4  18
HETATM   18  O   UNL     1     -11.931  15.887  68.705  1.00  0.00    -0.368 OA 
HETATM   19  C   UNL     1     -11.121  16.167  69.845  1.00  0.00    -0.357 C  
ENDBRANCH   4  18
BRANCH  12  20
HETATM   20  C   UNL     1     -10.183   7.307  70.062  1.00  0.00    -0.206 C  
HETATM   21  C   UNL     1      -9.749   6.000  69.383  1.00  0.00    -0.176 C  
HETATM   22  C   UNL     1     -10.068   4.822  70.317  1.00  0.00    -0.304 C  
HETATM   23  C   UNL     1      -8.259   5.976  69.044  1.00  0.00    -0.108 C  
ENDBRANCH  12  20
ENDBRANCH   2   3
TORSDOF 3
ENDMDL
MODEL       33
REMARK 921   NORMALIZED FREE ENERGY PREDICTED BY IDOCK:   -5.31 KCAL/MOL
REMARK 922        TOTAL FREE ENERGY PREDICTED BY IDOCK:   -6.58 KCAL/MOL
REMARK 923 INTER-LIGAND FREE ENERGY PREDICTED BY IDOCK:   -6.40 KCAL/MOL
REMARK 924 INTRA-LIGAND FREE ENERGY PREDICTED BY IDOCK:   -0.18 KCAL/MOL
REMARK 927      BINDING AFFINITY PREDICTED BY RF-SCORE:    0.00 PKD
ROOT
HETATM    1  C   UNL     1     -10.102  16.155  66.344  1.00  0.00    -0.308 C  
HETATM    2  O   UNL     1      -9.941  14.912  65.668  1.00  0.00    -0.319 OA 
ENDROOT
BRANCH   2   3
HETATM    3  C   UNL     1     -10.224  13.777  66.388  1.00  0.00    -0.292 A  
HETATM    4  C   UNL     1     -11.493  13.288  66.724  1.00  0.00    -0.350 A  
HETATM    5  C   UNL     1     -11.579  12.098  67.451  1.00  0.00    -0.410 A  
HETATM    6  C   UNL     1      -9.080  13.105  66.852  1.00  0.00    -0.231 A  
HETATM    7  C   UNL     1     -10.441  11.454  67.970  1.00  0.00    -0.215 A  
HETATM    8  C   UNL     1      -9.179  11.956  67.658  1.00  0.00    -0.183 A  
HETATM    9  C   UNL     1     -10.637  10.303  68.949  1.00  0.00    -0.219 C  
HETATM   10  C   UNL     1     -11.397  10.858  70.155  1.00  0.00    -0.367 C  
HETATM   11  C   UNL     1     -11.690   9.693  71.032  1.00  0.00    -0.353 C  
HETATM   12  C   UNL     1     -10.462   9.052  71.638  1.00  0.00    -0.426 C  
HETATM   13  O   UNL     1     -12.841   9.304  71.214  1.00  0.00    -0.322 OA 
HETATM   14  C   UNL     1      -9.573   8.619  70.454  1.00  0.00    -0.173 C  
HETATM   15  C   UNL     1      -7.959  11.214  68.130  1.00  0.00    -0.125 C  
HETATM   16  C   UNL     1      -8.218  10.434  69.435  1.00  0.00    -0.151 C  
HETATM   17  N   UNL     1      -9.403   9.579  69.335  1.00  0.00    -0.170 NA 
BRANCH   4  18
HETATM   18  O   UNL     1     -12.611  13.988  66.350  1.00  0.00    -0.428 OA 
HETATM   19  C   UNL     1     -13.027  13.843  64.994  1.00  0.00    -0.156 C  
ENDBRANCH   4  18
BRANCH  12  20
HETATM   20  C   UNL     1     -10.916   7.918  72.579  1.00  0.00    -0.412 C  
HETATM   21  C   UNL     1      -9.839   6.958  73.106  1.00  0.00    -0.213 C  
HETATM   22  C   UNL     1     -10.508   5.892  73.987  1.00  0.00    -0.276 C  
HETATM   23  C   UNL     1      -8.760   7.671  73.921  1.00  0.00    -0.302 C  
ENDBRANCH  12  20
ENDBRANCH   2   3
TORSDOF 3
ENDMDL
MODEL       34
REMARK 921   NORMALIZED FREE ENERGY PREDICTED BY IDOCK:   -5.30 KCAL/MOL
REMARK 922        TOTAL FREE ENERGY PREDICTED BY IDOCK:   -6.57 KCAL/MOL
REMARK 923 INTER-LIGAND FREE ENERGY PREDICTED BY IDOCK:   -6.50 KCAL/MOL
REMARK 924 INTRA-LIGAND FREE ENERGY PREDICTED BY IDOCK:   -0.06 KCAL/MOL
REMARK 927      BINDING AFFINITY PREDICTED BY RF-SCORE:    0.00 PKD
ROOT
HETATM    1  C   UNL     1     -10.251   4.669  66.248  1.00  0.00    -0.275 C  
HETATM    2  O   UNL     1     -10.785   5.102  67.495  1.00  0.00    -0.094 OA 
ENDROOT
BRANCH   2   3
HETATM    3  C   UNL     1     -10.648   6.435  67.797  1.00  0.00    -0.266 A  
HETATM    4  C   UNL     1     -10.925   7.054  69.022  1.00  0.00    -0.130 A  
HETATM    5  C   UNL     1     -10.703   8.428  69.142  1.00  0.00    -0.123 A  
HETATM    6  C   UNL     1     -10.231   7.218  66.706  1.00  0.00    -0.305 A  
HETATM    7  C   UNL     1     -10.344   9.227  68.040  1.00  0.00    -0.270 A  
HETATM    8  C   UNL     1     -10.094   8.614  66.814  1.00  0.00    -0.366 A  
HETATM    9  C   UNL     1     -10.357  10.741  68.203  1.00  0.00    -0.171 C  
HETATM   10  C   UNL     1     -11.786  11.145  68.572  1.00  0.00    -0.330 C  
HETATM   11  C   UNL     1     -11.744  12.605  68.853  1.00  0.00    -0.325 C  
HETATM   12  C   UNL     1     -11.426  13.457  67.646  1.00  0.00    -0.353 C  
HETATM   13  O   UNL     1     -11.943  13.044  69.983  1.00  0.00    -0.330 OA 
HETATM   14  C   UNL     1     -10.055  12.974  67.127  1.00  0.00    -0.244 C  
HETATM   15  C   UNL     1      -9.617   9.453  65.661  1.00  0.00    -0.345 C  
HETATM   16  C   UNL     1     -10.119  10.909  65.749  1.00  0.00    -0.252 C  
HETATM   17  N   UNL     1      -9.826  11.510  67.053  1.00  0.00    -0.190 NA 
BRANCH   4  18
HETATM   18  O   UNL     1     -11.418   6.309  70.063  1.00  0.00    -0.412 OA 
HETATM   19  C   UNL     1     -11.942   7.035  71.173  1.00  0.00    -0.356 C  
ENDBRANCH   4  18
BRANCH  12  20
HETATM   20  C   UNL     1     -11.494  14.941  68.061  1.00  0.00    -0.355 C  
HETATM   21  C   UNL     1     -10.501  15.910  67.404  1.00  0.00    -0.306 C  
HETATM   22  C   UNL     1     -10.716  17.316  67.984  1.00  0.00    -0.367 C  
HETATM   23  C   UNL     1     -10.653  15.971  65.884  1.00  0.00    -0.338 C  
ENDBRANCH  12  20
ENDBRANCH   2   3
TORSDOF 3
ENDMDL
MODEL       35
REMARK 921   NORMALIZED FREE ENERGY PREDICTED BY IDOCK:   -5.30 KCAL/MOL
REMARK 922        TOTAL FREE ENERGY PREDICTED BY IDOCK:   -6.56 KCAL/MOL
REMARK 923 INTER-LIGAND FREE ENERGY PREDICTED BY IDOCK:   -6.29 KCAL/MOL
REMARK 924 INTRA-LIGAND FREE ENERGY PREDICTED BY IDOCK:   -0.27 KCAL/MOL
REMARK 927      BINDING AFFINITY PREDICTED BY RF-SCORE:    0.00 PKD
ROOT
HETATM    1  C   UNL     1     -10.580  15.308  64.885  1.00  0.00    -0.351 C  
HETATM    2  O   UNL     1      -9.761  14.729  65.896  1.00  0.00    -0.310 OA 
ENDROOT
BRANCH   2   3
HETATM    3  C   UNL     1     -10.256  13.614  66.528  1.00  0.00    -0.284 A  
HETATM    4  C   UNL     1     -11.290  13.570  67.472  1.00  0.00    -0.308 A  
HETATM    5  C   UNL     1     -11.667  12.330  67.992  1.00  0.00    -0.417 A  
HETATM    6  C   UNL     1      -9.580  12.429  66.188  1.00  0.00    -0.238 A  
HETATM    7  C   UNL     1     -10.956  11.150  67.704  1.00  0.00    -0.323 A  
HETATM    8  C   UNL     1      -9.911  11.198  66.784  1.00  0.00    -0.242 A  
HETATM    9  C   UNL     1     -11.284   9.890  68.496  1.00  0.00    -0.072 C  
HETATM   10  C   UNL     1     -11.012  10.198  69.970  1.00  0.00    -0.364 C  
HETATM   11  C   UNL     1     -11.461   9.003  70.732  1.00  0.00    -0.282 C  
HETATM   12  C   UNL     1     -10.646   7.758  70.465  1.00  0.00    -0.226 C  
HETATM   13  O   UNL     1     -12.423   9.055  71.494  1.00  0.00    -0.304 OA 
HETATM   14  C   UNL     1     -10.749   7.493  68.948  1.00  0.00    -0.115 C  
HETATM   15  C   UNL     1      -9.215   9.922  66.401  1.00  0.00    -0.195 C  
HETATM   16  C   UNL     1      -9.247   8.875  67.534  1.00  0.00    -0.136 C  
HETATM   17  N   UNL     1     -10.605   8.656  68.036  1.00  0.00    -0.187 NA 
BRANCH   4  18
HETATM   18  O   UNL     1     -11.891  14.735  67.874  1.00  0.00    -0.345 OA 
HETATM   19  C   UNL     1     -11.894  14.999  69.275  1.00  0.00    -0.315 C  
ENDBRANCH   4  18
BRANCH  12  20
HETATM   20  C   UNL     1     -11.167   6.627  71.374  1.00  0.00    -0.318 C  
HETATM   21  C   UNL     1     -10.278   6.192  72.548  1.00  0.00    -0.206 C  
HETATM   22  C   UNL     1     -10.964   5.038  73.294  1.00  0.00    -0.384 C  
HETATM   23  C   UNL     1     -10.004   7.328  73.534  1.00  0.00    -0.366 C  
ENDBRANCH  12  20
ENDBRANCH   2   3
TORSDOF 3
ENDMDL
MODEL       36
REMARK 921   NORMALIZED FREE ENERGY PREDICTED BY IDOCK:   -5.29 KCAL/MOL
REMARK 922        TOTAL FREE ENERGY PREDICTED BY IDOCK:   -6.56 KCAL/MOL
REMARK 923 INTER-LIGAND FREE ENERGY PREDICTED BY IDOCK:   -6.37 KCAL/MOL
REMARK 924 INTRA-LIGAND FREE ENERGY PREDICTED BY IDOCK:   -0.19 KCAL/MOL
REMARK 927      BINDING AFFINITY PREDICTED BY RF-SCORE:    0.00 PKD
ROOT
HETATM    1  C   UNL     1      -9.598   7.467  66.350  1.00  0.00    -0.114 C  
HETATM    2  O   UNL     1     -10.622   8.340  66.814  1.00  0.00    -0.306 OA 
ENDROOT
BRANCH   2   3
HETATM    3  C   UNL     1     -10.265   9.648  67.038  1.00  0.00    -0.244 A  
HETATM    4  C   UNL     1      -9.869  10.216  68.256  1.00  0.00    -0.145 A  
HETATM    5  C   UNL     1      -9.524  11.569  68.280  1.00  0.00    -0.189 A  
HETATM    6  C   UNL     1     -10.376  10.464  65.898  1.00  0.00    -0.261 A  
HETATM    7  C   UNL     1      -9.690  12.405  67.160  1.00  0.00    -0.207 A  
HETATM    8  C   UNL     1     -10.108  11.844  65.955  1.00  0.00    -0.261 A  
HETATM    9  C   UNL     1      -9.518  13.908  67.340  1.00  0.00    -0.226 C  
HETATM   10  C   UNL     1     -10.557  14.363  68.366  1.00  0.00    -0.248 C  
HETATM   11  C   UNL     1     -10.283  15.803  68.622  1.00  0.00    -0.221 C  
HETATM   12  C   UNL     1     -10.533  16.699  67.430  1.00  0.00    -0.314 C  
HETATM   13  O   UNL     1      -9.879  16.192  69.714  1.00  0.00    -0.209 OA 
HETATM   14  C   UNL     1      -9.623  16.175  66.299  1.00  0.00    -0.306 C  
HETATM   15  C   UNL     1     -10.193  12.716  64.733  1.00  0.00    -0.307 C  
HETATM   16  C   UNL     1     -10.488  14.189  65.085  1.00  0.00    -0.402 C  
HETATM   17  N   UNL     1      -9.559  14.707  66.093  1.00  0.00    -0.310 NA 
BRANCH   4  18
HETATM   18  O   UNL     1      -9.846   9.444  69.389  1.00  0.00    -0.165 OA 
HETATM   19  C   UNL     1     -11.004   9.500  70.220  1.00  0.00    -0.269 C  
ENDBRANCH   4  18
BRANCH  12  20
HETATM   20  C   UNL     1     -10.289  18.160  67.857  1.00  0.00    -0.410 C  
HETATM   21  C   UNL     1      -9.854  19.155  66.770  1.00  0.00    -0.407 C  
HETATM   22  C   UNL     1      -9.632  20.532  67.414  1.00  0.00    -0.578 C  
HETATM   23  C   UNL     1     -10.883  19.291  65.648  1.00  0.00    -0.269 C  
ENDBRANCH  12  20
ENDBRANCH   2   3
TORSDOF 3
ENDMDL
MODEL       37
REMARK 921   NORMALIZED FREE ENERGY PREDICTED BY IDOCK:   -5.29 KCAL/MOL
REMARK 922        TOTAL FREE ENERGY PREDICTED BY IDOCK:   -6.55 KCAL/MOL
REMARK 923 INTER-LIGAND FREE ENERGY PREDICTED BY IDOCK:   -6.47 KCAL/MOL
REMARK 924 INTRA-LIGAND FREE ENERGY PREDICTED BY IDOCK:   -0.08 KCAL/MOL
REMARK 927      BINDING AFFINITY PREDICTED BY RF-SCORE:    0.00 PKD
ROOT
HETATM    1  C   UNL     1     -12.894  14.107  65.231  1.00  0.00    -0.344 C  
HETATM    2  O   UNL     1     -11.676  14.231  65.957  1.00  0.00    -0.358 OA 
ENDROOT
BRANCH   2   3
HETATM    3  C   UNL     1     -11.194  13.091  66.554  1.00  0.00    -0.302 A  
HETATM    4  C   UNL     1     -10.340  12.138  65.984  1.00  0.00    -0.237 A  
HETATM    5  C   UNL     1      -9.942  11.048  66.762  1.00  0.00    -0.240 A  
HETATM    6  C   UNL     1     -11.685  12.889  67.856  1.00  0.00    -0.405 A  
HETATM    7  C   UNL     1     -10.476  10.807  68.041  1.00  0.00    -0.225 A  
HETATM    8  C   UNL     1     -11.346  11.742  68.598  1.00  0.00    -0.327 A  
HETATM    9  C   UNL     1     -10.172   9.476  68.719  1.00  0.00    -0.198 C  
HETATM   10  C   UNL     1     -10.723   8.372  67.815  1.00  0.00    -0.165 C  
HETATM   11  C   UNL     1     -10.300   7.085  68.430  1.00  0.00    -0.193 C  
HETATM   12  C   UNL     1     -10.935   6.805  69.773  1.00  0.00    -0.345 C  
HETATM   13  O   UNL     1      -9.495   6.344  67.872  1.00  0.00    -0.118 OA 
HETATM   14  C   UNL     1     -10.546   7.986  70.687  1.00  0.00    -0.219 C  
HETATM   15  C   UNL     1     -11.841  11.535  70.003  1.00  0.00    -0.435 C  
HETATM   16  C   UNL     1     -11.906  10.042  70.386  1.00  0.00    -0.262 C  
HETATM   17  N   UNL     1     -10.640   9.354  70.120  1.00  0.00    -0.223 NA 
BRANCH   4  18
HETATM   18  O   UNL     1      -9.931  12.286  64.684  1.00  0.00    -0.256 OA 
HETATM   19  C   UNL     1     -10.687  11.587  63.696  1.00  0.00    -0.424 C  
ENDBRANCH   4  18
BRANCH  12  20
HETATM   20  C   UNL     1     -10.473   5.414  70.252  1.00  0.00    -0.355 C  
HETATM   21  C   UNL     1     -10.198   5.233  71.752  1.00  0.00    -0.269 C  
HETATM   22  C   UNL     1      -9.719   3.796  72.003  1.00  0.00    -0.236 C  
HETATM   23  C   UNL     1     -11.431   5.504  72.615  1.00  0.00    -0.331 C  
ENDBRANCH  12  20
ENDBRANCH   2   3
TORSDOF 3
ENDMDL
MODEL       38
REMARK 921   NORMALIZED FREE ENERGY PREDICTED BY IDOCK:   -5.24 KCAL/MOL
REMARK 922        TOTAL FREE ENERGY PREDICTED BY IDOCK:   -6.49 KCAL/MOL
REMARK 923 INTER-LIGAND FREE ENERGY PREDICTED BY IDOCK:   -6.20 KCAL/MOL
REMARK 924 INTRA-LIGAND FREE ENERGY PREDICTED BY IDOCK:   -0.30 KCAL/MOL
REMARK 927      BINDING AFFINITY PREDICTED BY RF-SCORE:    0.00 PKD
ROOT
HETATM    1  C   UNL     1     -12.069  14.696  64.211  1.00  0.00    -0.415 C  
HETATM    2  O   UNL     1     -10.958  14.414  65.056  1.00  0.00    -0.345 OA 
ENDROOT
BRANCH   2   3
HETATM    3  C   UNL     1     -11.096  13.360  65.926  1.00  0.00    -0.280 A  
HETATM    4  C   UNL     1     -11.712  13.381  67.184  1.00  0.00    -0.379 A  
HETATM    5  C   UNL     1     -11.770  12.194  67.919  1.00  0.00    -0.403 A  
HETATM    6  C   UNL     1     -10.490  12.175  65.473  1.00  0.00    -0.300 A  
HETATM    7  C   UNL     1     -11.114  11.021  67.500  1.00  0.00    -0.366 A  
HETATM    8  C   UNL     1     -10.479  11.008  66.260  1.00  0.00    -0.310 A  
HETATM    9  C   UNL     1     -11.026   9.850  68.470  1.00  0.00    -0.180 C  
HETATM   10  C   UNL     1     -10.269  10.340  69.706  1.00  0.00    -0.262 C  
HETATM   11  C   UNL     1     -10.311   9.224  70.687  1.00  0.00    -0.263 C  
HETATM   12  C   UNL     1      -9.544   7.994  70.255  1.00  0.00    -0.171 C  
HETATM   13  O   UNL     1     -10.934   9.322  71.741  1.00  0.00    -0.369 OA 
HETATM   14  C   UNL     1     -10.164   7.549  68.914  1.00  0.00    -0.208 C  
HETATM   15  C   UNL     1      -9.862   9.729  65.768  1.00  0.00    -0.360 C  
HETATM   16  C   UNL     1      -9.395   8.822  66.925  1.00  0.00    -0.167 C  
HETATM   17  N   UNL     1     -10.457   8.602  67.910  1.00  0.00    -0.227 NA 
BRANCH   4  18
HETATM   18  O   UNL     1     -12.225  14.556  67.669  1.00  0.00    -0.298 OA 
HETATM   19  C   UNL     1     -11.818  14.934  68.982  1.00  0.00    -0.301 C  
ENDBRANCH   4  18
BRANCH  12  20
HETATM   20  C   UNL     1      -9.605   6.955  71.393  1.00  0.00    -0.167 C  
HETATM   21  C   UNL     1      -8.343   6.761  72.247  1.00  0.00    -0.106 C  
HETATM   22  C   UNL     1      -8.608   5.663  73.287  1.00  0.00    -0.116 C  
HETATM   23  C   UNL     1      -7.917   8.039  72.970  1.00  0.00    -0.207 C  
ENDBRANCH  12  20
ENDBRANCH   2   3
TORSDOF 3
ENDMDL
MODEL       39
REMARK 921   NORMALIZED FREE ENERGY PREDICTED BY IDOCK:   -5.17 KCAL/MOL
REMARK 922        TOTAL FREE ENERGY PREDICTED BY IDOCK:   -6.42 KCAL/MOL
REMARK 923 INTER-LIGAND FREE ENERGY PREDICTED BY IDOCK:   -6.35 KCAL/MOL
REMARK 924 INTRA-LIGAND FREE ENERGY PREDICTED BY IDOCK:   -0.07 KCAL/MOL
REMARK 927      BINDING AFFINITY PREDICTED BY RF-SCORE:    0.00 PKD
ROOT
HETATM    1  C   UNL     1     -10.849   6.158  67.143  1.00  0.00    -0.360 C  
HETATM    2  O   UNL     1     -10.934   6.695  68.459  1.00  0.00    -0.258 OA 
ENDROOT
BRANCH   2   3
HETATM    3  C   UNL     1     -10.699   8.042  68.594  1.00  0.00    -0.026 A  
HETATM    4  C   UNL     1     -10.754   8.793  69.775  1.00  0.00    -0.218 A  
HETATM    5  C   UNL     1     -10.462  10.157  69.713  1.00  0.00    -0.301 A  
HETATM    6  C   UNL     1     -10.429   8.689  67.375  1.00  0.00    -0.351 A  
HETATM    7  C   UNL     1     -10.252  10.823  68.491  1.00  0.00    -0.192 A  
HETATM    8  C   UNL     1     -10.223  10.080  67.313  1.00  0.00    -0.275 A  
HETATM    9  C   UNL     1     -10.180  12.345  68.494  1.00  0.00    -0.205 C  
HETATM   10  C   UNL     1     -11.515  12.861  69.033  1.00  0.00    -0.358 C  
HETATM   11  C   UNL     1     -11.372  14.337  69.149  1.00  0.00    -0.276 C  
HETATM   12  C   UNL     1     -11.216  15.048  67.823  1.00  0.00    -0.327 C  
HETATM   13  O   UNL     1     -11.373  14.895  70.243  1.00  0.00    -0.252 OA 
HETATM   14  C   UNL     1      -9.966  14.441  67.154  1.00  0.00    -0.253 C  
HETATM   15  C   UNL     1      -9.902  10.774  66.019  1.00  0.00    -0.285 C  
HETATM   16  C   UNL     1     -10.327  12.257  66.029  1.00  0.00    -0.245 C  
HETATM   17  N   UNL     1      -9.808  12.966  67.201  1.00  0.00    -0.221 NA 
BRANCH   4  18
HETATM   18  O   UNL     1     -11.104   8.181  70.952  1.00  0.00    -0.249 OA 
HETATM   19  C   UNL     1     -11.777   8.992  71.913  1.00  0.00    -0.374 C  
ENDBRANCH   4  18
BRANCH  12  20
HETATM   20  C   UNL     1     -11.160  16.566  68.086  1.00  0.00    -0.303 C  
HETATM   21  C   UNL     1     -10.253  17.411  67.179  1.00  0.00    -0.323 C  
HETATM   22  C   UNL     1     -10.317  18.877  67.635  1.00  0.00    -0.496 C  
HETATM   23  C   UNL     1     -10.651  17.330  65.705  1.00  0.00    -0.198 C  
ENDBRANCH  12  20
ENDBRANCH   2   3
TORSDOF 3
ENDMDL
MODEL       40
REMARK 921   NORMALIZED FREE ENERGY PREDICTED BY IDOCK:   -5.17 KCAL/MOL
REMARK 922        TOTAL FREE ENERGY PREDICTED BY IDOCK:   -6.41 KCAL/MOL
REMARK 923 INTER-LIGAND FREE ENERGY PREDICTED BY IDOCK:   -6.07 KCAL/MOL
REMARK 924 INTRA-LIGAND FREE ENERGY PREDICTED BY IDOCK:   -0.34 KCAL/MOL
REMARK 927      BINDING AFFINITY PREDICTED BY RF-SCORE:    0.00 PKD
ROOT
HETATM    1  C   UNL     1      -8.803   9.388  64.338  1.00  0.00    -0.188 C  
HETATM    2  O   UNL     1     -10.051  10.020  64.604  1.00  0.00    -0.271 OA 
ENDROOT
BRANCH   2   3
HETATM    3  C   UNL     1     -10.001  11.282  65.145  1.00  0.00    -0.264 A  
HETATM    4  C   UNL     1     -10.533  12.456  64.594  1.00  0.00    -0.309 A  
HETATM    5  C   UNL     1     -10.397  13.649  65.307  1.00  0.00    -0.362 A  
HETATM    6  C   UNL     1      -9.283  11.349  66.352  1.00  0.00    -0.209 A  
HETATM    7  C   UNL     1      -9.629  13.735  66.484  1.00  0.00    -0.295 A  
HETATM    8  C   UNL     1      -9.078  12.572  67.017  1.00  0.00    -0.213 A  
HETATM    9  C   UNL     1      -9.335  15.113  67.064  1.00  0.00    -0.230 C  
HETATM   10  C   UNL     1      -8.567  15.897  65.998  1.00  0.00    -0.130 C  
HETATM   11  C   UNL     1      -8.407  17.275  66.534  1.00  0.00    -0.277 C  
HETATM   12  C   UNL     1      -7.523  17.363  67.758  1.00  0.00    -0.195 C  
HETATM   13  O   UNL     1      -8.968  18.234  66.011  1.00  0.00    -0.500 OA 
HETATM   14  C   UNL     1      -8.168  16.448  68.821  1.00  0.00    -0.234 C  
HETATM   15  C   UNL     1      -8.340  12.645  68.325  1.00  0.00    -0.165 C  
HETATM   16  C   UNL     1      -7.691  14.026  68.554  1.00  0.00    -0.139 C  
HETATM   17  N   UNL     1      -8.652  15.117  68.379  1.00  0.00    -0.154 NA 
BRANCH   4  18
HETATM   18  O   UNL     1     -11.156  12.411  63.373  1.00  0.00    -0.455 OA 
HETATM   19  C   UNL     1     -12.536  12.051  63.377  1.00  0.00    -0.469 C  
ENDBRANCH   4  18
BRANCH  12  20
HETATM   20  C   UNL     1      -7.382  18.846  68.155  1.00  0.00    -0.286 C  
HETATM   21  C   UNL     1      -6.003  19.500  67.983  1.00  0.00    -0.231 C  
HETATM   22  C   UNL     1      -6.076  20.955  68.469  1.00  0.00    -0.335 C  
HETATM   23  C   UNL     1      -5.518  19.483  66.534  1.00  0.00    -0.163 C  
ENDBRANCH  12  20
ENDBRANCH   2   3
TORSDOF 3
ENDMDL
MODEL       41
REMARK 921   NORMALIZED FREE ENERGY PREDICTED BY IDOCK:   -5.16 KCAL/MOL
REMARK 922        TOTAL FREE ENERGY PREDICTED BY IDOCK:   -6.41 KCAL/MOL
REMARK 923 INTER-LIGAND FREE ENERGY PREDICTED BY IDOCK:   -6.15 KCAL/MOL
REMARK 924 INTRA-LIGAND FREE ENERGY PREDICTED BY IDOCK:   -0.26 KCAL/MOL
REMARK 927      BINDING AFFINITY PREDICTED BY RF-SCORE:    0.00 PKD
ROOT
HETATM    1  C   UNL     1     -10.759  15.762  65.232  1.00  0.00    -0.428 C  
HETATM    2  O   UNL     1     -11.014  15.563  66.618  1.00  0.00    -0.312 OA 
ENDROOT
BRANCH   2   3
HETATM    3  C   UNL     1     -11.143  14.262  67.042  1.00  0.00    -0.312 A  
HETATM    4  C   UNL     1     -11.634  13.824  68.279  1.00  0.00    -0.338 A  
HETATM    5  C   UNL     1     -11.706  12.451  68.520  1.00  0.00    -0.373 A  
HETATM    6  C   UNL     1     -10.669  13.319  66.113  1.00  0.00    -0.287 A  
HETATM    7  C   UNL     1     -11.179  11.504  67.622  1.00  0.00    -0.343 A  
HETATM    8  C   UNL     1     -10.667  11.941  66.403  1.00  0.00    -0.303 A  
HETATM    9  C   UNL     1     -11.083  10.050  68.068  1.00  0.00    -0.201 C  
HETATM   10  C   UNL     1     -10.178  10.014  69.302  1.00  0.00    -0.229 C  
HETATM   11  C   UNL     1     -10.206   8.611  69.794  1.00  0.00    -0.206 C  
HETATM   12  C   UNL     1      -9.574   7.613  68.850  1.00  0.00    -0.150 C  
HETATM   13  O   UNL     1     -10.717   8.322  70.873  1.00  0.00    -0.211 OA 
HETATM   14  C   UNL     1     -10.349   7.728  67.521  1.00  0.00    -0.264 C  
HETATM   15  C   UNL     1     -10.193  10.925  65.401  1.00  0.00    -0.339 C  
HETATM   16  C   UNL     1      -9.684   9.634  66.075  1.00  0.00    -0.264 C  
HETATM   17  N   UNL     1     -10.660   9.090  67.022  1.00  0.00    -0.242 NA 
BRANCH   4  18
HETATM   18  O   UNL     1     -12.013  14.745  69.223  1.00  0.00    -0.303 OA 
HETATM   19  C   UNL     1     -12.474  14.224  70.468  1.00  0.00    -0.361 C  
ENDBRANCH   4  18
BRANCH  12  20
HETATM   20  C   UNL     1      -9.600   6.223  69.517  1.00  0.00    -0.163 C  
HETATM   21  C   UNL     1      -9.331   5.002  68.627  1.00  0.00    -0.173 C  
HETATM   22  C   UNL     1      -9.441   3.728  69.478  1.00  0.00    -0.257 C  
HETATM   23  C   UNL     1      -7.951   5.042  67.969  1.00  0.00    -0.090 C  
ENDBRANCH  12  20
ENDBRANCH   2   3
TORSDOF 3
ENDMDL
MODEL       42
REMARK 921   NORMALIZED FREE ENERGY PREDICTED BY IDOCK:   -5.15 KCAL/MOL
REMARK 922        TOTAL FREE ENERGY PREDICTED BY IDOCK:   -6.39 KCAL/MOL
REMARK 923 INTER-LIGAND FREE ENERGY PREDICTED BY IDOCK:   -6.09 KCAL/MOL
REMARK 924 INTRA-LIGAND FREE ENERGY PREDICTED BY IDOCK:   -0.31 KCAL/MOL
REMARK 927      BINDING AFFINITY PREDICTED BY RF-SCORE:    0.00 PKD
ROOT
HETATM    1  C   UNL     1     -10.605  19.180  66.980  1.00  0.00    -0.457 C  
HETATM    2  O   UNL     1      -9.678  18.168  66.602  1.00  0.00    -0.305 OA 
ENDROOT
BRANCH   2   3
HETATM    3  C   UNL     1      -9.862  16.924  67.155  1.00  0.00    -0.270 A  
HETATM    4  C   UNL     1      -9.166  16.372  68.239  1.00  0.00    -0.207 A  
HETATM    5  C   UNL     1      -9.513  15.090  68.671  1.00  0.00    -0.212 A  
HETATM    6  C   UNL     1     -10.830  16.151  66.489  1.00  0.00    -0.139 A  
HETATM    7  C   UNL     1     -10.436  14.288  67.974  1.00  0.00    -0.235 A  
HETATM    8  C   UNL     1     -11.109  14.828  66.880  1.00  0.00    -0.339 A  
HETATM    9  C   UNL     1     -10.576  12.824  68.371  1.00  0.00    -0.248 C  
HETATM   10  C   UNL     1      -9.208  12.167  68.171  1.00  0.00    -0.197 C  
HETATM   11  C   UNL     1      -9.336  10.779  68.688  1.00  0.00    -0.184 C  
HETATM   12  C   UNL     1     -10.278   9.907  67.888  1.00  0.00    -0.234 C  
HETATM   13  O   UNL     1      -8.725  10.409  69.687  1.00  0.00    -0.146 OA 
HETATM   14  C   UNL     1     -11.648  10.616  67.916  1.00  0.00    -0.047 C  
HETATM   15  C   UNL     1     -12.165  14.008  66.193  1.00  0.00    -0.494 C  
HETATM   16  C   UNL     1     -11.896  12.493  66.309  1.00  0.00    -0.390 C  
HETATM   17  N   UNL     1     -11.668  12.083  67.697  1.00  0.00    -0.503 NA 
BRANCH   4  18
HETATM   18  O   UNL     1      -8.160  17.088  68.834  1.00  0.00    -0.253 OA 
HETATM   19  C   UNL     1      -6.850  16.532  68.752  1.00  0.00    -0.175 C  
ENDBRANCH   4  18
BRANCH  12  20
HETATM   20  C   UNL     1     -10.253   8.485  68.482  1.00  0.00    -0.225 C  
HETATM   21  C   UNL     1     -10.458   7.307  67.518  1.00  0.00    -0.337 C  
HETATM   22  C   UNL     1     -10.434   5.996  68.318  1.00  0.00    -0.289 C  
HETATM   23  C   UNL     1      -9.389   7.244  66.427  1.00  0.00    -0.199 C  
ENDBRANCH  12  20
ENDBRANCH   2   3
TORSDOF 3
ENDMDL
MODEL       43
REMARK 921   NORMALIZED FREE ENERGY PREDICTED BY IDOCK:   -5.08 KCAL/MOL
REMARK 922        TOTAL FREE ENERGY PREDICTED BY IDOCK:   -6.31 KCAL/MOL
REMARK 923 INTER-LIGAND FREE ENERGY PREDICTED BY IDOCK:   -6.01 KCAL/MOL
REMARK 924 INTRA-LIGAND FREE ENERGY PREDICTED BY IDOCK:   -0.30 KCAL/MOL
REMARK 927      BINDING AFFINITY PREDICTED BY RF-SCORE:    0.00 PKD
ROOT
HETATM    1  C   UNL     1      -9.711   7.095  71.925  1.00  0.00    -0.156 C  
HETATM    2  O   UNL     1     -10.523   6.894  70.774  1.00  0.00    -0.212 OA 
ENDROOT
BRANCH   2   3
HETATM    3  C   UNL     1     -10.724   7.984  69.961  1.00  0.00    -0.244 A  
HETATM    4  C   UNL     1     -10.300   8.135  68.635  1.00  0.00    -0.200 A  
HETATM    5  C   UNL     1     -10.618   9.317  67.963  1.00  0.00    -0.262 A  
HETATM    6  C   UNL     1     -11.386   9.047  70.601  1.00  0.00    -0.311 A  
HETATM    7  C   UNL     1     -11.226  10.408  68.613  1.00  0.00    -0.305 A  
HETATM    8  C   UNL     1     -11.624  10.267  69.940  1.00  0.00    -0.326 A  
HETATM    9  C   UNL     1     -11.318  11.737  67.874  1.00  0.00    -0.292 C  
HETATM   10  C   UNL     1      -9.888  12.178  67.554  1.00  0.00    -0.193 C  
HETATM   11  C   UNL     1     -10.010  13.405  66.722  1.00  0.00    -0.264 C  
HETATM   12  C   UNL     1     -10.600  14.589  67.453  1.00  0.00    -0.271 C  
HETATM   13  O   UNL     1      -9.663  13.415  65.544  1.00  0.00    -0.175 OA 
HETATM   14  C   UNL     1     -11.991  14.140  67.948  1.00  0.00    -0.343 C  
HETATM   15  C   UNL     1     -12.360  11.395  70.607  1.00  0.00    -0.466 C  
HETATM   16  C   UNL     1     -11.979  12.770  70.019  1.00  0.00    -0.301 C  
HETATM   17  N   UNL     1     -12.100  12.792  68.559  1.00  0.00    -0.202 NA 
BRANCH   4  18
HETATM   18  O   UNL     1      -9.576   7.136  68.036  1.00  0.00    -0.133 OA 
HETATM   19  C   UNL     1      -8.698   7.531  66.984  1.00  0.00    -0.127 C  
ENDBRANCH   4  18
BRANCH  12  20
HETATM   20  C   UNL     1     -10.593  15.804  66.503  1.00  0.00    -0.306 C  
HETATM   21  C   UNL     1     -10.288  17.181  67.111  1.00  0.00    -0.307 C  
HETATM   22  C   UNL     1     -10.369  18.244  66.006  1.00  0.00    -0.377 C  
HETATM   23  C   UNL     1      -8.907  17.245  67.764  1.00  0.00    -0.234 C  
ENDBRANCH  12  20
ENDBRANCH   2   3
TORSDOF 3
ENDMDL
MODEL       44
REMARK 921   NORMALIZED FREE ENERGY PREDICTED BY IDOCK:   -5.07 KCAL/MOL
REMARK 922        TOTAL FREE ENERGY PREDICTED BY IDOCK:   -6.29 KCAL/MOL
REMARK 923 INTER-LIGAND FREE ENERGY PREDICTED BY IDOCK:   -6.01 KCAL/MOL
REMARK 924 INTRA-LIGAND FREE ENERGY PREDICTED BY IDOCK:   -0.28 KCAL/MOL
REMARK 927      BINDING AFFINITY PREDICTED BY RF-SCORE:    0.00 PKD
ROOT
HETATM    1  C   UNL     1      -8.934  11.169  62.512  1.00  0.00    -0.299 C  
HETATM    2  O   UNL     1      -9.620  12.028  63.417  1.00  0.00    -0.279 OA 
ENDROOT
BRANCH   2   3
HETATM    3  C   UNL     1     -10.049  11.468  64.595  1.00  0.00    -0.271 A  
HETATM    4  C   UNL     1     -10.849  12.074  65.573  1.00  0.00    -0.292 A  
HETATM    5  C   UNL     1     -11.199  11.331  66.704  1.00  0.00    -0.247 A  
HETATM    6  C   UNL     1      -9.560  10.168  64.810  1.00  0.00    -0.378 A  
HETATM    7  C   UNL     1     -10.665  10.053  66.954  1.00  0.00    -0.211 A  
HETATM    8  C   UNL     1      -9.848   9.462  65.993  1.00  0.00    -0.366 A  
HETATM    9  C   UNL     1     -10.907   9.417  68.317  1.00  0.00    -0.112 C  
HETATM   10  C   UNL     1     -10.293  10.346  69.367  1.00  0.00    -0.259 C  
HETATM   11  C   UNL     1     -10.656   9.772  70.690  1.00  0.00    -0.313 C  
HETATM   12  C   UNL     1     -10.020   8.430  70.976  1.00  0.00    -0.235 C  
HETATM   13  O   UNL     1     -11.418  10.359  71.454  1.00  0.00    -0.200 OA 
HETATM   14  C   UNL     1     -10.476   7.488  69.843  1.00  0.00    -0.229 C  
HETATM   15  C   UNL     1      -9.356   8.058  66.215  1.00  0.00    -0.246 C  
HETATM   16  C   UNL     1      -9.219   7.716  67.713  1.00  0.00    -0.136 C  
HETATM   17  N   UNL     1     -10.445   8.015  68.456  1.00  0.00    -0.194 NA 
BRANCH   4  18
HETATM   18  O   UNL     1     -11.254  13.373  65.409  1.00  0.00    -0.287 OA 
HETATM   19  C   UNL     1     -12.611  13.663  65.740  1.00  0.00    -0.461 C  
ENDBRANCH   4  18
BRANCH  12  20
HETATM   20  C   UNL     1     -10.415   7.995  72.402  1.00  0.00    -0.368 C  
HETATM   21  C   UNL     1      -9.607   6.861  73.048  1.00  0.00    -0.178 C  
HETATM   22  C   UNL     1     -10.187   6.564  74.440  1.00  0.00    -0.334 C  
HETATM   23  C   UNL     1      -8.123   7.199  73.190  1.00  0.00    -0.119 C  
ENDBRANCH  12  20
ENDBRANCH   2   3
TORSDOF 3
ENDMDL
MODEL       45
REMARK 921   NORMALIZED FREE ENERGY PREDICTED BY IDOCK:   -5.05 KCAL/MOL
REMARK 922        TOTAL FREE ENERGY PREDICTED BY IDOCK:   -6.27 KCAL/MOL
REMARK 923 INTER-LIGAND FREE ENERGY PREDICTED BY IDOCK:   -6.14 KCAL/MOL
REMARK 924 INTRA-LIGAND FREE ENERGY PREDICTED BY IDOCK:   -0.13 KCAL/MOL
REMARK 927      BINDING AFFINITY PREDICTED BY RF-SCORE:    0.00 PKD
ROOT
HETATM    1  C   UNL     1      -6.467  18.287  65.372  1.00  0.00    -0.170 C  
HETATM    2  O   UNL     1      -7.361  18.052  66.455  1.00  0.00    -0.219 OA 
ENDROOT
BRANCH   2   3
HETATM    3  C   UNL     1      -7.901  16.792  66.548  1.00  0.00    -0.303 A  
HETATM    4  C   UNL     1      -9.190  16.397  66.165  1.00  0.00    -0.330 A  
HETATM    5  C   UNL     1      -9.552  15.058  66.322  1.00  0.00    -0.335 A  
HETATM    6  C   UNL     1      -7.040  15.855  67.146  1.00  0.00    -0.240 A  
HETATM    7  C   UNL     1      -8.719  14.129  66.974  1.00  0.00    -0.222 A  
HETATM    8  C   UNL     1      -7.447  14.528  67.378  1.00  0.00    -0.194 A  
HETATM    9  C   UNL     1      -9.286  12.756  67.315  1.00  0.00    -0.203 C  
HETATM   10  C   UNL     1     -10.482  12.978  68.243  1.00  0.00    -0.258 C  
HETATM   11  C   UNL     1     -11.095  11.639  68.455  1.00  0.00    -0.235 C  
HETATM   12  C   UNL     1     -10.217  10.672  69.217  1.00  0.00    -0.235 C  
HETATM   13  O   UNL     1     -12.213  11.373  68.024  1.00  0.00    -0.607 OA 
HETATM   14  C   UNL     1      -8.914  10.539  68.403  1.00  0.00    -0.141 C  
HETATM   15  C   UNL     1      -6.520  13.513  67.987  1.00  0.00    -0.135 C  
HETATM   16  C   UNL     1      -7.283  12.386  68.715  1.00  0.00    -0.094 C  
HETATM   17  N   UNL     1      -8.311  11.783  67.863  1.00  0.00    -0.141 NA 
BRANCH   4  18
HETATM   18  O   UNL     1     -10.064  17.328  65.665  1.00  0.00    -0.566 OA 
HETATM   19  C   UNL     1     -10.487  18.351  66.564  1.00  0.00    -0.381 C  
ENDBRANCH   4  18
BRANCH  12  20
HETATM   20  C   UNL     1     -11.003   9.363  69.433  1.00  0.00    -0.165 C  
HETATM   21  C   UNL     1     -10.368   8.293  70.334  1.00  0.00    -0.214 C  
HETATM   22  C   UNL     1     -11.293   7.067  70.381  1.00  0.00    -0.354 C  
HETATM   23  C   UNL     1     -10.127   8.789  71.760  1.00  0.00    -0.403 C  
ENDBRANCH  12  20
ENDBRANCH   2   3
TORSDOF 3
ENDMDL
MODEL       46
REMARK 921   NORMALIZED FREE ENERGY PREDICTED BY IDOCK:   -5.02 KCAL/MOL
REMARK 922        TOTAL FREE ENERGY PREDICTED BY IDOCK:   -6.24 KCAL/MOL
REMARK 923 INTER-LIGAND FREE ENERGY PREDICTED BY IDOCK:   -5.87 KCAL/MOL
REMARK 924 INTRA-LIGAND FREE ENERGY PREDICTED BY IDOCK:   -0.37 KCAL/MOL
REMARK 927      BINDING AFFINITY PREDICTED BY RF-SCORE:    0.00 PKD
ROOT
HETATM    1  C   UNL     1     -10.123  20.265  66.496  1.00  0.00    -0.388 C  
HETATM    2  O   UNL     1      -9.574  19.903  67.759  1.00  0.00    -0.346 OA 
ENDROOT
BRANCH   2   3
HETATM    3  C   UNL     1      -9.400  18.561  67.995  1.00  0.00    -0.301 A  
HETATM    4  C   UNL     1      -8.184  17.866  68.046  1.00  0.00    -0.257 A  
HETATM    5  C   UNL     1      -8.210  16.496  68.319  1.00  0.00    -0.185 A  
HETATM    6  C   UNL     1     -10.607  17.855  68.143  1.00  0.00    -0.351 A  
HETATM    7  C   UNL     1      -9.413  15.773  68.408  1.00  0.00    -0.196 A  
HETATM    8  C   UNL     1     -10.623  16.460  68.332  1.00  0.00    -0.311 A  
HETATM    9  C   UNL     1      -9.347  14.252  68.468  1.00  0.00    -0.200 C  
HETATM   10  C   UNL     1      -8.661  13.777  67.185  1.00  0.00    -0.231 C  
HETATM   11  C   UNL     1      -8.491  12.307  67.327  1.00  0.00    -0.181 C  
HETATM   12  C   UNL     1      -9.790  11.534  67.352  1.00  0.00    -0.202 C  
HETATM   13  O   UNL     1      -7.377  11.799  67.425  1.00  0.00    -0.117 OA 
HETATM   14  C   UNL     1     -10.601  12.094  68.539  1.00  0.00    -0.233 C  
HETATM   15  C   UNL     1     -11.908  15.704  68.524  1.00  0.00    -0.252 C  
HETATM   16  C   UNL     1     -11.788  14.228  68.090  1.00  0.00    -0.339 C  
HETATM   17  N   UNL     1     -10.639  13.568  68.712  1.00  0.00    -0.241 NA 
BRANCH   4  18
HETATM   18  O   UNL     1      -7.010  18.535  67.812  1.00  0.00    -0.210 OA 
HETATM   19  C   UNL     1      -6.364  19.099  68.952  1.00  0.00    -0.257 C  
ENDBRANCH   4  18
BRANCH  12  20
HETATM   20  C   UNL     1      -9.464  10.029  67.420  1.00  0.00    -0.176 C  
HETATM   21  C   UNL     1      -9.903   9.151  66.239  1.00  0.00    -0.359 C  
HETATM   22  C   UNL     1      -9.516   7.694  66.528  1.00  0.00    -0.250 C  
HETATM   23  C   UNL     1      -9.270   9.581  64.916  1.00  0.00    -0.284 C  
ENDBRANCH  12  20
ENDBRANCH   2   3
TORSDOF 3
ENDMDL
MODEL       47
REMARK 921   NORMALIZED FREE ENERGY PREDICTED BY IDOCK:   -5.02 KCAL/MOL
REMARK 922        TOTAL FREE ENERGY PREDICTED BY IDOCK:   -6.23 KCAL/MOL
REMARK 923 INTER-LIGAND FREE ENERGY PREDICTED BY IDOCK:   -6.01 KCAL/MOL
REMARK 924 INTRA-LIGAND FREE ENERGY PREDICTED BY IDOCK:   -0.22 KCAL/MOL
REMARK 927      BINDING AFFINITY PREDICTED BY RF-SCORE:    0.00 PKD
ROOT
HETATM    1  C   UNL     1     -10.162  12.297  63.708  1.00  0.00    -0.402 C  
HETATM    2  O   UNL     1     -10.389  12.867  64.993  1.00  0.00    -0.304 OA 
ENDROOT
BRANCH   2   3
HETATM    3  C   UNL     1     -10.695  11.996  66.010  1.00  0.00    -0.279 A  
HETATM    4  C   UNL     1     -11.438  12.276  67.165  1.00  0.00    -0.352 A  
HETATM    5  C   UNL     1     -11.661  11.246  68.082  1.00  0.00    -0.359 A  
HETATM    6  C   UNL     1     -10.134  10.717  65.843  1.00  0.00    -0.314 A  
HETATM    7  C   UNL     1     -11.053   9.984  67.952  1.00  0.00    -0.260 A  
HETATM    8  C   UNL     1     -10.293   9.713  66.816  1.00  0.00    -0.292 A  
HETATM    9  C   UNL     1     -11.155   9.003  69.113  1.00  0.00     0.098 C  
HETATM   10  C   UNL     1     -10.498   9.667  70.325  1.00  0.00    -0.338 C  
HETATM   11  C   UNL     1     -10.726   8.749  71.473  1.00  0.00    -0.301 C  
HETATM   12  C   UNL     1     -10.011   7.422  71.354  1.00  0.00    -0.195 C  
HETATM   13  O   UNL     1     -11.447   9.069  72.414  1.00  0.00    -0.251 OA 
HETATM   14  C   UNL     1     -10.516   6.777  70.047  1.00  0.00    -0.210 C  
HETATM   15  C   UNL     1      -9.723   8.335  66.628  1.00  0.00    -0.321 C  
HETATM   16  C   UNL     1      -9.450   7.627  67.972  1.00  0.00    -0.143 C  
HETATM   17  N   UNL     1     -10.623   7.645  68.848  1.00  0.00    -0.194 NA 
BRANCH   4  18
HETATM   18  O   UNL     1     -11.911  13.546  67.375  1.00  0.00    -0.367 OA 
HETATM   19  C   UNL     1     -11.821  14.045  68.708  1.00  0.00    -0.361 C  
ENDBRANCH   4  18
BRANCH  12  20
HETATM   20  C   UNL     1     -10.268   6.610  72.639  1.00  0.00    -0.206 C  
HETATM   21  C   UNL     1     -10.070   5.088  72.570  1.00  0.00    -0.231 C  
HETATM   22  C   UNL     1     -10.413   4.477  73.937  1.00  0.00    -0.306 C  
HETATM   23  C   UNL     1      -8.641   4.695  72.194  1.00  0.00    -0.123 C  
ENDBRANCH  12  20
ENDBRANCH   2   3
TORSDOF 3
ENDMDL
MODEL       48
REMARK 921   NORMALIZED FREE ENERGY PREDICTED BY IDOCK:   -4.97 KCAL/MOL
REMARK 922        TOTAL FREE ENERGY PREDICTED BY IDOCK:   -6.18 KCAL/MOL
REMARK 923 INTER-LIGAND FREE ENERGY PREDICTED BY IDOCK:   -5.89 KCAL/MOL
REMARK 924 INTRA-LIGAND FREE ENERGY PREDICTED BY IDOCK:   -0.29 KCAL/MOL
REMARK 927      BINDING AFFINITY PREDICTED BY RF-SCORE:    0.00 PKD
ROOT
HETATM    1  C   UNL     1     -12.627  13.603  65.472  1.00  0.00    -0.496 C  
HETATM    2  O   UNL     1     -11.367  12.976  65.254  1.00  0.00    -0.289 OA 
ENDROOT
BRANCH   2   3
HETATM    3  C   UNL     1     -10.874  12.207  66.281  1.00  0.00    -0.282 A  
HETATM    4  C   UNL     1      -9.760  11.359  66.238  1.00  0.00    -0.212 A  
HETATM    5  C   UNL     1      -9.401  10.669  67.398  1.00  0.00    -0.157 A  
HETATM    6  C   UNL     1     -11.641  12.283  67.457  1.00  0.00    -0.422 A  
HETATM    7  C   UNL     1     -10.196  10.692  68.559  1.00  0.00    -0.191 A  
HETATM    8  C   UNL     1     -11.320  11.516  68.593  1.00  0.00    -0.330 A  
HETATM    9  C   UNL     1      -9.863   9.727  69.690  1.00  0.00    -0.221 C  
HETATM   10  C   UNL     1      -9.978   8.310  69.126  1.00  0.00    -0.196 C  
HETATM   11  C   UNL     1      -9.522   7.396  70.206  1.00  0.00    -0.165 C  
HETATM   12  C   UNL     1     -10.423   7.378  71.420  1.00  0.00    -0.218 C  
HETATM   13  O   UNL     1      -8.491   6.737  70.094  1.00  0.00    -0.136 OA 
HETATM   14  C   UNL     1     -10.477   8.830  71.938  1.00  0.00    -0.353 C  
HETATM   15  C   UNL     1     -12.115  11.616  69.864  1.00  0.00    -0.373 C  
HETATM   16  C   UNL     1     -12.032  10.328  70.710  1.00  0.00    -0.360 C  
HETATM   17  N   UNL     1     -10.646   9.911  70.935  1.00  0.00    -0.270 NA 
BRANCH   4  18
HETATM   18  O   UNL     1      -9.063  11.214  65.066  1.00  0.00    -0.193 OA 
HETATM   19  C   UNL     1      -9.543  10.224  64.159  1.00  0.00    -0.315 C  
ENDBRANCH   4  18
BRANCH  12  20
HETATM   20  C   UNL     1      -9.879   6.336  72.419  1.00  0.00    -0.176 C  
HETATM   21  C   UNL     1     -10.861   5.755  73.446  1.00  0.00    -0.295 C  
HETATM   22  C   UNL     1     -10.108   4.775  74.358  1.00  0.00    -0.256 C  
HETATM   23  C   UNL     1     -12.035   5.026  72.794  1.00  0.00     0.012 C  
ENDBRANCH  12  20
ENDBRANCH   2   3
TORSDOF 3
ENDMDL
MODEL       49
REMARK 921   NORMALIZED FREE ENERGY PREDICTED BY IDOCK:   -4.95 KCAL/MOL
REMARK 922        TOTAL FREE ENERGY PREDICTED BY IDOCK:   -6.16 KCAL/MOL
REMARK 923 INTER-LIGAND FREE ENERGY PREDICTED BY IDOCK:   -6.68 KCAL/MOL
REMARK 924 INTRA-LIGAND FREE ENERGY PREDICTED BY IDOCK:    0.52 KCAL/MOL
REMARK 927      BINDING AFFINITY PREDICTED BY RF-SCORE:    0.00 PKD
ROOT
HETATM    1  C   UNL     1     -10.393  13.554  66.081  1.00  0.00    -0.296 C  
HETATM    2  O   UNL     1     -11.309  12.466  66.151  1.00  0.00    -0.315 OA 
ENDROOT
BRANCH   2   3
HETATM    3  C   UNL     1     -11.040  11.491  67.080  1.00  0.00    -0.297 A  
HETATM    4  C   UNL     1     -10.336  10.298  66.870  1.00  0.00    -0.239 A  
HETATM    5  C   UNL     1     -10.147   9.435  67.952  1.00  0.00    -0.239 A  
HETATM    6  C   UNL     1     -11.600  11.750  68.344  1.00  0.00    -0.380 A  
HETATM    7  C   UNL     1     -10.755   9.657  69.202  1.00  0.00    -0.237 A  
HETATM    8  C   UNL     1     -11.477  10.831  69.403  1.00  0.00    -0.366 A  
HETATM    9  C   UNL     1     -10.695   8.551  70.248  1.00  0.00    -0.230 C  
HETATM   10  C   UNL     1     -11.390   7.325  69.651  1.00  0.00    -0.042 C  
HETATM   11  C   UNL     1     -11.204   6.225  70.634  1.00  0.00    -0.337 C  
HETATM   12  C   UNL     1     -11.919   6.444  71.948  1.00  0.00    -0.381 C  
HETATM   13  O   UNL     1     -10.513   5.244  70.372  1.00  0.00    -0.271 OA 
HETATM   14  C   UNL     1     -11.372   7.768  72.520  1.00  0.00    -0.374 C  
HETATM   15  C   UNL     1     -12.045  11.116  70.766  1.00  0.00    -0.458 C  
HETATM   16  C   UNL     1     -12.366   9.825  71.548  1.00  0.00    -0.405 C  
HETATM   17  N   UNL     1     -11.222   8.911  71.585  1.00  0.00    -0.319 NA 
BRANCH   4  18
HETATM   18  O   UNL     1      -9.866  10.000  65.617  1.00  0.00    -0.257 OA 
HETATM   19  C   UNL     1      -8.509  10.347  65.349  1.00  0.00    -0.168 C  
ENDBRANCH   4  18
BRANCH  12  20
HETATM   20  C   UNL     1     -11.707   5.199  72.834  1.00  0.00    -0.220 C  
HETATM   21  C   UNL     1     -10.341   5.035  73.516  1.00  0.00    -0.250 C  
HETATM   22  C   UNL     1     -10.334   3.721  74.312  1.00  0.00    -0.256 C  
HETATM   23  C   UNL     1     -10.010   6.191  74.460  1.00  0.00    -0.343 C  
ENDBRANCH  12  20
ENDBRANCH   2   3
TORSDOF 3
ENDMDL
MODEL       50
REMARK 921   NORMALIZED FREE ENERGY PREDICTED BY IDOCK:   -4.85 KCAL/MOL
REMARK 922        TOTAL FREE ENERGY PREDICTED BY IDOCK:   -6.04 KCAL/MOL
REMARK 923 INTER-LIGAND FREE ENERGY PREDICTED BY IDOCK:   -5.75 KCAL/MOL
REMARK 924 INTRA-LIGAND FREE ENERGY PREDICTED BY IDOCK:   -0.29 KCAL/MOL
REMARK 927      BINDING AFFINITY PREDICTED BY RF-SCORE:    0.00 PKD
ROOT
HETATM    1  C   UNL     1      -6.809  19.910  65.592  1.00  0.00    -0.289 C  
HETATM    2  O   UNL     1      -8.011  20.341  66.221  1.00  0.00    -0.256 OA 
ENDROOT
BRANCH   2   3
HETATM    3  C   UNL     1      -8.859  19.358  66.672  1.00  0.00    -0.339 A  
HETATM    4  C   UNL     1      -9.864  19.491  67.639  1.00  0.00    -0.364 A  
HETATM    5  C   UNL     1     -10.640  18.374  67.954  1.00  0.00    -0.379 A  
HETATM    6  C   UNL     1      -8.609  18.097  66.104  1.00  0.00    -0.125 A  
HETATM    7  C   UNL     1     -10.357  17.096  67.435  1.00  0.00    -0.333 A  
HETATM    8  C   UNL     1      -9.340  16.959  66.493  1.00  0.00    -0.293 A  
HETATM    9  C   UNL     1     -11.097  15.895  68.012  1.00  0.00    -0.334 C  
HETATM   10  C   UNL     1     -10.763  15.831  69.504  1.00  0.00    -0.278 C  
HETATM   11  C   UNL     1     -11.596  14.736  70.067  1.00  0.00    -0.286 C  
HETATM   12  C   UNL     1     -11.237  13.360  69.554  1.00  0.00    -0.181 C  
HETATM   13  O   UNL     1     -12.498  14.966  70.869  1.00  0.00    -0.286 OA 
HETATM   14  C   UNL     1     -11.396  13.417  68.021  1.00  0.00    -0.286 C  
HETATM   15  C   UNL     1      -9.101  15.614  65.866  1.00  0.00    -0.277 C  
HETATM   16  C   UNL     1      -9.497  14.453  66.802  1.00  0.00    -0.267 C  
HETATM   17  N   UNL     1     -10.859  14.608  67.318  1.00  0.00    -0.298 NA 
BRANCH   4  18
HETATM   18  O   UNL     1     -10.051  20.699  68.261  1.00  0.00    -0.155 OA 
HETATM   19  C   UNL     1     -10.299  20.659  69.665  1.00  0.00     0.652 C  
ENDBRANCH   4  18
BRANCH  12  20
HETATM   20  C   UNL     1     -12.118  12.322  70.277  1.00  0.00    -0.376 C  
HETATM   21  C   UNL     1     -12.017  10.860  69.818  1.00  0.00    -0.423 C  
HETATM   22  C   UNL     1     -12.999  10.009  70.638  1.00  0.00    -0.250 C  
HETATM   23  C   UNL     1     -10.609  10.287  69.979  1.00  0.00    -0.321 C  
ENDBRANCH  12  20
ENDBRANCH   2   3
TORSDOF 3
ENDMDL
MODEL       51
REMARK 921   NORMALIZED FREE ENERGY PREDICTED BY IDOCK:   -4.84 KCAL/MOL
REMARK 922        TOTAL FREE ENERGY PREDICTED BY IDOCK:   -6.02 KCAL/MOL
REMARK 923 INTER-LIGAND FREE ENERGY PREDICTED BY IDOCK:   -6.10 KCAL/MOL
REMARK 924 INTRA-LIGAND FREE ENERGY PREDICTED BY IDOCK:    0.07 KCAL/MOL
REMARK 927      BINDING AFFINITY PREDICTED BY RF-SCORE:    0.00 PKD
ROOT
HETATM    1  C   UNL     1      -8.980   5.788  65.756  1.00  0.00    -0.135 C  
HETATM    2  O   UNL     1     -10.258   5.857  66.379  1.00  0.00    -0.167 OA 
ENDROOT
BRANCH   2   3
HETATM    3  C   UNL     1     -10.429   6.833  67.331  1.00  0.00    -0.262 A  
HETATM    4  C   UNL     1     -10.664   6.644  68.699  1.00  0.00    -0.254 A  
HETATM    5  C   UNL     1     -10.793   7.769  69.516  1.00  0.00    -0.157 A  
HETATM    6  C   UNL     1     -10.406   8.138  66.808  1.00  0.00    -0.361 A  
HETATM    7  C   UNL     1     -10.832   9.074  68.992  1.00  0.00    -0.092 A  
HETATM    8  C   UNL     1     -10.625   9.261  67.628  1.00  0.00    -0.324 A  
HETATM    9  C   UNL     1     -11.215  10.221  69.920  1.00  0.00    -0.299 C  
HETATM   10  C   UNL     1     -12.624   9.931  70.441  1.00  0.00    -0.065 C  
HETATM   11  C   UNL     1     -12.922  10.991  71.441  1.00  0.00    -0.414 C  
HETATM   12  C   UNL     1     -13.030  12.380  70.854  1.00  0.00    -0.061 C  
HETATM   13  O   UNL     1     -13.051  10.726  72.633  1.00  0.00     0.152 OA 
HETATM   14  C   UNL     1     -11.680  12.662  70.164  1.00  0.00    -0.168 C  
HETATM   15  C   UNL     1     -10.569  10.661  67.081  1.00  0.00    -0.312 C  
HETATM   16  C   UNL     1     -11.415  11.648  67.913  1.00  0.00    -0.311 C  
HETATM   17  N   UNL     1     -11.089  11.578  69.339  1.00  0.00    -0.244 NA 
BRANCH   4  18
HETATM   18  O   UNL     1     -10.776   5.371  69.198  1.00  0.00    -0.220 OA 
HETATM   19  C   UNL     1     -10.186   5.135  70.475  1.00  0.00    -0.260 C  
ENDBRANCH   4  18
BRANCH  12  20
HETATM   20  C   UNL     1     -13.419  13.358  71.981  1.00  0.00    -0.584 C  
HETATM   21  C   UNL     1     -12.651  14.685  72.066  1.00  0.00    -0.408 C  
HETATM   22  C   UNL     1     -13.167  15.485  73.271  1.00  0.00    -0.635 C  
HETATM   23  C   UNL     1     -12.799  15.536  70.804  1.00  0.00    -0.513 C  
ENDBRANCH  12  20
ENDBRANCH   2   3
TORSDOF 3
ENDMDL
MODEL       52
REMARK 921   NORMALIZED FREE ENERGY PREDICTED BY IDOCK:   -4.80 KCAL/MOL
REMARK 922        TOTAL FREE ENERGY PREDICTED BY IDOCK:   -5.98 KCAL/MOL
REMARK 923 INTER-LIGAND FREE ENERGY PREDICTED BY IDOCK:   -5.85 KCAL/MOL
REMARK 924 INTRA-LIGAND FREE ENERGY PREDICTED BY IDOCK:   -0.13 KCAL/MOL
REMARK 927      BINDING AFFINITY PREDICTED BY RF-SCORE:    0.00 PKD
ROOT
HETATM    1  C   UNL     1      -8.075  19.898  65.853  1.00  0.00    -0.248 C  
HETATM    2  O   UNL     1      -9.423  19.788  66.296  1.00  0.00    -0.374 OA 
ENDROOT
BRANCH   2   3
HETATM    3  C   UNL     1      -9.865  18.529  66.625  1.00  0.00    -0.354 A  
HETATM    4  C   UNL     1      -9.861  17.941  67.897  1.00  0.00    -0.309 A  
HETATM    5  C   UNL     1     -10.373  16.648  68.036  1.00  0.00    -0.303 A  
HETATM    6  C   UNL     1     -10.308  17.782  65.519  1.00  0.00     0.041 A  
HETATM    7  C   UNL     1     -10.761  15.874  66.927  1.00  0.00    -0.289 A  
HETATM    8  C   UNL     1     -10.740  16.450  65.659  1.00  0.00    -0.280 A  
HETATM    9  C   UNL     1     -11.078  14.399  67.143  1.00  0.00    -0.312 C  
HETATM   10  C   UNL     1      -9.814  13.741  67.698  1.00  0.00    -0.234 C  
HETATM   11  C   UNL     1     -10.186  12.338  68.023  1.00  0.00    -0.206 C  
HETATM   12  C   UNL     1     -10.534  11.496  66.816  1.00  0.00    -0.275 C  
HETATM   13  O   UNL     1     -10.210  11.935  69.183  1.00  0.00    -0.055 OA 
HETATM   14  C   UNL     1     -11.708  12.212  66.117  1.00  0.00    -0.315 C  
HETATM   15  C   UNL     1     -11.246  15.657  64.486  1.00  0.00    -0.337 C  
HETATM   16  C   UNL     1     -11.066  14.138  64.686  1.00  0.00    -0.371 C  
HETATM   17  N   UNL     1     -11.622  13.686  65.964  1.00  0.00    -0.326 NA 
BRANCH   4  18
HETATM   18  O   UNL     1      -9.347  18.633  68.963  1.00  0.00    -0.263 OA 
HETATM   19  C   UNL     1     -10.116  19.737  69.435  1.00  0.00    -0.126 C  
ENDBRANCH   4  18
BRANCH  12  20
HETATM   20  C   UNL     1     -10.819  10.057  67.289  1.00  0.00    -0.284 C  
HETATM   21  C   UNL     1      -9.704   9.016  67.113  1.00  0.00    -0.237 C  
HETATM   22  C   UNL     1     -10.208   7.653  67.610  1.00  0.00    -0.277 C  
HETATM   23  C   UNL     1      -8.429   9.383  67.874  1.00  0.00    -0.116 C  
ENDBRANCH  12  20
ENDBRANCH   2   3
TORSDOF 3
ENDMDL
MODEL       53
REMARK 921   NORMALIZED FREE ENERGY PREDICTED BY IDOCK:   -4.72 KCAL/MOL
REMARK 922        TOTAL FREE ENERGY PREDICTED BY IDOCK:   -5.88 KCAL/MOL
REMARK 923 INTER-LIGAND FREE ENERGY PREDICTED BY IDOCK:   -6.47 KCAL/MOL
REMARK 924 INTRA-LIGAND FREE ENERGY PREDICTED BY IDOCK:    0.58 KCAL/MOL
REMARK 927      BINDING AFFINITY PREDICTED BY RF-SCORE:    0.00 PKD
ROOT
HETATM    1  C   UNL     1     -10.606  20.063  65.802  1.00  0.00    -0.323 C  
HETATM    2  O   UNL     1      -9.579  19.650  66.698  1.00  0.00    -0.331 OA 
ENDROOT
BRANCH   2   3
HETATM    3  C   UNL     1      -9.459  18.300  66.920  1.00  0.00    -0.290 A  
HETATM    4  C   UNL     1      -8.490  17.440  66.386  1.00  0.00    -0.257 A  
HETATM    5  C   UNL     1      -8.522  16.092  66.747  1.00  0.00    -0.295 A  
HETATM    6  C   UNL     1     -10.474  17.773  67.738  1.00  0.00    -0.402 A  
HETATM    7  C   UNL     1      -9.568  15.546  67.514  1.00  0.00    -0.212 A  
HETATM    8  C   UNL     1     -10.546  16.397  68.024  1.00  0.00    -0.314 A  
HETATM    9  C   UNL     1      -9.652  14.032  67.660  1.00  0.00    -0.221 C  
HETATM   10  C   UNL     1      -9.811  13.450  66.253  1.00  0.00    -0.295 C  
HETATM   11  C   UNL     1      -9.759  11.972  66.409  1.00  0.00    -0.225 C  
HETATM   12  C   UNL     1     -10.925  11.391  67.176  1.00  0.00    -0.340 C  
HETATM   13  O   UNL     1      -8.828  11.313  65.951  1.00  0.00    -0.195 OA 
HETATM   14  C   UNL     1     -10.913  12.074  68.559  1.00  0.00    -0.240 C  
HETATM   15  C   UNL     1     -11.610  15.832  68.925  1.00  0.00    -0.400 C  
HETATM   16  C   UNL     1     -11.907  14.349  68.620  1.00  0.00    -0.331 C  
HETATM   17  N   UNL     1     -10.686  13.540  68.600  1.00  0.00    -0.250 NA 
BRANCH   4  18
HETATM   18  O   UNL     1      -7.552  17.934  65.516  1.00  0.00    -0.518 OA 
HETATM   19  C   UNL     1      -6.324  18.378  66.092  1.00  0.00    -0.207 C  
ENDBRANCH   4  18
BRANCH  12  20
HETATM   20  C   UNL     1     -10.785   9.855  67.191  1.00  0.00    -0.276 C  
HETATM   21  C   UNL     1      -9.605   9.257  67.971  1.00  0.00    -0.161 C  
HETATM   22  C   UNL     1      -9.634   7.728  67.824  1.00  0.00    -0.172 C  
HETATM   23  C   UNL     1      -9.637   9.614  69.457  1.00  0.00    -0.211 C  
ENDBRANCH  12  20
ENDBRANCH   2   3
TORSDOF 3
ENDMDL
MODEL       54
REMARK 921   NORMALIZED FREE ENERGY PREDICTED BY IDOCK:   -4.68 KCAL/MOL
REMARK 922        TOTAL FREE ENERGY PREDICTED BY IDOCK:   -5.84 KCAL/MOL
REMARK 923 INTER-LIGAND FREE ENERGY PREDICTED BY IDOCK:   -5.52 KCAL/MOL
REMARK 924 INTRA-LIGAND FREE ENERGY PREDICTED BY IDOCK:   -0.32 KCAL/MOL
REMARK 927      BINDING AFFINITY PREDICTED BY RF-SCORE:    0.00 PKD
ROOT
HETATM    1  C   UNL     1      -8.199   3.312  72.773  1.00  0.00    -0.080 C  
HETATM    2  O   UNL     1      -9.043   3.100  71.646  1.00  0.00    -0.093 OA 
ENDROOT
BRANCH   2   3
HETATM    3  C   UNL     1      -9.677   4.205  71.133  1.00  0.00    -0.188 A  
HETATM    4  C   UNL     1      -9.897   4.498  69.780  1.00  0.00    -0.225 A  
HETATM    5  C   UNL     1     -10.582   5.670  69.454  1.00  0.00    -0.374 A  
HETATM    6  C   UNL     1     -10.081   5.128  72.114  1.00  0.00    -0.247 A  
HETATM    7  C   UNL     1     -10.935   6.626  70.424  1.00  0.00    -0.341 A  
HETATM    8  C   UNL     1     -10.693   6.347  71.767  1.00  0.00    -0.273 A  
HETATM    9  C   UNL     1     -11.461   7.978  69.958  1.00  0.00     0.070 C  
HETATM   10  C   UNL     1     -10.365   8.622  69.107  1.00  0.00    -0.227 C  
HETATM   11  C   UNL     1     -10.949   9.875  68.558  1.00  0.00    -0.180 C  
HETATM   12  C   UNL     1     -11.259  10.921  69.605  1.00  0.00    -0.348 C  
HETATM   13  O   UNL     1     -11.160  10.009  67.356  1.00  0.00    -0.257 OA 
HETATM   14  C   UNL     1     -12.243  10.263  70.595  1.00  0.00    -0.329 C  
HETATM   15  C   UNL     1     -11.156   7.323  72.813  1.00  0.00    -0.362 C  
HETATM   16  C   UNL     1     -11.197   8.772  72.283  1.00  0.00    -0.273 C  
HETATM   17  N   UNL     1     -11.951   8.875  71.032  1.00  0.00    -0.284 NA 
BRANCH   4  18
HETATM   18  O   UNL     1      -9.426   3.644  68.816  1.00  0.00    -0.161 OA 
HETATM   19  C   UNL     1      -9.770   3.956  67.468  1.00  0.00    -0.112 C  
ENDBRANCH   4  18
BRANCH  12  20
HETATM   20  C   UNL     1     -11.780  12.186  68.893  1.00  0.00    -0.381 C  
HETATM   21  C   UNL     1     -10.840  13.398  68.820  1.00  0.00    -0.275 C  
HETATM   22  C   UNL     1     -11.565  14.551  68.109  1.00  0.00    -0.359 C  
HETATM   23  C   UNL     1      -9.540  13.094  68.074  1.00  0.00    -0.220 C  
ENDBRANCH  12  20
ENDBRANCH   2   3
TORSDOF 3
ENDMDL
MODEL       55
REMARK 921   NORMALIZED FREE ENERGY PREDICTED BY IDOCK:   -4.68 KCAL/MOL
REMARK 922        TOTAL FREE ENERGY PREDICTED BY IDOCK:   -5.84 KCAL/MOL
REMARK 923 INTER-LIGAND FREE ENERGY PREDICTED BY IDOCK:   -5.54 KCAL/MOL
REMARK 924 INTRA-LIGAND FREE ENERGY PREDICTED BY IDOCK:   -0.30 KCAL/MOL
REMARK 927      BINDING AFFINITY PREDICTED BY RF-SCORE:    0.00 PKD
ROOT
HETATM    1  C   UNL     1      -9.207   2.612  69.693  1.00  0.00    -0.129 C  
HETATM    2  O   UNL     1      -8.606   3.901  69.751  1.00  0.00    -0.062 OA 
ENDROOT
BRANCH   2   3
HETATM    3  C   UNL     1      -9.457   4.980  69.753  1.00  0.00    -0.150 A  
HETATM    4  C   UNL     1      -9.907   5.700  68.639  1.00  0.00    -0.145 A  
HETATM    5  C   UNL     1     -10.791   6.762  68.844  1.00  0.00    -0.288 A  
HETATM    6  C   UNL     1      -9.843   5.388  71.042  1.00  0.00    -0.246 A  
HETATM    7  C   UNL     1     -11.133   7.214  70.132  1.00  0.00    -0.301 A  
HETATM    8  C   UNL     1     -10.665   6.513  71.241  1.00  0.00    -0.280 A  
HETATM    9  C   UNL     1     -11.907   8.520  70.264  1.00  0.00     0.193 C  
HETATM   10  C   UNL     1     -11.045   9.622  69.643  1.00  0.00    -0.223 C  
HETATM   11  C   UNL     1     -11.874  10.857  69.666  1.00  0.00    -0.344 C  
HETATM   12  C   UNL     1     -12.176  11.371  71.056  1.00  0.00    -0.391 C  
HETATM   13  O   UNL     1     -12.270  11.380  68.628  1.00  0.00    -0.532 OA 
HETATM   14  C   UNL     1     -12.905  10.227  71.790  1.00  0.00    -0.460 C  
HETATM   15  C   UNL     1     -11.107   6.935  72.614  1.00  0.00    -0.306 C  
HETATM   16  C   UNL     1     -11.429   8.443  72.687  1.00  0.00    -0.289 C  
HETATM   17  N   UNL     1     -12.360   8.855  71.635  1.00  0.00    -0.324 NA 
BRANCH   4  18
HETATM   18  O   UNL     1      -9.462   5.361  67.387  1.00  0.00    -0.115 OA 
HETATM   19  C   UNL     1     -10.386   4.666  66.552  1.00  0.00    -0.194 C  
ENDBRANCH   4  18
BRANCH  12  20
HETATM   20  C   UNL     1     -12.966  12.689  70.929  1.00  0.00    -0.071 C  
HETATM   21  C   UNL     1     -12.199  14.002  71.143  1.00  0.00    -0.417 C  
HETATM   22  C   UNL     1     -13.176  15.180  71.009  1.00  0.00    -0.510 C  
HETATM   23  C   UNL     1     -11.056  14.188  70.145  1.00  0.00     0.044 C  
ENDBRANCH  12  20
ENDBRANCH   2   3
TORSDOF 3
ENDMDL
MODEL       56
REMARK 921   NORMALIZED FREE ENERGY PREDICTED BY IDOCK:   -4.62 KCAL/MOL
REMARK 922        TOTAL FREE ENERGY PREDICTED BY IDOCK:   -5.77 KCAL/MOL
REMARK 923 INTER-LIGAND FREE ENERGY PREDICTED BY IDOCK:   -5.48 KCAL/MOL
REMARK 924 INTRA-LIGAND FREE ENERGY PREDICTED BY IDOCK:   -0.29 KCAL/MOL
REMARK 927      BINDING AFFINITY PREDICTED BY RF-SCORE:    0.00 PKD
ROOT
HETATM    1  C   UNL     1      -8.616   9.038  64.751  1.00  0.00    -0.175 C  
HETATM    2  O   UNL     1      -9.885   9.275  65.350  1.00  0.00    -0.222 OA 
ENDROOT
BRANCH   2   3
HETATM    3  C   UNL     1     -10.222  10.586  65.587  1.00  0.00    -0.246 A  
HETATM    4  C   UNL     1     -10.923  11.443  64.729  1.00  0.00    -0.234 A  
HETATM    5  C   UNL     1     -11.188  12.746  65.158  1.00  0.00    -0.327 A  
HETATM    6  C   UNL     1      -9.741  11.076  66.814  1.00  0.00    -0.222 A  
HETATM    7  C   UNL     1     -10.658  13.262  66.356  1.00  0.00    -0.288 A  
HETATM    8  C   UNL     1      -9.939  12.416  67.197  1.00  0.00    -0.211 A  
HETATM    9  C   UNL     1     -10.794  14.755  66.629  1.00  0.00    -0.319 C  
HETATM   10  C   UNL     1     -10.075  15.490  65.496  1.00  0.00    -0.406 C  
HETATM   11  C   UNL     1     -10.333  16.939  65.714  1.00  0.00    -0.283 C  
HETATM   12  C   UNL     1      -9.701  17.497  66.969  1.00  0.00    -0.284 C  
HETATM   13  O   UNL     1     -11.016  17.591  64.928  1.00  0.00    -0.887 OA 
HETATM   14  C   UNL     1     -10.270  16.671  68.141  1.00  0.00    -0.280 C  
HETATM   15  C   UNL     1      -9.455  12.938  68.521  1.00  0.00    -0.098 C  
HETATM   16  C   UNL     1      -9.197  14.459  68.491  1.00  0.00    -0.198 C  
HETATM   17  N   UNL     1     -10.349  15.199  67.971  1.00  0.00    -0.237 NA 
BRANCH   4  18
HETATM   18  O   UNL     1     -11.316  10.995  63.495  1.00  0.00    -0.033 OA 
HETATM   19  C   UNL     1     -12.502  11.576  62.956  1.00  0.00     0.344 C  
ENDBRANCH   4  18
BRANCH  12  20
HETATM   20  C   UNL     1      -9.979  19.012  67.025  1.00  0.00    -0.405 C  
HETATM   21  C   UNL     1      -9.171  19.847  68.029  1.00  0.00    -0.405 C  
HETATM   22  C   UNL     1      -9.630  21.310  67.947  1.00  0.00     0.260 C  
HETATM   23  C   UNL     1      -7.665  19.782  67.774  1.00  0.00    -0.324 C  
ENDBRANCH  12  20
ENDBRANCH   2   3
TORSDOF 3
ENDMDL
MODEL       57
REMARK 921   NORMALIZED FREE ENERGY PREDICTED BY IDOCK:   -4.61 KCAL/MOL
REMARK 922        TOTAL FREE ENERGY PREDICTED BY IDOCK:   -5.75 KCAL/MOL
REMARK 923 INTER-LIGAND FREE ENERGY PREDICTED BY IDOCK:   -5.52 KCAL/MOL
REMARK 924 INTRA-LIGAND FREE ENERGY PREDICTED BY IDOCK:   -0.23 KCAL/MOL
REMARK 927      BINDING AFFINITY PREDICTED BY RF-SCORE:    0.00 PKD
ROOT
HETATM    1  C   UNL     1     -12.189  13.913  70.715  1.00  0.00    -0.369 C  
HETATM    2  O   UNL     1     -12.884  12.764  70.242  1.00  0.00     0.086 OA 
ENDROOT
BRANCH   2   3
HETATM    3  C   UNL     1     -12.130  11.641  70.001  1.00  0.00    -0.319 A  
HETATM    4  C   UNL     1     -11.631  11.211  68.765  1.00  0.00    -0.322 A  
HETATM    5  C   UNL     1     -10.864  10.045  68.724  1.00  0.00    -0.252 A  
HETATM    6  C   UNL     1     -11.913  10.854  71.146  1.00  0.00    -0.317 A  
HETATM    7  C   UNL     1     -10.693   9.221  69.852  1.00  0.00    -0.253 A  
HETATM    8  C   UNL     1     -11.212   9.636  71.076  1.00  0.00    -0.445 A  
HETATM    9  C   UNL     1     -10.048   7.853  69.665  1.00  0.00    -0.197 C  
HETATM   10  C   UNL     1     -10.931   7.065  68.695  1.00  0.00    -0.144 C  
HETATM   11  C   UNL     1     -10.215   5.789  68.427  1.00  0.00    -0.191 C  
HETATM   12  C   UNL     1     -10.098   4.883  69.632  1.00  0.00    -0.300 C  
HETATM   13  O   UNL     1      -9.759   5.533  67.316  1.00  0.00    -0.125 OA 
HETATM   14  C   UNL     1      -9.355   5.695  70.712  1.00  0.00    -0.163 C  
HETATM   15  C   UNL     1     -10.947   8.806  72.302  1.00  0.00    -0.336 C  
HETATM   16  C   UNL     1     -10.761   7.311  71.968  1.00  0.00    -0.211 C  
HETATM   17  N   UNL     1      -9.765   7.107  70.914  1.00  0.00    -0.171 NA 
BRANCH   4  18
HETATM   18  O   UNL     1     -11.917  11.928  67.631  1.00  0.00    -0.575 OA 
HETATM   19  C   UNL     1     -10.962  11.852  66.574  1.00  0.00    -0.292 C  
ENDBRANCH   4  18
BRANCH  12  20
HETATM   20  C   UNL     1      -9.411   3.573  69.194  1.00  0.00    -0.224 C  
HETATM   21  C   UNL     1      -8.766   2.709  70.288  1.00  0.00    -0.129 C  
HETATM   22  C   UNL     1      -8.112   1.482  69.634  1.00  0.00    -0.059 C  
HETATM   23  C   UNL     1      -9.772   2.237  71.337  1.00  0.00    -0.216 C  
ENDBRANCH  12  20
ENDBRANCH   2   3
TORSDOF 3
ENDMDL
MODEL       58
REMARK 921   NORMALIZED FREE ENERGY PREDICTED BY IDOCK:   -4.57 KCAL/MOL
REMARK 922        TOTAL FREE ENERGY PREDICTED BY IDOCK:   -5.71 KCAL/MOL
REMARK 923 INTER-LIGAND FREE ENERGY PREDICTED BY IDOCK:   -5.51 KCAL/MOL
REMARK 924 INTRA-LIGAND FREE ENERGY PREDICTED BY IDOCK:   -0.20 KCAL/MOL
REMARK 927      BINDING AFFINITY PREDICTED BY RF-SCORE:    0.00 PKD
ROOT
HETATM    1  C   UNL     1      -5.459  21.328  67.792  1.00  0.00    -0.316 C  
HETATM    2  O   UNL     1      -6.699  20.746  68.179  1.00  0.00    -0.291 OA 
ENDROOT
BRANCH   2   3
HETATM    3  C   UNL     1      -6.960  19.481  67.712  1.00  0.00    -0.242 A  
HETATM    4  C   UNL     1      -7.371  19.128  66.420  1.00  0.00    -0.248 A  
HETATM    5  C   UNL     1      -7.570  17.777  66.128  1.00  0.00    -0.302 A  
HETATM    6  C   UNL     1      -6.834  18.482  68.694  1.00  0.00    -0.279 A  
HETATM    7  C   UNL     1      -7.504  16.779  67.119  1.00  0.00    -0.216 A  
HETATM    8  C   UNL     1      -7.121  17.134  68.411  1.00  0.00    -0.206 A  
HETATM    9  C   UNL     1      -7.967  15.371  66.768  1.00  0.00    -0.130 C  
HETATM   10  C   UNL     1      -9.439  15.467  66.360  1.00  0.00    -0.325 C  
HETATM   11  C   UNL     1      -9.830  14.108  65.898  1.00  0.00    -0.289 C  
HETATM   12  C   UNL     1      -9.822  13.060  66.987  1.00  0.00    -0.238 C  
HETATM   13  O   UNL     1     -10.115  13.890  64.724  1.00  0.00    -0.373 OA 
HETATM   14  C   UNL     1      -8.387  13.039  67.555  1.00  0.00    -0.184 C  
HETATM   15  C   UNL     1      -6.956  16.057  69.447  1.00  0.00    -0.216 C  
HETATM   16  C   UNL     1      -7.870  14.844  69.180  1.00  0.00    -0.171 C  
HETATM   17  N   UNL     1      -7.730  14.345  67.810  1.00  0.00    -0.145 NA 
BRANCH   4  18
HETATM   18  O   UNL     1      -7.583  20.108  65.484  1.00  0.00    -0.294 OA 
HETATM   19  C   UNL     1      -6.523  20.341  64.558  1.00  0.00    -0.230 C  
ENDBRANCH   4  18
BRANCH  12  20
HETATM   20  C   UNL     1     -10.320  11.729  66.390  1.00  0.00    -0.257 C  
HETATM   21  C   UNL     1     -10.119  10.455  67.224  1.00  0.00    -0.244 C  
HETATM   22  C   UNL     1     -10.648   9.250  66.432  1.00  0.00    -0.037 C  
HETATM   23  C   UNL     1     -10.831  10.515  68.575  1.00  0.00    -0.275 C  
ENDBRANCH  12  20
ENDBRANCH   2   3
TORSDOF 3
ENDMDL
MODEL       59
REMARK 921   NORMALIZED FREE ENERGY PREDICTED BY IDOCK:   -4.46 KCAL/MOL
REMARK 922        TOTAL FREE ENERGY PREDICTED BY IDOCK:   -5.58 KCAL/MOL
REMARK 923 INTER-LIGAND FREE ENERGY PREDICTED BY IDOCK:   -5.30 KCAL/MOL
REMARK 924 INTRA-LIGAND FREE ENERGY PREDICTED BY IDOCK:   -0.28 KCAL/MOL
REMARK 927      BINDING AFFINITY PREDICTED BY RF-SCORE:    0.00 PKD
ROOT
HETATM    1  C   UNL     1     -11.327  16.464  64.464  1.00  0.00    -0.114 C  
HETATM    2  O   UNL     1     -10.369  16.223  65.490  1.00  0.00    -0.428 OA 
ENDROOT
BRANCH   2   3
HETATM    3  C   UNL     1     -10.459  15.021  66.148  1.00  0.00    -0.305 A  
HETATM    4  C   UNL     1     -10.474  14.818  67.534  1.00  0.00    -0.245 A  
HETATM    5  C   UNL     1     -10.590  13.513  68.017  1.00  0.00    -0.247 A  
HETATM    6  C   UNL     1     -10.483  13.909  65.287  1.00  0.00    -0.386 A  
HETATM    7  C   UNL     1     -10.554  12.393  67.164  1.00  0.00    -0.247 A  
HETATM    8  C   UNL     1     -10.513  12.594  65.787  1.00  0.00    -0.299 A  
HETATM    9  C   UNL     1     -10.445  11.007  67.787  1.00  0.00    -0.199 C  
HETATM   10  C   UNL     1      -9.142  10.972  68.588  1.00  0.00    -0.174 C  
HETATM   11  C   UNL     1      -9.123   9.660  69.289  1.00  0.00    -0.172 C  
HETATM   12  C   UNL     1      -9.014   8.468  68.365  1.00  0.00    -0.139 C  
HETATM   13  O   UNL     1      -9.202   9.588  70.512  1.00  0.00    -0.248 OA 
HETATM   14  C   UNL     1     -10.227   8.548  67.415  1.00  0.00    -0.261 C  
HETATM   15  C   UNL     1     -10.572  11.403  64.871  1.00  0.00    -0.368 C  
HETATM   16  C   UNL     1      -9.979  10.135  65.522  1.00  0.00    -0.293 C  
HETATM   17  N   UNL     1     -10.563   9.873  66.839  1.00  0.00    -0.209 NA 
BRANCH   4  18
HETATM   18  O   UNL     1     -10.360  15.893  68.378  1.00  0.00    -0.230 OA 
HETATM   19  C   UNL     1      -9.077  16.108  68.963  1.00  0.00    -0.250 C  
ENDBRANCH   4  18
BRANCH  12  20
HETATM   20  C   UNL     1      -8.924   7.190  69.223  1.00  0.00    -0.138 C  
HETATM   21  C   UNL     1      -9.124   5.842  68.515  1.00  0.00    -0.111 C  
HETATM   22  C   UNL     1      -9.032   4.714  69.553  1.00  0.00    -0.137 C  
HETATM   23  C   UNL     1      -8.090   5.593  67.416  1.00  0.00    -0.102 C  
ENDBRANCH  12  20
ENDBRANCH   2   3
TORSDOF 3
ENDMDL
MODEL       60
REMARK 921   NORMALIZED FREE ENERGY PREDICTED BY IDOCK:   -4.45 KCAL/MOL
REMARK 922        TOTAL FREE ENERGY PREDICTED BY IDOCK:   -5.56 KCAL/MOL
REMARK 923 INTER-LIGAND FREE ENERGY PREDICTED BY IDOCK:   -5.32 KCAL/MOL
REMARK 924 INTRA-LIGAND FREE ENERGY PREDICTED BY IDOCK:   -0.25 KCAL/MOL
REMARK 927      BINDING AFFINITY PREDICTED BY RF-SCORE:    0.00 PKD
ROOT
HETATM    1  C   UNL     1     -13.990   8.816  71.781  1.00  0.00    -0.418 C  
HETATM    2  O   UNL     1     -12.596   8.578  71.613  1.00  0.00    -0.310 OA 
ENDROOT
BRANCH   2   3
HETATM    3  C   UNL     1     -11.935   9.388  70.722  1.00  0.00    -0.231 A  
HETATM    4  C   UNL     1     -10.860   9.031  69.897  1.00  0.00    -0.218 A  
HETATM    5  C   UNL     1     -10.329   9.996  69.039  1.00  0.00    -0.223 A  
HETATM    6  C   UNL     1     -12.397  10.716  70.720  1.00  0.00    -0.472 A  
HETATM    7  C   UNL     1     -10.744  11.340  69.074  1.00  0.00    -0.257 A  
HETATM    8  C   UNL     1     -11.796  11.701  69.914  1.00  0.00    -0.434 A  
HETATM    9  C   UNL     1      -9.951  12.370  68.279  1.00  0.00    -0.224 C  
HETATM   10  C   UNL     1      -8.520  12.354  68.819  1.00  0.00     0.133 C  
HETATM   11  C   UNL     1      -7.737  13.268  67.944  1.00  0.00    -0.152 C  
HETATM   12  C   UNL     1      -8.148  14.719  68.043  1.00  0.00    -0.140 C  
HETATM   13  O   UNL     1      -6.850  12.843  67.208  1.00  0.00    -0.150 OA 
HETATM   14  C   UNL     1      -9.643  14.771  67.667  1.00  0.00    -0.208 C  
HETATM   15  C   UNL     1     -12.306  13.115  69.882  1.00  0.00    -0.201 C  
HETATM   16  C   UNL     1     -11.209  14.123  69.482  1.00  0.00    -0.221 C  
HETATM   17  N   UNL     1     -10.533  13.732  68.243  1.00  0.00    -0.241 NA 
BRANCH   4  18
HETATM   18  O   UNL     1     -10.348   7.761  69.962  1.00  0.00    -0.210 OA 
HETATM   19  C   UNL     1     -11.054   6.754  69.237  1.00  0.00    -0.239 C  
ENDBRANCH   4  18
BRANCH  12  20
HETATM   20  C   UNL     1      -7.208  15.556  67.151  1.00  0.00    -0.208 C  
HETATM   21  C   UNL     1      -7.260  17.083  67.300  1.00  0.00    -0.190 C  
HETATM   22  C   UNL     1      -6.281  17.716  66.301  1.00  0.00    -0.272 C  
HETATM   23  C   UNL     1      -6.904  17.552  68.711  1.00  0.00    -0.233 C  
ENDBRANCH  12  20
ENDBRANCH   2   3
TORSDOF 3
ENDMDL
MODEL       61
REMARK 921   NORMALIZED FREE ENERGY PREDICTED BY IDOCK:   -4.41 KCAL/MOL
REMARK 922        TOTAL FREE ENERGY PREDICTED BY IDOCK:   -5.52 KCAL/MOL
REMARK 923 INTER-LIGAND FREE ENERGY PREDICTED BY IDOCK:   -5.23 KCAL/MOL
REMARK 924 INTRA-LIGAND FREE ENERGY PREDICTED BY IDOCK:   -0.29 KCAL/MOL
REMARK 927      BINDING AFFINITY PREDICTED BY RF-SCORE:    0.00 PKD
ROOT
HETATM    1  C   UNL     1      -5.921   4.347  68.321  1.00  0.00    -0.027 C  
HETATM    2  O   UNL     1      -7.015   4.698  69.162  1.00  0.00    -0.049 OA 
ENDROOT
BRANCH   2   3
HETATM    3  C   UNL     1      -7.546   5.954  68.994  1.00  0.00    -0.090 A  
HETATM    4  C   UNL     1      -8.550   6.554  69.765  1.00  0.00    -0.136 A  
HETATM    5  C   UNL     1      -8.946   7.855  69.448  1.00  0.00    -0.145 A  
HETATM    6  C   UNL     1      -7.021   6.642  67.885  1.00  0.00    -0.083 A  
HETATM    7  C   UNL     1      -8.471   8.526  68.306  1.00  0.00    -0.135 A  
HETATM    8  C   UNL     1      -7.490   7.919  67.525  1.00  0.00    -0.093 A  
HETATM    9  C   UNL     1      -9.131   9.840  67.905  1.00  0.00    -0.121 C  
HETATM   10  C   UNL     1     -10.607   9.541  67.637  1.00  0.00    -0.329 C  
HETATM   11  C   UNL     1     -11.254  10.855  67.376  1.00  0.00    -0.273 C  
HETATM   12  C   UNL     1     -10.784  11.533  66.109  1.00  0.00    -0.324 C  
HETATM   13  O   UNL     1     -12.084  11.323  68.151  1.00  0.00    -0.635 OA 
HETATM   14  C   UNL     1      -9.259  11.709  66.255  1.00  0.00    -0.217 C  
HETATM   15  C   UNL     1      -6.911   8.673  66.361  1.00  0.00    -0.078 C  
HETATM   16  C   UNL     1      -7.913   9.682  65.761  1.00  0.00    -0.109 C  
HETATM   17  N   UNL     1      -8.482  10.561  66.785  1.00  0.00    -0.125 NA 
BRANCH   4  18
HETATM   18  O   UNL     1      -9.127   5.852  70.792  1.00  0.00    -0.150 OA 
HETATM   19  C   UNL     1     -10.508   5.529  70.642  1.00  0.00    -0.272 C  
ENDBRANCH   4  18
BRANCH  12  20
HETATM   20  C   UNL     1     -11.589  12.835  65.924  1.00  0.00    -0.428 C  
HETATM   21  C   UNL     1     -11.582  13.483  64.532  1.00  0.00    -0.410 C  
HETATM   22  C   UNL     1     -12.408  14.778  64.579  1.00  0.00    -0.384 C  
HETATM   23  C   UNL     1     -12.156  12.567  63.451  1.00  0.00    -0.621 C  
ENDBRANCH  12  20
ENDBRANCH   2   3
TORSDOF 3
ENDMDL
MODEL       62
REMARK 921   NORMALIZED FREE ENERGY PREDICTED BY IDOCK:   -4.41 KCAL/MOL
REMARK 922        TOTAL FREE ENERGY PREDICTED BY IDOCK:   -5.52 KCAL/MOL
REMARK 923 INTER-LIGAND FREE ENERGY PREDICTED BY IDOCK:   -5.23 KCAL/MOL
REMARK 924 INTRA-LIGAND FREE ENERGY PREDICTED BY IDOCK:   -0.29 KCAL/MOL
REMARK 927      BINDING AFFINITY PREDICTED BY RF-SCORE:    0.00 PKD
ROOT
HETATM    1  C   UNL     1      -9.210   4.122  70.288  1.00  0.00    -0.135 C  
HETATM    2  O   UNL     1      -8.459   4.680  69.215  1.00  0.00    -0.079 OA 
ENDROOT
BRANCH   2   3
HETATM    3  C   UNL     1      -9.043   5.714  68.525  1.00  0.00    -0.114 A  
HETATM    4  C   UNL     1      -9.179   5.829  67.135  1.00  0.00    -0.115 A  
HETATM    5  C   UNL     1      -9.823   6.955  66.618  1.00  0.00    -0.217 A  
HETATM    6  C   UNL     1      -9.487   6.762  69.351  1.00  0.00    -0.147 A  
HETATM    7  C   UNL     1     -10.215   8.034  67.433  1.00  0.00    -0.330 A  
HETATM    8  C   UNL     1     -10.056   7.931  68.813  1.00  0.00    -0.203 A  
HETATM    9  C   UNL     1     -10.690   9.317  66.763  1.00  0.00    -0.050 C  
HETATM   10  C   UNL     1      -9.535   9.834  65.903  1.00  0.00    -0.285 C  
HETATM   11  C   UNL     1     -10.065  11.009  65.162  1.00  0.00    -0.289 C  
HETATM   12  C   UNL     1     -10.417  12.187  66.042  1.00  0.00    -0.281 C  
HETATM   13  O   UNL     1     -10.202  10.986  63.941  1.00  0.00    -0.310 OA 
HETATM   14  C   UNL     1     -11.467  11.673  67.049  1.00  0.00    -0.262 C  
HETATM   15  C   UNL     1     -10.562   9.040  69.692  1.00  0.00    -0.230 C  
HETATM   16  C   UNL     1     -10.548  10.407  68.977  1.00  0.00    -0.221 C  
HETATM   17  N   UNL     1     -11.226  10.352  67.680  1.00  0.00    -0.348 NA 
BRANCH   4  18
HETATM   18  O   UNL     1      -8.667   4.851  66.321  1.00  0.00    -0.114 OA 
HETATM   19  C   UNL     1      -9.614   4.000  65.678  1.00  0.00    -0.190 C  
ENDBRANCH   4  18
BRANCH  12  20
HETATM   20  C   UNL     1     -10.873  13.352  65.142  1.00  0.00    -0.322 C  
HETATM   21  C   UNL     1     -10.692  14.779  65.680  1.00  0.00    -0.345 C  
HETATM   22  C   UNL     1     -11.242  15.776  64.648  1.00  0.00    -0.373 C  
HETATM   23  C   UNL     1      -9.230  15.120  65.971  1.00  0.00    -0.273 C  
ENDBRANCH  12  20
ENDBRANCH   2   3
TORSDOF 3
ENDMDL
MODEL       63
REMARK 921   NORMALIZED FREE ENERGY PREDICTED BY IDOCK:   -4.39 KCAL/MOL
REMARK 922        TOTAL FREE ENERGY PREDICTED BY IDOCK:   -5.49 KCAL/MOL
REMARK 923 INTER-LIGAND FREE ENERGY PREDICTED BY IDOCK:   -6.11 KCAL/MOL
REMARK 924 INTRA-LIGAND FREE ENERGY PREDICTED BY IDOCK:    0.62 KCAL/MOL
REMARK 927      BINDING AFFINITY PREDICTED BY RF-SCORE:    0.00 PKD
ROOT
HETATM    1  C   UNL     1      -9.671   5.687  71.450  1.00  0.00    -0.162 C  
HETATM    2  O   UNL     1     -10.344   6.786  72.056  1.00  0.00    -0.196 OA 
ENDROOT
BRANCH   2   3
HETATM    3  C   UNL     1     -10.429   7.941  71.317  1.00  0.00    -0.203 A  
HETATM    4  C   UNL     1     -11.561   8.747  71.142  1.00  0.00    -0.289 A  
HETATM    5  C   UNL     1     -11.445   9.902  70.365  1.00  0.00    -0.372 A  
HETATM    6  C   UNL     1      -9.236   8.271  70.650  1.00  0.00    -0.167 A  
HETATM    7  C   UNL     1     -10.274  10.205  69.645  1.00  0.00    -0.272 A  
HETATM    8  C   UNL     1      -9.156   9.389  69.799  1.00  0.00    -0.204 A  
HETATM    9  C   UNL     1     -10.313  11.348  68.638  1.00  0.00    -0.203 C  
HETATM   10  C   UNL     1     -11.373  10.994  67.593  1.00  0.00    -0.355 C  
HETATM   11  C   UNL     1     -11.485  12.178  66.699  1.00  0.00    -0.365 C  
HETATM   12  C   UNL     1     -10.244  12.452  65.880  1.00  0.00    -0.273 C  
HETATM   13  O   UNL     1     -12.507  12.858  66.664  1.00  0.00    -0.367 OA 
HETATM   14  C   UNL     1      -9.096  12.653  66.892  1.00  0.00    -0.218 C  
HETATM   15  C   UNL     1      -7.875   9.765  69.108  1.00  0.00    -0.095 C  
HETATM   16  C   UNL     1      -8.123  10.561  67.809  1.00  0.00    -0.106 C  
HETATM   17  N   UNL     1      -9.010  11.705  68.031  1.00  0.00    -0.169 NA 
BRANCH   4  18
HETATM   18  O   UNL     1     -12.750   8.381  71.719  1.00  0.00    -0.316 OA 
HETATM   19  C   UNL     1     -13.648   9.439  72.050  1.00  0.00    -0.433 C  
ENDBRANCH   4  18
BRANCH  12  20
HETATM   20  C   UNL     1     -10.526  13.648  64.949  1.00  0.00    -0.426 C  
HETATM   21  C   UNL     1     -10.831  15.003  65.604  1.00  0.00    -0.356 C  
HETATM   22  C   UNL     1     -11.117  16.037  64.504  1.00  0.00    -0.269 C  
HETATM   23  C   UNL     1      -9.683  15.510  66.476  1.00  0.00    -0.290 C  
ENDBRANCH  12  20
ENDBRANCH   2   3
TORSDOF 3
ENDMDL
MODEL       64
REMARK 921   NORMALIZED FREE ENERGY PREDICTED BY IDOCK:   -4.35 KCAL/MOL
REMARK 922        TOTAL FREE ENERGY PREDICTED BY IDOCK:   -5.45 KCAL/MOL
REMARK 923 INTER-LIGAND FREE ENERGY PREDICTED BY IDOCK:   -5.17 KCAL/MOL
REMARK 924 INTRA-LIGAND FREE ENERGY PREDICTED BY IDOCK:   -0.28 KCAL/MOL
REMARK 927      BINDING AFFINITY PREDICTED BY RF-SCORE:    0.00 PKD
ROOT
HETATM    1  C   UNL     1      -8.875   4.796  72.532  1.00  0.00    -0.118 C  
HETATM    2  O   UNL     1      -9.884   4.484  71.577  1.00  0.00    -0.172 OA 
ENDROOT
BRANCH   2   3
HETATM    3  C   UNL     1     -10.205   5.469  70.674  1.00  0.00    -0.240 A  
HETATM    4  C   UNL     1     -10.152   5.380  69.277  1.00  0.00    -0.231 A  
HETATM    5  C   UNL     1     -10.539   6.490  68.523  1.00  0.00    -0.291 A  
HETATM    6  C   UNL     1     -10.570   6.686  71.276  1.00  0.00    -0.256 A  
HETATM    7  C   UNL     1     -10.846   7.729  69.116  1.00  0.00    -0.066 A  
HETATM    8  C   UNL     1     -10.874   7.824  70.506  1.00  0.00    -0.245 A  
HETATM    9  C   UNL     1     -11.022   8.945  68.216  1.00  0.00     0.121 C  
HETATM   10  C   UNL     1      -9.704   9.149  67.467  1.00  0.00    -0.204 C  
HETATM   11  C   UNL     1      -9.943  10.256  66.502  1.00  0.00    -0.224 C  
HETATM   12  C   UNL     1     -10.203  11.596  67.153  1.00  0.00    -0.240 C  
HETATM   13  O   UNL     1      -9.934  10.060  65.290  1.00  0.00    -0.315 OA 
HETATM   14  C   UNL     1     -11.436  11.402  68.059  1.00  0.00    -0.307 C  
HETATM   15  C   UNL     1     -11.296   9.119  71.142  1.00  0.00    -0.392 C  
HETATM   16  C   UNL     1     -10.974  10.339  70.255  1.00  0.00    -0.309 C  
HETATM   17  N   UNL     1     -11.490  10.176  68.894  1.00  0.00    -0.127 NA 
BRANCH   4  18
HETATM   18  O   UNL     1      -9.711   4.223  68.687  1.00  0.00    -0.156 OA 
HETATM   19  C   UNL     1      -9.464   4.281  67.284  1.00  0.00    -0.181 C  
ENDBRANCH   4  18
BRANCH  12  20
HETATM   20  C   UNL     1     -10.352  12.657  66.044  1.00  0.00    -0.287 C  
HETATM   21  C   UNL     1     -10.846  14.051  66.457  1.00  0.00    -0.300 C  
HETATM   22  C   UNL     1     -10.957  14.933  65.204  1.00  0.00    -0.410 C  
HETATM   23  C   UNL     1      -9.919  14.733  67.463  1.00  0.00    -0.219 C  
ENDBRANCH  12  20
ENDBRANCH   2   3
TORSDOF 3
ENDMDL
MODEL       65
REMARK 921   NORMALIZED FREE ENERGY PREDICTED BY IDOCK:   -4.34 KCAL/MOL
REMARK 922        TOTAL FREE ENERGY PREDICTED BY IDOCK:   -5.44 KCAL/MOL
REMARK 923 INTER-LIGAND FREE ENERGY PREDICTED BY IDOCK:   -5.09 KCAL/MOL
REMARK 924 INTRA-LIGAND FREE ENERGY PREDICTED BY IDOCK:   -0.35 KCAL/MOL
REMARK 927      BINDING AFFINITY PREDICTED BY RF-SCORE:    0.00 PKD
ROOT
HETATM    1  C   UNL     1      -9.300   2.544  68.552  1.00  0.00    -0.193 C  
HETATM    2  O   UNL     1      -8.578   3.755  68.352  1.00  0.00    -0.089 OA 
ENDROOT
BRANCH   2   3
HETATM    3  C   UNL     1      -9.308   4.919  68.371  1.00  0.00    -0.131 A  
HETATM    4  C   UNL     1      -9.938   5.536  67.282  1.00  0.00    -0.165 A  
HETATM    5  C   UNL     1     -10.654   6.714  67.505  1.00  0.00    -0.347 A  
HETATM    6  C   UNL     1      -9.349   5.537  69.633  1.00  0.00    -0.172 A  
HETATM    7  C   UNL     1     -10.650   7.369  68.750  1.00  0.00    -0.189 A  
HETATM    8  C   UNL     1     -10.001   6.769  69.827  1.00  0.00    -0.189 A  
HETATM    9  C   UNL     1     -11.254   8.765  68.842  1.00  0.00     0.385 C  
HETATM   10  C   UNL     1     -10.466   9.664  67.887  1.00  0.00    -0.296 C  
HETATM   11  C   UNL     1     -11.155  10.982  67.897  1.00  0.00    -0.288 C  
HETATM   12  C   UNL     1     -11.083  11.707  69.221  1.00  0.00    -0.291 C  
HETATM   13  O   UNL     1     -11.733  11.408  66.900  1.00  0.00    -0.507 OA 
HETATM   14  C   UNL     1     -11.720  10.764  70.263  1.00  0.00    -0.352 C  
HETATM   15  C   UNL     1     -10.077   7.418  71.181  1.00  0.00    -0.189 C  
HETATM   16  C   UNL     1     -10.239   8.949  71.087  1.00  0.00    -0.266 C  
HETATM   17  N   UNL     1     -11.349   9.328  70.209  1.00  0.00    -0.235 NA 
BRANCH   4  18
HETATM   18  O   UNL     1      -9.825   4.985  66.031  1.00  0.00    -0.168 OA 
HETATM   19  C   UNL     1      -8.750   5.459  65.223  1.00  0.00    -0.145 C  
ENDBRANCH   4  18
BRANCH  12  20
HETATM   20  C   UNL     1     -11.763  13.082  69.065  1.00  0.00    -0.376 C  
HETATM   21  C   UNL     1     -10.857  14.321  69.009  1.00  0.00    -0.274 C  
HETATM   22  C   UNL     1     -11.734  15.576  68.890  1.00  0.00    -0.385 C  
HETATM   23  C   UNL     1      -9.878  14.285  67.835  1.00  0.00    -0.226 C  
ENDBRANCH  12  20
ENDBRANCH   2   3
TORSDOF 3
ENDMDL
MODEL       66
REMARK 921   NORMALIZED FREE ENERGY PREDICTED BY IDOCK:   -4.34 KCAL/MOL
REMARK 922        TOTAL FREE ENERGY PREDICTED BY IDOCK:   -5.44 KCAL/MOL
REMARK 923 INTER-LIGAND FREE ENERGY PREDICTED BY IDOCK:   -5.16 KCAL/MOL
REMARK 924 INTRA-LIGAND FREE ENERGY PREDICTED BY IDOCK:   -0.27 KCAL/MOL
REMARK 927      BINDING AFFINITY PREDICTED BY RF-SCORE:    0.00 PKD
ROOT
HETATM    1  C   UNL     1     -10.060   5.628  73.999  1.00  0.00    -0.234 C  
HETATM    2  O   UNL     1     -11.130   6.257  73.302  1.00  0.00    -0.227 OA 
ENDROOT
BRANCH   2   3
HETATM    3  C   UNL     1     -10.788   7.080  72.257  1.00  0.00    -0.230 A  
HETATM    4  C   UNL     1     -11.316   8.346  71.973  1.00  0.00    -0.342 A  
HETATM    5  C   UNL     1     -10.824   9.043  70.867  1.00  0.00    -0.323 A  
HETATM    6  C   UNL     1      -9.840   6.516  71.385  1.00  0.00    -0.191 A  
HETATM    7  C   UNL     1      -9.921   8.461  69.958  1.00  0.00    -0.188 A  
HETATM    8  C   UNL     1      -9.416   7.191  70.226  1.00  0.00    -0.162 A  
HETATM    9  C   UNL     1      -9.622   9.196  68.657  1.00  0.00    -0.152 C  
HETATM   10  C   UNL     1     -10.947   9.343  67.905  1.00  0.00    -0.122 C  
HETATM   11  C   UNL     1     -10.653  10.174  66.707  1.00  0.00    -0.169 C  
HETATM   12  C   UNL     1      -9.737   9.510  65.705  1.00  0.00    -0.361 C  
HETATM   13  O   UNL     1     -11.121  11.303  66.582  1.00  0.00    -0.289 OA 
HETATM   14  C   UNL     1      -8.432   9.185  66.462  1.00  0.00    -0.123 C  
HETATM   15  C   UNL     1      -8.378   6.608  69.307  1.00  0.00    -0.124 C  
HETATM   16  C   UNL     1      -8.510   7.137  67.864  1.00  0.00    -0.121 C  
HETATM   17  N   UNL     1      -8.554   8.601  67.821  1.00  0.00    -0.136 NA 
BRANCH   4  18
HETATM   18  O   UNL     1     -12.306   8.862  72.770  1.00  0.00    -0.250 OA 
HETATM   19  C   UNL     1     -13.520   9.229  72.118  1.00  0.00    -0.473 C  
ENDBRANCH   4  18
BRANCH  12  20
HETATM   20  C   UNL     1      -9.584  10.444  64.487  1.00  0.00    -0.369 C  
HETATM   21  C   UNL     1      -8.465  10.127  63.484  1.00  0.00    -0.186 C  
HETATM   22  C   UNL     1      -8.468  11.195  62.379  1.00  0.00    -0.282 C  
HETATM   23  C   UNL     1      -8.620   8.748  62.843  1.00  0.00    -0.112 C  
ENDBRANCH  12  20
ENDBRANCH   2   3
TORSDOF 3
ENDMDL
MODEL       67
REMARK 921   NORMALIZED FREE ENERGY PREDICTED BY IDOCK:   -4.32 KCAL/MOL
REMARK 922        TOTAL FREE ENERGY PREDICTED BY IDOCK:   -5.41 KCAL/MOL
REMARK 923 INTER-LIGAND FREE ENERGY PREDICTED BY IDOCK:   -5.16 KCAL/MOL
REMARK 924 INTRA-LIGAND FREE ENERGY PREDICTED BY IDOCK:   -0.26 KCAL/MOL
REMARK 927      BINDING AFFINITY PREDICTED BY RF-SCORE:    0.00 PKD
ROOT
HETATM    1  C   UNL     1     -10.261  19.955  65.865  1.00  0.00    -0.451 C  
HETATM    2  O   UNL     1     -10.823  18.957  66.711  1.00  0.00    -0.370 OA 
ENDROOT
BRANCH   2   3
HETATM    3  C   UNL     1     -10.215  17.724  66.700  1.00  0.00    -0.361 A  
HETATM    4  C   UNL     1     -10.376  16.715  65.742  1.00  0.00    -0.321 A  
HETATM    5  C   UNL     1      -9.653  15.529  65.895  1.00  0.00    -0.383 A  
HETATM    6  C   UNL     1      -9.398  17.491  67.820  1.00  0.00    -0.257 A  
HETATM    7  C   UNL     1      -8.881  15.265  67.041  1.00  0.00    -0.261 A  
HETATM    8  C   UNL     1      -8.743  16.260  68.007  1.00  0.00    -0.178 A  
HETATM    9  C   UNL     1      -8.323  13.861  67.237  1.00  0.00    -0.185 C  
HETATM   10  C   UNL     1      -9.515  12.904  67.299  1.00  0.00    -0.216 C  
HETATM   11  C   UNL     1      -8.943  11.533  67.358  1.00  0.00    -0.156 C  
HETATM   12  C   UNL     1      -8.174  11.239  68.626  1.00  0.00    -0.146 C  
HETATM   13  O   UNL     1      -9.090  10.738  66.433  1.00  0.00    -0.163 OA 
HETATM   14  C   UNL     1      -7.049  12.291  68.701  1.00  0.00    -0.103 C  
HETATM   15  C   UNL     1      -7.841  16.016  69.185  1.00  0.00    -0.233 C  
HETATM   16  C   UNL     1      -7.744  14.519  69.547  1.00  0.00     0.065 C  
HETATM   17  N   UNL     1      -7.400  13.697  68.385  1.00  0.00    -0.109 NA 
BRANCH   4  18
HETATM   18  O   UNL     1     -11.241  16.903  64.696  1.00  0.00    -0.915 OA 
HETATM   19  C   UNL     1     -11.911  15.743  64.208  1.00  0.00    -0.058 C  
ENDBRANCH   4  18
BRANCH  12  20
HETATM   20  C   UNL     1      -7.710   9.769  68.588  1.00  0.00    -0.080 C  
HETATM   21  C   UNL     1      -7.132   9.172  69.879  1.00  0.00    -0.056 C  
HETATM   22  C   UNL     1      -6.701   7.722  69.610  1.00  0.00    -0.039 C  
HETATM   23  C   UNL     1      -8.132   9.187  71.036  1.00  0.00    -0.179 C  
ENDBRANCH  12  20
ENDBRANCH   2   3
TORSDOF 3
ENDMDL
MODEL       68
REMARK 921   NORMALIZED FREE ENERGY PREDICTED BY IDOCK:   -4.31 KCAL/MOL
REMARK 922        TOTAL FREE ENERGY PREDICTED BY IDOCK:   -5.40 KCAL/MOL
REMARK 923 INTER-LIGAND FREE ENERGY PREDICTED BY IDOCK:   -5.12 KCAL/MOL
REMARK 924 INTRA-LIGAND FREE ENERGY PREDICTED BY IDOCK:   -0.28 KCAL/MOL
REMARK 927      BINDING AFFINITY PREDICTED BY RF-SCORE:    0.00 PKD
ROOT
HETATM    1  C   UNL     1     -11.412   7.423  70.433  1.00  0.00    -0.225 C  
HETATM    2  O   UNL     1     -10.055   7.754  70.154  1.00  0.00    -0.193 OA 
ENDROOT
BRANCH   2   3
HETATM    3  C   UNL     1      -9.835   8.911  69.446  1.00  0.00    -0.183 A  
HETATM    4  C   UNL     1      -8.687   9.245  68.716  1.00  0.00    -0.132 A  
HETATM    5  C   UNL     1      -8.657  10.469  68.043  1.00  0.00    -0.121 A  
HETATM    6  C   UNL     1     -10.886   9.839  69.546  1.00  0.00    -0.264 A  
HETATM    7  C   UNL     1      -9.678  11.427  68.186  1.00  0.00    -0.194 A  
HETATM    8  C   UNL     1     -10.807  11.105  68.935  1.00  0.00    -0.261 A  
HETATM    9  C   UNL     1      -9.453  12.821  67.614  1.00  0.00    -0.190 C  
HETATM   10  C   UNL     1      -8.223  13.405  68.311  1.00  0.00    -0.160 C  
HETATM   11  C   UNL     1      -7.948  14.706  67.645  1.00  0.00    -0.179 C  
HETATM   12  C   UNL     1      -9.019  15.750  67.865  1.00  0.00    -0.180 C  
HETATM   13  O   UNL     1      -6.935  14.878  66.973  1.00  0.00    -0.180 OA 
HETATM   14  C   UNL     1     -10.331  15.141  67.326  1.00  0.00    -0.261 C  
HETATM   15  C   UNL     1     -11.941  12.089  69.009  1.00  0.00    -0.321 C  
HETATM   16  C   UNL     1     -11.460  13.548  68.860  1.00  0.00    -0.306 C  
HETATM   17  N   UNL     1     -10.625  13.728  67.670  1.00  0.00    -0.241 NA 
BRANCH   4  18
HETATM   18  O   UNL     1      -7.623   8.380  68.690  1.00  0.00    -0.097 OA 
HETATM   19  C   UNL     1      -7.526   7.526  67.552  1.00  0.00    -0.104 C  
ENDBRANCH   4  18
BRANCH  12  20
HETATM   20  C   UNL     1      -8.570  17.062  67.192  1.00  0.00    -0.220 C  
HETATM   21  C   UNL     1      -9.608  18.186  67.059  1.00  0.00    -0.287 C  
HETATM   22  C   UNL     1      -8.966  19.377  66.332  1.00  0.00    -0.395 C  
HETATM   23  C   UNL     1     -10.144  18.658  68.411  1.00  0.00    -0.426 C  
ENDBRANCH  12  20
ENDBRANCH   2   3
TORSDOF 3
ENDMDL
MODEL       69
REMARK 921   NORMALIZED FREE ENERGY PREDICTED BY IDOCK:   -4.27 KCAL/MOL
REMARK 922        TOTAL FREE ENERGY PREDICTED BY IDOCK:   -5.36 KCAL/MOL
REMARK 923 INTER-LIGAND FREE ENERGY PREDICTED BY IDOCK:   -5.00 KCAL/MOL
REMARK 924 INTRA-LIGAND FREE ENERGY PREDICTED BY IDOCK:   -0.36 KCAL/MOL
REMARK 927      BINDING AFFINITY PREDICTED BY RF-SCORE:    0.00 PKD
ROOT
HETATM    1  C   UNL     1      -9.448   6.795  74.476  1.00  0.00    -0.228 C  
HETATM    2  O   UNL     1     -10.705   6.701  73.815  1.00  0.00    -0.296 OA 
ENDROOT
BRANCH   2   3
HETATM    3  C   UNL     1     -10.707   6.911  72.458  1.00  0.00    -0.232 A  
HETATM    4  C   UNL     1     -10.563   5.943  71.456  1.00  0.00    -0.245 A  
HETATM    5  C   UNL     1     -10.610   6.352  70.121  1.00  0.00    -0.294 A  
HETATM    6  C   UNL     1     -10.818   8.266  72.099  1.00  0.00    -0.390 A  
HETATM    7  C   UNL     1     -10.659   7.710  69.755  1.00  0.00    -0.245 A  
HETATM    8  C   UNL     1     -10.776   8.675  70.753  1.00  0.00    -0.260 A  
HETATM    9  C   UNL     1     -10.466   8.077  68.289  1.00  0.00    -0.161 C  
HETATM   10  C   UNL     1      -9.080   7.577  67.876  1.00  0.00    -0.130 C  
HETATM   11  C   UNL     1      -8.967   7.829  66.414  1.00  0.00    -0.163 C  
HETATM   12  C   UNL     1      -8.952   9.294  66.040  1.00  0.00    -0.215 C  
HETATM   13  O   UNL     1      -8.907   6.904  65.609  1.00  0.00    -0.121 OA 
HETATM   14  C   UNL     1     -10.266   9.892  66.585  1.00  0.00    -0.226 C  
HETATM   15  C   UNL     1     -10.927  10.118  70.361  1.00  0.00    -0.386 C  
HETATM   16  C   UNL     1     -10.251  10.431  69.009  1.00  0.00    -0.217 C  
HETATM   17  N   UNL     1     -10.679   9.506  67.958  1.00  0.00    -0.234 NA 
BRANCH   4  18
HETATM   18  O   UNL     1     -10.365   4.631  71.803  1.00  0.00    -0.195 OA 
HETATM   19  C   UNL     1      -9.641   3.830  70.871  1.00  0.00    -0.186 C  
ENDBRANCH   4  18
BRANCH  12  20
HETATM   20  C   UNL     1      -8.752   9.408  64.516  1.00  0.00    -0.233 C  
HETATM   21  C   UNL     1      -7.428  10.003  64.014  1.00  0.00    -0.135 C  
HETATM   22  C   UNL     1      -7.454  10.058  62.480  1.00  0.00    -0.134 C  
HETATM   23  C   UNL     1      -6.210   9.194  64.462  1.00  0.00    -0.071 C  
ENDBRANCH  12  20
ENDBRANCH   2   3
TORSDOF 3
ENDMDL
MODEL       70
REMARK 921   NORMALIZED FREE ENERGY PREDICTED BY IDOCK:   -4.18 KCAL/MOL
REMARK 922        TOTAL FREE ENERGY PREDICTED BY IDOCK:   -5.25 KCAL/MOL
REMARK 923 INTER-LIGAND FREE ENERGY PREDICTED BY IDOCK:   -4.91 KCAL/MOL
REMARK 924 INTRA-LIGAND FREE ENERGY PREDICTED BY IDOCK:   -0.34 KCAL/MOL
REMARK 927      BINDING AFFINITY PREDICTED BY RF-SCORE:    0.00 PKD
ROOT
HETATM    1  C   UNL     1      -9.990  19.088  66.765  1.00  0.00    -0.360 C  
HETATM    2  O   UNL     1     -10.794  17.972  67.132  1.00  0.00    -0.312 OA 
ENDROOT
BRANCH   2   3
HETATM    3  C   UNL     1     -10.322  16.729  66.785  1.00  0.00    -0.293 A  
HETATM    4  C   UNL     1     -10.497  16.073  65.560  1.00  0.00    -0.405 A  
HETATM    5  C   UNL     1      -9.921  14.812  65.389  1.00  0.00    -0.369 A  
HETATM    6  C   UNL     1      -9.643  16.075  67.828  1.00  0.00    -0.219 A  
HETATM    7  C   UNL     1      -9.293  14.127  66.446  1.00  0.00    -0.254 A  
HETATM    8  C   UNL     1      -9.142  14.769  67.673  1.00  0.00    -0.185 A  
HETATM    9  C   UNL     1      -8.907  12.667  66.241  1.00  0.00     0.106 C  
HETATM   10  C   UNL     1     -10.194  11.896  65.941  1.00  0.00    -0.270 C  
HETATM   11  C   UNL     1      -9.778  10.506  65.617  1.00  0.00    -0.234 C  
HETATM   12  C   UNL     1      -9.168   9.757  66.780  1.00  0.00    -0.179 C  
HETATM   13  O   UNL     1      -9.920  10.043  64.488  1.00  0.00    -0.287 OA 
HETATM   14  C   UNL     1      -7.949  10.587  67.235  1.00  0.00    -0.114 C  
HETATM   15  C   UNL     1      -8.386  14.077  68.773  1.00  0.00    -0.048 C  
HETATM   16  C   UNL     1      -8.482  12.541  68.672  1.00  0.00     0.031 C  
HETATM   17  N   UNL     1      -8.119  12.058  67.338  1.00  0.00    -0.159 NA 
BRANCH   4  18
HETATM   18  O   UNL     1     -11.235  16.670  64.570  1.00  0.00    -0.909 OA 
HETATM   19  C   UNL     1     -12.138  15.828  63.856  1.00  0.00     0.392 C  
ENDBRANCH   4  18
BRANCH  12  20
HETATM   20  C   UNL     1      -8.859   8.316  66.327  1.00  0.00    -0.192 C  
HETATM   21  C   UNL     1      -9.478   7.168  67.138  1.00  0.00    -0.180 C  
HETATM   22  C   UNL     1      -9.016   5.830  66.542  1.00  0.00    -0.128 C  
HETATM   23  C   UNL     1     -11.006   7.207  67.145  1.00  0.00    -0.342 C  
ENDBRANCH  12  20
ENDBRANCH   2   3
TORSDOF 3
ENDMDL
MODEL       71
REMARK 921   NORMALIZED FREE ENERGY PREDICTED BY IDOCK:   -4.16 KCAL/MOL
REMARK 922        TOTAL FREE ENERGY PREDICTED BY IDOCK:   -5.23 KCAL/MOL
REMARK 923 INTER-LIGAND FREE ENERGY PREDICTED BY IDOCK:   -5.21 KCAL/MOL
REMARK 924 INTRA-LIGAND FREE ENERGY PREDICTED BY IDOCK:   -0.02 KCAL/MOL
REMARK 927      BINDING AFFINITY PREDICTED BY RF-SCORE:    0.00 PKD
ROOT
HETATM    1  C   UNL     1      -6.852   6.743  67.062  1.00  0.00    -0.069 C  
HETATM    2  O   UNL     1      -8.103   6.910  67.721  1.00  0.00    -0.112 OA 
ENDROOT
BRANCH   2   3
HETATM    3  C   UNL     1      -8.652   8.169  67.694  1.00  0.00    -0.130 A  
HETATM    4  C   UNL     1      -9.929   8.522  67.236  1.00  0.00    -0.225 A  
HETATM    5  C   UNL     1     -10.317   9.861  67.306  1.00  0.00    -0.303 A  
HETATM    6  C   UNL     1      -7.775   9.175  68.136  1.00  0.00    -0.092 A  
HETATM    7  C   UNL     1      -9.425  10.880  67.690  1.00  0.00    -0.170 A  
HETATM    8  C   UNL     1      -8.146  10.532  68.120  1.00  0.00    -0.113 A  
HETATM    9  C   UNL     1      -9.854  12.331  67.509  1.00  0.00    -0.193 C  
HETATM   10  C   UNL     1     -10.122  12.541  66.017  1.00  0.00    -0.268 C  
HETATM   11  C   UNL     1     -10.663  13.921  65.885  1.00  0.00    -0.286 C  
HETATM   12  C   UNL     1      -9.672  15.008  66.234  1.00  0.00    -0.316 C  
HETATM   13  O   UNL     1     -11.822  14.121  65.532  1.00  0.00    -0.341 OA 
HETATM   14  C   UNL     1      -9.237  14.744  67.690  1.00  0.00    -0.191 C  
HETATM   15  C   UNL     1      -7.225  11.609  68.622  1.00  0.00    -0.104 C  
HETATM   16  C   UNL     1      -7.514  12.977  67.970  1.00  0.00    -0.134 C  
HETATM   17  N   UNL     1      -8.929  13.343  68.071  1.00  0.00    -0.183 NA 
BRANCH   4  18
HETATM   18  O   UNL     1     -10.755   7.556  66.721  1.00  0.00    -0.319 OA 
HETATM   19  C   UNL     1     -11.149   6.515  67.613  1.00  0.00    -0.287 C  
ENDBRANCH   4  18
BRANCH  12  20
HETATM   20  C   UNL     1     -10.336  16.376  65.976  1.00  0.00    -0.365 C  
HETATM   21  C   UNL     1      -9.679  17.614  66.602  1.00  0.00    -0.304 C  
HETATM   22  C   UNL     1     -10.516  18.854  66.254  1.00  0.00    -0.510 C  
HETATM   23  C   UNL     1      -8.245  17.831  66.118  1.00  0.00    -0.193 C  
ENDBRANCH  12  20
ENDBRANCH   2   3
TORSDOF 3
ENDMDL
MODEL       72
REMARK 921   NORMALIZED FREE ENERGY PREDICTED BY IDOCK:   -4.13 KCAL/MOL
REMARK 922        TOTAL FREE ENERGY PREDICTED BY IDOCK:   -5.20 KCAL/MOL
REMARK 923 INTER-LIGAND FREE ENERGY PREDICTED BY IDOCK:   -4.95 KCAL/MOL
REMARK 924 INTRA-LIGAND FREE ENERGY PREDICTED BY IDOCK:   -0.25 KCAL/MOL
REMARK 927      BINDING AFFINITY PREDICTED BY RF-SCORE:    0.00 PKD
ROOT
HETATM    1  C   UNL     1      -7.567   9.558  62.392  1.00  0.00    -0.103 C  
HETATM    2  O   UNL     1      -8.108  10.405  63.400  1.00  0.00    -0.161 OA 
ENDROOT
BRANCH   2   3
HETATM    3  C   UNL     1      -8.750   9.789  64.446  1.00  0.00    -0.206 A  
HETATM    4  C   UNL     1      -9.720  10.350  65.287  1.00  0.00    -0.278 A  
HETATM    5  C   UNL     1     -10.275   9.554  66.291  1.00  0.00    -0.290 A  
HETATM    6  C   UNL     1      -8.309   8.475  64.680  1.00  0.00    -0.156 A  
HETATM    7  C   UNL     1      -9.797   8.260  66.570  1.00  0.00    -0.323 A  
HETATM    8  C   UNL     1      -8.813   7.711  65.750  1.00  0.00    -0.134 A  
HETATM    9  C   UNL     1     -10.290   7.556  67.828  1.00  0.00    -0.216 C  
HETATM   10  C   UNL     1      -9.885   8.423  69.021  1.00  0.00    -0.184 C  
HETATM   11  C   UNL     1     -10.489   7.785  70.221  1.00  0.00    -0.225 C  
HETATM   12  C   UNL     1      -9.918   6.425  70.550  1.00  0.00    -0.214 C  
HETATM   13  O   UNL     1     -11.382   8.338  70.858  1.00  0.00    -0.263 OA 
HETATM   14  C   UNL     1     -10.152   5.546  69.304  1.00  0.00    -0.223 C  
HETATM   15  C   UNL     1      -8.371   6.294  65.985  1.00  0.00    -0.138 C  
HETATM   16  C   UNL     1      -8.518   5.873  67.463  1.00  0.00    -0.103 C  
HETATM   17  N   UNL     1      -9.862   6.145  67.977  1.00  0.00    -0.123 NA 
BRANCH   4  18
HETATM   18  O   UNL     1     -10.087  11.661  65.119  1.00  0.00    -0.243 OA 
HETATM   19  C   UNL     1     -11.088  11.918  64.135  1.00  0.00    -0.375 C  
ENDBRANCH   4  18
BRANCH  12  20
HETATM   20  C   UNL     1     -10.573   5.920  71.852  1.00  0.00    -0.280 C  
HETATM   21  C   UNL     1     -10.375   4.443  72.221  1.00  0.00    -0.230 C  
HETATM   22  C   UNL     1     -11.135   4.147  73.522  1.00  0.00    -0.359 C  
HETATM   23  C   UNL     1      -8.903   4.074  72.411  1.00  0.00    -0.122 C  
ENDBRANCH  12  20
ENDBRANCH   2   3
TORSDOF 3
ENDMDL
MODEL       73
REMARK 921   NORMALIZED FREE ENERGY PREDICTED BY IDOCK:   -4.12 KCAL/MOL
REMARK 922        TOTAL FREE ENERGY PREDICTED BY IDOCK:   -5.17 KCAL/MOL
REMARK 923 INTER-LIGAND FREE ENERGY PREDICTED BY IDOCK:   -4.89 KCAL/MOL
REMARK 924 INTRA-LIGAND FREE ENERGY PREDICTED BY IDOCK:   -0.28 KCAL/MOL
REMARK 927      BINDING AFFINITY PREDICTED BY RF-SCORE:    0.00 PKD
ROOT
HETATM    1  C   UNL     1      -8.772   3.235  68.370  1.00  0.00    -0.104 C  
HETATM    2  O   UNL     1      -9.966   3.818  68.881  1.00  0.00     0.013 OA 
ENDROOT
BRANCH   2   3
HETATM    3  C   UNL     1      -9.963   5.181  69.053  1.00  0.00    -0.195 A  
HETATM    4  C   UNL     1     -10.262   5.881  70.229  1.00  0.00    -0.218 A  
HETATM    5  C   UNL     1     -10.186   7.276  70.213  1.00  0.00    -0.205 A  
HETATM    6  C   UNL     1      -9.672   5.895  67.878  1.00  0.00    -0.128 A  
HETATM    7  C   UNL     1      -9.955   7.999  69.028  1.00  0.00    -0.186 A  
HETATM    8  C   UNL     1      -9.684   7.302  67.853  1.00  0.00    -0.161 A  
HETATM    9  C   UNL     1     -10.126   9.513  69.053  1.00  0.00    -0.193 C  
HETATM   10  C   UNL     1     -11.576   9.798  69.448  1.00  0.00     0.072 C  
HETATM   11  C   UNL     1     -11.683  11.275  69.594  1.00  0.00    -0.350 C  
HETATM   12  C   UNL     1     -11.501  12.037  68.300  1.00  0.00    -0.361 C  
HETATM   13  O   UNL     1     -11.888  11.796  70.686  1.00  0.00    -0.298 OA 
HETATM   14  C   UNL     1     -10.106  11.652  67.766  1.00  0.00    -0.187 C  
HETATM   15  C   UNL     1      -9.341   8.072  66.608  1.00  0.00    -0.249 C  
HETATM   16  C   UNL     1      -9.995   9.470  66.586  1.00  0.00    -0.247 C  
HETATM   17  N   UNL     1      -9.722  10.220  67.815  1.00  0.00    -0.155 NA 
BRANCH   4  18
HETATM   18  O   UNL     1     -10.634   5.191  71.354  1.00  0.00    -0.208 OA 
HETATM   19  C   UNL     1     -10.671   5.933  72.572  1.00  0.00    -0.234 C  
ENDBRANCH   4  18
BRANCH  12  20
HETATM   20  C   UNL     1     -11.715  13.538  68.582  1.00  0.00    -0.389 C  
HETATM   21  C   UNL     1     -11.402  14.526  67.449  1.00  0.00    -0.370 C  
HETATM   22  C   UNL     1     -11.646  15.956  67.952  1.00  0.00    -0.109 C  
HETATM   23  C   UNL     1     -12.253  14.284  66.203  1.00  0.00    -0.430 C  
ENDBRANCH  12  20
ENDBRANCH   2   3
TORSDOF 3
ENDMDL
MODEL       74
REMARK 921   NORMALIZED FREE ENERGY PREDICTED BY IDOCK:   -4.11 KCAL/MOL
REMARK 922        TOTAL FREE ENERGY PREDICTED BY IDOCK:   -5.17 KCAL/MOL
REMARK 923 INTER-LIGAND FREE ENERGY PREDICTED BY IDOCK:   -4.81 KCAL/MOL
REMARK 924 INTRA-LIGAND FREE ENERGY PREDICTED BY IDOCK:   -0.36 KCAL/MOL
REMARK 927      BINDING AFFINITY PREDICTED BY RF-SCORE:    0.00 PKD
ROOT
HETATM    1  C   UNL     1      -9.550  15.361  67.821  1.00  0.00    -0.210 C  
HETATM    2  O   UNL     1     -10.063  14.524  68.851  1.00  0.00    -0.234 OA 
ENDROOT
BRANCH   2   3
HETATM    3  C   UNL     1     -10.306  13.213  68.519  1.00  0.00    -0.238 A  
HETATM    4  C   UNL     1     -11.330  12.394  69.014  1.00  0.00    -0.283 A  
HETATM    5  C   UNL     1     -11.426  11.085  68.537  1.00  0.00    -0.379 A  
HETATM    6  C   UNL     1      -9.365  12.677  67.622  1.00  0.00    -0.190 A  
HETATM    7  C   UNL     1     -10.455  10.523  67.688  1.00  0.00    -0.276 A  
HETATM    8  C   UNL     1      -9.422  11.331  67.216  1.00  0.00    -0.184 A  
HETATM    9  C   UNL     1     -10.506   9.026  67.411  1.00  0.00    -0.269 C  
HETATM   10  C   UNL     1     -10.357   8.311  68.755  1.00  0.00    -0.223 C  
HETATM   11  C   UNL     1     -10.541   6.862  68.476  1.00  0.00    -0.212 C  
HETATM   12  C   UNL     1      -9.453   6.256  67.620  1.00  0.00    -0.115 C  
HETATM   13  O   UNL     1     -11.511   6.246  68.910  1.00  0.00    -0.331 OA 
HETATM   14  C   UNL     1      -9.447   7.056  66.301  1.00  0.00    -0.072 C  
HETATM   15  C   UNL     1      -8.438  10.760  66.232  1.00  0.00    -0.161 C  
HETATM   16  C   UNL     1      -8.262   9.236  66.398  1.00  0.00    -0.111 C  
HETATM   17  N   UNL     1      -9.547   8.534  66.394  1.00  0.00    -0.231 NA 
BRANCH   4  18
HETATM   18  O   UNL     1     -12.196  12.886  69.956  1.00  0.00    -0.291 OA 
HETATM   19  C   UNL     1     -12.291  12.152  71.175  1.00  0.00    -0.160 C  
ENDBRANCH   4  18
BRANCH  12  20
HETATM   20  C   UNL     1      -9.726   4.744  67.479  1.00  0.00    -0.209 C  
HETATM   21  C   UNL     1      -8.698   3.777  68.082  1.00  0.00    -0.127 C  
HETATM   22  C   UNL     1      -9.142   2.334  67.798  1.00  0.00    -0.216 C  
HETATM   23  C   UNL     1      -8.532   3.958  69.591  1.00  0.00    -0.087 C  
ENDBRANCH  12  20
ENDBRANCH   2   3
TORSDOF 3
ENDMDL
MODEL       75
REMARK 921   NORMALIZED FREE ENERGY PREDICTED BY IDOCK:   -4.09 KCAL/MOL
REMARK 922        TOTAL FREE ENERGY PREDICTED BY IDOCK:   -5.14 KCAL/MOL
REMARK 923 INTER-LIGAND FREE ENERGY PREDICTED BY IDOCK:   -4.79 KCAL/MOL
REMARK 924 INTRA-LIGAND FREE ENERGY PREDICTED BY IDOCK:   -0.35 KCAL/MOL
REMARK 927      BINDING AFFINITY PREDICTED BY RF-SCORE:    0.00 PKD
ROOT
HETATM    1  C   UNL     1      -8.683   3.847  62.735  1.00  0.00    -0.094 C  
HETATM    2  O   UNL     1      -7.565   4.450  63.377  1.00  0.00    -0.057 OA 
ENDROOT
BRANCH   2   3
HETATM    3  C   UNL     1      -7.823   5.542  64.170  1.00  0.00    -0.103 A  
HETATM    4  C   UNL     1      -8.107   5.537  65.542  1.00  0.00    -0.120 A  
HETATM    5  C   UNL     1      -8.325   6.759  66.183  1.00  0.00    -0.130 A  
HETATM    6  C   UNL     1      -7.839   6.758  63.465  1.00  0.00    -0.110 A  
HETATM    7  C   UNL     1      -8.402   7.973  65.474  1.00  0.00    -0.153 A  
HETATM    8  C   UNL     1      -8.145   7.973  64.105  1.00  0.00    -0.102 A  
HETATM    9  C   UNL     1      -8.878   9.218  66.212  1.00  0.00    -0.146 C  
HETATM   10  C   UNL     1     -10.294   8.931  66.718  1.00  0.00    -0.317 C  
HETATM   11  C   UNL     1     -10.684  10.106  67.542  1.00  0.00    -0.290 C  
HETATM   12  C   UNL     1     -10.832  11.389  66.757  1.00  0.00    -0.336 C  
HETATM   13  O   UNL     1     -10.852  10.008  68.755  1.00  0.00    -0.214 OA 
HETATM   14  C   UNL     1      -9.467  11.641  66.083  1.00  0.00    -0.224 C  
HETATM   15  C   UNL     1      -8.132   9.281  63.364  1.00  0.00    -0.161 C  
HETATM   16  C   UNL     1      -9.058  10.331  64.013  1.00  0.00    -0.251 C  
HETATM   17  N   UNL     1      -8.792  10.483  65.445  1.00  0.00    -0.180 NA 
BRANCH   4  18
HETATM   18  O   UNL     1      -8.181   4.345  66.216  1.00  0.00    -0.102 OA 
HETATM   19  C   UNL     1      -9.486   3.803  66.407  1.00  0.00    -0.183 C  
ENDBRANCH   4  18
BRANCH  12  20
HETATM   20  C   UNL     1     -11.314  12.497  67.716  1.00  0.00    -0.351 C  
HETATM   21  C   UNL     1     -11.436  13.920  67.153  1.00  0.00    -0.370 C  
HETATM   22  C   UNL     1     -11.892  14.864  68.276  1.00  0.00    -0.308 C  
HETATM   23  C   UNL     1     -12.427  14.014  65.992  1.00  0.00    -0.489 C  
ENDBRANCH  12  20
ENDBRANCH   2   3
TORSDOF 3
ENDMDL
MODEL       76
REMARK 921   NORMALIZED FREE ENERGY PREDICTED BY IDOCK:   -4.04 KCAL/MOL
REMARK 922        TOTAL FREE ENERGY PREDICTED BY IDOCK:   -5.08 KCAL/MOL
REMARK 923 INTER-LIGAND FREE ENERGY PREDICTED BY IDOCK:   -5.55 KCAL/MOL
REMARK 924 INTRA-LIGAND FREE ENERGY PREDICTED BY IDOCK:    0.47 KCAL/MOL
REMARK 927      BINDING AFFINITY PREDICTED BY RF-SCORE:    0.00 PKD
ROOT
HETATM    1  C   UNL     1     -11.509  15.679  69.123  1.00  0.00    -0.359 C  
HETATM    2  O   UNL     1     -12.358  14.540  69.030  1.00  0.00    -0.225 OA 
ENDROOT
BRANCH   2   3
HETATM    3  C   UNL     1     -11.793  13.322  69.321  1.00  0.00    -0.331 A  
HETATM    4  C   UNL     1     -10.655  12.759  68.730  1.00  0.00    -0.189 A  
HETATM    5  C   UNL     1     -10.219  11.509  69.177  1.00  0.00    -0.038 A  
HETATM    6  C   UNL     1     -12.505  12.589  70.287  1.00  0.00    -0.157 A  
HETATM    7  C   UNL     1     -10.959  10.744  70.098  1.00  0.00    -0.230 A  
HETATM    8  C   UNL     1     -12.106  11.294  70.667  1.00  0.00    -0.480 A  
HETATM    9  C   UNL     1     -10.542   9.300  70.348  1.00  0.00    -0.248 C  
HETATM   10  C   UNL     1     -10.637   8.563  69.011  1.00  0.00    -0.173 C  
HETATM   11  C   UNL     1     -10.102   7.196  69.253  1.00  0.00    -0.176 C  
HETATM   12  C   UNL     1     -10.943   6.361  70.190  1.00  0.00    -0.395 C  
HETATM   13  O   UNL     1      -9.057   6.818  68.729  1.00  0.00    -0.133 OA 
HETATM   14  C   UNL     1     -11.020   7.146  71.516  1.00  0.00    -0.235 C  
HETATM   15  C   UNL     1     -12.843  10.519  71.723  1.00  0.00    -0.559 C  
HETATM   16  C   UNL     1     -12.678   8.994  71.551  1.00  0.00    -0.339 C  
HETATM   17  N   UNL     1     -11.270   8.607  71.436  1.00  0.00    -0.259 NA 
BRANCH   4  18
HETATM   18  O   UNL     1     -10.009  13.431  67.724  1.00  0.00    -0.222 OA 
HETATM   19  C   UNL     1      -8.649  13.785  67.968  1.00  0.00    -0.177 C  
ENDBRANCH   4  18
BRANCH  12  20
HETATM   20  C   UNL     1     -10.319   4.954  70.286  1.00  0.00    -0.252 C  
HETATM   21  C   UNL     1      -9.988   4.417  71.685  1.00  0.00    -0.256 C  
HETATM   22  C   UNL     1      -9.346   3.028  71.549  1.00  0.00    -0.203 C  
HETATM   23  C   UNL     1     -11.220   4.309  72.584  1.00  0.00     0.080 C  
ENDBRANCH  12  20
ENDBRANCH   2   3
TORSDOF 3
ENDMDL
MODEL       77
REMARK 921   NORMALIZED FREE ENERGY PREDICTED BY IDOCK:   -4.03 KCAL/MOL
REMARK 922        TOTAL FREE ENERGY PREDICTED BY IDOCK:   -5.07 KCAL/MOL
REMARK 923 INTER-LIGAND FREE ENERGY PREDICTED BY IDOCK:   -4.75 KCAL/MOL
REMARK 924 INTRA-LIGAND FREE ENERGY PREDICTED BY IDOCK:   -0.33 KCAL/MOL
REMARK 927      BINDING AFFINITY PREDICTED BY RF-SCORE:    0.00 PKD
ROOT
HETATM    1  C   UNL     1      -9.166   9.051  69.892  1.00  0.00    -0.173 C  
HETATM    2  O   UNL     1      -8.971   9.571  68.581  1.00  0.00    -0.130 OA 
ENDROOT
BRANCH   2   3
HETATM    3  C   UNL     1      -8.941  10.939  68.456  1.00  0.00    -0.157 A  
HETATM    4  C   UNL     1     -10.016  11.779  68.138  1.00  0.00    -0.194 A  
HETATM    5  C   UNL     1      -9.792  13.156  68.076  1.00  0.00    -0.231 A  
HETATM    6  C   UNL     1      -7.660  11.492  68.629  1.00  0.00    -0.134 A  
HETATM    7  C   UNL     1      -8.503  13.711  68.187  1.00  0.00    -0.175 A  
HETATM    8  C   UNL     1      -7.430  12.872  68.478  1.00  0.00    -0.123 A  
HETATM    9  C   UNL     1      -8.316  15.189  67.869  1.00  0.00    -0.149 C  
HETATM   10  C   UNL     1      -8.743  15.397  66.415  1.00  0.00    -0.307 C  
HETATM   11  C   UNL     1      -8.676  16.863  66.170  1.00  0.00    -0.245 C  
HETATM   12  C   UNL     1      -7.277  17.434  66.224  1.00  0.00    -0.346 C  
HETATM   13  O   UNL     1      -9.690  17.522  65.958  1.00  0.00    -0.473 OA 
HETATM   14  C   UNL     1      -6.730  17.102  67.628  1.00  0.00    -0.142 C  
HETATM   15  C   UNL     1      -6.069  13.473  68.694  1.00  0.00    -0.086 C  
HETATM   16  C   UNL     1      -5.878  14.786  67.906  1.00  0.00    -0.133 C  
HETATM   17  N   UNL     1      -6.967  15.734  68.152  1.00  0.00    -0.112 NA 
BRANCH   4  18
HETATM   18  O   UNL     1     -11.249  11.235  67.880  1.00  0.00    -0.244 OA 
HETATM   19  C   UNL     1     -12.139  11.127  68.989  1.00  0.00    -0.246 C  
ENDBRANCH   4  18
BRANCH  12  20
HETATM   20  C   UNL     1      -7.347  18.935  65.876  1.00  0.00    -0.260 C  
HETATM   21  C   UNL     1      -6.085  19.590  65.298  1.00  0.00    -0.273 C  
HETATM   22  C   UNL     1      -6.360  21.083  65.060  1.00  0.00    -0.182 C  
HETATM   23  C   UNL     1      -5.636  18.952  63.983  1.00  0.00    -0.230 C  
ENDBRANCH  12  20
ENDBRANCH   2   3
TORSDOF 3
ENDMDL
MODEL       78
REMARK 921   NORMALIZED FREE ENERGY PREDICTED BY IDOCK:   -4.02 KCAL/MOL
REMARK 922        TOTAL FREE ENERGY PREDICTED BY IDOCK:   -5.06 KCAL/MOL
REMARK 923 INTER-LIGAND FREE ENERGY PREDICTED BY IDOCK:   -4.81 KCAL/MOL
REMARK 924 INTRA-LIGAND FREE ENERGY PREDICTED BY IDOCK:   -0.25 KCAL/MOL
REMARK 927      BINDING AFFINITY PREDICTED BY RF-SCORE:    0.00 PKD
ROOT
HETATM    1  C   UNL     1     -10.924   6.507  67.254  1.00  0.00    -0.400 C  
HETATM    2  O   UNL     1     -10.414   7.343  68.288  1.00  0.00    -0.197 OA 
ENDROOT
BRANCH   2   3
HETATM    3  C   UNL     1      -9.853   8.535  67.898  1.00  0.00    -0.170 A  
HETATM    4  C   UNL     1      -8.489   8.808  67.729  1.00  0.00    -0.125 A  
HETATM    5  C   UNL     1      -8.112  10.085  67.306  1.00  0.00    -0.114 A  
HETATM    6  C   UNL     1     -10.792   9.565  67.713  1.00  0.00    -0.258 A  
HETATM    7  C   UNL     1      -9.039  11.136  67.178  1.00  0.00    -0.151 A  
HETATM    8  C   UNL     1     -10.393  10.870  67.372  1.00  0.00    -0.248 A  
HETATM    9  C   UNL     1      -8.513  12.547  66.947  1.00  0.00    -0.130 C  
HETATM   10  C   UNL     1      -7.631  12.904  68.145  1.00  0.00    -0.135 C  
HETATM   11  C   UNL     1      -7.028  14.227  67.835  1.00  0.00    -0.164 C  
HETATM   12  C   UNL     1      -8.026  15.361  67.769  1.00  0.00    -0.159 C  
HETATM   13  O   UNL     1      -5.821  14.350  67.643  1.00  0.00    -0.301 OA 
HETATM   14  C   UNL     1      -9.048  14.972  66.680  1.00  0.00    -0.280 C  
HETATM   15  C   UNL     1     -11.394  11.968  67.141  1.00  0.00    -0.396 C  
HETATM   16  C   UNL     1     -10.799  13.367  67.403  1.00  0.00    -0.268 C  
HETATM   17  N   UNL     1      -9.546  13.574  66.673  1.00  0.00    -0.272 NA 
BRANCH   4  18
HETATM   18  O   UNL     1      -7.564   7.832  67.995  1.00  0.00    -0.114 OA 
HETATM   19  C   UNL     1      -7.008   7.160  66.866  1.00  0.00    -0.077 C  
ENDBRANCH   4  18
BRANCH  12  20
HETATM   20  C   UNL     1      -7.259  16.675  67.522  1.00  0.00    -0.169 C  
HETATM   21  C   UNL     1      -6.988  17.578  68.734  1.00  0.00    -0.237 C  
HETATM   22  C   UNL     1      -6.252  18.841  68.262  1.00  0.00    -0.217 C  
HETATM   23  C   UNL     1      -6.150  16.887  69.810  1.00  0.00    -0.229 C  
ENDBRANCH  12  20
ENDBRANCH   2   3
TORSDOF 3
ENDMDL
MODEL       79
REMARK 921   NORMALIZED FREE ENERGY PREDICTED BY IDOCK:   -4.01 KCAL/MOL
REMARK 922        TOTAL FREE ENERGY PREDICTED BY IDOCK:   -5.04 KCAL/MOL
REMARK 923 INTER-LIGAND FREE ENERGY PREDICTED BY IDOCK:   -4.80 KCAL/MOL
REMARK 924 INTRA-LIGAND FREE ENERGY PREDICTED BY IDOCK:   -0.24 KCAL/MOL
REMARK 927      BINDING AFFINITY PREDICTED BY RF-SCORE:    0.00 PKD
ROOT
HETATM    1  C   UNL     1     -14.399   8.677  72.109  1.00  0.00    -0.427 C  
HETATM    2  O   UNL     1     -13.072   8.704  72.625  1.00  0.00    -0.348 OA 
ENDROOT
BRANCH   2   3
HETATM    3  C   UNL     1     -12.054   8.507  71.724  1.00  0.00    -0.333 A  
HETATM    4  C   UNL     1     -11.419   9.483  70.945  1.00  0.00    -0.334 A  
HETATM    5  C   UNL     1     -10.384   9.088  70.093  1.00  0.00    -0.237 A  
HETATM    6  C   UNL     1     -11.690   7.157  71.573  1.00  0.00    -0.324 A  
HETATM    7  C   UNL     1     -10.056   7.734  69.892  1.00  0.00    -0.203 A  
HETATM    8  C   UNL     1     -10.706   6.761  70.648  1.00  0.00    -0.273 A  
HETATM    9  C   UNL     1      -9.084   7.378  68.773  1.00  0.00    -0.131 C  
HETATM   10  C   UNL     1      -9.707   7.862  67.462  1.00  0.00    -0.204 C  
HETATM   11  C   UNL     1      -8.687   7.623  66.407  1.00  0.00    -0.151 C  
HETATM   12  C   UNL     1      -8.393   6.162  66.152  1.00  0.00    -0.128 C  
HETATM   13  O   UNL     1      -8.141   8.556  65.822  1.00  0.00    -0.104 OA 
HETATM   14  C   UNL     1      -7.916   5.578  67.498  1.00  0.00    -0.101 C  
HETATM   15  C   UNL     1     -10.289   5.324  70.505  1.00  0.00    -0.336 C  
HETATM   16  C   UNL     1      -9.725   5.015  69.103  1.00  0.00    -0.173 C  
HETATM   17  N   UNL     1      -8.671   5.956  68.718  1.00  0.00    -0.110 NA 
BRANCH   4  18
HETATM   18  O   UNL     1     -11.832  10.788  71.023  1.00  0.00    -0.323 OA 
HETATM   19  C   UNL     1     -11.853  11.521  69.800  1.00  0.00    -0.357 C  
ENDBRANCH   4  18
BRANCH  12  20
HETATM   20  C   UNL     1      -7.387   6.060  64.988  1.00  0.00    -0.073 C  
HETATM   21  C   UNL     1      -6.607   4.746  64.835  1.00  0.00    -0.043 C  
HETATM   22  C   UNL     1      -5.642   4.873  63.647  1.00  0.00    -0.016 C  
HETATM   23  C   UNL     1      -7.520   3.541  64.607  1.00  0.00    -0.072 C  
ENDBRANCH  12  20
ENDBRANCH   2   3
TORSDOF 3
ENDMDL
MODEL       80
REMARK 921   NORMALIZED FREE ENERGY PREDICTED BY IDOCK:   -4.00 KCAL/MOL
REMARK 922        TOTAL FREE ENERGY PREDICTED BY IDOCK:   -5.03 KCAL/MOL
REMARK 923 INTER-LIGAND FREE ENERGY PREDICTED BY IDOCK:   -4.83 KCAL/MOL
REMARK 924 INTRA-LIGAND FREE ENERGY PREDICTED BY IDOCK:   -0.20 KCAL/MOL
REMARK 927      BINDING AFFINITY PREDICTED BY RF-SCORE:    0.00 PKD
ROOT
HETATM    1  C   UNL     1     -11.422  15.052  65.715  1.00  0.00    -0.236 C  
HETATM    2  O   UNL     1     -12.085  13.799  65.848  1.00  0.00    -0.381 OA 
ENDROOT
BRANCH   2   3
HETATM    3  C   UNL     1     -11.288  12.694  66.022  1.00  0.00    -0.327 A  
HETATM    4  C   UNL     1     -10.823  11.826  65.025  1.00  0.00    -0.295 A  
HETATM    5  C   UNL     1     -10.002  10.760  65.399  1.00  0.00    -0.330 A  
HETATM    6  C   UNL     1     -10.981  12.428  67.368  1.00  0.00    -0.296 A  
HETATM    7  C   UNL     1      -9.740  10.452  66.747  1.00  0.00    -0.224 A  
HETATM    8  C   UNL     1     -10.224  11.301  67.740  1.00  0.00    -0.203 A  
HETATM    9  C   UNL     1      -9.037   9.140  67.073  1.00  0.00    -0.123 C  
HETATM   10  C   UNL     1      -9.922   8.009  66.544  1.00  0.00    -0.283 C  
HETATM   11  C   UNL     1      -9.156   6.752  66.755  1.00  0.00    -0.140 C  
HETATM   12  C   UNL     1      -8.942   6.397  68.209  1.00  0.00    -0.116 C  
HETATM   13  O   UNL     1      -8.739   6.091  65.808  1.00  0.00    -0.151 OA 
HETATM   14  C   UNL     1      -8.193   7.590  68.838  1.00  0.00    -0.128 C  
HETATM   15  C   UNL     1      -9.865  11.030  69.174  1.00  0.00    -0.117 C  
HETATM   16  C   UNL     1      -9.620   9.530  69.442  1.00  0.00    -0.180 C  
HETATM   17  N   UNL     1      -8.663   8.955  68.494  1.00  0.00    -0.133 NA 
BRANCH   4  18
HETATM   18  O   UNL     1     -11.194  12.029  63.721  1.00  0.00    -0.367 OA 
HETATM   19  C   UNL     1     -12.551  11.737  63.393  1.00  0.00    -0.336 C  
ENDBRANCH   4  18
BRANCH  12  20
HETATM   20  C   UNL     1      -8.211   5.041  68.280  1.00  0.00    -0.089 C  
HETATM   21  C   UNL     1      -8.233   4.290  69.619  1.00  0.00    -0.066 C  
HETATM   22  C   UNL     1      -7.421   2.994  69.479  1.00  0.00    -0.044 C  
HETATM   23  C   UNL     1      -9.649   3.942  70.078  1.00  0.00    -0.269 C  
ENDBRANCH  12  20
ENDBRANCH   2   3
TORSDOF 3
ENDMDL
MODEL       81
REMARK 921   NORMALIZED FREE ENERGY PREDICTED BY IDOCK:   -3.99 KCAL/MOL
REMARK 922        TOTAL FREE ENERGY PREDICTED BY IDOCK:   -5.03 KCAL/MOL
REMARK 923 INTER-LIGAND FREE ENERGY PREDICTED BY IDOCK:   -4.86 KCAL/MOL
REMARK 924 INTRA-LIGAND FREE ENERGY PREDICTED BY IDOCK:   -0.17 KCAL/MOL
REMARK 927      BINDING AFFINITY PREDICTED BY RF-SCORE:    0.00 PKD
ROOT
HETATM    1  C   UNL     1      -8.777   3.597  73.421  1.00  0.00    -0.086 C  
HETATM    2  O   UNL     1      -9.878   4.190  72.741  1.00  0.00    -0.134 OA 
ENDROOT
BRANCH   2   3
HETATM    3  C   UNL     1      -9.579   5.132  71.787  1.00  0.00    -0.152 A  
HETATM    4  C   UNL     1      -8.921   6.353  71.985  1.00  0.00    -0.137 A  
HETATM    5  C   UNL     1      -8.690   7.174  70.880  1.00  0.00    -0.146 A  
HETATM    6  C   UNL     1     -10.053   4.803  70.504  1.00  0.00    -0.291 A  
HETATM    7  C   UNL     1      -9.214   6.881  69.607  1.00  0.00    -0.146 A  
HETATM    8  C   UNL     1      -9.891   5.679  69.415  1.00  0.00    -0.232 A  
HETATM    9  C   UNL     1      -9.121   7.943  68.518  1.00  0.00    -0.132 C  
HETATM   10  C   UNL     1      -9.883   9.172  69.018  1.00  0.00    -0.176 C  
HETATM   11  C   UNL     1      -9.667  10.235  68.000  1.00  0.00    -0.149 C  
HETATM   12  C   UNL     1     -10.295   9.939  66.656  1.00  0.00    -0.275 C  
HETATM   13  O   UNL     1      -9.020  11.246  68.259  1.00  0.00    -0.158 OA 
HETATM   14  C   UNL     1      -9.679   8.608  66.177  1.00  0.00    -0.222 C  
HETATM   15  C   UNL     1     -10.367   5.320  68.035  1.00  0.00    -0.183 C  
HETATM   16  C   UNL     1     -10.674   6.566  67.179  1.00  0.00    -0.368 C  
HETATM   17  N   UNL     1      -9.556   7.511  67.169  1.00  0.00    -0.151 NA 
BRANCH   4  18
HETATM   18  O   UNL     1      -8.536   6.718  73.250  1.00  0.00    -0.117 OA 
HETATM   19  C   UNL     1      -8.859   8.047  73.653  1.00  0.00    -0.260 C  
ENDBRANCH   4  18
BRANCH  12  20
HETATM   20  C   UNL     1     -10.064  11.151  65.731  1.00  0.00    -0.299 C  
HETATM   21  C   UNL     1     -11.302  11.893  65.209  1.00  0.00    -0.333 C  
HETATM   22  C   UNL     1     -10.849  13.032  64.283  1.00  0.00    -0.430 C  
HETATM   23  C   UNL     1     -12.158  12.477  66.333  1.00  0.00    -0.279 C  
ENDBRANCH  12  20
ENDBRANCH   2   3
TORSDOF 3
ENDMDL
MODEL       82
REMARK 921   NORMALIZED FREE ENERGY PREDICTED BY IDOCK:   -3.99 KCAL/MOL
REMARK 922        TOTAL FREE ENERGY PREDICTED BY IDOCK:   -5.03 KCAL/MOL
REMARK 923 INTER-LIGAND FREE ENERGY PREDICTED BY IDOCK:   -4.89 KCAL/MOL
REMARK 924 INTRA-LIGAND FREE ENERGY PREDICTED BY IDOCK:   -0.14 KCAL/MOL
REMARK 927      BINDING AFFINITY PREDICTED BY RF-SCORE:    0.00 PKD
ROOT
HETATM    1  C   UNL     1     -12.609  15.265  70.265  1.00  0.00    -0.347 C  
HETATM    2  O   UNL     1     -11.944  15.583  69.047  1.00  0.00    -0.354 OA 
ENDROOT
BRANCH   2   3
HETATM    3  C   UNL     1     -11.117  14.619  68.525  1.00  0.00    -0.260 A  
HETATM    4  C   UNL     1     -10.159  14.788  67.516  1.00  0.00    -0.224 A  
HETATM    5  C   UNL     1      -9.396  13.684  67.129  1.00  0.00    -0.240 A  
HETATM    6  C   UNL     1     -11.336  13.339  69.063  1.00  0.00    -0.334 A  
HETATM    7  C   UNL     1      -9.650  12.389  67.619  1.00  0.00    -0.193 A  
HETATM    8  C   UNL     1     -10.621  12.217  68.604  1.00  0.00    -0.249 A  
HETATM    9  C   UNL     1      -8.935  11.211  66.970  1.00  0.00    -0.154 C  
HETATM   10  C   UNL     1      -9.340  11.193  65.494  1.00  0.00    -0.247 C  
HETATM   11  C   UNL     1      -8.531  10.119  64.856  1.00  0.00    -0.172 C  
HETATM   12  C   UNL     1      -8.862   8.726  65.341  1.00  0.00    -0.221 C  
HETATM   13  O   UNL     1      -7.669  10.380  64.021  1.00  0.00    -0.128 OA 
HETATM   14  C   UNL     1      -8.630   8.735  66.867  1.00  0.00    -0.115 C  
HETATM   15  C   UNL     1     -10.827  10.852  69.198  1.00  0.00    -0.280 C  
HETATM   16  C   UNL     1     -10.472   9.723  68.207  1.00  0.00    -0.216 C  
HETATM   17  N   UNL     1      -9.136   9.901  67.633  1.00  0.00    -0.131 NA 
BRANCH   4  18
HETATM   18  O   UNL     1     -10.005  16.015  66.925  1.00  0.00    -0.240 OA 
HETATM   19  C   UNL     1     -10.224  16.075  65.517  1.00  0.00    -0.360 C  
ENDBRANCH   4  18
BRANCH  12  20
HETATM   20  C   UNL     1      -8.013   7.716  64.545  1.00  0.00    -0.130 C  
HETATM   21  C   UNL     1      -7.628   6.403  65.244  1.00  0.00    -0.091 C  
HETATM   22  C   UNL     1      -6.759   5.567  64.293  1.00  0.00    -0.046 C  
HETATM   23  C   UNL     1      -8.845   5.577  65.660  1.00  0.00    -0.154 C  
ENDBRANCH  12  20
ENDBRANCH   2   3
TORSDOF 3
ENDMDL
MODEL       83
REMARK 921   NORMALIZED FREE ENERGY PREDICTED BY IDOCK:   -3.93 KCAL/MOL
REMARK 922        TOTAL FREE ENERGY PREDICTED BY IDOCK:   -4.96 KCAL/MOL
REMARK 923 INTER-LIGAND FREE ENERGY PREDICTED BY IDOCK:   -4.59 KCAL/MOL
REMARK 924 INTRA-LIGAND FREE ENERGY PREDICTED BY IDOCK:   -0.37 KCAL/MOL
REMARK 927      BINDING AFFINITY PREDICTED BY RF-SCORE:    0.00 PKD
ROOT
HETATM    1  C   UNL     1     -12.132  14.348  70.090  1.00  0.00    -0.335 C  
HETATM    2  O   UNL     1     -12.660  13.247  69.358  1.00  0.00     0.003 OA 
ENDROOT
BRANCH   2   3
HETATM    3  C   UNL     1     -11.759  12.311  68.913  1.00  0.00    -0.328 A  
HETATM    4  C   UNL     1     -11.111  12.289  67.672  1.00  0.00    -0.268 A  
HETATM    5  C   UNL     1     -10.207  11.258  67.408  1.00  0.00    -0.217 A  
HETATM    6  C   UNL     1     -11.542  11.262  69.825  1.00  0.00    -0.408 A  
HETATM    7  C   UNL     1     -10.031  10.174  68.288  1.00  0.00    -0.168 A  
HETATM    8  C   UNL     1     -10.695  10.182  69.513  1.00  0.00    -0.277 A  
HETATM    9  C   UNL     1      -9.211   8.978  67.818  1.00  0.00    -0.140 C  
HETATM   10  C   UNL     1      -9.909   8.410  66.580  1.00  0.00    -0.338 C  
HETATM   11  C   UNL     1      -9.023   7.332  66.065  1.00  0.00    -0.116 C  
HETATM   12  C   UNL     1      -8.898   6.142  66.989  1.00  0.00    -0.110 C  
HETATM   13  O   UNL     1      -8.450   7.437  64.983  1.00  0.00    -0.094 OA 
HETATM   14  C   UNL     1      -8.350   6.690  68.324  1.00  0.00    -0.117 C  
HETATM   15  C   UNL     1     -10.434   9.075  70.495  1.00  0.00    -0.271 C  
HETATM   16  C   UNL     1     -10.041   7.755  69.798  1.00  0.00    -0.194 C  
HETATM   17  N   UNL     1      -8.944   7.946  68.846  1.00  0.00    -0.142 NA 
BRANCH   4  18
HETATM   18  O   UNL     1     -11.387  13.262  66.745  1.00  0.00    -0.304 OA 
HETATM   19  C   UNL     1     -10.930  13.021  65.416  1.00  0.00    -0.275 C  
ENDBRANCH   4  18
BRANCH  12  20
HETATM   20  C   UNL     1      -8.023   5.076  66.299  1.00  0.00    -0.107 C  
HETATM   21  C   UNL     1      -8.676   3.726  65.969  1.00  0.00    -0.117 C  
HETATM   22  C   UNL     1      -7.627   2.807  65.326  1.00  0.00    -0.076 C  
HETATM   23  C   UNL     1      -9.867   3.862  65.020  1.00  0.00    -0.192 C  
ENDBRANCH  12  20
ENDBRANCH   2   3
TORSDOF 3
ENDMDL
MODEL       84
REMARK 921   NORMALIZED FREE ENERGY PREDICTED BY IDOCK:   -3.89 KCAL/MOL
REMARK 922        TOTAL FREE ENERGY PREDICTED BY IDOCK:   -4.91 KCAL/MOL
REMARK 923 INTER-LIGAND FREE ENERGY PREDICTED BY IDOCK:   -5.38 KCAL/MOL
REMARK 924 INTRA-LIGAND FREE ENERGY PREDICTED BY IDOCK:    0.47 KCAL/MOL
REMARK 927      BINDING AFFINITY PREDICTED BY RF-SCORE:    0.00 PKD
ROOT
HETATM    1  C   UNL     1      -8.152   6.986  65.302  1.00  0.00    -0.134 C  
HETATM    2  O   UNL     1      -9.095   7.593  66.180  1.00  0.00    -0.173 OA 
ENDROOT
BRANCH   2   3
HETATM    3  C   UNL     1      -9.022   8.958  66.316  1.00  0.00    -0.170 A  
HETATM    4  C   UNL     1      -8.132   9.678  67.124  1.00  0.00    -0.110 A  
HETATM    5  C   UNL     1      -8.201  11.073  67.114  1.00  0.00    -0.133 A  
HETATM    6  C   UNL     1     -10.002   9.649  65.581  1.00  0.00    -0.321 A  
HETATM    7  C   UNL     1      -9.216  11.768  66.430  1.00  0.00    -0.223 A  
HETATM    8  C   UNL     1     -10.117  11.050  65.647  1.00  0.00    -0.310 A  
HETATM    9  C   UNL     1      -9.360  13.266  66.666  1.00  0.00    -0.242 C  
HETATM   10  C   UNL     1      -9.641  13.465  68.157  1.00  0.00    -0.222 C  
HETATM   11  C   UNL     1      -9.646  14.935  68.385  1.00  0.00    -0.209 C  
HETATM   12  C   UNL     1     -10.783  15.661  67.701  1.00  0.00    -0.302 C  
HETATM   13  O   UNL     1      -8.781  15.479  69.065  1.00  0.00    -0.197 OA 
HETATM   14  C   UNL     1     -10.645  15.354  66.196  1.00  0.00    -0.316 C  
HETATM   15  C   UNL     1     -11.142  11.797  64.839  1.00  0.00    -0.345 C  
HETATM   16  C   UNL     1     -11.527  13.144  65.485  1.00  0.00    -0.315 C  
HETATM   17  N   UNL     1     -10.349  13.954  65.803  1.00  0.00    -0.306 NA 
BRANCH   4  18
HETATM   18  O   UNL     1      -7.234   9.004  67.910  1.00  0.00    -0.078 OA 
HETATM   19  C   UNL     1      -5.878   9.443  67.845  1.00  0.00    -0.045 C  
ENDBRANCH   4  18
BRANCH  12  20
HETATM   20  C   UNL     1     -10.713  17.152  68.086  1.00  0.00    -0.366 C  
HETATM   21  C   UNL     1     -10.095  18.121  67.067  1.00  0.00    -0.357 C  
HETATM   22  C   UNL     1     -10.091  19.537  67.663  1.00  0.00    -0.526 C  
HETATM   23  C   UNL     1     -10.852  18.143  65.739  1.00  0.00     0.024 C  
ENDBRANCH  12  20
ENDBRANCH   2   3
TORSDOF 3
ENDMDL
MODEL       85
REMARK 921   NORMALIZED FREE ENERGY PREDICTED BY IDOCK:   -3.89 KCAL/MOL
REMARK 922        TOTAL FREE ENERGY PREDICTED BY IDOCK:   -4.90 KCAL/MOL
REMARK 923 INTER-LIGAND FREE ENERGY PREDICTED BY IDOCK:   -4.59 KCAL/MOL
REMARK 924 INTRA-LIGAND FREE ENERGY PREDICTED BY IDOCK:   -0.32 KCAL/MOL
REMARK 927      BINDING AFFINITY PREDICTED BY RF-SCORE:    0.00 PKD
ROOT
HETATM    1  C   UNL     1     -10.242   4.654  73.747  1.00  0.00    -0.189 C  
HETATM    2  O   UNL     1      -9.540   5.889  73.841  1.00  0.00    -0.142 OA 
ENDROOT
BRANCH   2   3
HETATM    3  C   UNL     1      -9.488   6.657  72.703  1.00  0.00    -0.142 A  
HETATM    4  C   UNL     1      -8.484   6.648  71.726  1.00  0.00    -0.119 A  
HETATM    5  C   UNL     1      -8.618   7.494  70.623  1.00  0.00    -0.137 A  
HETATM    6  C   UNL     1     -10.556   7.564  72.587  1.00  0.00    -0.338 A  
HETATM    7  C   UNL     1      -9.650   8.446  70.530  1.00  0.00    -0.188 A  
HETATM    8  C   UNL     1     -10.635   8.473  71.515  1.00  0.00    -0.333 A  
HETATM    9  C   UNL     1      -9.586   9.486  69.418  1.00  0.00    -0.180 C  
HETATM   10  C   UNL     1      -8.293  10.280  69.615  1.00  0.00    -0.139 C  
HETATM   11  C   UNL     1      -8.189  11.196  68.448  1.00  0.00    -0.144 C  
HETATM   12  C   UNL     1      -9.264  12.258  68.398  1.00  0.00    -0.145 C  
HETATM   13  O   UNL     1      -7.300  11.065  67.610  1.00  0.00    -0.090 OA 
HETATM   14  C   UNL     1     -10.611  11.506  68.367  1.00  0.00    -0.201 C  
HETATM   15  C   UNL     1     -11.791   9.423  71.369  1.00  0.00    -0.447 C  
HETATM   16  C   UNL     1     -11.411  10.688  70.571  1.00  0.00    -0.317 C  
HETATM   17  N   UNL     1     -10.778  10.357  69.292  1.00  0.00    -0.220 NA 
BRANCH   4  18
HETATM   18  O   UNL     1      -7.395   5.829  71.880  1.00  0.00    -0.089 OA 
HETATM   19  C   UNL     1      -6.239   6.414  72.475  1.00  0.00    -0.050 C  
ENDBRANCH   4  18
BRANCH  12  20
HETATM   20  C   UNL     1      -8.988  13.178  67.192  1.00  0.00    -0.228 C  
HETATM   21  C   UNL     1      -9.885  14.413  67.020  1.00  0.00    -0.252 C  
HETATM   22  C   UNL     1      -9.465  15.162  65.746  1.00  0.00    -0.285 C  
HETATM   23  C   UNL     1      -9.806  15.370  68.209  1.00  0.00    -0.213 C  
ENDBRANCH  12  20
ENDBRANCH   2   3
TORSDOF 3
ENDMDL
MODEL       86
REMARK 921   NORMALIZED FREE ENERGY PREDICTED BY IDOCK:   -3.81 KCAL/MOL
REMARK 922        TOTAL FREE ENERGY PREDICTED BY IDOCK:   -4.81 KCAL/MOL
REMARK 923 INTER-LIGAND FREE ENERGY PREDICTED BY IDOCK:   -5.19 KCAL/MOL
REMARK 924 INTRA-LIGAND FREE ENERGY PREDICTED BY IDOCK:    0.38 KCAL/MOL
REMARK 927      BINDING AFFINITY PREDICTED BY RF-SCORE:    0.00 PKD
ROOT
HETATM    1  C   UNL     1     -10.194  18.178  66.280  1.00  0.00    -0.395 C  
HETATM    2  O   UNL     1     -10.389  17.116  65.352  1.00  0.00    -0.619 OA 
ENDROOT
BRANCH   2   3
HETATM    3  C   UNL     1     -10.132  15.845  65.805  1.00  0.00    -0.361 A  
HETATM    4  C   UNL     1      -9.200  15.471  66.781  1.00  0.00    -0.248 A  
HETATM    5  C   UNL     1      -9.096  14.121  67.123  1.00  0.00    -0.240 A  
HETATM    6  C   UNL     1     -10.878  14.852  65.145  1.00  0.00    -0.428 A  
HETATM    7  C   UNL     1      -9.793  13.116  66.426  1.00  0.00    -0.279 A  
HETATM    8  C   UNL     1     -10.701  13.486  65.437  1.00  0.00    -0.308 A  
HETATM    9  C   UNL     1      -9.442  11.660  66.702  1.00  0.00    -0.201 C  
HETATM   10  C   UNL     1      -7.965  11.475  66.346  1.00  0.00    -0.046 C  
HETATM   11  C   UNL     1      -7.614  10.086  66.746  1.00  0.00    -0.103 C  
HETATM   12  C   UNL     1      -8.318   9.016  65.943  1.00  0.00    -0.129 C  
HETATM   13  O   UNL     1      -6.826   9.865  67.662  1.00  0.00    -0.082 OA 
HETATM   14  C   UNL     1      -9.830   9.260  66.133  1.00  0.00    -0.293 C  
HETATM   15  C   UNL     1     -11.519  12.422  64.759  1.00  0.00    -0.375 C  
HETATM   16  C   UNL     1     -10.792  11.062  64.721  1.00  0.00    -0.163 C  
HETATM   17  N   UNL     1     -10.317  10.659  66.046  1.00  0.00    -0.245 NA 
BRANCH   4  18
HETATM   18  O   UNL     1      -8.407  16.427  67.363  1.00  0.00    -0.157 OA 
HETATM   19  C   UNL     1      -8.391  16.457  68.789  1.00  0.00    -0.242 C  
ENDBRANCH   4  18
BRANCH  12  20
HETATM   20  C   UNL     1      -7.804   7.638  66.406  1.00  0.00    -0.094 C  
HETATM   21  C   UNL     1      -7.413   6.624  65.321  1.00  0.00    -0.082 C  
HETATM   22  C   UNL     1      -6.967   5.318  65.995  1.00  0.00    -0.067 C  
HETATM   23  C   UNL     1      -6.285   7.128  64.420  1.00  0.00    -0.037 C  
ENDBRANCH  12  20
ENDBRANCH   2   3
TORSDOF 3
ENDMDL
MODEL       87
REMARK 921   NORMALIZED FREE ENERGY PREDICTED BY IDOCK:   -3.76 KCAL/MOL
REMARK 922        TOTAL FREE ENERGY PREDICTED BY IDOCK:   -4.76 KCAL/MOL
REMARK 923 INTER-LIGAND FREE ENERGY PREDICTED BY IDOCK:   -4.42 KCAL/MOL
REMARK 924 INTRA-LIGAND FREE ENERGY PREDICTED BY IDOCK:   -0.34 KCAL/MOL
REMARK 927      BINDING AFFINITY PREDICTED BY RF-SCORE:    0.00 PKD
ROOT
HETATM    1  C   UNL     1      -9.055  16.089  68.375  1.00  0.00    -0.192 C  
HETATM    2  O   UNL     1      -8.994  15.551  67.059  1.00  0.00    -0.200 OA 
ENDROOT
BRANCH   2   3
HETATM    3  C   UNL     1      -9.053  14.183  66.947  1.00  0.00    -0.245 A  
HETATM    4  C   UNL     1     -10.058  13.432  66.323  1.00  0.00    -0.299 A  
HETATM    5  C   UNL     1      -9.932  12.041  66.295  1.00  0.00    -0.249 A  
HETATM    6  C   UNL     1      -7.992  13.520  67.588  1.00  0.00    -0.177 A  
HETATM    7  C   UNL     1      -8.907  11.368  66.986  1.00  0.00    -0.168 A  
HETATM    8  C   UNL     1      -7.921  12.115  67.628  1.00  0.00    -0.157 A  
HETATM    9  C   UNL     1      -8.980   9.851  67.102  1.00  0.00    -0.138 C  
HETATM   10  C   UNL     1     -10.279   9.516  67.839  1.00  0.00    -0.251 C  
HETATM   11  C   UNL     1     -10.392   8.033  67.824  1.00  0.00    -0.231 C  
HETATM   12  C   UNL     1      -9.325   7.324  68.627  1.00  0.00    -0.138 C  
HETATM   13  O   UNL     1     -11.280   7.466  67.193  1.00  0.00    -0.152 OA 
HETATM   14  C   UNL     1      -7.973   7.762  68.028  1.00  0.00    -0.122 C  
HETATM   15  C   UNL     1      -6.773  11.401  68.284  1.00  0.00    -0.059 C  
HETATM   16  C   UNL     1      -7.163   9.989  68.771  1.00  0.00    -0.076 C  
HETATM   17  N   UNL     1      -7.795   9.201  67.710  1.00  0.00    -0.100 NA 
BRANCH   4  18
HETATM   18  O   UNL     1     -11.140  14.070  65.775  1.00  0.00    -0.299 OA 
HETATM   19  C   UNL     1     -12.296  14.187  66.602  1.00  0.00    -0.339 C  
ENDBRANCH   4  18
BRANCH  12  20
HETATM   20  C   UNL     1      -9.609   5.809  68.590  1.00  0.00    -0.154 C  
HETATM   21  C   UNL     1      -9.337   5.003  69.869  1.00  0.00    -0.198 C  
HETATM   22  C   UNL     1      -9.649   3.523  69.603  1.00  0.00    -0.184 C  
HETATM   23  C   UNL     1     -10.171   5.481  71.057  1.00  0.00    -0.287 C  
ENDBRANCH  12  20
ENDBRANCH   2   3
TORSDOF 3
ENDMDL
MODEL       88
REMARK 921   NORMALIZED FREE ENERGY PREDICTED BY IDOCK:   -3.69 KCAL/MOL
REMARK 922        TOTAL FREE ENERGY PREDICTED BY IDOCK:   -4.68 KCAL/MOL
REMARK 923 INTER-LIGAND FREE ENERGY PREDICTED BY IDOCK:   -4.36 KCAL/MOL
REMARK 924 INTRA-LIGAND FREE ENERGY PREDICTED BY IDOCK:   -0.32 KCAL/MOL
REMARK 927      BINDING AFFINITY PREDICTED BY RF-SCORE:    0.00 PKD
ROOT
HETATM    1  C   UNL     1      -8.126   1.802  67.433  1.00  0.00    -0.066 C  
HETATM    2  O   UNL     1      -9.343   2.521  67.606  1.00  0.00    -0.187 OA 
ENDROOT
BRANCH   2   3
HETATM    3  C   UNL     1      -9.259   3.892  67.586  1.00  0.00    -0.167 A  
HETATM    4  C   UNL     1      -9.684   4.777  68.586  1.00  0.00    -0.157 A  
HETATM    5  C   UNL     1      -9.495   6.147  68.390  1.00  0.00    -0.119 A  
HETATM    6  C   UNL     1      -8.728   4.405  66.390  1.00  0.00    -0.112 A  
HETATM    7  C   UNL     1      -9.021   6.670  67.172  1.00  0.00    -0.118 A  
HETATM    8  C   UNL     1      -8.623   5.791  66.168  1.00  0.00    -0.135 A  
HETATM    9  C   UNL     1      -9.072   8.178  66.958  1.00  0.00    -0.143 C  
HETATM   10  C   UNL     1     -10.539   8.600  67.059  1.00  0.00    -0.293 C  
HETATM   11  C   UNL     1     -10.549  10.085  66.978  1.00  0.00    -0.212 C  
HETATM   12  C   UNL     1     -10.103  10.633  65.641  1.00  0.00    -0.335 C  
HETATM   13  O   UNL     1     -10.883  10.775  67.937  1.00  0.00    -0.221 OA 
HETATM   14  C   UNL     1      -8.676  10.095  65.409  1.00  0.00    -0.161 C  
HETATM   15  C   UNL     1      -8.025   6.345  64.905  1.00  0.00    -0.124 C  
HETATM   16  C   UNL     1      -8.553   7.758  64.579  1.00  0.00     0.225 C  
HETATM   17  N   UNL     1      -8.421   8.667  65.720  1.00  0.00    -0.142 NA 
BRANCH   4  18
HETATM   18  O   UNL     1     -10.285   4.285  69.716  1.00  0.00    -0.087 OA 
HETATM   19  C   UNL     1     -10.037   4.995  70.928  1.00  0.00    -0.232 C  
ENDBRANCH   4  18
BRANCH  12  20
HETATM   20  C   UNL     1     -10.238  12.169  65.672  1.00  0.00    -0.285 C  
HETATM   21  C   UNL     1     -10.942  12.845  64.486  1.00  0.00    -0.377 C  
HETATM   22  C   UNL     1     -10.933  14.366  64.701  1.00  0.00    -0.367 C  
HETATM   23  C   UNL     1     -12.386  12.376  64.310  1.00  0.00    -0.544 C  
ENDBRANCH  12  20
ENDBRANCH   2   3
TORSDOF 3
ENDMDL
MODEL       89
REMARK 921   NORMALIZED FREE ENERGY PREDICTED BY IDOCK:   -3.69 KCAL/MOL
REMARK 922        TOTAL FREE ENERGY PREDICTED BY IDOCK:   -4.68 KCAL/MOL
REMARK 923 INTER-LIGAND FREE ENERGY PREDICTED BY IDOCK:   -4.38 KCAL/MOL
REMARK 924 INTRA-LIGAND FREE ENERGY PREDICTED BY IDOCK:   -0.29 KCAL/MOL
REMARK 927      BINDING AFFINITY PREDICTED BY RF-SCORE:    0.00 PKD
ROOT
HETATM    1  C   UNL     1      -5.794   5.455  64.406  1.00  0.00    -0.021 C  
HETATM    2  O   UNL     1      -7.213   5.564  64.412  1.00  0.00    -0.052 OA 
ENDROOT
BRANCH   2   3
HETATM    3  C   UNL     1      -7.759   6.487  65.271  1.00  0.00    -0.102 A  
HETATM    4  C   UNL     1      -8.931   6.346  66.025  1.00  0.00    -0.130 A  
HETATM    5  C   UNL     1      -9.316   7.396  66.862  1.00  0.00    -0.195 A  
HETATM    6  C   UNL     1      -7.049   7.700  65.316  1.00  0.00    -0.063 A  
HETATM    7  C   UNL     1      -8.646   8.634  66.867  1.00  0.00    -0.124 A  
HETATM    8  C   UNL     1      -7.495   8.783  66.097  1.00  0.00    -0.090 A  
HETATM    9  C   UNL     1      -9.272   9.798  67.626  1.00  0.00    -0.130 C  
HETATM   10  C   UNL     1     -10.643  10.061  67.000  1.00  0.00    -0.279 C  
HETATM   11  C   UNL     1     -11.285  11.110  67.837  1.00  0.00    -0.302 C  
HETATM   12  C   UNL     1     -10.596  12.454  67.780  1.00  0.00    -0.236 C  
HETATM   13  O   UNL     1     -12.282  10.866  68.513  1.00  0.00    -0.535 OA 
HETATM   14  C   UNL     1      -9.145  12.213  68.246  1.00  0.00    -0.191 C  
HETATM   15  C   UNL     1      -6.723  10.070  66.176  1.00  0.00    -0.100 C  
HETATM   16  C   UNL     1      -7.626  11.273  66.521  1.00  0.00    -0.111 C  
HETATM   17  N   UNL     1      -8.440  11.021  67.713  1.00  0.00    -0.120 NA 
BRANCH   4  18
HETATM   18  O   UNL     1      -9.675   5.200  65.915  1.00  0.00    -0.163 OA 
HETATM   19  C   UNL     1      -9.570   4.269  66.991  1.00  0.00    -0.203 C  
ENDBRANCH   4  18
BRANCH  12  20
HETATM   20  C   UNL     1     -11.408  13.457  68.623  1.00  0.00    -0.322 C  
HETATM   21  C   UNL     1     -10.903  14.906  68.685  1.00  0.00    -0.253 C  
HETATM   22  C   UNL     1     -11.830  15.719  69.601  1.00  0.00    -0.352 C  
HETATM   23  C   UNL     1     -10.853  15.573  67.311  1.00  0.00    -0.313 C  
ENDBRANCH  12  20
ENDBRANCH   2   3
TORSDOF 3
ENDMDL
MODEL       90
REMARK 921   NORMALIZED FREE ENERGY PREDICTED BY IDOCK:   -3.69 KCAL/MOL
REMARK 922        TOTAL FREE ENERGY PREDICTED BY IDOCK:   -4.67 KCAL/MOL
REMARK 923 INTER-LIGAND FREE ENERGY PREDICTED BY IDOCK:   -5.20 KCAL/MOL
REMARK 924 INTRA-LIGAND FREE ENERGY PREDICTED BY IDOCK:    0.54 KCAL/MOL
REMARK 927      BINDING AFFINITY PREDICTED BY RF-SCORE:    0.00 PKD
ROOT
HETATM    1  C   UNL     1      -8.228   5.789  62.863  1.00  0.00    -0.089 C  
HETATM    2  O   UNL     1      -7.302   6.866  62.958  1.00  0.00    -0.062 OA 
ENDROOT
BRANCH   2   3
HETATM    3  C   UNL     1      -7.675   7.933  63.739  1.00  0.00    -0.135 A  
HETATM    4  C   UNL     1      -7.495   8.070  65.121  1.00  0.00    -0.085 A  
HETATM    5  C   UNL     1      -7.927   9.246  65.738  1.00  0.00    -0.109 A  
HETATM    6  C   UNL     1      -8.349   8.942  63.027  1.00  0.00    -0.190 A  
HETATM    7  C   UNL     1      -8.655  10.231  65.045  1.00  0.00    -0.190 A  
HETATM    8  C   UNL     1      -8.857  10.083  63.675  1.00  0.00    -0.249 A  
HETATM    9  C   UNL     1      -9.293  11.362  65.842  1.00  0.00    -0.228 C  
HETATM   10  C   UNL     1     -10.275  10.724  66.827  1.00  0.00    -0.279 C  
HETATM   11  C   UNL     1     -10.785  11.831  67.679  1.00  0.00    -0.214 C  
HETATM   12  C   UNL     1     -11.623  12.846  66.936  1.00  0.00    -0.425 C  
HETATM   13  O   UNL     1     -10.517  11.891  68.877  1.00  0.00    -0.202 OA 
HETATM   14  C   UNL     1     -10.726  13.406  65.813  1.00  0.00    -0.274 C  
HETATM   15  C   UNL     1      -9.550  11.180  62.914  1.00  0.00    -0.373 C  
HETATM   16  C   UNL     1     -10.540  11.968  63.797  1.00  0.00    -0.430 C  
HETATM   17  N   UNL     1      -9.914  12.438  65.035  1.00  0.00    -0.239 NA 
BRANCH   4  18
HETATM   18  O   UNL     1      -6.918   7.050  65.834  1.00  0.00    -0.061 OA 
HETATM   19  C   UNL     1      -7.807   6.194  66.550  1.00  0.00    -0.104 C  
ENDBRANCH   4  18
BRANCH  12  20
HETATM   20  C   UNL     1     -12.148  13.884  67.948  1.00  0.00    -0.318 C  
HETATM   21  C   UNL     1     -11.150  14.920  68.485  1.00  0.00    -0.275 C  
HETATM   22  C   UNL     1     -11.866  15.825  69.499  1.00  0.00    -0.359 C  
HETATM   23  C   UNL     1     -10.550  15.790  67.381  1.00  0.00    -0.313 C  
ENDBRANCH  12  20
ENDBRANCH   2   3
TORSDOF 3
ENDMDL
MODEL       91
REMARK 921   NORMALIZED FREE ENERGY PREDICTED BY IDOCK:   -3.68 KCAL/MOL
REMARK 922        TOTAL FREE ENERGY PREDICTED BY IDOCK:   -4.66 KCAL/MOL
REMARK 923 INTER-LIGAND FREE ENERGY PREDICTED BY IDOCK:   -5.34 KCAL/MOL
REMARK 924 INTRA-LIGAND FREE ENERGY PREDICTED BY IDOCK:    0.68 KCAL/MOL
REMARK 927      BINDING AFFINITY PREDICTED BY RF-SCORE:    0.00 PKD
ROOT
HETATM    1  C   UNL     1     -10.375   8.111  67.423  1.00  0.00    -0.281 C  
HETATM    2  O   UNL     1     -10.563   9.054  68.473  1.00  0.00    -0.209 OA 
ENDROOT
BRANCH   2   3
HETATM    3  C   UNL     1     -10.181  10.349  68.216  1.00  0.00    -0.160 A  
HETATM    4  C   UNL     1      -8.874  10.852  68.194  1.00  0.00    -0.137 A  
HETATM    5  C   UNL     1      -8.684  12.203  67.892  1.00  0.00    -0.176 A  
HETATM    6  C   UNL     1     -11.262  11.223  68.012  1.00  0.00    -0.351 A  
HETATM    7  C   UNL     1      -9.761  13.096  67.747  1.00  0.00    -0.218 A  
HETATM    8  C   UNL     1     -11.062  12.600  67.795  1.00  0.00    -0.287 A  
HETATM    9  C   UNL     1      -9.465  14.588  67.658  1.00  0.00    -0.209 C  
HETATM   10  C   UNL     1      -8.756  14.986  68.954  1.00  0.00    -0.197 C  
HETATM   11  C   UNL     1      -8.361  16.411  68.789  1.00  0.00    -0.242 C  
HETATM   12  C   UNL     1      -9.528  17.368  68.704  1.00  0.00    -0.280 C  
HETATM   13  O   UNL     1      -7.181  16.743  68.720  1.00  0.00    -0.192 OA 
HETATM   14  C   UNL     1     -10.377  16.907  67.501  1.00  0.00    -0.318 C  
HETATM   15  C   UNL     1     -12.212  13.535  67.543  1.00  0.00    -0.247 C  
HETATM   16  C   UNL     1     -11.885  14.987  67.951  1.00  0.00    -0.218 C  
HETATM   17  N   UNL     1     -10.630  15.452  67.356  1.00  0.00    -0.283 NA 
BRANCH   4  18
HETATM   18  O   UNL     1      -7.821  10.021  68.481  1.00  0.00    -0.090 OA 
HETATM   19  C   UNL     1      -6.674  10.629  69.072  1.00  0.00    -0.066 C  
ENDBRANCH   4  18
BRANCH  12  20
HETATM   20  C   UNL     1      -8.977  18.806  68.616  1.00  0.00    -0.368 C  
HETATM   21  C   UNL     1      -8.055  19.143  67.435  1.00  0.00    -0.296 C  
HETATM   22  C   UNL     1      -7.594  20.603  67.562  1.00  0.00    -0.340 C  
HETATM   23  C   UNL     1      -8.737  18.953  66.081  1.00  0.00    -0.175 C  
ENDBRANCH  12  20
ENDBRANCH   2   3
TORSDOF 3
ENDMDL
MODEL       92
REMARK 921   NORMALIZED FREE ENERGY PREDICTED BY IDOCK:   -3.66 KCAL/MOL
REMARK 922        TOTAL FREE ENERGY PREDICTED BY IDOCK:   -4.63 KCAL/MOL
REMARK 923 INTER-LIGAND FREE ENERGY PREDICTED BY IDOCK:   -4.37 KCAL/MOL
REMARK 924 INTRA-LIGAND FREE ENERGY PREDICTED BY IDOCK:   -0.27 KCAL/MOL
REMARK 927      BINDING AFFINITY PREDICTED BY RF-SCORE:    0.00 PKD
ROOT
HETATM    1  C   UNL     1     -10.392  17.430  68.327  1.00  0.00    -0.374 C  
HETATM    2  O   UNL     1     -10.098  16.515  67.277  1.00  0.00    -0.260 OA 
ENDROOT
BRANCH   2   3
HETATM    3  C   UNL     1      -9.717  15.249  67.650  1.00  0.00    -0.208 A  
HETATM    4  C   UNL     1      -8.408  14.768  67.784  1.00  0.00    -0.159 A  
HETATM    5  C   UNL     1      -8.221  13.446  68.194  1.00  0.00    -0.160 A  
HETATM    6  C   UNL     1     -10.799  14.374  67.856  1.00  0.00    -0.256 A  
HETATM    7  C   UNL     1      -9.295  12.549  68.344  1.00  0.00    -0.149 A  
HETATM    8  C   UNL     1     -10.597  13.021  68.185  1.00  0.00    -0.257 A  
HETATM    9  C   UNL     1      -8.988  11.072  68.558  1.00  0.00    -0.163 C  
HETATM   10  C   UNL     1      -8.201  10.591  67.337  1.00  0.00    -0.118 C  
HETATM   11  C   UNL     1      -7.801   9.189  67.629  1.00  0.00    -0.096 C  
HETATM   12  C   UNL     1      -8.960   8.223  67.718  1.00  0.00    -0.139 C  
HETATM   13  O   UNL     1      -6.623   8.881  67.790  1.00  0.00    -0.060 OA 
HETATM   14  C   UNL     1      -9.882   8.757  68.834  1.00  0.00    -0.178 C  
HETATM   15  C   UNL     1     -11.749  12.089  68.439  1.00  0.00    -0.390 C  
HETATM   16  C   UNL     1     -11.383  10.617  68.158  1.00  0.00    -0.284 C  
HETATM   17  N   UNL     1     -10.160  10.215  68.856  1.00  0.00    -0.189 NA 
BRANCH   4  18
HETATM   18  O   UNL     1      -7.350  15.592  67.497  1.00  0.00    -0.152 OA 
HETATM   19  C   UNL     1      -6.100  15.251  68.093  1.00  0.00    -0.132 C  
ENDBRANCH   4  18
BRANCH  12  20
HETATM   20  C   UNL     1      -8.399   6.804  67.943  1.00  0.00    -0.120 C  
HETATM   21  C   UNL     1      -9.378   5.718  68.411  1.00  0.00    -0.130 C  
HETATM   22  C   UNL     1      -8.609   4.402  68.606  1.00  0.00    -0.108 C  
HETATM   23  C   UNL     1     -10.519   5.484  67.420  1.00  0.00    -0.284 C  
ENDBRANCH  12  20
ENDBRANCH   2   3
TORSDOF 3
ENDMDL
MODEL       93
REMARK 921   NORMALIZED FREE ENERGY PREDICTED BY IDOCK:   -3.61 KCAL/MOL
REMARK 922        TOTAL FREE ENERGY PREDICTED BY IDOCK:   -4.58 KCAL/MOL
REMARK 923 INTER-LIGAND FREE ENERGY PREDICTED BY IDOCK:   -4.29 KCAL/MOL
REMARK 924 INTRA-LIGAND FREE ENERGY PREDICTED BY IDOCK:   -0.29 KCAL/MOL
REMARK 927      BINDING AFFINITY PREDICTED BY RF-SCORE:    0.00 PKD
ROOT
HETATM    1  C   UNL     1      -9.811   3.755  65.171  1.00  0.00    -0.161 C  
HETATM    2  O   UNL     1      -9.085   3.981  66.374  1.00  0.00    -0.122 OA 
ENDROOT
BRANCH   2   3
HETATM    3  C   UNL     1      -9.081   5.266  66.862  1.00  0.00    -0.113 A  
HETATM    4  C   UNL     1      -9.501   5.687  68.130  1.00  0.00    -0.110 A  
HETATM    5  C   UNL     1      -9.402   7.043  68.450  1.00  0.00    -0.130 A  
HETATM    6  C   UNL     1      -8.646   6.220  65.926  1.00  0.00    -0.150 A  
HETATM    7  C   UNL     1      -9.026   8.011  67.500  1.00  0.00    -0.143 A  
HETATM    8  C   UNL     1      -8.633   7.594  66.230  1.00  0.00    -0.153 A  
HETATM    9  C   UNL     1      -9.175   9.483  67.862  1.00  0.00    -0.125 C  
HETATM   10  C   UNL     1     -10.657   9.730  68.154  1.00  0.00    -0.276 C  
HETATM   11  C   UNL     1     -10.756  11.136  68.630  1.00  0.00    -0.198 C  
HETATM   12  C   UNL     1     -10.416  12.168  67.579  1.00  0.00    -0.229 C  
HETATM   13  O   UNL     1     -11.077  11.398  69.786  1.00  0.00    -0.221 OA 
HETATM   14  C   UNL     1      -8.975  11.860  67.123  1.00  0.00    -0.178 C  
HETATM   15  C   UNL     1      -8.138   8.617  65.246  1.00  0.00    -0.136 C  
HETATM   16  C   UNL     1      -8.763  10.008  65.483  1.00  0.00    -0.155 C  
HETATM   17  N   UNL     1      -8.622  10.440  66.875  1.00  0.00    -0.127 NA 
BRANCH   4  18
HETATM   18  O   UNL     1     -10.010   4.771  69.015  1.00  0.00    -0.180 OA 
HETATM   19  C   UNL     1      -9.701   4.978  70.391  1.00  0.00    -0.209 C  
ENDBRANCH   4  18
BRANCH  12  20
HETATM   20  C   UNL     1     -10.638  13.570  68.181  1.00  0.00    -0.253 C  
HETATM   21  C   UNL     1     -11.017  14.705  67.219  1.00  0.00    -0.317 C  
HETATM   22  C   UNL     1     -11.152  16.012  68.015  1.00  0.00    -0.334 C  
HETATM   23  C   UNL     1     -12.327  14.438  66.477  1.00  0.00    -0.272 C  
ENDBRANCH  12  20
ENDBRANCH   2   3
TORSDOF 3
ENDMDL
MODEL       94
REMARK 921   NORMALIZED FREE ENERGY PREDICTED BY IDOCK:   -3.55 KCAL/MOL
REMARK 922        TOTAL FREE ENERGY PREDICTED BY IDOCK:   -4.51 KCAL/MOL
REMARK 923 INTER-LIGAND FREE ENERGY PREDICTED BY IDOCK:   -4.31 KCAL/MOL
REMARK 924 INTRA-LIGAND FREE ENERGY PREDICTED BY IDOCK:   -0.20 KCAL/MOL
REMARK 927      BINDING AFFINITY PREDICTED BY RF-SCORE:    0.00 PKD
ROOT
HETATM    1  C   UNL     1     -10.611   5.243  70.831  1.00  0.00    -0.177 C  
HETATM    2  O   UNL     1      -9.756   6.210  71.431  1.00  0.00    -0.166 OA 
ENDROOT
BRANCH   2   3
HETATM    3  C   UNL     1      -9.430   7.304  70.667  1.00  0.00    -0.164 A  
HETATM    4  C   UNL     1      -8.780   8.469  71.098  1.00  0.00    -0.174 A  
HETATM    5  C   UNL     1      -8.517   9.471  70.161  1.00  0.00    -0.227 A  
HETATM    6  C   UNL     1      -9.863   7.208  69.333  1.00  0.00    -0.161 A  
HETATM    7  C   UNL     1      -9.000   9.408  68.841  1.00  0.00    -0.136 A  
HETATM    8  C   UNL     1      -9.669   8.261  68.420  1.00  0.00    -0.170 A  
HETATM    9  C   UNL     1      -8.875  10.645  67.960  1.00  0.00    -0.130 C  
HETATM   10  C   UNL     1      -9.654  11.770  68.643  1.00  0.00    -0.122 C  
HETATM   11  C   UNL     1      -9.409  12.994  67.835  1.00  0.00    -0.212 C  
HETATM   12  C   UNL     1      -9.993  12.941  66.442  1.00  0.00    -0.267 C  
HETATM   13  O   UNL     1      -8.772  13.941  68.288  1.00  0.00    -0.174 OA 
HETATM   14  C   UNL     1      -9.360  11.713  65.756  1.00  0.00    -0.205 C  
HETATM   15  C   UNL     1     -10.100   8.151  66.984  1.00  0.00    -0.350 C  
HETATM   16  C   UNL     1     -10.383   9.530  66.351  1.00  0.00    -0.173 C  
HETATM   17  N   UNL     1      -9.266  10.458  66.543  1.00  0.00    -0.158 NA 
BRANCH   4  18
HETATM   18  O   UNL     1      -8.436   8.604  72.418  1.00  0.00    -0.342 OA 
HETATM   19  C   UNL     1      -7.111   8.213  72.772  1.00  0.00    -0.098 C  
ENDBRANCH   4  18
BRANCH  12  20
HETATM   20  C   UNL     1      -9.736  14.295  65.751  1.00  0.00    -0.264 C  
HETATM   21  C   UNL     1     -10.889  15.309  65.721  1.00  0.00    -0.363 C  
HETATM   22  C   UNL     1     -10.433  16.562  64.959  1.00  0.00    -0.050 C  
HETATM   23  C   UNL     1     -11.352  15.718  67.119  1.00  0.00    -0.025 C  
ENDBRANCH  12  20
ENDBRANCH   2   3
TORSDOF 3
ENDMDL
MODEL       95
REMARK 921   NORMALIZED FREE ENERGY PREDICTED BY IDOCK:   -3.50 KCAL/MOL
REMARK 922        TOTAL FREE ENERGY PREDICTED BY IDOCK:   -4.45 KCAL/MOL
REMARK 923 INTER-LIGAND FREE ENERGY PREDICTED BY IDOCK:   -4.99 KCAL/MOL
REMARK 924 INTRA-LIGAND FREE ENERGY PREDICTED BY IDOCK:    0.54 KCAL/MOL
REMARK 927      BINDING AFFINITY PREDICTED BY RF-SCORE:    0.00 PKD
ROOT
HETATM    1  C   UNL     1      -8.313   5.651  65.073  1.00  0.00    -0.146 C  
HETATM    2  O   UNL     1      -7.873   5.781  66.421  1.00  0.00    -0.098 OA 
ENDROOT
BRANCH   2   3
HETATM    3  C   UNL     1      -8.267   6.912  67.093  1.00  0.00    -0.118 A  
HETATM    4  C   UNL     1      -8.791   6.982  68.391  1.00  0.00    -0.123 A  
HETATM    5  C   UNL     1      -9.118   8.235  68.912  1.00  0.00    -0.147 A  
HETATM    6  C   UNL     1      -8.157   8.087  66.328  1.00  0.00    -0.112 A  
HETATM    7  C   UNL     1      -9.068   9.407  68.133  1.00  0.00    -0.129 A  
HETATM    8  C   UNL     1      -8.571   9.333  66.834  1.00  0.00    -0.132 A  
HETATM    9  C   UNL     1      -9.667  10.687  68.703  1.00  0.00    -0.178 C  
HETATM   10  C   UNL     1     -11.150  10.415  68.965  1.00  0.00    -0.297 C  
HETATM   11  C   UNL     1     -11.680  11.630  69.639  1.00  0.00    -0.350 C  
HETATM   12  C   UNL     1     -11.685  12.866  68.769  1.00  0.00    -0.363 C  
HETATM   13  O   UNL     1     -12.061  11.599  70.807  1.00  0.00    -0.364 OA 
HETATM   14  C   UNL     1     -10.222  13.093  68.334  1.00  0.00    -0.247 C  
HETATM   15  C   UNL     1      -8.426  10.598  66.034  1.00  0.00    -0.165 C  
HETATM   16  C   UNL     1      -9.452  11.673  66.448  1.00  0.00    -0.217 C  
HETATM   17  N   UNL     1      -9.445  11.908  67.893  1.00  0.00    -0.187 NA 
BRANCH   4  18
HETATM   18  O   UNL     1      -8.984   5.828  69.107  1.00  0.00    -0.117 OA 
HETATM   19  C   UNL     1     -10.191   5.114  68.848  1.00  0.00    -0.150 C  
ENDBRANCH   4  18
BRANCH  12  20
HETATM   20  C   UNL     1     -12.330  14.021  69.562  1.00  0.00    -0.275 C  
HETATM   21  C   UNL     1     -11.430  14.814  70.521  1.00  0.00    -0.300 C  
HETATM   22  C   UNL     1     -12.275  15.883  71.230  1.00  0.00    -0.473 C  
HETATM   23  C   UNL     1     -10.262  15.495  69.808  1.00  0.00    -0.301 C  
ENDBRANCH  12  20
ENDBRANCH   2   3
TORSDOF 3
ENDMDL
MODEL       96
REMARK 921   NORMALIZED FREE ENERGY PREDICTED BY IDOCK:   -3.45 KCAL/MOL
REMARK 922        TOTAL FREE ENERGY PREDICTED BY IDOCK:   -4.39 KCAL/MOL
REMARK 923 INTER-LIGAND FREE ENERGY PREDICTED BY IDOCK:   -4.28 KCAL/MOL
REMARK 924 INTRA-LIGAND FREE ENERGY PREDICTED BY IDOCK:   -0.11 KCAL/MOL
REMARK 927      BINDING AFFINITY PREDICTED BY RF-SCORE:    0.00 PKD
ROOT
HETATM    1  C   UNL     1      -9.598  14.917  67.965  1.00  0.00    -0.207 C  
HETATM    2  O   UNL     1     -10.064  13.835  68.763  1.00  0.00    -0.214 OA 
ENDROOT
BRANCH   2   3
HETATM    3  C   UNL     1     -10.150  12.608  68.151  1.00  0.00    -0.231 A  
HETATM    4  C   UNL     1     -11.172  11.661  68.299  1.00  0.00    -0.260 A  
HETATM    5  C   UNL     1     -11.091  10.471  67.573  1.00  0.00    -0.358 A  
HETATM    6  C   UNL     1      -9.040  12.305  67.341  1.00  0.00    -0.184 A  
HETATM    7  C   UNL     1      -9.957  10.136  66.810  1.00  0.00    -0.266 A  
HETATM    8  C   UNL     1      -8.928  11.066  66.683  1.00  0.00    -0.176 A  
HETATM    9  C   UNL     1      -9.848   8.723  66.248  1.00  0.00    -0.272 C  
HETATM   10  C   UNL     1      -9.858   7.761  67.438  1.00  0.00    -0.230 C  
HETATM   11  C   UNL     1      -9.884   6.390  66.860  1.00  0.00    -0.158 C  
HETATM   12  C   UNL     1      -8.631   6.017  66.101  1.00  0.00    -0.142 C  
HETATM   13  O   UNL     1     -10.859   5.657  66.998  1.00  0.00    -0.275 OA 
HETATM   14  C   UNL     1      -8.478   7.066  64.980  1.00  0.00     0.028 C  
HETATM   15  C   UNL     1      -7.761  10.750  65.790  1.00  0.00    -0.094 C  
HETATM   16  C   UNL     1      -7.496   9.233  65.691  1.00  0.00    -0.094 C  
HETATM   17  N   UNL     1      -8.706   8.489  65.334  1.00  0.00    -0.176 NA 
BRANCH   4  18
HETATM   18  O   UNL     1     -12.211  11.915  69.157  1.00  0.00    -0.233 OA 
HETATM   19  C   UNL     1     -12.104  11.359  70.467  1.00  0.00    -0.394 C  
ENDBRANCH   4  18
BRANCH  12  20
HETATM   20  C   UNL     1      -8.760   4.555  65.631  1.00  0.00    -0.124 C  
HETATM   21  C   UNL     1      -8.102   4.176  64.296  1.00  0.00    -0.091 C  
HETATM   22  C   UNL     1      -8.383   2.694  64.003  1.00  0.00    -0.083 C  
HETATM   23  C   UNL     1      -6.590   4.404  64.298  1.00  0.00    -0.043 C  
ENDBRANCH  12  20
ENDBRANCH   2   3
TORSDOF 3
ENDMDL
MODEL       97
REMARK 921   NORMALIZED FREE ENERGY PREDICTED BY IDOCK:   -3.44 KCAL/MOL
REMARK 922        TOTAL FREE ENERGY PREDICTED BY IDOCK:   -4.37 KCAL/MOL
REMARK 923 INTER-LIGAND FREE ENERGY PREDICTED BY IDOCK:   -4.08 KCAL/MOL
REMARK 924 INTRA-LIGAND FREE ENERGY PREDICTED BY IDOCK:   -0.30 KCAL/MOL
REMARK 927      BINDING AFFINITY PREDICTED BY RF-SCORE:    0.00 PKD
ROOT
HETATM    1  C   UNL     1     -12.575  14.586  64.747  1.00  0.00    -0.217 C  
HETATM    2  O   UNL     1     -11.301  14.911  65.294  1.00  0.00    -0.344 OA 
ENDROOT
BRANCH   2   3
HETATM    3  C   UNL     1     -10.821  14.081  66.277  1.00  0.00    -0.291 A  
HETATM    4  C   UNL     1     -10.049  14.448  67.387  1.00  0.00    -0.243 A  
HETATM    5  C   UNL     1      -9.669  13.455  68.294  1.00  0.00    -0.226 A  
HETATM    6  C   UNL     1     -11.127  12.724  66.066  1.00  0.00    -0.315 A  
HETATM    7  C   UNL     1      -9.919  12.091  68.058  1.00  0.00    -0.197 A  
HETATM    8  C   UNL     1     -10.665  11.723  66.941  1.00  0.00    -0.288 A  
HETATM    9  C   UNL     1      -9.264  11.062  68.972  1.00  0.00    -0.064 C  
HETATM   10  C   UNL     1      -7.750  11.243  68.847  1.00  0.00    -0.125 C  
HETATM   11  C   UNL     1      -7.140  10.321  69.842  1.00  0.00    -0.152 C  
HETATM   12  C   UNL     1      -7.356   8.856  69.539  1.00  0.00    -0.071 C  
HETATM   13  O   UNL     1      -6.530  10.748  70.819  1.00  0.00    -0.348 OA 
HETATM   14  C   UNL     1      -8.884   8.648  69.487  1.00  0.00    -0.144 C  
HETATM   15  C   UNL     1     -11.016  10.275  66.739  1.00  0.00    -0.082 C  
HETATM   16  C   UNL     1      -9.967   9.328  67.358  1.00  0.00    -0.199 C  
HETATM   17  N   UNL     1      -9.691   9.659  68.758  1.00  0.00    -0.159 NA 
BRANCH   4  18
HETATM   18  O   UNL     1      -9.673  15.756  67.549  1.00  0.00    -0.224 OA 
HETATM   19  C   UNL     1      -8.455  16.150  66.919  1.00  0.00    -0.230 C  
ENDBRANCH   4  18
BRANCH  12  20
HETATM   20  C   UNL     1      -6.608   8.021  70.598  1.00  0.00    -0.037 C  
HETATM   21  C   UNL     1      -6.714   6.492  70.504  1.00  0.00    -0.057 C  
HETATM   22  C   UNL     1      -5.932   5.864  71.667  1.00  0.00    -0.034 C  
HETATM   23  C   UNL     1      -6.171   5.942  69.185  1.00  0.00    -0.033 C  
ENDBRANCH  12  20
ENDBRANCH   2   3
TORSDOF 3
ENDMDL
MODEL       98
REMARK 921   NORMALIZED FREE ENERGY PREDICTED BY IDOCK:   -3.43 KCAL/MOL
REMARK 922        TOTAL FREE ENERGY PREDICTED BY IDOCK:   -4.37 KCAL/MOL
REMARK 923 INTER-LIGAND FREE ENERGY PREDICTED BY IDOCK:   -4.28 KCAL/MOL
REMARK 924 INTRA-LIGAND FREE ENERGY PREDICTED BY IDOCK:   -0.09 KCAL/MOL
REMARK 927      BINDING AFFINITY PREDICTED BY RF-SCORE:    0.00 PKD
ROOT
HETATM    1  C   UNL     1      -5.282   8.936  67.494  1.00  0.00    -0.034 C  
HETATM    2  O   UNL     1      -6.591   8.992  68.052  1.00  0.00    -0.059 OA 
ENDROOT
BRANCH   2   3
HETATM    3  C   UNL     1      -7.170  10.234  68.145  1.00  0.00    -0.084 A  
HETATM    4  C   UNL     1      -8.540  10.528  68.133  1.00  0.00    -0.123 A  
HETATM    5  C   UNL     1      -8.938  11.860  68.258  1.00  0.00    -0.178 A  
HETATM    6  C   UNL     1      -6.239  11.285  68.207  1.00  0.00    -0.045 A  
HETATM    7  C   UNL     1      -8.013  12.921  68.259  1.00  0.00    -0.151 A  
HETATM    8  C   UNL     1      -6.651  12.630  68.245  1.00  0.00    -0.079 A  
HETATM    9  C   UNL     1      -8.540  14.347  68.158  1.00  0.00    -0.166 C  
HETATM   10  C   UNL     1      -9.306  14.454  66.838  1.00  0.00    -0.269 C  
HETATM   11  C   UNL     1      -9.919  15.810  66.823  1.00  0.00    -0.252 C  
HETATM   12  C   UNL     1      -8.916  16.939  66.754  1.00  0.00    -0.264 C  
HETATM   13  O   UNL     1     -11.136  15.962  66.877  1.00  0.00    -0.228 OA 
HETATM   14  C   UNL     1      -8.002  16.780  67.987  1.00  0.00    -0.178 C  
HETATM   15  C   UNL     1      -5.661  13.757  68.345  1.00  0.00    -0.101 C  
HETATM   16  C   UNL     1      -6.212  15.073  67.757  1.00  0.00    -0.149 C  
HETATM   17  N   UNL     1      -7.523  15.414  68.315  1.00  0.00    -0.109 NA 
BRANCH   4  18
HETATM   18  O   UNL     1      -9.450   9.513  67.982  1.00  0.00    -0.133 OA 
HETATM   19  C   UNL     1      -9.681   9.059  66.650  1.00  0.00    -0.230 C  
ENDBRANCH   4  18
BRANCH  12  20
HETATM   20  C   UNL     1      -9.685  18.272  66.665  1.00  0.00    -0.339 C  
HETATM   21  C   UNL     1      -9.041  19.510  67.306  1.00  0.00    -0.373 C  
HETATM   22  C   UNL     1      -9.984  20.710  67.136  1.00  0.00    -0.427 C  
HETATM   23  C   UNL     1      -7.683  19.854  66.693  1.00  0.00    -0.310 C  
ENDBRANCH  12  20
ENDBRANCH   2   3
TORSDOF 3
ENDMDL
MODEL       99
REMARK 921   NORMALIZED FREE ENERGY PREDICTED BY IDOCK:   -3.42 KCAL/MOL
REMARK 922        TOTAL FREE ENERGY PREDICTED BY IDOCK:   -4.36 KCAL/MOL
REMARK 923 INTER-LIGAND FREE ENERGY PREDICTED BY IDOCK:   -4.68 KCAL/MOL
REMARK 924 INTRA-LIGAND FREE ENERGY PREDICTED BY IDOCK:    0.32 KCAL/MOL
REMARK 927      BINDING AFFINITY PREDICTED BY RF-SCORE:    0.00 PKD
ROOT
HETATM    1  C   UNL     1     -13.624   8.778  71.931  1.00  0.00    -0.424 C  
HETATM    2  O   UNL     1     -12.721   9.862  72.122  1.00  0.00    -0.369 OA 
ENDROOT
BRANCH   2   3
HETATM    3  C   UNL     1     -11.860  10.138  71.088  1.00  0.00    -0.381 A  
HETATM    4  C   UNL     1     -11.825  11.301  70.308  1.00  0.00    -0.357 A  
HETATM    5  C   UNL     1     -10.856  11.405  69.307  1.00  0.00    -0.242 A  
HETATM    6  C   UNL     1     -10.977   9.083  70.796  1.00  0.00    -0.315 A  
HETATM    7  C   UNL     1     -10.010  10.332  68.969  1.00  0.00    -0.223 A  
HETATM    8  C   UNL     1     -10.063   9.165  69.728  1.00  0.00    -0.211 A  
HETATM    9  C   UNL     1      -9.153  10.447  67.715  1.00  0.00    -0.131 C  
HETATM   10  C   UNL     1     -10.105  10.625  66.530  1.00  0.00    -0.275 C  
HETATM   11  C   UNL     1      -9.245  10.866  65.341  1.00  0.00    -0.207 C  
HETATM   12  C   UNL     1      -8.393   9.681  64.947  1.00  0.00    -0.152 C  
HETATM   13  O   UNL     1      -9.244  11.948  64.761  1.00  0.00     0.063 OA 
HETATM   14  C   UNL     1      -7.522   9.349  66.176  1.00  0.00    -0.096 C  
HETATM   15  C   UNL     1      -9.094   8.055  69.431  1.00  0.00    -0.148 C  
HETATM   16  C   UNL     1      -8.661   8.037  67.950  1.00  0.00    -0.128 C  
HETATM   17  N   UNL     1      -8.182   9.348  67.506  1.00  0.00    -0.117 NA 
BRANCH   4  18
HETATM   18  O   UNL     1     -12.743  12.295  70.531  1.00  0.00    -0.125 OA 
HETATM   19  C   UNL     1     -12.246  13.632  70.522  1.00  0.00    -0.368 C  
ENDBRANCH   4  18
BRANCH  12  20
HETATM   20  C   UNL     1      -7.620  10.040  63.662  1.00  0.00    -0.143 C  
HETATM   21  C   UNL     1      -6.088  10.113  63.750  1.00  0.00    -0.138 C  
HETATM   22  C   UNL     1      -5.527  10.520  62.379  1.00  0.00    -0.132 C  
HETATM   23  C   UNL     1      -5.457   8.787  64.173  1.00  0.00    -0.056 C  
ENDBRANCH  12  20
ENDBRANCH   2   3
TORSDOF 3
ENDMDL
MODEL      100
REMARK 921   NORMALIZED FREE ENERGY PREDICTED BY IDOCK:   -3.42 KCAL/MOL
REMARK 922        TOTAL FREE ENERGY PREDICTED BY IDOCK:   -4.35 KCAL/MOL
REMARK 923 INTER-LIGAND FREE ENERGY PREDICTED BY IDOCK:   -3.98 KCAL/MOL
REMARK 924 INTRA-LIGAND FREE ENERGY PREDICTED BY IDOCK:   -0.37 KCAL/MOL
REMARK 927      BINDING AFFINITY PREDICTED BY RF-SCORE:    0.00 PKD
ROOT
HETATM    1  C   UNL     1      -5.527   3.140  66.342  1.00  0.00    -0.017 C  
HETATM    2  O   UNL     1      -5.313   4.411  65.738  1.00  0.00    -0.009 OA 
ENDROOT
BRANCH   2   3
HETATM    3  C   UNL     1      -6.373   5.286  65.749  1.00  0.00    -0.035 A  
HETATM    4  C   UNL     1      -7.071   5.777  64.638  1.00  0.00    -0.057 A  
HETATM    5  C   UNL     1      -8.139   6.650  64.854  1.00  0.00    -0.115 A  
HETATM    6  C   UNL     1      -6.712   5.741  67.035  1.00  0.00    -0.062 A  
HETATM    7  C   UNL     1      -8.446   7.157  66.131  1.00  0.00    -0.143 A  
HETATM    8  C   UNL     1      -7.734   6.688  67.232  1.00  0.00    -0.104 A  
HETATM    9  C   UNL     1      -9.467   8.283  66.242  1.00  0.00    -0.203 C  
HETATM   10  C   UNL     1      -8.926   9.465  65.436  1.00  0.00    -0.251 C  
HETATM   11  C   UNL     1      -9.995  10.500  65.451  1.00  0.00    -0.289 C  
HETATM   12  C   UNL     1     -10.267  11.086  66.818  1.00  0.00    -0.272 C  
HETATM   13  O   UNL     1     -10.592  10.817  64.426  1.00  0.00    -0.347 OA 
HETATM   14  C   UNL     1     -10.658   9.900  67.725  1.00  0.00    -0.261 C  
HETATM   15  C   UNL     1      -8.124   7.154  68.608  1.00  0.00    -0.124 C  
HETATM   16  C   UNL     1      -8.754   8.563  68.591  1.00  0.00    -0.139 C  
HETATM   17  N   UNL     1      -9.849   8.660  67.623  1.00  0.00    -0.170 NA 
BRANCH   4  18
HETATM   18  O   UNL     1      -6.685   5.405  63.376  1.00  0.00    -0.032 OA 
HETATM   19  C   UNL     1      -6.281   6.456  62.500  1.00  0.00    -0.030 C  
ENDBRANCH   4  18
BRANCH  12  20
HETATM   20  C   UNL     1     -11.331  12.192  66.674  1.00  0.00    -0.405 C  
HETATM   21  C   UNL     1     -10.911  13.630  67.012  1.00  0.00    -0.298 C  
HETATM   22  C   UNL     1     -12.123  14.558  66.837  1.00  0.00    -0.309 C  
HETATM   23  C   UNL     1      -9.768  14.135  66.131  1.00  0.00    -0.310 C  
ENDBRANCH  12  20
ENDBRANCH   2   3
TORSDOF 3
ENDMDL
MODEL      101
REMARK 921   NORMALIZED FREE ENERGY PREDICTED BY IDOCK:   -3.41 KCAL/MOL
REMARK 922        TOTAL FREE ENERGY PREDICTED BY IDOCK:   -4.34 KCAL/MOL
REMARK 923 INTER-LIGAND FREE ENERGY PREDICTED BY IDOCK:   -4.73 KCAL/MOL
REMARK 924 INTRA-LIGAND FREE ENERGY PREDICTED BY IDOCK:    0.39 KCAL/MOL
REMARK 927      BINDING AFFINITY PREDICTED BY RF-SCORE:    0.00 PKD
ROOT
HETATM    1  C   UNL     1      -8.884   4.036  73.454  1.00  0.00    -0.097 C  
HETATM    2  O   UNL     1      -9.937   3.681  72.564  1.00  0.00    -0.146 OA 
ENDROOT
BRANCH   2   3
HETATM    3  C   UNL     1     -10.058   4.432  71.420  1.00  0.00    -0.140 A  
HETATM    4  C   UNL     1      -9.855   3.999  70.103  1.00  0.00    -0.137 A  
HETATM    5  C   UNL     1     -10.046   4.912  69.063  1.00  0.00    -0.210 A  
HETATM    6  C   UNL     1     -10.371   5.781  71.663  1.00  0.00    -0.266 A  
HETATM    7  C   UNL     1     -10.299   6.276  69.301  1.00  0.00    -0.266 A  
HETATM    8  C   UNL     1     -10.475   6.712  70.613  1.00  0.00    -0.253 A  
HETATM    9  C   UNL     1     -10.255   7.242  68.124  1.00  0.00    -0.187 C  
HETATM   10  C   UNL     1      -8.846   7.170  67.531  1.00  0.00    -0.119 C  
HETATM   11  C   UNL     1      -8.868   8.018  66.310  1.00  0.00    -0.162 C  
HETATM   12  C   UNL     1      -9.071   9.491  66.585  1.00  0.00    -0.179 C  
HETATM   13  O   UNL     1      -8.740   7.530  65.190  1.00  0.00    -0.024 OA 
HETATM   14  C   UNL     1     -10.413   9.607  67.338  1.00  0.00    -0.257 C  
HETATM   15  C   UNL     1     -10.842   8.148  70.864  1.00  0.00    -0.254 C  
HETATM   16  C   UNL     1     -10.306   9.089  69.764  1.00  0.00    -0.211 C  
HETATM   17  N   UNL     1     -10.678   8.630  68.424  1.00  0.00    -0.111 NA 
BRANCH   4  18
HETATM   18  O   UNL     1      -9.462   2.707  69.866  1.00  0.00    -0.139 OA 
HETATM   19  C   UNL     1      -9.089   2.391  68.526  1.00  0.00    -0.154 C  
ENDBRANCH   4  18
BRANCH  12  20
HETATM   20  C   UNL     1      -8.992  10.255  65.247  1.00  0.00    -0.214 C  
HETATM   21  C   UNL     1     -10.294  10.844  64.686  1.00  0.00    -0.407 C  
HETATM   22  C   UNL     1      -9.997  11.523  63.341  1.00  0.00    -0.445 C  
HETATM   23  C   UNL     1     -10.935  11.864  65.628  1.00  0.00    -0.353 C  
ENDBRANCH  12  20
ENDBRANCH   2   3
TORSDOF 3
ENDMDL
MODEL      102
REMARK 921   NORMALIZED FREE ENERGY PREDICTED BY IDOCK:   -3.40 KCAL/MOL
REMARK 922        TOTAL FREE ENERGY PREDICTED BY IDOCK:   -4.34 KCAL/MOL
REMARK 923 INTER-LIGAND FREE ENERGY PREDICTED BY IDOCK:   -4.01 KCAL/MOL
REMARK 924 INTRA-LIGAND FREE ENERGY PREDICTED BY IDOCK:   -0.32 KCAL/MOL
REMARK 927      BINDING AFFINITY PREDICTED BY RF-SCORE:    0.00 PKD
ROOT
HETATM    1  C   UNL     1      -8.535   5.138  62.346  1.00  0.00    -0.114 C  
HETATM    2  O   UNL     1      -7.634   6.240  62.334  1.00  0.00    -0.059 OA 
ENDROOT
BRANCH   2   3
HETATM    3  C   UNL     1      -7.786   7.174  63.330  1.00  0.00    -0.119 A  
HETATM    4  C   UNL     1      -7.329   7.078  64.651  1.00  0.00    -0.090 A  
HETATM    5  C   UNL     1      -7.565   8.147  65.519  1.00  0.00    -0.087 A  
HETATM    6  C   UNL     1      -8.529   8.300  62.936  1.00  0.00    -0.021 A  
HETATM    7  C   UNL     1      -8.360   9.248  65.150  1.00  0.00    -0.155 A  
HETATM    8  C   UNL     1      -8.836   9.331  63.844  1.00  0.00    -0.160 A  
HETATM    9  C   UNL     1      -8.765  10.248  66.227  1.00  0.00    -0.146 C  
HETATM   10  C   UNL     1      -9.567   9.480  67.279  1.00  0.00    -0.192 C  
HETATM   11  C   UNL     1      -9.836  10.444  68.379  1.00  0.00    -0.162 C  
HETATM   12  C   UNL     1     -10.748  11.586  67.989  1.00  0.00    -0.241 C  
HETATM   13  O   UNL     1      -9.336  10.301  69.491  1.00  0.00    -0.213 OA 
HETATM   14  C   UNL     1     -10.060  12.302  66.808  1.00  0.00    -0.209 C  
HETATM   15  C   UNL     1      -9.603  10.553  63.420  1.00  0.00    -0.376 C  
HETATM   16  C   UNL     1     -10.354  11.209  64.598  1.00  0.00    -0.330 C  
HETATM   17  N   UNL     1      -9.471  11.456  65.740  1.00  0.00    -0.229 NA 
BRANCH   4  18
HETATM   18  O   UNL     1      -6.681   5.942  65.064  1.00  0.00    -0.042 OA 
HETATM   19  C   UNL     1      -7.194   5.308  66.234  1.00  0.00    -0.073 C  
ENDBRANCH   4  18
BRANCH  12  20
HETATM   20  C   UNL     1     -11.004  12.456  69.236  1.00  0.00    -0.145 C  
HETATM   21  C   UNL     1     -12.396  12.384  69.879  1.00  0.00    -0.117 C  
HETATM   22  C   UNL     1     -12.446  13.349  71.073  1.00  0.00    -0.437 C  
HETATM   23  C   UNL     1     -12.752  10.977  70.362  1.00  0.00    -0.297 C  
ENDBRANCH  12  20
ENDBRANCH   2   3
TORSDOF 3
ENDMDL
MODEL      103
REMARK 921   NORMALIZED FREE ENERGY PREDICTED BY IDOCK:   -3.40 KCAL/MOL
REMARK 922        TOTAL FREE ENERGY PREDICTED BY IDOCK:   -4.33 KCAL/MOL
REMARK 923 INTER-LIGAND FREE ENERGY PREDICTED BY IDOCK:   -4.93 KCAL/MOL
REMARK 924 INTRA-LIGAND FREE ENERGY PREDICTED BY IDOCK:    0.60 KCAL/MOL
REMARK 927      BINDING AFFINITY PREDICTED BY RF-SCORE:    0.00 PKD
ROOT
HETATM    1  C   UNL     1      -8.852  18.342  66.519  1.00  0.00    -0.278 C  
HETATM    2  O   UNL     1      -8.715  17.149  65.755  1.00  0.00    -0.527 OA 
ENDROOT
BRANCH   2   3
HETATM    3  C   UNL     1      -8.777  15.962  66.445  1.00  0.00    -0.327 A  
HETATM    4  C   UNL     1      -7.696  15.190  66.890  1.00  0.00    -0.016 A  
HETATM    5  C   UNL     1      -7.962  14.015  67.597  1.00  0.00    -0.186 A  
HETATM    6  C   UNL     1     -10.089  15.501  66.653  1.00  0.00    -0.275 A  
HETATM    7  C   UNL     1      -9.268  13.516  67.756  1.00  0.00    -0.213 A  
HETATM    8  C   UNL     1     -10.342  14.272  67.291  1.00  0.00    -0.260 A  
HETATM    9  C   UNL     1      -9.448  12.115  68.327  1.00  0.00    -0.204 C  
HETATM   10  C   UNL     1      -8.737  11.145  67.381  1.00  0.00    -0.133 C  
HETATM   11  C   UNL     1      -8.814   9.807  68.026  1.00  0.00    -0.119 C  
HETATM   12  C   UNL     1     -10.217   9.252  68.128  1.00  0.00    -0.246 C  
HETATM   13  O   UNL     1      -7.807   9.237  68.438  1.00  0.00    -0.093 OA 
HETATM   14  C   UNL     1     -11.030  10.282  68.939  1.00  0.00    -0.238 C  
HETATM   15  C   UNL     1     -11.742  13.788  67.546  1.00  0.00    -0.410 C  
HETATM   16  C   UNL     1     -11.820  12.251  67.648  1.00  0.00    -0.264 C  
HETATM   17  N   UNL     1     -10.848  11.717  68.605  1.00  0.00    -0.202 NA 
BRANCH   4  18
HETATM   18  O   UNL     1      -6.415  15.591  66.610  1.00  0.00     0.031 OA 
HETATM   19  C   UNL     1      -5.795  16.449  67.566  1.00  0.00    -0.155 C  
ENDBRANCH   4  18
BRANCH  12  20
HETATM   20  C   UNL     1     -10.140   7.837  68.738  1.00  0.00    -0.205 C  
HETATM   21  C   UNL     1      -9.491   7.694  70.122  1.00  0.00    -0.161 C  
HETATM   22  C   UNL     1      -9.485   6.210  70.520  1.00  0.00    -0.182 C  
HETATM   23  C   UNL     1     -10.220   8.494  71.202  1.00  0.00    -0.272 C  
ENDBRANCH  12  20
ENDBRANCH   2   3
TORSDOF 3
ENDMDL
MODEL      104
REMARK 921   NORMALIZED FREE ENERGY PREDICTED BY IDOCK:   -3.40 KCAL/MOL
REMARK 922        TOTAL FREE ENERGY PREDICTED BY IDOCK:   -4.33 KCAL/MOL
REMARK 923 INTER-LIGAND FREE ENERGY PREDICTED BY IDOCK:   -4.09 KCAL/MOL
REMARK 924 INTRA-LIGAND FREE ENERGY PREDICTED BY IDOCK:   -0.24 KCAL/MOL
REMARK 927      BINDING AFFINITY PREDICTED BY RF-SCORE:    0.00 PKD
ROOT
HETATM    1  C   UNL     1      -5.744   3.950  66.197  1.00  0.00    -0.018 C  
HETATM    2  O   UNL     1      -5.776   5.341  65.892  1.00  0.00    -0.017 OA 
ENDROOT
BRANCH   2   3
HETATM    3  C   UNL     1      -6.869   6.045  66.335  1.00  0.00    -0.062 A  
HETATM    4  C   UNL     1      -7.805   6.731  65.549  1.00  0.00    -0.112 A  
HETATM    5  C   UNL     1      -8.866   7.377  66.186  1.00  0.00    -0.185 A  
HETATM    6  C   UNL     1      -6.978   6.090  67.736  1.00  0.00    -0.069 A  
HETATM    7  C   UNL     1      -8.948   7.478  67.588  1.00  0.00    -0.127 A  
HETATM    8  C   UNL     1      -8.003   6.818  68.370  1.00  0.00    -0.115 A  
HETATM    9  C   UNL     1     -10.000   8.400  68.192  1.00  0.00    -0.191 C  
HETATM   10  C   UNL     1      -9.711   9.813  67.682  1.00  0.00    -0.186 C  
HETATM   11  C   UNL     1     -10.823  10.668  68.177  1.00  0.00    -0.245 C  
HETATM   12  C   UNL     1     -10.859  10.824  69.680  1.00  0.00    -0.294 C  
HETATM   13  O   UNL     1     -11.631  11.176  67.404  1.00  0.00    -0.522 OA 
HETATM   14  C   UNL     1     -10.983   9.399  70.258  1.00  0.00    -0.262 C  
HETATM   15  C   UNL     1      -8.144   6.843  69.866  1.00  0.00    -0.125 C  
HETATM   16  C   UNL     1      -8.859   8.117  70.365  1.00  0.00    -0.141 C  
HETATM   17  N   UNL     1     -10.127   8.340  69.667  1.00  0.00    -0.194 NA 
BRANCH   4  18
HETATM   18  O   UNL     1      -7.651   6.764  64.187  1.00  0.00    -0.091 OA 
HETATM   19  C   UNL     1      -7.507   8.054  63.596  1.00  0.00    -0.118 C  
ENDBRANCH   4  18
BRANCH  12  20
HETATM   20  C   UNL     1     -12.003  11.792  70.044  1.00  0.00    -0.421 C  
HETATM   21  C   UNL     1     -11.628  13.244  70.373  1.00  0.00    -0.018 C  
HETATM   22  C   UNL     1     -12.903  14.018  70.741  1.00  0.00    -0.355 C  
HETATM   23  C   UNL     1     -10.935  13.953  69.209  1.00  0.00    -0.222 C  
ENDBRANCH  12  20
ENDBRANCH   2   3
TORSDOF 3
ENDMDL
MODEL      105
REMARK 921   NORMALIZED FREE ENERGY PREDICTED BY IDOCK:   -3.33 KCAL/MOL
REMARK 922        TOTAL FREE ENERGY PREDICTED BY IDOCK:   -4.25 KCAL/MOL
REMARK 923 INTER-LIGAND FREE ENERGY PREDICTED BY IDOCK:   -4.84 KCAL/MOL
REMARK 924 INTRA-LIGAND FREE ENERGY PREDICTED BY IDOCK:    0.59 KCAL/MOL
REMARK 927      BINDING AFFINITY PREDICTED BY RF-SCORE:    0.00 PKD
ROOT
HETATM    1  C   UNL     1     -14.366   8.836  72.315  1.00  0.00    -0.380 C  
HETATM    2  O   UNL     1     -13.016   9.242  72.513  1.00  0.00    -0.393 OA 
ENDROOT
BRANCH   2   3
HETATM    3  C   UNL     1     -12.185   9.177  71.420  1.00  0.00    -0.335 A  
HETATM    4  C   UNL     1     -11.191   8.221  71.174  1.00  0.00    -0.258 A  
HETATM    5  C   UNL     1     -10.457   8.312  69.990  1.00  0.00    -0.231 A  
HETATM    6  C   UNL     1     -12.365  10.236  70.514  1.00  0.00    -0.371 A  
HETATM    7  C   UNL     1     -10.588   9.401  69.108  1.00  0.00    -0.234 A  
HETATM    8  C   UNL     1     -11.560  10.366  69.367  1.00  0.00    -0.272 A  
HETATM    9  C   UNL     1      -9.586   9.543  67.970  1.00  0.00    -0.137 C  
HETATM   10  C   UNL     1      -8.199   9.675  68.602  1.00  0.00    -0.105 C  
HETATM   11  C   UNL     1      -7.229   9.680  67.474  1.00  0.00    -0.090 C  
HETATM   12  C   UNL     1      -7.335  10.891  66.575  1.00  0.00    -0.142 C  
HETATM   13  O   UNL     1      -6.434   8.759  67.311  1.00  0.00    -0.056 OA 
HETATM   14  C   UNL     1      -8.781  10.901  66.036  1.00  0.00    -0.186 C  
HETATM   15  C   UNL     1     -11.769  11.478  68.377  1.00  0.00    -0.372 C  
HETATM   16  C   UNL     1     -10.481  11.816  67.597  1.00  0.00    -0.197 C  
HETATM   17  N   UNL     1      -9.875  10.624  66.998  1.00  0.00    -0.180 NA 
BRANCH   4  18
HETATM   18  O   UNL     1     -10.951   7.238  72.099  1.00  0.00    -0.225 OA 
HETATM   19  C   UNL     1     -11.837   6.120  72.082  1.00  0.00    -0.285 C  
ENDBRANCH   4  18
BRANCH  12  20
HETATM   20  C   UNL     1      -6.227  10.805  65.506  1.00  0.00    -0.044 C  
HETATM   21  C   UNL     1      -6.429   9.813  64.351  1.00  0.00    -0.117 C  
HETATM   22  C   UNL     1      -5.200   9.862  63.430  1.00  0.00    -0.087 C  
HETATM   23  C   UNL     1      -7.680  10.113  63.526  1.00  0.00    -0.144 C  
ENDBRANCH  12  20
ENDBRANCH   2   3
TORSDOF 3
ENDMDL
MODEL      106
REMARK 921   NORMALIZED FREE ENERGY PREDICTED BY IDOCK:   -3.26 KCAL/MOL
REMARK 922        TOTAL FREE ENERGY PREDICTED BY IDOCK:   -4.17 KCAL/MOL
REMARK 923 INTER-LIGAND FREE ENERGY PREDICTED BY IDOCK:   -4.16 KCAL/MOL
REMARK 924 INTRA-LIGAND FREE ENERGY PREDICTED BY IDOCK:   -0.01 KCAL/MOL
REMARK 927      BINDING AFFINITY PREDICTED BY RF-SCORE:    0.00 PKD
ROOT
HETATM    1  C   UNL     1     -11.167   4.317  73.388  1.00  0.00    -0.268 C  
HETATM    2  O   UNL     1     -11.662   5.522  72.815  1.00  0.00    -0.297 OA 
ENDROOT
BRANCH   2   3
HETATM    3  C   UNL     1     -10.911   6.082  71.810  1.00  0.00    -0.269 A  
HETATM    4  C   UNL     1     -10.576   7.434  71.662  1.00  0.00    -0.205 A  
HETATM    5  C   UNL     1      -9.782   7.810  70.576  1.00  0.00    -0.175 A  
HETATM    6  C   UNL     1     -10.508   5.159  70.829  1.00  0.00    -0.263 A  
HETATM    7  C   UNL     1      -9.426   6.904  69.559  1.00  0.00    -0.146 A  
HETATM    8  C   UNL     1      -9.782   5.564  69.693  1.00  0.00    -0.230 A  
HETATM    9  C   UNL     1      -8.767   7.447  68.297  1.00  0.00    -0.122 C  
HETATM   10  C   UNL     1      -9.749   8.433  67.662  1.00  0.00    -0.201 C  
HETATM   11  C   UNL     1      -9.034   9.045  66.510  1.00  0.00    -0.146 C  
HETATM   12  C   UNL     1      -8.719   8.075  65.394  1.00  0.00    -0.101 C  
HETATM   13  O   UNL     1      -8.731  10.235  66.505  1.00  0.00    -0.129 OA 
HETATM   14  C   UNL     1      -7.861   6.959  66.023  1.00  0.00    -0.104 C  
HETATM   15  C   UNL     1      -9.320   4.577  68.658  1.00  0.00    -0.199 C  
HETATM   16  C   UNL     1      -9.132   5.229  67.272  1.00  0.00    -0.112 C  
HETATM   17  N   UNL     1      -8.287   6.423  67.340  1.00  0.00    -0.113 NA 
BRANCH   4  18
HETATM   18  O   UNL     1     -11.042   8.352  72.568  1.00  0.00    -0.361 OA 
HETATM   19  C   UNL     1     -11.954   9.329  72.070  1.00  0.00    -0.321 C  
ENDBRANCH   4  18
BRANCH  12  20
HETATM   20  C   UNL     1      -8.056   8.854  64.240  1.00  0.00    -0.158 C  
HETATM   21  C   UNL     1      -6.881   8.185  63.513  1.00  0.00    -0.076 C  
HETATM   22  C   UNL     1      -6.349   9.142  62.435  1.00  0.00    -0.094 C  
HETATM   23  C   UNL     1      -7.270   6.861  62.855  1.00  0.00    -0.067 C  
ENDBRANCH  12  20
ENDBRANCH   2   3
TORSDOF 3
ENDMDL
MODEL      107
REMARK 921   NORMALIZED FREE ENERGY PREDICTED BY IDOCK:   -3.25 KCAL/MOL
REMARK 922        TOTAL FREE ENERGY PREDICTED BY IDOCK:   -4.16 KCAL/MOL
REMARK 923 INTER-LIGAND FREE ENERGY PREDICTED BY IDOCK:   -3.86 KCAL/MOL
REMARK 924 INTRA-LIGAND FREE ENERGY PREDICTED BY IDOCK:   -0.30 KCAL/MOL
REMARK 927      BINDING AFFINITY PREDICTED BY RF-SCORE:    0.00 PKD
ROOT
HETATM    1  C   UNL     1      -6.784  13.419  67.504  1.00  0.00    -0.140 C  
HETATM    2  O   UNL     1      -7.460  13.208  68.739  1.00  0.00    -0.108 OA 
ENDROOT
BRANCH   2   3
HETATM    3  C   UNL     1      -7.990  11.957  68.947  1.00  0.00     0.040 A  
HETATM    4  C   UNL     1      -9.277  11.521  68.607  1.00  0.00    -0.132 A  
HETATM    5  C   UNL     1      -9.629  10.198  68.884  1.00  0.00    -0.186 A  
HETATM    6  C   UNL     1      -7.120  11.083  69.622  1.00  0.00    -0.089 A  
HETATM    7  C   UNL     1      -8.787   9.336  69.612  1.00  0.00    -0.159 A  
HETATM    8  C   UNL     1      -7.516   9.779  69.973  1.00  0.00    -0.158 A  
HETATM    9  C   UNL     1      -9.342   7.996  70.076  1.00  0.00    -0.156 C  
HETATM   10  C   UNL     1     -10.536   8.290  70.986  1.00  0.00    -0.241 C  
HETATM   11  C   UNL     1     -11.138   6.972  71.319  1.00  0.00    -0.252 C  
HETATM   12  C   UNL     1     -10.250   6.083  72.160  1.00  0.00    -0.222 C  
HETATM   13  O   UNL     1     -12.256   6.661  70.919  1.00  0.00    -0.368 OA 
HETATM   14  C   UNL     1      -8.949   5.887  71.354  1.00  0.00    -0.140 C  
HETATM   15  C   UNL     1      -6.579   8.828  70.665  1.00  0.00    -0.045 C  
HETATM   16  C   UNL     1      -7.331   7.765  71.493  1.00  0.00    -0.069 C  
HETATM   17  N   UNL     1      -8.358   7.082  70.703  1.00  0.00    -0.125 NA 
BRANCH   4  18
HETATM   18  O   UNL     1     -10.160  12.398  68.030  1.00  0.00    -0.202 OA 
HETATM   19  C   UNL     1     -11.313  12.736  68.798  1.00  0.00    -0.288 C  
ENDBRANCH   4  18
BRANCH  12  20
HETATM   20  C   UNL     1     -11.025   4.793  72.495  1.00  0.00    -0.171 C  
HETATM   21  C   UNL     1     -10.238   3.631  73.117  1.00  0.00    -0.227 C  
HETATM   22  C   UNL     1     -11.187   2.442  73.333  1.00  0.00    -0.285 C  
HETATM   23  C   UNL     1      -9.594   4.002  74.453  1.00  0.00    -0.138 C  
ENDBRANCH  12  20
ENDBRANCH   2   3
TORSDOF 3
ENDMDL
MODEL      108
REMARK 921   NORMALIZED FREE ENERGY PREDICTED BY IDOCK:   -3.24 KCAL/MOL
REMARK 922        TOTAL FREE ENERGY PREDICTED BY IDOCK:   -4.15 KCAL/MOL
REMARK 923 INTER-LIGAND FREE ENERGY PREDICTED BY IDOCK:   -3.80 KCAL/MOL
REMARK 924 INTRA-LIGAND FREE ENERGY PREDICTED BY IDOCK:   -0.35 KCAL/MOL
REMARK 927      BINDING AFFINITY PREDICTED BY RF-SCORE:    0.00 PKD
ROOT
HETATM    1  C   UNL     1      -9.959   5.963  71.000  1.00  0.00    -0.190 C  
HETATM    2  O   UNL     1     -10.339   6.107  69.636  1.00  0.00    -0.184 OA 
ENDROOT
BRANCH   2   3
HETATM    3  C   UNL     1      -9.934   7.255  69.000  1.00  0.00    -0.177 A  
HETATM    4  C   UNL     1      -8.744   7.447  68.284  1.00  0.00    -0.122 A  
HETATM    5  C   UNL     1      -8.517   8.690  67.688  1.00  0.00    -0.125 A  
HETATM    6  C   UNL     1     -10.824   8.331  69.161  1.00  0.00    -0.036 A  
HETATM    7  C   UNL     1      -9.373   9.788  67.896  1.00  0.00    -0.139 A  
HETATM    8  C   UNL     1     -10.543   9.603  68.629  1.00  0.00    -0.246 A  
HETATM    9  C   UNL     1      -8.927  11.161  67.409  1.00  0.00    -0.139 C  
HETATM   10  C   UNL     1      -7.623  11.497  68.134  1.00  0.00    -0.113 C  
HETATM   11  C   UNL     1      -7.142  12.777  67.548  1.00  0.00    -0.148 C  
HETATM   12  C   UNL     1      -8.034  13.962  67.838  1.00  0.00    -0.160 C  
HETATM   13  O   UNL     1      -6.111  12.827  66.882  1.00  0.00    -0.207 OA 
HETATM   14  C   UNL     1      -9.423  13.604  67.270  1.00  0.00    -0.230 C  
HETATM   15  C   UNL     1     -11.506  10.749  68.770  1.00  0.00    -0.364 C  
HETATM   16  C   UNL     1     -10.798  12.119  68.708  1.00  0.00    -0.228 C  
HETATM   17  N   UNL     1      -9.940  12.237  67.527  1.00  0.00    -0.197 NA 
BRANCH   4  18
HETATM   18  O   UNL     1      -7.831   6.427  68.200  1.00  0.00    -0.102 OA 
HETATM   19  C   UNL     1      -6.822   6.393  69.207  1.00  0.00    -0.065 C  
ENDBRANCH   4  18
BRANCH  12  20
HETATM   20  C   UNL     1      -7.379  15.225  67.244  1.00  0.00    -0.230 C  
HETATM   21  C   UNL     1      -6.726  16.214  68.222  1.00  0.00    -0.127 C  
HETATM   22  C   UNL     1      -6.172  17.408  67.430  1.00  0.00    -0.166 C  
HETATM   23  C   UNL     1      -5.591  15.583  69.029  1.00  0.00    -0.103 C  
ENDBRANCH  12  20
ENDBRANCH   2   3
TORSDOF 3
ENDMDL
MODEL      109
REMARK 921   NORMALIZED FREE ENERGY PREDICTED BY IDOCK:   -3.21 KCAL/MOL
REMARK 922        TOTAL FREE ENERGY PREDICTED BY IDOCK:   -4.11 KCAL/MOL
REMARK 923 INTER-LIGAND FREE ENERGY PREDICTED BY IDOCK:   -3.75 KCAL/MOL
REMARK 924 INTRA-LIGAND FREE ENERGY PREDICTED BY IDOCK:   -0.36 KCAL/MOL
REMARK 927      BINDING AFFINITY PREDICTED BY RF-SCORE:    0.00 PKD
ROOT
HETATM    1  C   UNL     1     -10.980   3.477  73.638  1.00  0.00    -0.238 C  
HETATM    2  O   UNL     1      -9.981   4.471  73.845  1.00  0.00    -0.142 OA 
ENDROOT
BRANCH   2   3
HETATM    3  C   UNL     1      -9.410   5.017  72.722  1.00  0.00    -0.135 A  
HETATM    4  C   UNL     1      -8.549   6.121  72.666  1.00  0.00    -0.124 A  
HETATM    5  C   UNL     1      -8.053   6.518  71.422  1.00  0.00    -0.112 A  
HETATM    6  C   UNL     1      -9.810   4.392  71.527  1.00  0.00    -0.259 A  
HETATM    7  C   UNL     1      -8.495   5.937  70.219  1.00  0.00    -0.127 A  
HETATM    8  C   UNL     1      -9.372   4.857  70.273  1.00  0.00    -0.216 A  
HETATM    9  C   UNL     1      -8.088   6.587  68.903  1.00  0.00    -0.115 C  
HETATM   10  C   UNL     1      -8.640   8.014  68.912  1.00  0.00    -0.131 C  
HETATM   11  C   UNL     1      -8.120   8.667  67.681  1.00  0.00    -0.107 C  
HETATM   12  C   UNL     1      -8.657   8.078  66.397  1.00  0.00    -0.155 C  
HETATM   13  O   UNL     1      -7.316   9.594  67.741  1.00  0.00    -0.085 OA 
HETATM   14  C   UNL     1      -8.269   6.585  66.413  1.00  0.00    -0.116 C  
HETATM   15  C   UNL     1      -9.770   4.172  68.995  1.00  0.00    -0.188 C  
HETATM   16  C   UNL     1      -9.740   5.130  67.785  1.00  0.00    -0.148 C  
HETATM   17  N   UNL     1      -8.463   5.838  67.681  1.00  0.00    -0.104 NA 
BRANCH   4  18
HETATM   18  O   UNL     1      -8.227   6.789  73.820  1.00  0.00    -0.108 OA 
HETATM   19  C   UNL     1      -8.529   8.183  73.851  1.00  0.00    -0.241 C  
ENDBRANCH   4  18
BRANCH  12  20
HETATM   20  C   UNL     1      -8.102   8.897  65.214  1.00  0.00    -0.126 C  
HETATM   21  C   UNL     1      -9.115   9.572  64.278  1.00  0.00    -0.220 C  
HETATM   22  C   UNL     1      -8.356  10.296  63.157  1.00  0.00    -0.167 C  
HETATM   23  C   UNL     1     -10.009  10.578  65.004  1.00  0.00    -0.388 C  
ENDBRANCH  12  20
ENDBRANCH   2   3
TORSDOF 3
ENDMDL
MODEL      110
REMARK 921   NORMALIZED FREE ENERGY PREDICTED BY IDOCK:   -3.20 KCAL/MOL
REMARK 922        TOTAL FREE ENERGY PREDICTED BY IDOCK:   -4.09 KCAL/MOL
REMARK 923 INTER-LIGAND FREE ENERGY PREDICTED BY IDOCK:   -3.95 KCAL/MOL
REMARK 924 INTRA-LIGAND FREE ENERGY PREDICTED BY IDOCK:   -0.14 KCAL/MOL
REMARK 927      BINDING AFFINITY PREDICTED BY RF-SCORE:    0.00 PKD
ROOT
HETATM    1  C   UNL     1      -5.946   3.433  65.217  1.00  0.00    -0.023 C  
HETATM    2  O   UNL     1      -6.871   3.967  64.275  1.00  0.00    -0.043 OA 
ENDROOT
BRANCH   2   3
HETATM    3  C   UNL     1      -7.458   5.166  64.598  1.00  0.00    -0.072 A  
HETATM    4  C   UNL     1      -7.074   6.439  64.156  1.00  0.00    -0.057 A  
HETATM    5  C   UNL     1      -7.812   7.545  64.582  1.00  0.00    -0.130 A  
HETATM    6  C   UNL     1      -8.520   5.044  65.512  1.00  0.00    -0.134 A  
HETATM    7  C   UNL     1      -8.835   7.437  65.543  1.00  0.00     0.002 A  
HETATM    8  C   UNL     1      -9.200   6.174  66.003  1.00  0.00    -0.116 A  
HETATM    9  C   UNL     1      -9.424   8.715  66.127  1.00  0.00    -0.240 C  
HETATM   10  C   UNL     1      -8.281   9.470  66.809  1.00  0.00    -0.113 C  
HETATM   11  C   UNL     1      -8.851  10.770  67.255  1.00  0.00    -0.133 C  
HETATM   12  C   UNL     1      -9.900  10.644  68.336  1.00  0.00    -0.170 C  
HETATM   13  O   UNL     1      -8.487  11.832  66.757  1.00  0.00    -0.176 OA 
HETATM   14  C   UNL     1     -11.011   9.745  67.757  1.00  0.00    -0.180 C  
HETATM   15  C   UNL     1     -10.357   6.048  66.955  1.00  0.00    -0.303 C  
HETATM   16  C   UNL     1     -10.538   7.309  67.826  1.00  0.00    -0.221 C  
HETATM   17  N   UNL     1     -10.594   8.528  67.016  1.00  0.00    -0.290 NA 
BRANCH   4  18
HETATM   18  O   UNL     1      -5.984   6.571  63.335  1.00  0.00    -0.032 OA 
HETATM   19  C   UNL     1      -5.916   7.763  62.554  1.00  0.00    -0.068 C  
ENDBRANCH   4  18
BRANCH  12  20
HETATM   20  C   UNL     1     -10.342  12.061  68.756  1.00  0.00    -0.181 C  
HETATM   21  C   UNL     1     -11.783  12.237  69.256  1.00  0.00    -0.388 C  
HETATM   22  C   UNL     1     -12.021  13.719  69.582  1.00  0.00    -0.399 C  
HETATM   23  C   UNL     1     -12.082  11.400  70.500  1.00  0.00    -0.487 C  
ENDBRANCH  12  20
ENDBRANCH   2   3
TORSDOF 3
ENDMDL
MODEL      111
REMARK 921   NORMALIZED FREE ENERGY PREDICTED BY IDOCK:   -3.12 KCAL/MOL
REMARK 922        TOTAL FREE ENERGY PREDICTED BY IDOCK:   -4.00 KCAL/MOL
REMARK 923 INTER-LIGAND FREE ENERGY PREDICTED BY IDOCK:   -4.57 KCAL/MOL
REMARK 924 INTRA-LIGAND FREE ENERGY PREDICTED BY IDOCK:    0.56 KCAL/MOL
REMARK 927      BINDING AFFINITY PREDICTED BY RF-SCORE:    0.00 PKD
ROOT
HETATM    1  C   UNL     1     -10.746  16.445  65.395  1.00  0.00    -0.296 C  
HETATM    2  O   UNL     1     -11.431  15.436  66.129  1.00  0.00    -0.178 OA 
ENDROOT
BRANCH   2   3
HETATM    3  C   UNL     1     -10.924  14.162  66.050  1.00  0.00    -0.304 A  
HETATM    4  C   UNL     1     -11.544  13.042  65.482  1.00  0.00    -0.347 A  
HETATM    5  C   UNL     1     -10.856  11.827  65.480  1.00  0.00    -0.348 A  
HETATM    6  C   UNL     1      -9.669  14.018  66.667  1.00  0.00    -0.296 A  
HETATM    7  C   UNL     1      -9.628  11.661  66.148  1.00  0.00    -0.252 A  
HETATM    8  C   UNL     1      -9.024  12.769  66.736  1.00  0.00    -0.188 A  
HETATM    9  C   UNL     1      -9.066  10.253  66.301  1.00  0.00    -0.154 C  
HETATM   10  C   UNL     1     -10.093   9.439  67.092  1.00  0.00    -0.292 C  
HETATM   11  C   UNL     1      -9.584   8.042  67.115  1.00  0.00    -0.175 C  
HETATM   12  C   UNL     1      -8.301   7.864  67.894  1.00  0.00    -0.126 C  
HETATM   13  O   UNL     1     -10.174   7.137  66.530  1.00  0.00    -0.173 OA 
HETATM   14  C   UNL     1      -7.265   8.799  67.236  1.00  0.00    -0.080 C  
HETATM   15  C   UNL     1      -7.667  12.615  67.365  1.00  0.00    -0.161 C  
HETATM   16  C   UNL     1      -7.428  11.186  67.898  1.00  0.00    -0.094 C  
HETATM   17  N   UNL     1      -7.705  10.171  66.879  1.00  0.00    -0.102 NA 
BRANCH   4  18
HETATM   18  O   UNL     1     -12.806  13.158  64.959  1.00  0.00    -0.692 OA 
HETATM   19  C   UNL     1     -13.104  12.340  63.829  1.00  0.00    -0.038 C  
ENDBRANCH   4  18
BRANCH  12  20
HETATM   20  C   UNL     1      -7.935   6.367  67.902  1.00  0.00    -0.111 C  
HETATM   21  C   UNL     1      -7.261   5.793  66.647  1.00  0.00    -0.074 C  
HETATM   22  C   UNL     1      -7.021   4.289  66.852  1.00  0.00    -0.059 C  
HETATM   23  C   UNL     1      -5.928   6.471  66.330  1.00  0.00    -0.025 C  
ENDBRANCH  12  20
ENDBRANCH   2   3
TORSDOF 3
ENDMDL
MODEL      112
REMARK 921   NORMALIZED FREE ENERGY PREDICTED BY IDOCK:   -3.08 KCAL/MOL
REMARK 922        TOTAL FREE ENERGY PREDICTED BY IDOCK:   -3.95 KCAL/MOL
REMARK 923 INTER-LIGAND FREE ENERGY PREDICTED BY IDOCK:   -3.65 KCAL/MOL
REMARK 924 INTRA-LIGAND FREE ENERGY PREDICTED BY IDOCK:   -0.30 KCAL/MOL
REMARK 927      BINDING AFFINITY PREDICTED BY RF-SCORE:    0.00 PKD
ROOT
HETATM    1  C   UNL     1      -8.383  15.763  66.517  1.00  0.00    -0.278 C  
HETATM    2  O   UNL     1      -8.606  15.376  67.869  1.00  0.00    -0.152 OA 
ENDROOT
BRANCH   2   3
HETATM    3  C   UNL     1      -8.527  14.033  68.147  1.00  0.00    -0.172 A  
HETATM    4  C   UNL     1      -7.385  13.318  68.533  1.00  0.00    -0.115 A  
HETATM    5  C   UNL     1      -7.510  11.951  68.792  1.00  0.00    -0.100 A  
HETATM    6  C   UNL     1      -9.741  13.348  67.960  1.00  0.00    -0.222 A  
HETATM    7  C   UNL     1      -8.704  11.248  68.549  1.00  0.00    -0.156 A  
HETATM    8  C   UNL     1      -9.833  11.955  68.140  1.00  0.00    -0.192 A  
HETATM    9  C   UNL     1      -8.684   9.727  68.629  1.00  0.00    -0.122 C  
HETATM   10  C   UNL     1      -7.681   9.231  67.586  1.00  0.00    -0.092 C  
HETATM   11  C   UNL     1      -7.583   7.759  67.773  1.00  0.00    -0.113 C  
HETATM   12  C   UNL     1      -8.852   7.008  67.442  1.00  0.00    -0.119 C  
HETATM   13  O   UNL     1      -6.548   7.234  68.176  1.00  0.00    -0.046 OA 
HETATM   14  C   UNL     1      -9.949   7.591  68.358  1.00  0.00    -0.170 C  
HETATM   15  C   UNL     1     -11.135  11.222  67.974  1.00  0.00    -0.325 C  
HETATM   16  C   UNL     1     -10.928   9.741  67.594  1.00  0.00    -0.162 C  
HETATM   17  N   UNL     1     -10.006   9.066  68.510  1.00  0.00    -0.170 NA 
BRANCH   4  18
HETATM   18  O   UNL     1      -6.180  13.965  68.630  1.00  0.00    -0.079 OA 
HETATM   19  C   UNL     1      -5.819  14.444  69.924  1.00  0.00    -0.122 C  
ENDBRANCH   4  18
BRANCH  12  20
HETATM   20  C   UNL     1      -8.585   5.498  67.602  1.00  0.00    -0.108 C  
HETATM   21  C   UNL     1      -9.633   4.527  67.040  1.00  0.00    -0.210 C  
HETATM   22  C   UNL     1      -9.190   3.087  67.338  1.00  0.00    -0.225 C  
HETATM   23  C   UNL     1      -9.835   4.683  65.533  1.00  0.00    -0.198 C  
ENDBRANCH  12  20
ENDBRANCH   2   3
TORSDOF 3
ENDMDL
MODEL      113
REMARK 921   NORMALIZED FREE ENERGY PREDICTED BY IDOCK:   -2.97 KCAL/MOL
REMARK 922        TOTAL FREE ENERGY PREDICTED BY IDOCK:   -3.82 KCAL/MOL
REMARK 923 INTER-LIGAND FREE ENERGY PREDICTED BY IDOCK:   -3.54 KCAL/MOL
REMARK 924 INTRA-LIGAND FREE ENERGY PREDICTED BY IDOCK:   -0.28 KCAL/MOL
REMARK 927      BINDING AFFINITY PREDICTED BY RF-SCORE:    0.00 PKD
ROOT
HETATM    1  C   UNL     1      -5.276  14.558  72.306  1.00  0.00    -0.161 C  
HETATM    2  O   UNL     1      -5.568  14.935  70.964  1.00  0.00    -0.137 OA 
ENDROOT
BRANCH   2   3
HETATM    3  C   UNL     1      -6.041  13.947  70.134  1.00  0.00    -0.147 A  
HETATM    4  C   UNL     1      -6.802  14.118  68.971  1.00  0.00    -0.110 A  
HETATM    5  C   UNL     1      -7.175  12.984  68.245  1.00  0.00    -0.113 A  
HETATM    6  C   UNL     1      -5.740  12.648  70.579  1.00  0.00    -0.169 A  
HETATM    7  C   UNL     1      -6.931  11.680  68.715  1.00  0.00    -0.098 A  
HETATM    8  C   UNL     1      -6.196  11.511  69.886  1.00  0.00    -0.147 A  
HETATM    9  C   UNL     1      -7.578  10.509  67.986  1.00  0.00    -0.091 C  
HETATM   10  C   UNL     1      -9.093  10.710  68.063  1.00  0.00    -0.147 C  
HETATM   11  C   UNL     1      -9.696   9.631  67.236  1.00  0.00    -0.166 C  
HETATM   12  C   UNL     1      -9.486   8.240  67.789  1.00  0.00    -0.171 C  
HETATM   13  O   UNL     1     -10.296   9.883  66.194  1.00  0.00    -0.230 OA 
HETATM   14  C   UNL     1      -7.959   8.043  67.891  1.00  0.00    -0.128 C  
HETATM   15  C   UNL     1      -5.850  10.119  70.338  1.00  0.00    -0.080 C  
HETATM   16  C   UNL     1      -6.895   9.079  69.881  1.00  0.00    -0.047 C  
HETATM   17  N   UNL     1      -7.157   9.164  68.443  1.00  0.00    -0.072 NA 
BRANCH   4  18
HETATM   18  O   UNL     1      -7.174  15.379  68.582  1.00  0.00    -0.113 OA 
HETATM   19  C   UNL     1      -8.437  15.843  69.055  1.00  0.00    -0.242 C  
ENDBRANCH   4  18
BRANCH  12  20
HETATM   20  C   UNL     1     -10.226   7.235  66.883  1.00  0.00    -0.340 C  
HETATM   21  C   UNL     1      -9.893   5.746  67.052  1.00  0.00    -0.171 C  
HETATM   22  C   UNL     1     -10.708   4.933  66.034  1.00  0.00    -0.247 C  
HETATM   23  C   UNL     1     -10.196   5.229  68.458  1.00  0.00    -0.214 C  
ENDBRANCH  12  20
ENDBRANCH   2   3
TORSDOF 3
ENDMDL
MODEL      114
REMARK 921   NORMALIZED FREE ENERGY PREDICTED BY IDOCK:   -2.83 KCAL/MOL
REMARK 922        TOTAL FREE ENERGY PREDICTED BY IDOCK:   -3.66 KCAL/MOL
REMARK 923 INTER-LIGAND FREE ENERGY PREDICTED BY IDOCK:   -3.37 KCAL/MOL
REMARK 924 INTRA-LIGAND FREE ENERGY PREDICTED BY IDOCK:   -0.30 KCAL/MOL
REMARK 927      BINDING AFFINITY PREDICTED BY RF-SCORE:    0.00 PKD
ROOT
HETATM    1  C   UNL     1     -10.430  13.988  65.463  1.00  0.00    -0.327 C  
HETATM    2  O   UNL     1      -9.952  14.289  66.770  1.00  0.00    -0.252 OA 
ENDROOT
BRANCH   2   3
HETATM    3  C   UNL     1      -9.429  13.243  67.492  1.00  0.00    -0.220 A  
HETATM    4  C   UNL     1      -8.073  12.948  67.685  1.00  0.00    -0.167 A  
HETATM    5  C   UNL     1      -7.736  11.845  68.472  1.00  0.00    -0.135 A  
HETATM    6  C   UNL     1     -10.406  12.385  68.026  1.00  0.00    -0.220 A  
HETATM    7  C   UNL     1      -8.705  10.948  68.959  1.00  0.00    -0.108 A  
HETATM    8  C   UNL     1     -10.052  11.227  68.744  1.00  0.00    -0.204 A  
HETATM    9  C   UNL     1      -8.237   9.647  69.600  1.00  0.00    -0.144 C  
HETATM   10  C   UNL     1      -7.444   8.879  68.541  1.00  0.00    -0.085 C  
HETATM   11  C   UNL     1      -6.890   7.682  69.227  1.00  0.00    -0.052 C  
HETATM   12  C   UNL     1      -7.938   6.692  69.684  1.00  0.00    -0.124 C  
HETATM   13  O   UNL     1      -5.681   7.546  69.401  1.00  0.00    -0.022 OA 
HETATM   14  C   UNL     1      -8.874   7.466  70.635  1.00  0.00    -0.150 C  
HETATM   15  C   UNL     1     -11.092  10.323  69.346  1.00  0.00    -0.299 C  
HETATM   16  C   UNL     1     -10.583   8.876  69.513  1.00  0.00    -0.228 C  
HETATM   17  N   UNL     1      -9.302   8.826  70.222  1.00  0.00    -0.165 NA 
BRANCH   4  18
HETATM   18  O   UNL     1      -7.117  13.731  67.090  1.00  0.00    -0.080 OA 
HETATM   19  C   UNL     1      -6.820  14.969  67.734  1.00  0.00    -0.170 C  
ENDBRANCH   4  18
BRANCH  12  20
HETATM   20  C   UNL     1      -7.224   5.473  70.300  1.00  0.00    -0.067 C  
HETATM   21  C   UNL     1      -7.618   4.081  69.782  1.00  0.00    -0.052 C  
HETATM   22  C   UNL     1      -6.820   3.018  70.552  1.00  0.00    -0.033 C  
HETATM   23  C   UNL     1      -7.357   3.913  68.286  1.00  0.00    -0.059 C  
ENDBRANCH  12  20
ENDBRANCH   2   3
TORSDOF 3
ENDMDL
MODEL      115
REMARK 921   NORMALIZED FREE ENERGY PREDICTED BY IDOCK:   -2.79 KCAL/MOL
REMARK 922        TOTAL FREE ENERGY PREDICTED BY IDOCK:   -3.61 KCAL/MOL
REMARK 923 INTER-LIGAND FREE ENERGY PREDICTED BY IDOCK:   -3.85 KCAL/MOL
REMARK 924 INTRA-LIGAND FREE ENERGY PREDICTED BY IDOCK:    0.24 KCAL/MOL
REMARK 927      BINDING AFFINITY PREDICTED BY RF-SCORE:    0.00 PKD
ROOT
HETATM    1  C   UNL     1      -6.419   3.980  66.205  1.00  0.00    -0.037 C  
HETATM    2  O   UNL     1      -7.669   3.944  66.887  1.00  0.00    -0.083 OA 
ENDROOT
BRANCH   2   3
HETATM    3  C   UNL     1      -8.223   5.154  67.226  1.00  0.00    -0.107 A  
HETATM    4  C   UNL     1      -9.516   5.602  66.926  1.00  0.00    -0.135 A  
HETATM    5  C   UNL     1      -9.906   6.865  67.376  1.00  0.00    -0.184 A  
HETATM    6  C   UNL     1      -7.334   6.011  67.899  1.00  0.00    -0.084 A  
HETATM    7  C   UNL     1      -9.005   7.751  67.996  1.00  0.00    -0.126 A  
HETATM    8  C   UNL     1      -7.711   7.315  68.271  1.00  0.00    -0.120 A  
HETATM    9  C   UNL     1      -9.446   9.189  68.237  1.00  0.00    -0.142 C  
HETATM   10  C   UNL     1      -9.767   9.799  66.871  1.00  0.00    -0.243 C  
HETATM   11  C   UNL     1     -10.317  11.154  67.142  1.00  0.00    -0.212 C  
HETATM   12  C   UNL     1      -9.319  12.117  67.745  1.00  0.00    -0.193 C  
HETATM   13  O   UNL     1     -11.489  11.429  66.897  1.00  0.00    -0.445 OA 
HETATM   14  C   UNL     1      -8.831  11.466  69.056  1.00  0.00     0.092 C  
HETATM   15  C   UNL     1      -6.776   8.223  69.020  1.00  0.00    -0.048 C  
HETATM   16  C   UNL     1      -7.093   9.714  68.781  1.00  0.00    -0.067 C  
HETATM   17  N   UNL     1      -8.505  10.019  69.026  1.00  0.00    -0.136 NA 
BRANCH   4  18
HETATM   18  O   UNL     1     -10.356   4.805  66.191  1.00  0.00    -0.265 OA 
HETATM   19  C   UNL     1      -9.796   4.187  65.035  1.00  0.00    -0.201 C  
ENDBRANCH   4  18
BRANCH  12  20
HETATM   20  C   UNL     1      -9.996  13.493  67.897  1.00  0.00    -0.245 C  
HETATM   21  C   UNL     1      -9.637  14.579  66.872  1.00  0.00    -0.258 C  
HETATM   22  C   UNL     1     -10.389  15.871  67.229  1.00  0.00    -0.293 C  
HETATM   23  C   UNL     1      -9.988  14.179  65.439  1.00  0.00    -0.321 C  
ENDBRANCH  12  20
ENDBRANCH   2   3
TORSDOF 3
ENDMDL
MODEL      116
REMARK 921   NORMALIZED FREE ENERGY PREDICTED BY IDOCK:   -2.74 KCAL/MOL
REMARK 922        TOTAL FREE ENERGY PREDICTED BY IDOCK:   -3.56 KCAL/MOL
REMARK 923 INTER-LIGAND FREE ENERGY PREDICTED BY IDOCK:   -4.11 KCAL/MOL
REMARK 924 INTRA-LIGAND FREE ENERGY PREDICTED BY IDOCK:    0.55 KCAL/MOL
REMARK 927      BINDING AFFINITY PREDICTED BY RF-SCORE:    0.00 PKD
ROOT
HETATM    1  C   UNL     1      -9.971  14.874  65.744  1.00  0.00    -0.347 C  
HETATM    2  O   UNL     1     -10.953  14.082  66.403  1.00  0.00    -0.303 OA 
ENDROOT
BRANCH   2   3
HETATM    3  C   UNL     1     -10.618  12.776  66.668  1.00  0.00    -0.256 A  
HETATM    4  C   UNL     1     -10.545  12.164  67.926  1.00  0.00    -0.207 A  
HETATM    5  C   UNL     1     -10.202  10.812  67.991  1.00  0.00    -0.203 A  
HETATM    6  C   UNL     1     -10.273  12.041  65.520  1.00  0.00    -0.290 A  
HETATM    7  C   UNL     1      -9.797  10.086  66.855  1.00  0.00    -0.248 A  
HETATM    8  C   UNL     1      -9.844  10.703  65.607  1.00  0.00    -0.307 A  
HETATM    9  C   UNL     1      -9.212   8.693  67.051  1.00  0.00    -0.151 C  
HETATM   10  C   UNL     1      -7.965   8.843  67.924  1.00  0.00    -0.102 C  
HETATM   11  C   UNL     1      -7.489   7.463  68.208  1.00  0.00    -0.109 C  
HETATM   12  C   UNL     1      -6.992   6.719  66.989  1.00  0.00    -0.070 C  
HETATM   13  O   UNL     1      -7.524   6.996  69.343  1.00  0.00    -0.092 OA 
HETATM   14  C   UNL     1      -8.172   6.683  65.996  1.00  0.00    -0.128 C  
HETATM   15  C   UNL     1      -9.506   9.901  64.381  1.00  0.00    -0.304 C  
HETATM   16  C   UNL     1      -8.507   8.764  64.684  1.00  0.00    -0.151 C  
HETATM   17  N   UNL     1      -8.949   7.933  65.806  1.00  0.00    -0.126 NA 
BRANCH   4  18
HETATM   18  O   UNL     1     -10.793  12.902  69.055  1.00  0.00    -0.223 OA 
HETATM   19  C   UNL     1     -12.098  12.782  69.617  1.00  0.00    -0.222 C  
ENDBRANCH   4  18
BRANCH  12  20
HETATM   20  C   UNL     1      -6.460   5.343  67.439  1.00  0.00    -0.051 C  
HETATM   21  C   UNL     1      -7.489   4.235  67.707  1.00  0.00    -0.069 C  
HETATM   22  C   UNL     1      -6.752   2.972  68.176  1.00  0.00    -0.044 C  
HETATM   23  C   UNL     1      -8.324   3.894  66.473  1.00  0.00    -0.104 C  
ENDBRANCH  12  20
ENDBRANCH   2   3
TORSDOF 3
ENDMDL
MODEL      117
REMARK 921   NORMALIZED FREE ENERGY PREDICTED BY IDOCK:   -2.73 KCAL/MOL
REMARK 922        TOTAL FREE ENERGY PREDICTED BY IDOCK:   -3.54 KCAL/MOL
REMARK 923 INTER-LIGAND FREE ENERGY PREDICTED BY IDOCK:   -3.26 KCAL/MOL
REMARK 924 INTRA-LIGAND FREE ENERGY PREDICTED BY IDOCK:   -0.28 KCAL/MOL
REMARK 927      BINDING AFFINITY PREDICTED BY RF-SCORE:    0.00 PKD
ROOT
HETATM    1  C   UNL     1      -6.652   1.754  65.688  1.00  0.00    -0.024 C  
HETATM    2  O   UNL     1      -7.974   2.169  66.016  1.00  0.00    -0.075 OA 
ENDROOT
BRANCH   2   3
HETATM    3  C   UNL     1      -8.105   3.404  66.603  1.00  0.00    -0.091 A  
HETATM    4  C   UNL     1      -8.215   3.679  67.972  1.00  0.00    -0.083 A  
HETATM    5  C   UNL     1      -8.323   5.011  68.380  1.00  0.00    -0.088 A  
HETATM    6  C   UNL     1      -8.182   4.461  65.678  1.00  0.00    -0.109 A  
HETATM    7  C   UNL     1      -8.461   6.066  67.459  1.00  0.00    -0.107 A  
HETATM    8  C   UNL     1      -8.378   5.790  66.097  1.00  0.00    -0.122 A  
HETATM    9  C   UNL     1      -8.813   7.452  67.987  1.00  0.00    -0.126 C  
HETATM   10  C   UNL     1     -10.160   7.335  68.704  1.00  0.00    -0.182 C  
HETATM   11  C   UNL     1     -10.417   8.664  69.320  1.00  0.00    -0.217 C  
HETATM   12  C   UNL     1     -10.633   9.777  68.319  1.00  0.00    -0.271 C  
HETATM   13  O   UNL     1     -10.433   8.811  70.539  1.00  0.00    -0.195 OA 
HETATM   14  C   UNL     1      -9.358   9.829  67.451  1.00  0.00    -0.134 C  
HETATM   15  C   UNL     1      -8.428   6.928  65.115  1.00  0.00    -0.029 C  
HETATM   16  C   UNL     1      -9.242   8.125  65.649  1.00  0.00     0.025 C  
HETATM   17  N   UNL     1      -8.795   8.539  66.980  1.00  0.00    -0.130 NA 
BRANCH   4  18
HETATM   18  O   UNL     1      -8.231   2.644  68.872  1.00  0.00    -0.054 OA 
HETATM   19  C   UNL     1      -9.464   2.411  69.551  1.00  0.00    -0.049 C  
ENDBRANCH   4  18
BRANCH  12  20
HETATM   20  C   UNL     1     -10.966  11.070  69.090  1.00  0.00    -0.289 C  
HETATM   21  C   UNL     1     -10.885  12.397  68.321  1.00  0.00    -0.264 C  
HETATM   22  C   UNL     1     -11.216  13.551  69.279  1.00  0.00    -0.285 C  
HETATM   23  C   UNL     1     -11.842  12.449  67.130  1.00  0.00    -0.361 C  
ENDBRANCH  12  20
ENDBRANCH   2   3
TORSDOF 3
ENDMDL
MODEL      118
REMARK 921   NORMALIZED FREE ENERGY PREDICTED BY IDOCK:   -2.52 KCAL/MOL
REMARK 922        TOTAL FREE ENERGY PREDICTED BY IDOCK:   -3.30 KCAL/MOL
REMARK 923 INTER-LIGAND FREE ENERGY PREDICTED BY IDOCK:   -3.05 KCAL/MOL
REMARK 924 INTRA-LIGAND FREE ENERGY PREDICTED BY IDOCK:   -0.25 KCAL/MOL
REMARK 927      BINDING AFFINITY PREDICTED BY RF-SCORE:    0.00 PKD
ROOT
HETATM    1  C   UNL     1      -8.366   2.633  69.286  1.00  0.00    -0.059 C  
HETATM    2  O   UNL     1      -8.343   2.819  67.874  1.00  0.00    -0.076 OA 
ENDROOT
BRANCH   2   3
HETATM    3  C   UNL     1      -8.283   4.115  67.423  1.00  0.00    -0.099 A  
HETATM    4  C   UNL     1      -7.146   4.799  66.974  1.00  0.00    -0.072 A  
HETATM    5  C   UNL     1      -7.291   6.116  66.533  1.00  0.00    -0.081 A  
HETATM    6  C   UNL     1      -9.515   4.790  67.489  1.00  0.00    -0.171 A  
HETATM    7  C   UNL     1      -8.505   6.817  66.653  1.00  0.00    -0.120 A  
HETATM    8  C   UNL     1      -9.630   6.144  67.124  1.00  0.00    -0.139 A  
HETATM    9  C   UNL     1      -8.513   8.315  66.373  1.00  0.00    -0.121 C  
HETATM   10  C   UNL     1      -7.548   8.967  67.366  1.00  0.00    -0.089 C  
HETATM   11  C   UNL     1      -7.473  10.403  66.988  1.00  0.00    -0.097 C  
HETATM   12  C   UNL     1      -8.766  11.161  67.188  1.00  0.00    -0.141 C  
HETATM   13  O   UNL     1      -6.439  10.895  66.545  1.00  0.00    -0.106 OA 
HETATM   14  C   UNL     1      -9.826  10.439  66.330  1.00  0.00    -0.213 C  
HETATM   15  C   UNL     1     -10.950   6.863  67.162  1.00  0.00    -0.427 C  
HETATM   16  C   UNL     1     -10.782   8.385  67.348  1.00  0.00    -0.155 C  
HETATM   17  N   UNL     1      -9.849   8.955  66.373  1.00  0.00    -0.265 NA 
BRANCH   4  18
HETATM   18  O   UNL     1      -5.927   4.172  66.991  1.00  0.00    -0.022 OA 
HETATM   19  C   UNL     1      -5.302   3.962  65.726  1.00  0.00    -0.009 C  
ENDBRANCH   4  18
BRANCH  12  20
HETATM   20  C   UNL     1      -8.524  12.643  66.836  1.00  0.00    -0.118 C  
HETATM   21  C   UNL     1      -8.323  13.626  67.999  1.00  0.00    -0.170 C  
HETATM   22  C   UNL     1      -8.137  15.041  67.430  1.00  0.00    -0.216 C  
HETATM   23  C   UNL     1      -7.113  13.276  68.866  1.00  0.00    -0.079 C  
ENDBRANCH  12  20
ENDBRANCH   2   3
TORSDOF 3
ENDMDL
MODEL      119
REMARK 921   NORMALIZED FREE ENERGY PREDICTED BY IDOCK:   -2.46 KCAL/MOL
REMARK 922        TOTAL FREE ENERGY PREDICTED BY IDOCK:   -3.23 KCAL/MOL
REMARK 923 INTER-LIGAND FREE ENERGY PREDICTED BY IDOCK:   -2.97 KCAL/MOL
REMARK 924 INTRA-LIGAND FREE ENERGY PREDICTED BY IDOCK:   -0.26 KCAL/MOL
REMARK 927      BINDING AFFINITY PREDICTED BY RF-SCORE:    0.00 PKD
ROOT
HETATM    1  C   UNL     1      -6.060   8.885  63.480  1.00  0.00    -0.084 C  
HETATM    2  O   UNL     1      -6.232   9.299  64.831  1.00  0.00    -0.065 OA 
ENDROOT
BRANCH   2   3
HETATM    3  C   UNL     1      -7.055   8.526  65.614  1.00  0.00    -0.079 A  
HETATM    4  C   UNL     1      -8.228   8.935  66.262  1.00  0.00    -0.111 A  
HETATM    5  C   UNL     1      -8.944   7.992  67.003  1.00  0.00    -0.156 A  
HETATM    6  C   UNL     1      -6.593   7.209  65.786  1.00  0.00    -0.052 A  
HETATM    7  C   UNL     1      -8.458   6.691  67.230  1.00  0.00    -0.120 A  
HETATM    8  C   UNL     1      -7.278   6.293  66.606  1.00  0.00    -0.074 A  
HETATM    9  C   UNL     1      -9.180   5.809  68.241  1.00  0.00    -0.117 C  
HETATM   10  C   UNL     1      -9.120   6.526  69.591  1.00  0.00    -0.141 C  
HETATM   11  C   UNL     1      -9.940   5.712  70.528  1.00  0.00    -0.205 C  
HETATM   12  C   UNL     1      -9.370   4.342  70.818  1.00  0.00    -0.224 C  
HETATM   13  O   UNL     1     -10.990   6.143  70.997  1.00  0.00    -0.267 OA 
HETATM   14  C   UNL     1      -9.251   3.629  69.455  1.00  0.00    -0.155 C  
HETATM   15  C   UNL     1      -6.807   4.874  66.768  1.00  0.00    -0.062 C  
HETATM   16  C   UNL     1      -7.262   4.257  68.107  1.00  0.00    -0.060 C  
HETATM   17  N   UNL     1      -8.704   4.408  68.317  1.00  0.00    -0.098 NA 
BRANCH   4  18
HETATM   18  O   UNL     1      -8.634  10.241  66.170  1.00  0.00    -0.133 OA 
HETATM   19  C   UNL     1      -7.870  11.197  66.903  1.00  0.00    -0.152 C  
ENDBRANCH   4  18
BRANCH  12  20
HETATM   20  C   UNL     1     -10.272   3.646  71.857  1.00  0.00    -0.111 C  
HETATM   21  C   UNL     1      -9.686   3.399  73.255  1.00  0.00    -0.158 C  
HETATM   22  C   UNL     1     -10.730   2.667  74.111  1.00  0.00    -0.239 C  
HETATM   23  C   UNL     1      -9.281   4.692  73.962  1.00  0.00    -0.114 C  
ENDBRANCH  12  20
ENDBRANCH   2   3
TORSDOF 3
ENDMDL
MODEL      120
REMARK 921   NORMALIZED FREE ENERGY PREDICTED BY IDOCK:   -2.44 KCAL/MOL
REMARK 922        TOTAL FREE ENERGY PREDICTED BY IDOCK:   -3.20 KCAL/MOL
REMARK 923 INTER-LIGAND FREE ENERGY PREDICTED BY IDOCK:   -2.92 KCAL/MOL
REMARK 924 INTRA-LIGAND FREE ENERGY PREDICTED BY IDOCK:   -0.28 KCAL/MOL
REMARK 927      BINDING AFFINITY PREDICTED BY RF-SCORE:    0.00 PKD
ROOT
HETATM    1  C   UNL     1      -5.795  14.454  71.023  1.00  0.00    -0.186 C  
HETATM    2  O   UNL     1      -6.488  14.421  69.780  1.00  0.00    -0.133 OA 
ENDROOT
BRANCH   2   3
HETATM    3  C   UNL     1      -6.808  13.181  69.283  1.00  0.00    -0.024 A  
HETATM    4  C   UNL     1      -7.813  12.878  68.356  1.00  0.00    -0.133 A  
HETATM    5  C   UNL     1      -7.974  11.550  67.955  1.00  0.00    -0.126 A  
HETATM    6  C   UNL     1      -6.044  12.139  69.838  1.00  0.00    -0.146 A  
HETATM    7  C   UNL     1      -7.256  10.496  68.550  1.00  0.00    -0.085 A  
HETATM    8  C   UNL     1      -6.274  10.795  69.491  1.00  0.00    -0.064 A  
HETATM    9  C   UNL     1      -7.662   9.063  68.227  1.00  0.00    -0.095 C  
HETATM   10  C   UNL     1      -9.115   8.892  68.675  1.00  0.00    -0.137 C  
HETATM   11  C   UNL     1      -9.528   7.534  68.231  1.00  0.00    -0.144 C  
HETATM   12  C   UNL     1      -8.797   6.409  68.928  1.00  0.00    -0.125 C  
HETATM   13  O   UNL     1     -10.382   7.377  67.362  1.00  0.00    -0.215 OA 
HETATM   14  C   UNL     1      -7.297   6.630  68.647  1.00  0.00    -0.087 C  
HETATM   15  C   UNL     1      -5.439   9.679  70.057  1.00  0.00    -0.032 C  
HETATM   16  C   UNL     1      -6.196   8.335  70.077  1.00  0.00    -0.035 C  
HETATM   17  N   UNL     1      -6.770   8.012  68.769  1.00  0.00    -0.056 NA 
BRANCH   4  18
HETATM   18  O   UNL     1      -8.620  13.880  67.879  1.00  0.00    -0.159 OA 
HETATM   19  C   UNL     1      -9.397  13.573  66.723  1.00  0.00    -0.257 C  
ENDBRANCH   4  18
BRANCH  12  20
HETATM   20  C   UNL     1      -9.377   5.068  68.434  1.00  0.00    -0.163 C  
HETATM   21  C   UNL     1      -9.009   3.801  69.221  1.00  0.00    -0.172 C  
HETATM   22  C   UNL     1      -9.657   2.586  68.541  1.00  0.00    -0.101 C  
HETATM   23  C   UNL     1      -9.467   3.858  70.678  1.00  0.00    -0.244 C  
ENDBRANCH  12  20
ENDBRANCH   2   3
TORSDOF 3
ENDMDL
MODEL      121
REMARK 921   NORMALIZED FREE ENERGY PREDICTED BY IDOCK:   -2.38 KCAL/MOL
REMARK 922        TOTAL FREE ENERGY PREDICTED BY IDOCK:   -3.13 KCAL/MOL
REMARK 923 INTER-LIGAND FREE ENERGY PREDICTED BY IDOCK:   -2.82 KCAL/MOL
REMARK 924 INTRA-LIGAND FREE ENERGY PREDICTED BY IDOCK:   -0.31 KCAL/MOL
REMARK 927      BINDING AFFINITY PREDICTED BY RF-SCORE:    0.00 PKD
ROOT
HETATM    1  C   UNL     1      -7.026  13.915  68.145  1.00  0.00    -0.120 C  
HETATM    2  O   UNL     1      -6.891  12.630  68.742  1.00  0.00    -0.087 OA 
ENDROOT
BRANCH   2   3
HETATM    3  C   UNL     1      -7.474  11.577  68.079  1.00  0.00    -0.098 A  
HETATM    4  C   UNL     1      -8.800  11.140  68.194  1.00  0.00    -0.148 A  
HETATM    5  C   UNL     1      -9.216  10.055  67.419  1.00  0.00    -0.153 A  
HETATM    6  C   UNL     1      -6.583  10.871  67.251  1.00  0.00    -0.078 A  
HETATM    7  C   UNL     1      -8.317   9.307  66.636  1.00  0.00    -0.122 A  
HETATM    8  C   UNL     1      -6.992   9.726  66.542  1.00  0.00    -0.085 A  
HETATM    9  C   UNL     1      -8.802   8.003  66.015  1.00  0.00    -0.162 C  
HETATM   10  C   UNL     1      -9.229   7.086  67.163  1.00  0.00    -0.153 C  
HETATM   11  C   UNL     1      -9.818   5.876  66.530  1.00  0.00    -0.152 C  
HETATM   12  C   UNL     1      -8.827   5.044  65.749  1.00  0.00    -0.139 C  
HETATM   13  O   UNL     1     -11.013   5.614  66.642  1.00  0.00    -0.263 OA 
HETATM   14  C   UNL     1      -8.236   5.976  64.671  1.00  0.00    -0.108 C  
HETATM   15  C   UNL     1      -6.053   8.986  65.630  1.00  0.00    -0.055 C  
HETATM   16  C   UNL     1      -6.446   7.503  65.465  1.00  0.00    -0.041 C  
HETATM   17  N   UNL     1      -7.852   7.349  65.085  1.00  0.00    -0.116 NA 
BRANCH   4  18
HETATM   18  O   UNL     1      -9.649  11.771  69.068  1.00  0.00    -0.020 OA 
HETATM   19  C   UNL     1     -10.503  12.770  68.515  1.00  0.00    -0.238 C  
ENDBRANCH   4  18
BRANCH  12  20
HETATM   20  C   UNL     1      -9.551   3.790  65.219  1.00  0.00    -0.174 C  
HETATM   21  C   UNL     1      -8.684   2.605  64.769  1.00  0.00    -0.109 C  
HETATM   22  C   UNL     1      -9.598   1.487  64.246  1.00  0.00    -0.122 C  
HETATM   23  C   UNL     1      -7.812   2.049  65.895  1.00  0.00    -0.073 C  
ENDBRANCH  12  20
ENDBRANCH   2   3
TORSDOF 3
ENDMDL
MODEL      122
REMARK 921   NORMALIZED FREE ENERGY PREDICTED BY IDOCK:   -2.35 KCAL/MOL
REMARK 922        TOTAL FREE ENERGY PREDICTED BY IDOCK:   -3.10 KCAL/MOL
REMARK 923 INTER-LIGAND FREE ENERGY PREDICTED BY IDOCK:   -4.27 KCAL/MOL
REMARK 924 INTRA-LIGAND FREE ENERGY PREDICTED BY IDOCK:    1.16 KCAL/MOL
REMARK 927      BINDING AFFINITY PREDICTED BY RF-SCORE:    0.00 PKD
ROOT
HETATM    1  C   UNL     1     -12.913  14.030  71.778  1.00  0.00    -0.353 C  
HETATM    2  O   UNL     1     -12.553  14.216  70.413  1.00  0.00    -0.343 OA 
ENDROOT
BRANCH   2   3
HETATM    3  C   UNL     1     -11.866  13.190  69.810  1.00  0.00    -0.316 A  
HETATM    4  C   UNL     1     -12.076  11.816  69.989  1.00  0.00    -0.310 A  
HETATM    5  C   UNL     1     -11.283  10.921  69.268  1.00  0.00    -0.327 A  
HETATM    6  C   UNL     1     -10.822  13.627  68.976  1.00  0.00    -0.237 A  
HETATM    7  C   UNL     1     -10.198  11.348  68.480  1.00  0.00    -0.216 A  
HETATM    8  C   UNL     1      -9.973  12.714  68.323  1.00  0.00    -0.229 A  
HETATM    9  C   UNL     1      -9.243  10.299  67.924  1.00  0.00    -0.138 C  
HETATM   10  C   UNL     1      -8.634   9.563  69.119  1.00  0.00    -0.140 C  
HETATM   11  C   UNL     1      -7.810   8.462  68.551  1.00  0.00    -0.120 C  
HETATM   12  C   UNL     1      -6.608   8.934  67.764  1.00  0.00    -0.061 C  
HETATM   13  O   UNL     1      -8.115   7.284  68.716  1.00  0.00    -0.121 OA 
HETATM   14  C   UNL     1      -7.159   9.828  66.633  1.00  0.00    -0.086 C  
HETATM   15  C   UNL     1      -8.876  13.174  67.403  1.00  0.00    -0.204 C  
HETATM   16  C   UNL     1      -7.727  12.149  67.306  1.00  0.00    -0.168 C  
HETATM   17  N   UNL     1      -8.217  10.807  66.984  1.00  0.00    -0.123 NA 
BRANCH   4  18
HETATM   18  O   UNL     1     -13.034  11.386  70.870  1.00  0.00    -0.259 OA 
HETATM   19  C   UNL     1     -12.639  10.371  71.792  1.00  0.00    -0.367 C  
ENDBRANCH   4  18
BRANCH  12  20
HETATM   20  C   UNL     1      -5.807   7.699  67.305  1.00  0.00    -0.036 C  
HETATM   21  C   UNL     1      -6.514   6.696  66.382  1.00  0.00    -0.043 C  
HETATM   22  C   UNL     1      -5.556   5.534  66.081  1.00  0.00    -0.013 C  
HETATM   23  C   UNL     1      -6.964   7.323  65.062  1.00  0.00    -0.055 C  
ENDBRANCH  12  20
ENDBRANCH   2   3
TORSDOF 3
ENDMDL
MODEL      123
REMARK 921   NORMALIZED FREE ENERGY PREDICTED BY IDOCK:   -2.11 KCAL/MOL
REMARK 922        TOTAL FREE ENERGY PREDICTED BY IDOCK:   -2.82 KCAL/MOL
REMARK 923 INTER-LIGAND FREE ENERGY PREDICTED BY IDOCK:   -3.37 KCAL/MOL
REMARK 924 INTRA-LIGAND FREE ENERGY PREDICTED BY IDOCK:    0.55 KCAL/MOL
REMARK 927      BINDING AFFINITY PREDICTED BY RF-SCORE:    0.00 PKD
ROOT
HETATM    1  C   UNL     1      -8.060  12.894  67.068  1.00  0.00    -0.049 C  
HETATM    2  O   UNL     1      -8.989  11.850  66.799  1.00  0.00    -0.186 OA 
ENDROOT
BRANCH   2   3
HETATM    3  C   UNL     1      -8.982  10.778  67.659  1.00  0.00    -0.140 A  
HETATM    4  C   UNL     1      -8.323   9.556  67.476  1.00  0.00    -0.125 A  
HETATM    5  C   UNL     1      -8.419   8.589  68.479  1.00  0.00    -0.131 A  
HETATM    6  C   UNL     1      -9.777  10.970  68.802  1.00  0.00    -0.199 A  
HETATM    7  C   UNL     1      -9.260   8.749  69.596  1.00  0.00    -0.150 A  
HETATM    8  C   UNL     1      -9.936   9.956  69.765  1.00  0.00    -0.275 A  
HETATM    9  C   UNL     1      -9.490   7.555  70.513  1.00  0.00    -0.164 C  
HETATM   10  C   UNL     1     -10.117   6.446  69.666  1.00  0.00    -0.209 C  
HETATM   11  C   UNL     1     -10.209   5.252  70.548  1.00  0.00    -0.264 C  
HETATM   12  C   UNL     1     -11.169   5.413  71.705  1.00  0.00    -0.088 C  
HETATM   13  O   UNL     1      -9.540   4.245  70.333  1.00  0.00    -0.161 OA 
HETATM   14  C   UNL     1     -10.675   6.634  72.509  1.00  0.00    -0.229 C  
HETATM   15  C   UNL     1     -10.759  10.166  71.005  1.00  0.00     0.080 C  
HETATM   16  C   UNL     1     -11.315   8.842  71.570  1.00  0.00    -0.304 C  
HETATM   17  N   UNL     1     -10.263   7.838  71.745  1.00  0.00    -0.187 NA 
BRANCH   4  18
HETATM   18  O   UNL     1      -7.619   9.331  66.321  1.00  0.00    -0.095 OA 
HETATM   19  C   UNL     1      -8.365   8.844  65.207  1.00  0.00    -0.160 C  
ENDBRANCH   4  18
BRANCH  12  20
HETATM   20  C   UNL     1     -11.225   4.083  72.483  1.00  0.00     0.292 C  
HETATM   21  C   UNL     1     -10.071   3.775  73.448  1.00  0.00    -0.200 C  
HETATM   22  C   UNL     1     -10.306   2.397  74.084  1.00  0.00    -0.190 C  
HETATM   23  C   UNL     1      -9.934   4.818  74.558  1.00  0.00    -0.239 C  
ENDBRANCH  12  20
ENDBRANCH   2   3
TORSDOF 3
ENDMDL
MODEL      124
REMARK 921   NORMALIZED FREE ENERGY PREDICTED BY IDOCK:   -1.87 KCAL/MOL
REMARK 922        TOTAL FREE ENERGY PREDICTED BY IDOCK:   -2.53 KCAL/MOL
REMARK 923 INTER-LIGAND FREE ENERGY PREDICTED BY IDOCK:   -2.40 KCAL/MOL
REMARK 924 INTRA-LIGAND FREE ENERGY PREDICTED BY IDOCK:   -0.14 KCAL/MOL
REMARK 927      BINDING AFFINITY PREDICTED BY RF-SCORE:    0.00 PKD
ROOT
HETATM    1  C   UNL     1     -11.347   3.353  73.417  1.00  0.00    -0.097 C  
HETATM    2  O   UNL     1     -10.141   4.097  73.556  1.00  0.00    -0.124 OA 
ENDROOT
BRANCH   2   3
HETATM    3  C   UNL     1      -9.390   4.274  72.420  1.00  0.00    -0.119 A  
HETATM    4  C   UNL     1      -8.357   5.201  72.229  1.00  0.00    -0.121 A  
HETATM    5  C   UNL     1      -7.694   5.217  71.000  1.00  0.00    -0.097 A  
HETATM    6  C   UNL     1      -9.780   3.444  71.354  1.00  0.00    -0.234 A  
HETATM    7  C   UNL     1      -8.116   4.434  69.910  1.00  0.00    -0.064 A  
HETATM    8  C   UNL     1      -9.161   3.530  70.093  1.00  0.00    -0.224 A  
HETATM    9  C   UNL     1      -7.492   4.688  68.544  1.00  0.00    -0.065 C  
HETATM   10  C   UNL     1      -7.800   6.138  68.168  1.00  0.00    -0.103 C  
HETATM   11  C   UNL     1      -7.072   6.400  66.897  1.00  0.00    -0.073 C  
HETATM   12  C   UNL     1      -7.582   5.602  65.719  1.00  0.00    -0.086 C  
HETATM   13  O   UNL     1      -6.135   7.192  66.849  1.00  0.00    -0.038 OA 
HETATM   14  C   UNL     1      -7.449   4.117  66.114  1.00  0.00    -0.084 C  
HETATM   15  C   UNL     1      -9.550   2.623  68.959  1.00  0.00    -0.047 C  
HETATM   16  C   UNL     1      -9.256   3.251  67.580  1.00  0.00    -0.195 C  
HETATM   17  N   UNL     1      -7.875   3.729  67.481  1.00  0.00    -0.082 NA 
BRANCH   4  18
HETATM   18  O   UNL     1      -8.034   6.074  73.236  1.00  0.00    -0.108 OA 
HETATM   19  C   UNL     1      -7.859   7.439  72.862  1.00  0.00    -0.096 C  
ENDBRANCH   4  18
BRANCH  12  20
HETATM   20  C   UNL     1      -6.796   6.029  64.462  1.00  0.00    -0.047 C  
HETATM   21  C   UNL     1      -7.444   7.071  63.538  1.00  0.00    -0.099 C  
HETATM   22  C   UNL     1      -6.517   7.321  62.339  1.00  0.00    -0.061 C  
HETATM   23  C   UNL     1      -7.713   8.400  64.244  1.00  0.00    -0.136 C  
ENDBRANCH  12  20
ENDBRANCH   2   3
TORSDOF 3
ENDMDL
MODEL      125
REMARK 921   NORMALIZED FREE ENERGY PREDICTED BY IDOCK:   -1.86 KCAL/MOL
REMARK 922        TOTAL FREE ENERGY PREDICTED BY IDOCK:   -2.52 KCAL/MOL
REMARK 923 INTER-LIGAND FREE ENERGY PREDICTED BY IDOCK:   -2.18 KCAL/MOL
REMARK 924 INTRA-LIGAND FREE ENERGY PREDICTED BY IDOCK:   -0.34 KCAL/MOL
REMARK 927      BINDING AFFINITY PREDICTED BY RF-SCORE:    0.00 PKD
ROOT
HETATM    1  C   UNL     1      -9.129   5.235  62.332  1.00  0.00     0.054 C  
HETATM    2  O   UNL     1      -7.936   4.611  62.797  1.00  0.00    -0.065 OA 
ENDROOT
BRANCH   2   3
HETATM    3  C   UNL     1      -7.662   4.725  64.138  1.00  0.00    -0.079 A  
HETATM    4  C   UNL     1      -7.909   3.769  65.132  1.00  0.00    -0.086 A  
HETATM    5  C   UNL     1      -7.540   4.063  66.447  1.00  0.00    -0.089 A  
HETATM    6  C   UNL     1      -7.126   5.974  64.498  1.00  0.00    -0.056 A  
HETATM    7  C   UNL     1      -7.060   5.331  66.825  1.00  0.00    -0.069 A  
HETATM    8  C   UNL     1      -6.839   6.290  65.839  1.00  0.00    -0.057 A  
HETATM    9  C   UNL     1      -6.910   5.641  68.309  1.00  0.00    -0.063 C  
HETATM   10  C   UNL     1      -8.297   5.508  68.941  1.00  0.00    -0.102 C  
HETATM   11  C   UNL     1      -8.103   5.686  70.405  1.00  0.00    -0.105 C  
HETATM   12  C   UNL     1      -7.653   7.074  70.804  1.00  0.00    -0.090 C  
HETATM   13  O   UNL     1      -8.289   4.761  71.192  1.00  0.00    -0.100 OA 
HETATM   14  C   UNL     1      -6.329   7.329  70.055  1.00  0.00    -0.028 C  
HETATM   15  C   UNL     1      -6.235   7.611  66.227  1.00  0.00    -0.045 C  
HETATM   16  C   UNL     1      -6.576   8.007  67.679  1.00  0.00    -0.057 C  
HETATM   17  N   UNL     1      -6.260   6.935  68.625  1.00  0.00    -0.026 NA 
BRANCH   4  18
HETATM   18  O   UNL     1      -8.514   2.584  64.799  1.00  0.00    -0.087 OA 
HETATM   19  C   UNL     1      -8.523   1.571  65.803  1.00  0.00    -0.100 C  
ENDBRANCH   4  18
BRANCH  12  20
HETATM   20  C   UNL     1      -7.571   7.139  72.342  1.00  0.00    -0.088 C  
HETATM   21  C   UNL     1      -8.287   8.301  73.044  1.00  0.00    -0.246 C  
HETATM   22  C   UNL     1      -8.047   8.195  74.557  1.00  0.00    -0.265 C  
HETATM   23  C   UNL     1      -9.793   8.314  72.779  1.00  0.00    -0.333 C  
ENDBRANCH  12  20
ENDBRANCH   2   3
TORSDOF 3
ENDMDL
MODEL      126
REMARK 921   NORMALIZED FREE ENERGY PREDICTED BY IDOCK:   -1.76 KCAL/MOL
REMARK 922        TOTAL FREE ENERGY PREDICTED BY IDOCK:   -2.40 KCAL/MOL
REMARK 923 INTER-LIGAND FREE ENERGY PREDICTED BY IDOCK:   -2.37 KCAL/MOL
REMARK 924 INTRA-LIGAND FREE ENERGY PREDICTED BY IDOCK:   -0.03 KCAL/MOL
REMARK 927      BINDING AFFINITY PREDICTED BY RF-SCORE:    0.00 PKD
ROOT
HETATM    1  C   UNL     1      -7.994  15.353  69.935  1.00  0.00     0.101 C  
HETATM    2  O   UNL     1      -6.753  14.701  69.687  1.00  0.00    -0.143 OA 
ENDROOT
BRANCH   2   3
HETATM    3  C   UNL     1      -6.784  13.606  68.858  1.00  0.00    -0.108 A  
HETATM    4  C   UNL     1      -7.316  13.546  67.563  1.00  0.00    -0.164 A  
HETATM    5  C   UNL     1      -7.237  12.338  66.865  1.00  0.00     0.042 A  
HETATM    6  C   UNL     1      -6.259  12.441  69.445  1.00  0.00    -0.114 A  
HETATM    7  C   UNL     1      -6.769  11.155  67.466  1.00  0.00    -0.075 A  
HETATM    8  C   UNL     1      -6.265  11.210  68.764  1.00  0.00    -0.045 A  
HETATM    9  C   UNL     1      -6.941   9.840  66.717  1.00  0.00    -0.085 C  
HETATM   10  C   UNL     1      -8.441   9.637  66.494  1.00  0.00    -0.127 C  
HETATM   11  C   UNL     1      -8.574   8.420  65.650  1.00  0.00    -0.174 C  
HETATM   12  C   UNL     1      -8.132   7.145  66.333  1.00  0.00    -0.116 C  
HETATM   13  O   UNL     1      -8.997   8.483  64.499  1.00  0.00     0.048 OA 
HETATM   14  C   UNL     1      -6.658   7.359  66.733  1.00  0.00    -0.057 C  
HETATM   15  C   UNL     1      -5.675   9.968  69.373  1.00  0.00    -0.037 C  
HETATM   16  C   UNL     1      -6.310   8.681  68.806  1.00  0.00    -0.049 C  
HETATM   17  N   UNL     1      -6.293   8.662  67.341  1.00  0.00    -0.056 NA 
BRANCH   4  18
HETATM   18  O   UNL     1      -7.910  14.656  67.021  1.00  0.00    -0.174 OA 
HETATM   19  C   UNL     1      -9.256  14.503  66.575  1.00  0.00    -0.255 C  
ENDBRANCH   4  18
BRANCH  12  20
HETATM   20  C   UNL     1      -8.398   5.962  65.380  1.00  0.00    -0.149 C  
HETATM   21  C   UNL     1      -9.163   4.755  65.941  1.00  0.00    -0.149 C  
HETATM   22  C   UNL     1      -9.284   3.686  64.845  1.00  0.00    -0.147 C  
HETATM   23  C   UNL     1     -10.563   5.121  66.435  1.00  0.00    -0.336 C  
ENDBRANCH  12  20
ENDBRANCH   2   3
TORSDOF 3
ENDMDL
MODEL      127
REMARK 921   NORMALIZED FREE ENERGY PREDICTED BY IDOCK:   -1.47 KCAL/MOL
REMARK 922        TOTAL FREE ENERGY PREDICTED BY IDOCK:   -2.06 KCAL/MOL
REMARK 923 INTER-LIGAND FREE ENERGY PREDICTED BY IDOCK:   -2.76 KCAL/MOL
REMARK 924 INTRA-LIGAND FREE ENERGY PREDICTED BY IDOCK:    0.70 KCAL/MOL
REMARK 927      BINDING AFFINITY PREDICTED BY RF-SCORE:    0.00 PKD
ROOT
HETATM    1  C   UNL     1      -8.616  11.136  63.755  1.00  0.00     0.238 C  
HETATM    2  O   UNL     1      -7.767  10.086  64.204  1.00  0.00    -0.138 OA 
ENDROOT
BRANCH   2   3
HETATM    3  C   UNL     1      -8.103   9.486  65.394  1.00  0.00    -0.125 A  
HETATM    4  C   UNL     1      -7.948  10.021  66.680  1.00  0.00    -0.115 A  
HETATM    5  C   UNL     1      -8.369   9.262  67.774  1.00  0.00    -0.116 A  
HETATM    6  C   UNL     1      -8.602   8.180  65.244  1.00  0.00    -0.132 A  
HETATM    7  C   UNL     1      -8.812   7.933  67.637  1.00  0.00    -0.128 A  
HETATM    8  C   UNL     1      -8.941   7.392  66.360  1.00  0.00    -0.190 A  
HETATM    9  C   UNL     1      -9.022   7.101  68.896  1.00  0.00    -0.129 C  
HETATM   10  C   UNL     1      -7.676   7.027  69.619  1.00  0.00    -0.110 C  
HETATM   11  C   UNL     1      -7.936   6.325  70.905  1.00  0.00    -0.112 C  
HETATM   12  C   UNL     1      -8.344   4.878  70.746  1.00  0.00    -0.103 C  
HETATM   13  O   UNL     1      -7.830   6.905  71.982  1.00  0.00    -0.094 OA 
HETATM   14  C   UNL     1      -9.617   4.882  69.874  1.00  0.00    -0.182 C  
HETATM   15  C   UNL     1      -9.506   6.007  66.205  1.00  0.00    -0.153 C  
HETATM   16  C   UNL     1      -9.222   5.119  67.434  1.00  0.00    -0.116 C  
HETATM   17  N   UNL     1      -9.631   5.767  68.683  1.00  0.00    -0.123 NA 
BRANCH   4  18
HETATM   18  O   UNL     1      -7.379  11.259  66.835  1.00  0.00    -0.131 OA 
HETATM   19  C   UNL     1      -8.103  12.196  67.631  1.00  0.00    -0.158 C  
ENDBRANCH   4  18
BRANCH  12  20
HETATM   20  C   UNL     1      -8.501   4.257  72.149  1.00  0.00    -0.111 C  
HETATM   21  C   UNL     1      -9.477   4.934  73.121  1.00  0.00    -0.144 C  
HETATM   22  C   UNL     1      -9.451   4.182  74.461  1.00  0.00    -0.133 C  
HETATM   23  C   UNL     1     -10.912   4.962  72.595  1.00  0.00    -0.255 C  
ENDBRANCH  12  20
ENDBRANCH   2   3
TORSDOF 3
ENDMDL
MODEL      128
REMARK 921   NORMALIZED FREE ENERGY PREDICTED BY IDOCK:   -1.22 KCAL/MOL
REMARK 922        TOTAL FREE ENERGY PREDICTED BY IDOCK:   -1.77 KCAL/MOL
REMARK 923 INTER-LIGAND FREE ENERGY PREDICTED BY IDOCK:   -2.19 KCAL/MOL
REMARK 924 INTRA-LIGAND FREE ENERGY PREDICTED BY IDOCK:    0.42 KCAL/MOL
REMARK 927      BINDING AFFINITY PREDICTED BY RF-SCORE:    0.00 PKD
ROOT
HETATM    1  C   UNL     1      -6.107  13.766  70.733  1.00  0.00    -0.088 C  
HETATM    2  O   UNL     1      -5.606  12.538  71.249  1.00  0.00    -0.360 OA 
ENDROOT
BRANCH   2   3
HETATM    3  C   UNL     1      -5.630  11.456  70.402  1.00  0.00    -0.139 A  
HETATM    4  C   UNL     1      -5.652  11.484  69.002  1.00  0.00    -0.050 A  
HETATM    5  C   UNL     1      -5.655  10.270  68.310  1.00  0.00    -0.040 A  
HETATM    6  C   UNL     1      -5.688  10.220  71.070  1.00  0.00    -0.068 A  
HETATM    7  C   UNL     1      -5.774   9.033  68.970  1.00  0.00    -0.040 A  
HETATM    8  C   UNL     1      -5.779   9.007  70.363  1.00  0.00    -0.030 A  
HETATM    9  C   UNL     1      -6.011   7.781  68.134  1.00  0.00    -0.040 C  
HETATM   10  C   UNL     1      -7.324   7.985  67.375  1.00  0.00    -0.089 C  
HETATM   11  C   UNL     1      -7.465   6.813  66.471  1.00  0.00    -0.078 C  
HETATM   12  C   UNL     1      -7.663   5.498  67.191  1.00  0.00    -0.100 C  
HETATM   13  O   UNL     1      -7.410   6.936  65.250  1.00  0.00    -0.076 OA 
HETATM   14  C   UNL     1      -6.434   5.320  68.107  1.00  0.00    -0.048 C  
HETATM   15  C   UNL     1      -5.809   7.681  71.070  1.00  0.00    -0.034 C  
HETATM   16  C   UNL     1      -6.517   6.591  70.239  1.00  0.00    -0.040 C  
HETATM   17  N   UNL     1      -5.977   6.502  68.881  1.00  0.00    -0.021 NA 
BRANCH   4  18
HETATM   18  O   UNL     1      -5.685  12.688  68.348  1.00  0.00    -0.055 OA 
HETATM   19  C   UNL     1      -6.641  12.814  67.296  1.00  0.00    -0.075 C  
ENDBRANCH   4  18
BRANCH  12  20
HETATM   20  C   UNL     1      -7.874   4.390  66.140  1.00  0.00    -0.095 C  
HETATM   21  C   UNL     1      -9.236   3.680  66.119  1.00  0.00    -0.171 C  
HETATM   22  C   UNL     1      -9.218   2.597  65.030  1.00  0.00    -0.137 C  
HETATM   23  C   UNL     1     -10.397   4.638  65.849  1.00  0.00    -0.315 C  
ENDBRANCH  12  20
ENDBRANCH   2   3
TORSDOF 3
ENDMDL
MODEL      129
REMARK 921   NORMALIZED FREE ENERGY PREDICTED BY IDOCK:   -0.99 KCAL/MOL
REMARK 922        TOTAL FREE ENERGY PREDICTED BY IDOCK:   -1.50 KCAL/MOL
REMARK 923 INTER-LIGAND FREE ENERGY PREDICTED BY IDOCK:   -1.25 KCAL/MOL
REMARK 924 INTRA-LIGAND FREE ENERGY PREDICTED BY IDOCK:   -0.25 KCAL/MOL
REMARK 927      BINDING AFFINITY PREDICTED BY RF-SCORE:    0.00 PKD
ROOT
HETATM    1  C   UNL     1      -6.078  14.310  72.375  1.00  0.00     0.541 C  
HETATM    2  O   UNL     1      -5.186  13.637  71.493  1.00  0.00    -0.153 OA 
ENDROOT
BRANCH   2   3
HETATM    3  C   UNL     1      -5.694  12.565  70.800  1.00  0.00    -0.103 A  
HETATM    4  C   UNL     1      -5.723  11.228  71.220  1.00  0.00     0.211 A  
HETATM    5  C   UNL     1      -6.303  10.277  70.378  1.00  0.00    -0.127 A  
HETATM    6  C   UNL     1      -6.176  12.898  69.522  1.00  0.00    -0.118 A  
HETATM    7  C   UNL     1      -6.731  10.591  69.075  1.00  0.00    -0.063 A  
HETATM    8  C   UNL     1      -6.678  11.916  68.648  1.00  0.00    -0.074 A  
HETATM    9  C   UNL     1      -7.126   9.453  68.142  1.00  0.00    -0.076 C  
HETATM   10  C   UNL     1      -5.899   8.554  67.979  1.00  0.00    -0.042 C  
HETATM   11  C   UNL     1      -6.346   7.386  67.175  1.00  0.00    -0.055 C  
HETATM   12  C   UNL     1      -6.737   7.727  65.755  1.00  0.00    -0.046 C  
HETATM   13  O   UNL     1      -6.392   6.257  67.658  1.00  0.00    -0.031 OA 
HETATM   14  C   UNL     1      -7.871   8.768  65.860  1.00  0.00    -0.102 C  
HETATM   15  C   UNL     1      -7.225  12.271  67.293  1.00  0.00    -0.138 C  
HETATM   16  C   UNL     1      -7.127  11.096  66.297  1.00  0.00    -0.049 C  
HETATM   17  N   UNL     1      -7.707   9.867  66.843  1.00  0.00    -0.098 NA 
BRANCH   4  18
HETATM   18  O   UNL     1      -5.173  10.885  72.428  1.00  0.00    -0.321 OA 
HETATM   19  C   UNL     1      -5.168   9.496  72.752  1.00  0.00    -0.047 C  
ENDBRANCH   4  18
BRANCH  12  20
HETATM   20  C   UNL     1      -7.099   6.421  65.019  1.00  0.00    -0.060 C  
HETATM   21  C   UNL     1      -7.911   6.538  63.721  1.00  0.00    -0.107 C  
HETATM   22  C   UNL     1      -8.190   5.129  63.178  1.00  0.00    -0.109 C  
HETATM   23  C   UNL     1      -7.190   7.351  62.645  1.00  0.00    -0.084 C  
ENDBRANCH  12  20
ENDBRANCH   2   3
TORSDOF 3
ENDMDL
MODEL      130
REMARK 921   NORMALIZED FREE ENERGY PREDICTED BY IDOCK:   -0.38 KCAL/MOL
REMARK 922        TOTAL FREE ENERGY PREDICTED BY IDOCK:   -0.78 KCAL/MOL
REMARK 923 INTER-LIGAND FREE ENERGY PREDICTED BY IDOCK:   -1.55 KCAL/MOL
REMARK 924 INTRA-LIGAND FREE ENERGY PREDICTED BY IDOCK:    0.77 KCAL/MOL
REMARK 927      BINDING AFFINITY PREDICTED BY RF-SCORE:    0.00 PKD
ROOT
HETATM    1  C   UNL     1     -10.294   5.887  70.903  1.00  0.00    -0.229 C  
HETATM    2  O   UNL     1      -9.091   6.643  71.001  1.00  0.00    -0.155 OA 
ENDROOT
BRANCH   2   3
HETATM    3  C   UNL     1      -9.058   7.841  70.329  1.00  0.00    -0.152 A  
HETATM    4  C   UNL     1      -8.094   8.850  70.454  1.00  0.00    -0.128 A  
HETATM    5  C   UNL     1      -8.222   9.996  69.666  1.00  0.00    -0.185 A  
HETATM    6  C   UNL     1     -10.159   8.038  69.477  1.00  0.00    -0.196 A  
HETATM    7  C   UNL     1      -9.351  10.227  68.858  1.00  0.00    -0.180 A  
HETATM    8  C   UNL     1     -10.322   9.234  68.753  1.00  0.00    -0.231 A  
HETATM    9  C   UNL     1      -9.523  11.601  68.222  1.00  0.00    -0.191 C  
HETATM   10  C   UNL     1      -9.600  12.621  69.360  1.00  0.00     1.065 C  
HETATM   11  C   UNL     1      -9.635  13.960  68.713  1.00  0.00    -0.070 C  
HETATM   12  C   UNL     1     -10.885  14.222  67.904  1.00  0.00    -0.260 C  
HETATM   13  O   UNL     1      -8.707  14.754  68.837  1.00  0.00    -0.175 OA 
HETATM   14  C   UNL     1     -10.947  13.112  66.835  1.00  0.00    -0.276 C  
HETATM   15  C   UNL     1     -11.479   9.438  67.816  1.00  0.00     0.875 C  
HETATM   16  C   UNL     1     -11.826  10.930  67.631  1.00  0.00     0.297 C  
HETATM   17  N   UNL     1     -10.650  11.724  67.268  1.00  0.00    -0.217 NA 
BRANCH   4  18
HETATM   18  O   UNL     1      -7.067   8.700  71.350  1.00  0.00    -0.074 OA 
HETATM   19  C   UNL     1      -6.118   7.675  71.062  1.00  0.00    -0.035 C  
ENDBRANCH   4  18
BRANCH  12  20
HETATM   20  C   UNL     1     -10.825  15.665  67.363  1.00  0.00    -0.315 C  
HETATM   21  C   UNL     1      -9.832  15.957  66.229  1.00  0.00    -0.325 C  
HETATM   22  C   UNL     1      -9.908  17.449  65.870  1.00  0.00    -0.124 C  
HETATM   23  C   UNL     1     -10.108  15.129  64.974  1.00  0.00    -0.269 C  
ENDBRANCH  12  20
ENDBRANCH   2   3
TORSDOF 3
ENDMDL
MODEL      131
REMARK 921   NORMALIZED FREE ENERGY PREDICTED BY IDOCK:   -0.06 KCAL/MOL
REMARK 922        TOTAL FREE ENERGY PREDICTED BY IDOCK:   -0.40 KCAL/MOL
REMARK 923 INTER-LIGAND FREE ENERGY PREDICTED BY IDOCK:   -0.91 KCAL/MOL
REMARK 924 INTRA-LIGAND FREE ENERGY PREDICTED BY IDOCK:    0.50 KCAL/MOL
REMARK 927      BINDING AFFINITY PREDICTED BY RF-SCORE:    0.00 PKD
ROOT
HETATM    1  C   UNL     1     -13.627  11.224  63.341  1.00  0.00     2.177 C  
HETATM    2  O   UNL     1     -13.156  12.508  62.944  1.00  0.00    -0.237 OA 
ENDROOT
BRANCH   2   3
HETATM    3  C   UNL     1     -12.064  13.000  63.616  1.00  0.00    -0.531 A  
HETATM    4  C   UNL     1     -10.781  12.438  63.666  1.00  0.00    -0.455 A  
HETATM    5  C   UNL     1      -9.789  13.100  64.392  1.00  0.00     0.073 A  
HETATM    6  C   UNL     1     -12.336  14.166  64.354  1.00  0.00    -0.410 A  
HETATM    7  C   UNL     1     -10.069  14.232  65.181  1.00  0.00    -0.353 A  
HETATM    8  C   UNL     1     -11.351  14.776  65.152  1.00  0.00    -0.379 A  
HETATM    9  C   UNL     1      -8.989  14.747  66.124  1.00  0.00    -0.026 C  
HETATM   10  C   UNL     1      -8.667  13.617  67.104  1.00  0.00    -0.224 C  
HETATM   11  C   UNL     1      -7.524  14.095  67.927  1.00  0.00    -0.152 C  
HETATM   12  C   UNL     1      -7.856  15.268  68.821  1.00  0.00    -0.154 C  
HETATM   13  O   UNL     1      -6.417  13.568  67.851  1.00  0.00    -0.121 OA 
HETATM   14  C   UNL     1      -8.351  16.394  67.890  1.00  0.00    -0.171 C  
HETATM   15  C   UNL     1     -11.626  16.041  65.917  1.00  0.00     0.594 C  
HETATM   16  C   UNL     1     -10.713  16.188  67.152  1.00  0.00    -0.262 C  
HETATM   17  N   UNL     1      -9.299  16.024  66.809  1.00  0.00    -0.225 NA 
BRANCH   4  18
HETATM   18  O   UNL     1     -10.535  11.253  63.021  1.00  0.00    -0.273 OA 
HETATM   19  C   UNL     1      -9.525  10.420  63.587  1.00  0.00    -0.306 C  
ENDBRANCH   4  18
BRANCH  12  20
HETATM   20  C   UNL     1      -6.613  15.605  69.669  1.00  0.00    -0.181 C  
HETATM   21  C   UNL     1      -6.433  14.856  70.997  1.00  0.00     0.367 C  
HETATM   22  C   UNL     1      -5.162  15.367  71.692  1.00  0.00    -0.018 C  
HETATM   23  C   UNL     1      -6.324  13.342  70.811  1.00  0.00     0.362 C  
ENDBRANCH  12  20
ENDBRANCH   2   3
TORSDOF 3
ENDMDL
MODEL      132
REMARK 921   NORMALIZED FREE ENERGY PREDICTED BY IDOCK:    0.37 KCAL/MOL
REMARK 922        TOTAL FREE ENERGY PREDICTED BY IDOCK:    0.10 KCAL/MOL
REMARK 923 INTER-LIGAND FREE ENERGY PREDICTED BY IDOCK:   -3.12 KCAL/MOL
REMARK 924 INTRA-LIGAND FREE ENERGY PREDICTED BY IDOCK:    3.22 KCAL/MOL
REMARK 927      BINDING AFFINITY PREDICTED BY RF-SCORE:    0.00 PKD
ROOT
HETATM    1  C   UNL     1     -11.791  13.506  63.256  1.00  0.00    -0.031 C  
HETATM    2  O   UNL     1     -10.956  12.380  63.002  1.00  0.00    -0.248 OA 
ENDROOT
BRANCH   2   3
HETATM    3  C   UNL     1     -10.699  11.550  64.066  1.00  0.00    -0.384 A  
HETATM    4  C   UNL     1     -11.273  11.614  65.343  1.00  0.00    -0.199 A  
HETATM    5  C   UNL     1     -10.896  10.663  66.293  1.00  0.00    -0.097 A  
HETATM    6  C   UNL     1      -9.711  10.585  63.801  1.00  0.00    -0.385 A  
HETATM    7  C   UNL     1      -9.865   9.734  66.055  1.00  0.00    -0.342 A  
HETATM    8  C   UNL     1      -9.276   9.687  64.793  1.00  0.00    -0.298 A  
HETATM    9  C   UNL     1      -9.355   8.896  67.221  1.00  0.00    -0.140 C  
HETATM   10  C   UNL     1      -8.817   9.866  68.274  1.00  0.00    -0.119 C  
HETATM   11  C   UNL     1      -8.447   9.036  69.451  1.00  0.00    -0.117 C  
HETATM   12  C   UNL     1      -7.293   8.091  69.202  1.00  0.00    -0.086 C  
HETATM   13  O   UNL     1      -9.057   9.126  70.514  1.00  0.00    -0.199 OA 
HETATM   14  C   UNL     1      -7.721   7.190  68.026  1.00  0.00    -0.113 C  
HETATM   15  C   UNL     1      -8.244   8.633  64.507  1.00  0.00    -0.166 C  
HETATM   16  C   UNL     1      -7.474   8.208  65.775  1.00  0.00    -0.080 C  
HETATM   17  N   UNL     1      -8.379   7.840  66.866  1.00  0.00    -0.122 NA 
BRANCH   4  18
HETATM   18  O   UNL     1     -12.171  12.609  65.633  1.00  0.00    -0.512 OA 
HETATM   19  C   UNL     1     -13.391  12.599  64.894  1.00  0.00     0.845 C  
ENDBRANCH   4  18
BRANCH  12  20
HETATM   20  C   UNL     1      -6.968   7.357  70.519  1.00  0.00    -0.053 C  
HETATM   21  C   UNL     1      -7.887   6.198  70.932  1.00  0.00    -0.107 C  
HETATM   22  C   UNL     1      -7.409   5.638  72.280  1.00  0.00    -0.095 C  
HETATM   23  C   UNL     1      -7.909   5.067  69.903  1.00  0.00    -0.070 C  
ENDBRANCH  12  20
ENDBRANCH   2   3
TORSDOF 3
ENDMDL
MODEL      133
REMARK 921   NORMALIZED FREE ENERGY PREDICTED BY IDOCK:    0.42 KCAL/MOL
REMARK 922        TOTAL FREE ENERGY PREDICTED BY IDOCK:    0.16 KCAL/MOL
REMARK 923 INTER-LIGAND FREE ENERGY PREDICTED BY IDOCK:   -3.71 KCAL/MOL
REMARK 924 INTRA-LIGAND FREE ENERGY PREDICTED BY IDOCK:    3.87 KCAL/MOL
REMARK 927      BINDING AFFINITY PREDICTED BY RF-SCORE:    0.00 PKD
ROOT
HETATM    1  C   UNL     1      -6.414  13.458  68.931  1.00  0.00    -0.103 C  
HETATM    2  O   UNL     1      -7.351  12.562  68.342  1.00  0.00    -0.101 OA 
ENDROOT
BRANCH   2   3
HETATM    3  C   UNL     1      -7.683  11.447  69.072  1.00  0.00    -0.064 A  
HETATM    4  C   UNL     1      -6.848  10.725  69.934  1.00  0.00    -0.146 A  
HETATM    5  C   UNL     1      -7.377   9.622  70.608  1.00  0.00    -0.112 A  
HETATM    6  C   UNL     1      -8.999  11.002  68.851  1.00  0.00    -0.123 A  
HETATM    7  C   UNL     1      -8.671   9.135  70.347  1.00  0.00    -0.245 A  
HETATM    8  C   UNL     1      -9.493   9.839  69.470  1.00  0.00    -0.226 A  
HETATM    9  C   UNL     1      -9.080   7.795  70.944  1.00  0.00    -0.148 C  
HETATM   10  C   UNL     1      -8.113   6.742  70.398  1.00  0.00    -0.116 C  
HETATM   11  C   UNL     1      -8.448   5.471  71.095  1.00  0.00    -0.126 C  
HETATM   12  C   UNL     1      -9.815   4.922  70.752  1.00  0.00    -0.285 C  
HETATM   13  O   UNL     1      -7.665   4.948  71.882  1.00  0.00    -0.097 OA 
HETATM   14  C   UNL     1     -10.828   6.022  71.131  1.00  0.00    -0.277 C  
HETATM   15  C   UNL     1     -10.909   9.376  69.264  1.00  0.00    -0.190 C  
HETATM   16  C   UNL     1     -11.063   7.855  69.472  1.00  0.00     0.024 C  
HETATM   17  N   UNL     1     -10.500   7.419  70.752  1.00  0.00    -0.211 NA 
BRANCH   4  18
HETATM   18  O   UNL     1      -5.538  11.104  70.083  1.00  0.00    -0.075 OA 
HETATM   19  C   UNL     1      -5.308  12.456  70.473  1.00  0.00    -0.145 C  
ENDBRANCH   4  18
BRANCH  12  20
HETATM   20  C   UNL     1      -9.996   3.573  71.476  1.00  0.00    -0.172 C  
HETATM   21  C   UNL     1     -10.159   3.602  73.003  1.00  0.00    -0.220 C  
HETATM   22  C   UNL     1     -10.287   2.160  73.519  1.00  0.00    -0.200 C  
HETATM   23  C   UNL     1     -11.383   4.400  73.451  1.00  0.00    -0.353 C  
ENDBRANCH  12  20
ENDBRANCH   2   3
TORSDOF 3
ENDMDL
MODEL      134
REMARK 921   NORMALIZED FREE ENERGY PREDICTED BY IDOCK:    0.94 KCAL/MOL
REMARK 922        TOTAL FREE ENERGY PREDICTED BY IDOCK:    0.77 KCAL/MOL
REMARK 923 INTER-LIGAND FREE ENERGY PREDICTED BY IDOCK:   -0.19 KCAL/MOL
REMARK 924 INTRA-LIGAND FREE ENERGY PREDICTED BY IDOCK:    0.96 KCAL/MOL
REMARK 927      BINDING AFFINITY PREDICTED BY RF-SCORE:    0.00 PKD
ROOT
HETATM    1  C   UNL     1     -13.864  15.325  70.569  1.00  0.00     0.250 C  
HETATM    2  O   UNL     1     -13.742  13.944  70.893  1.00  0.00    -0.055 OA 
ENDROOT
BRANCH   2   3
HETATM    3  C   UNL     1     -12.622  13.298  70.429  1.00  0.00    -0.141 A  
HETATM    4  C   UNL     1     -11.363  13.863  70.187  1.00  0.00    -0.000 A  
HETATM    5  C   UNL     1     -10.335  13.034  69.732  1.00  0.00     1.118 A  
HETATM    6  C   UNL     1     -12.837  11.939  70.138  1.00  0.00     0.267 A  
HETATM    7  C   UNL     1     -10.558  11.690  69.381  1.00  0.00    -0.008 A  
HETATM    8  C   UNL     1     -11.817  11.134  69.598  1.00  0.00    -0.419 A  
HETATM    9  C   UNL     1      -9.446  10.928  68.670  1.00  0.00    -0.190 C  
HETATM   10  C   UNL     1      -9.157  11.665  67.361  1.00  0.00    -0.169 C  
HETATM   11  C   UNL     1      -7.985  10.982  66.751  1.00  0.00    -0.152 C  
HETATM   12  C   UNL     1      -8.257   9.561  66.315  1.00  0.00    -0.115 C  
HETATM   13  O   UNL     1      -6.902  11.550  66.639  1.00  0.00    -0.134 OA 
HETATM   14  C   UNL     1      -8.718   8.804  67.578  1.00  0.00    -0.134 C  
HETATM   15  C   UNL     1     -12.031   9.673  69.315  1.00  0.00     0.621 C  
HETATM   16  C   UNL     1     -11.096   9.150  68.204  1.00  0.00     0.168 C  
HETATM   17  N   UNL     1      -9.694   9.481  68.468  1.00  0.00    -0.149 NA 
BRANCH   4  18
HETATM   18  O   UNL     1     -11.174  15.207  70.384  1.00  0.00    -0.257 OA 
HETATM   19  C   UNL     1     -11.341  16.046  69.244  1.00  0.00    -0.356 C  
ENDBRANCH   4  18
BRANCH  12  20
HETATM   20  C   UNL     1      -6.990   9.006  65.634  1.00  0.00    -0.080 C  
HETATM   21  C   UNL     1      -7.133   8.457  64.207  1.00  0.00    -0.082 C  
HETATM   22  C   UNL     1      -5.770   7.926  63.737  1.00  0.00    -0.057 C  
HETATM   23  C   UNL     1      -7.625   9.510  63.214  1.00  0.00    -0.115 C  
ENDBRANCH  12  20
ENDBRANCH   2   3
TORSDOF 3
ENDMDL
MODEL      135
REMARK 921   NORMALIZED FREE ENERGY PREDICTED BY IDOCK:    0.95 KCAL/MOL
REMARK 922        TOTAL FREE ENERGY PREDICTED BY IDOCK:    0.78 KCAL/MOL
REMARK 923 INTER-LIGAND FREE ENERGY PREDICTED BY IDOCK:   -1.35 KCAL/MOL
REMARK 924 INTRA-LIGAND FREE ENERGY PREDICTED BY IDOCK:    2.13 KCAL/MOL
REMARK 927      BINDING AFFINITY PREDICTED BY RF-SCORE:    0.00 PKD
ROOT
HETATM    1  C   UNL     1      -9.162   5.011  62.332  1.00  0.00    -0.000 C  
HETATM    2  O   UNL     1      -8.098   4.179  62.782  1.00  0.00    -0.073 OA 
ENDROOT
BRANCH   2   3
HETATM    3  C   UNL     1      -7.756   4.278  64.109  1.00  0.00    -0.083 A  
HETATM    4  C   UNL     1      -6.569   3.834  64.708  1.00  0.00    -0.043 A  
HETATM    5  C   UNL     1      -6.395   4.042  66.078  1.00  0.00    -0.033 A  
HETATM    6  C   UNL     1      -8.763   4.847  64.909  1.00  0.00    -0.150 A  
HETATM    7  C   UNL     1      -7.421   4.555  66.894  1.00  0.00    -0.082 A  
HETATM    8  C   UNL     1      -8.611   4.972  66.302  1.00  0.00    -0.113 A  
HETATM    9  C   UNL     1      -7.233   4.525  68.406  1.00  0.00    -0.060 C  
HETATM   10  C   UNL     1      -7.060   3.060  68.812  1.00  0.00    -0.048 C  
HETATM   11  C   UNL     1      -6.749   3.068  70.267  1.00  0.00    -0.033 C  
HETATM   12  C   UNL     1      -7.884   3.555  71.138  1.00  0.00    -0.058 C  
HETATM   13  O   UNL     1      -5.651   2.714  70.687  1.00  0.00    -0.012 OA 
HETATM   14  C   UNL     1      -8.215   4.983  70.656  1.00  0.00    -0.102 C  
HETATM   15  C   UNL     1      -9.670   5.609  67.158  1.00  0.00    -0.151 C  
HETATM   16  C   UNL     1      -9.626   5.105  68.616  1.00  0.00    -0.142 C  
HETATM   17  N   UNL     1      -8.283   5.215  69.191  1.00  0.00    -0.084 NA 
BRANCH   4  18
HETATM   18  O   UNL     1      -5.622   3.198  63.948  1.00  0.00    -0.009 OA 
HETATM   19  C   UNL     1      -5.485   3.644  62.600  1.00  0.00    -0.005 C  
ENDBRANCH   4  18
BRANCH  12  20
HETATM   20  C   UNL     1      -7.455   3.435  72.614  1.00  0.00    -0.051 C  
HETATM   21  C   UNL     1      -5.970   3.649  72.943  1.00  0.00    -0.008 C  
HETATM   22  C   UNL     1      -5.758   3.448  74.450  1.00  0.00    -0.004 C  
HETATM   23  C   UNL     1      -5.474   5.041  72.552  1.00  0.00    -0.009 C  
ENDBRANCH  12  20
ENDBRANCH   2   3
TORSDOF 3
ENDMDL
MODEL      136
REMARK 921   NORMALIZED FREE ENERGY PREDICTED BY IDOCK:    2.73 KCAL/MOL
REMARK 922        TOTAL FREE ENERGY PREDICTED BY IDOCK:    2.87 KCAL/MOL
REMARK 923 INTER-LIGAND FREE ENERGY PREDICTED BY IDOCK:    0.79 KCAL/MOL
REMARK 924 INTRA-LIGAND FREE ENERGY PREDICTED BY IDOCK:    2.09 KCAL/MOL
REMARK 927      BINDING AFFINITY PREDICTED BY RF-SCORE:    0.00 PKD
ROOT
HETATM    1  C   UNL     1      -9.676  18.788  69.775  1.00  0.00     0.588 C  
HETATM    2  O   UNL     1      -8.460  18.062  69.622  1.00  0.00     0.572 OA 
ENDROOT
BRANCH   2   3
HETATM    3  C   UNL     1      -8.565  16.769  69.170  1.00  0.00    -0.086 A  
HETATM    4  C   UNL     1      -9.635  15.889  69.376  1.00  0.00    -0.265 A  
HETATM    5  C   UNL     1      -9.566  14.611  68.818  1.00  0.00    -0.210 A  
HETATM    6  C   UNL     1      -7.426  16.322  68.477  1.00  0.00    -0.176 A  
HETATM    7  C   UNL     1      -8.406  14.136  68.176  1.00  0.00    -0.161 A  
HETATM    8  C   UNL     1      -7.332  15.004  67.994  1.00  0.00    -0.135 A  
HETATM    9  C   UNL     1      -8.329  12.659  67.810  1.00  0.00    -0.172 C  
HETATM   10  C   UNL     1      -8.449  11.863  69.112  1.00  0.00     0.404 C  
HETATM   11  C   UNL     1      -8.503  10.430  68.717  1.00  0.00    -0.132 C  
HETATM   12  C   UNL     1      -7.226   9.914  68.092  1.00  0.00    -0.078 C  
HETATM   13  O   UNL     1      -9.516   9.758  68.887  1.00  0.00    -0.151 OA 
HETATM   14  C   UNL     1      -6.964  10.799  66.855  1.00  0.00    -0.109 C  
HETATM   15  C   UNL     1      -6.131  14.529  67.224  1.00  0.00     0.444 C  
HETATM   16  C   UNL     1      -5.928  13.004  67.338  1.00  0.00    -0.039 C  
HETATM   17  N   UNL     1      -7.148  12.264  67.007  1.00  0.00    -0.092 NA 
BRANCH   4  18
HETATM   18  O   UNL     1     -10.709  16.292  70.128  1.00  0.00    -0.308 OA 
HETATM   19  C   UNL     1     -11.707  17.055  69.452  1.00  0.00     1.209 C  
ENDBRANCH   4  18
BRANCH  12  20
HETATM   20  C   UNL     1      -7.394   8.408  67.808  1.00  0.00    -0.093 C  
HETATM   21  C   UNL     1      -7.424   7.960  66.340  1.00  0.00    -0.087 C  
HETATM   22  C   UNL     1      -7.635   6.439  66.285  1.00  0.00    -0.090 C  
HETATM   23  C   UNL     1      -6.139   8.311  65.589  1.00  0.00    -0.045 C  
ENDBRANCH  12  20
ENDBRANCH   2   3
TORSDOF 3
ENDMDL
MODEL      137
REMARK 921   NORMALIZED FREE ENERGY PREDICTED BY IDOCK:    3.16 KCAL/MOL
REMARK 922        TOTAL FREE ENERGY PREDICTED BY IDOCK:    3.37 KCAL/MOL
REMARK 923 INTER-LIGAND FREE ENERGY PREDICTED BY IDOCK:    1.87 KCAL/MOL
REMARK 924 INTRA-LIGAND FREE ENERGY PREDICTED BY IDOCK:    1.51 KCAL/MOL
REMARK 927      BINDING AFFINITY PREDICTED BY RF-SCORE:    0.00 PKD
ROOT
HETATM    1  C   UNL     1      -6.085  16.917  70.878  1.00  0.00     0.930 C  
HETATM    2  O   UNL     1      -6.605  15.620  71.149  1.00  0.00     0.855 OA 
ENDROOT
BRANCH   2   3
HETATM    3  C   UNL     1      -6.266  14.622  70.267  1.00  0.00    -0.173 A  
HETATM    4  C   UNL     1      -5.553  14.764  69.069  1.00  0.00    -0.092 A  
HETATM    5  C   UNL     1      -5.288  13.621  68.311  1.00  0.00    -0.107 A  
HETATM    6  C   UNL     1      -6.758  13.357  70.633  1.00  0.00     0.933 A  
HETATM    7  C   UNL     1      -5.828  12.363  68.639  1.00  0.00    -0.054 A  
HETATM    8  C   UNL     1      -6.559  12.228  69.817  1.00  0.00     0.032 A  
HETATM    9  C   UNL     1      -5.690  11.226  67.634  1.00  0.00    -0.047 C  
HETATM   10  C   UNL     1      -6.394  11.668  66.350  1.00  0.00     0.095 C  
HETATM   11  C   UNL     1      -6.133  10.601  65.347  1.00  0.00    -0.090 C  
HETATM   12  C   UNL     1      -6.777   9.274  65.676  1.00  0.00    -0.073 C  
HETATM   13  O   UNL     1      -5.441  10.813  64.355  1.00  0.00    -0.135 OA 
HETATM   14  C   UNL     1      -6.223   8.857  67.055  1.00  0.00    -0.059 C  
HETATM   15  C   UNL     1      -7.054  10.866  70.219  1.00  0.00     0.355 C  
HETATM   16  C   UNL     1      -7.307   9.953  69.001  1.00  0.00    -0.080 C  
HETATM   17  N   UNL     1      -6.147   9.899  68.109  1.00  0.00    -0.050 NA 
BRANCH   4  18
HETATM   18  O   UNL     1      -5.149  16.010  68.663  1.00  0.00    -0.092 OA 
HETATM   19  C   UNL     1      -5.757  16.520  67.478  1.00  0.00    -0.149 C  
ENDBRANCH   4  18
BRANCH  12  20
HETATM   20  C   UNL     1      -6.494   8.292  64.521  1.00  0.00    -0.065 C  
HETATM   21  C   UNL     1      -5.234   7.419  64.623  1.00  0.00    -0.029 C  
HETATM   22  C   UNL     1      -5.126   6.551  63.360  1.00  0.00    -0.022 C  
HETATM   23  C   UNL     1      -5.243   6.511  65.852  1.00  0.00    -0.017 C  
ENDBRANCH  12  20
ENDBRANCH   2   3
TORSDOF 3
ENDMDL
MODEL      138
REMARK 921   NORMALIZED FREE ENERGY PREDICTED BY IDOCK:    3.32 KCAL/MOL
REMARK 922        TOTAL FREE ENERGY PREDICTED BY IDOCK:    3.56 KCAL/MOL
REMARK 923 INTER-LIGAND FREE ENERGY PREDICTED BY IDOCK:    0.95 KCAL/MOL
REMARK 924 INTRA-LIGAND FREE ENERGY PREDICTED BY IDOCK:    2.61 KCAL/MOL
REMARK 927      BINDING AFFINITY PREDICTED BY RF-SCORE:    0.00 PKD
ROOT
HETATM    1  C   UNL     1      -6.120  18.413  72.654  1.00  0.00     2.851 C  
HETATM    2  O   UNL     1      -5.443  18.012  71.468  1.00  0.00    -0.162 OA 
ENDROOT
BRANCH   2   3
HETATM    3  C   UNL     1      -6.190  17.347  70.525  1.00  0.00     0.617 A  
HETATM    4  C   UNL     1      -7.144  17.900  69.662  1.00  0.00     0.238 A  
HETATM    5  C   UNL     1      -7.790  17.059  68.753  1.00  0.00    -0.253 A  
HETATM    6  C   UNL     1      -5.964  15.959  70.507  1.00  0.00     0.059 A  
HETATM    7  C   UNL     1      -7.615  15.663  68.771  1.00  0.00    -0.162 A  
HETATM    8  C   UNL     1      -6.685  15.109  69.647  1.00  0.00    -0.181 A  
HETATM    9  C   UNL     1      -8.533  14.803  67.912  1.00  0.00    -0.155 C  
HETATM   10  C   UNL     1      -9.966  15.056  68.386  1.00  0.00    -0.225 C  
HETATM   11  C   UNL     1     -10.849  14.309  67.451  1.00  0.00    -0.285 C  
HETATM   12  C   UNL     1     -10.701  12.807  67.529  1.00  0.00    -0.247 C  
HETATM   13  O   UNL     1     -11.612  14.895  66.687  1.00  0.00    -0.342 OA 
HETATM   14  C   UNL     1      -9.220  12.504  67.220  1.00  0.00    -0.190 C  
HETATM   15  C   UNL     1      -6.425  13.629  69.600  1.00  0.00    -0.083 C  
HETATM   16  C   UNL     1      -7.659  12.834  69.122  1.00  0.00     0.259 C  
HETATM   17  N   UNL     1      -8.194  13.361  67.865  1.00  0.00    -0.148 NA 
BRANCH   4  18
HETATM   18  O   UNL     1      -7.432  19.239  69.738  1.00  0.00    -0.017 OA 
HETATM   19  C   UNL     1      -8.573  19.686  69.009  1.00  0.00    -0.117 C  
ENDBRANCH   4  18
BRANCH  12  20
HETATM   20  C   UNL     1     -11.725  12.163  66.572  1.00  0.00    -0.392 C  
HETATM   21  C   UNL     1     -12.351  13.060  65.494  1.00  0.00    -0.527 C  
HETATM   22  C   UNL     1     -13.361  12.234  64.683  1.00  0.00     0.805 C  
HETATM   23  C   UNL     1     -11.312  13.650  64.540  1.00  0.00    -0.393 C  
ENDBRANCH  12  20
ENDBRANCH   2   3
TORSDOF 3
ENDMDL
MODEL      139
REMARK 921   NORMALIZED FREE ENERGY PREDICTED BY IDOCK:    3.77 KCAL/MOL
REMARK 922        TOTAL FREE ENERGY PREDICTED BY IDOCK:    4.09 KCAL/MOL
REMARK 923 INTER-LIGAND FREE ENERGY PREDICTED BY IDOCK:   -0.76 KCAL/MOL
REMARK 924 INTRA-LIGAND FREE ENERGY PREDICTED BY IDOCK:    4.85 KCAL/MOL
REMARK 927      BINDING AFFINITY PREDICTED BY RF-SCORE:    0.00 PKD
ROOT
HETATM    1  C   UNL     1     -11.955  13.463  63.246  1.00  0.00    -0.227 C  
HETATM    2  O   UNL     1     -10.985  12.659  62.582  1.00  0.00     0.739 OA 
ENDROOT
BRANCH   2   3
HETATM    3  C   UNL     1     -10.531  11.553  63.259  1.00  0.00    -0.362 A  
HETATM    4  C   UNL     1     -11.125  10.944  64.372  1.00  0.00     0.231 A  
HETATM    5  C   UNL     1     -10.520   9.808  64.914  1.00  0.00     0.921 A  
HETATM    6  C   UNL     1      -9.311  11.055  62.768  1.00  0.00    -0.372 A  
HETATM    7  C   UNL     1      -9.270   9.341  64.467  1.00  0.00    -0.065 A  
HETATM    8  C   UNL     1      -8.666   9.963  63.377  1.00  0.00    -0.230 A  
HETATM    9  C   UNL     1      -8.572   8.248  65.267  1.00  0.00    -0.132 C  
HETATM   10  C   UNL     1      -8.341   8.796  66.677  1.00  0.00    -0.108 C  
HETATM   11  C   UNL     1      -7.780   7.670  67.471  1.00  0.00    -0.118 C  
HETATM   12  C   UNL     1      -6.407   7.223  67.025  1.00  0.00    -0.051 C  
HETATM   13  O   UNL     1      -8.412   7.163  68.395  1.00  0.00    -0.124 OA 
HETATM   14  C   UNL     1      -6.547   6.813  65.544  1.00  0.00    -0.051 C  
HETATM   15  C   UNL     1      -7.378   9.405  62.837  1.00  0.00    -0.101 C  
HETATM   16  C   UNL     1      -6.546   8.696  63.925  1.00  0.00    -0.076 C  
HETATM   17  N   UNL     1      -7.336   7.703  64.657  1.00  0.00    -0.079 NA 
BRANCH   4  18
HETATM   18  O   UNL     1     -12.267  11.480  64.909  1.00  0.00     0.002 OA 
HETATM   19  C   UNL     1     -12.154  12.788  65.466  1.00  0.00    -0.465 C  
ENDBRANCH   4  18
BRANCH  12  20
HETATM   20  C   UNL     1      -5.918   6.114  67.979  1.00  0.00    -0.016 C  
HETATM   21  C   UNL     1      -5.644   6.502  69.439  1.00  0.00    -0.014 C  
HETATM   22  C   UNL     1      -5.136   5.267  70.197  1.00  0.00    -0.004 C  
HETATM   23  C   UNL     1      -6.884   7.046  70.149  1.00  0.00    -0.060 C  
ENDBRANCH  12  20
ENDBRANCH   2   3
TORSDOF 3
ENDMDL
MODEL      140
REMARK 921   NORMALIZED FREE ENERGY PREDICTED BY IDOCK:    4.77 KCAL/MOL
REMARK 922        TOTAL FREE ENERGY PREDICTED BY IDOCK:    5.27 KCAL/MOL
REMARK 923 INTER-LIGAND FREE ENERGY PREDICTED BY IDOCK:    5.55 KCAL/MOL
REMARK 924 INTRA-LIGAND FREE ENERGY PREDICTED BY IDOCK:   -0.28 KCAL/MOL
REMARK 927      BINDING AFFINITY PREDICTED BY RF-SCORE:    0.00 PKD
ROOT
HETATM    1  C   UNL     1     -12.048   5.694  63.886  1.00  0.00     6.912 C  
HETATM    2  O   UNL     1     -11.283   4.494  63.840  1.00  0.00     0.292 OA 
ENDROOT
BRANCH   2   3
HETATM    3  C   UNL     1     -10.314   4.342  64.802  1.00  0.00    -0.143 A  
HETATM    4  C   UNL     1      -9.249   3.431  64.787  1.00  0.00    -0.142 A  
HETATM    5  C   UNL     1      -8.349   3.439  65.856  1.00  0.00    -0.103 A  
HETATM    6  C   UNL     1     -10.491   5.181  65.916  1.00  0.00    -0.172 A  
HETATM    7  C   UNL     1      -8.553   4.232  67.000  1.00  0.00    -0.104 A  
HETATM    8  C   UNL     1      -9.627   5.119  67.025  1.00  0.00    -0.155 A  
HETATM    9  C   UNL     1      -7.660   4.004  68.213  1.00  0.00    -0.066 C  
HETATM   10  C   UNL     1      -7.863   2.555  68.660  1.00  0.00    -0.058 C  
HETATM   11  C   UNL     1      -6.887   2.320  69.758  1.00  0.00    -0.033 C  
HETATM   12  C   UNL     1      -7.159   3.126  71.007  1.00  0.00    -0.033 C  
HETATM   13  O   UNL     1      -5.948   1.540  69.622  1.00  0.00    -0.021 OA 
HETATM   14  C   UNL     1      -7.132   4.608  70.578  1.00  0.00    -0.048 C  
HETATM   15  C   UNL     1      -9.791   6.036  68.205  1.00  0.00    -0.152 C  
HETATM   16  C   UNL     1      -9.213   5.431  69.501  1.00  0.00    -0.117 C  
HETATM   17  N   UNL     1      -7.833   4.972  69.322  1.00  0.00    -0.075 NA 
BRANCH   4  18
HETATM   18  O   UNL     1      -9.125   2.549  63.745  1.00  0.00    -0.093 OA 
HETATM   19  C   UNL     1      -7.799   2.136  63.417  1.00  0.00    -0.063 C  
ENDBRANCH   4  18
BRANCH  12  20
HETATM   20  C   UNL     1      -6.128   2.727  72.082  1.00  0.00    -0.013 C  
HETATM   21  C   UNL     1      -6.515   2.938  73.553  1.00  0.00    -0.021 C  
HETATM   22  C   UNL     1      -5.339   2.512  74.445  1.00  0.00     0.000 C  
HETATM   23  C   UNL     1      -7.758   2.144  73.956  1.00  0.00    -0.041 C  
ENDBRANCH  12  20
ENDBRANCH   2   3
TORSDOF 3
ENDMDL
MODEL      141
REMARK 921   NORMALIZED FREE ENERGY PREDICTED BY IDOCK:    5.15 KCAL/MOL
REMARK 922        TOTAL FREE ENERGY PREDICTED BY IDOCK:    5.71 KCAL/MOL
REMARK 923 INTER-LIGAND FREE ENERGY PREDICTED BY IDOCK:    4.68 KCAL/MOL
REMARK 924 INTRA-LIGAND FREE ENERGY PREDICTED BY IDOCK:    1.04 KCAL/MOL
REMARK 927      BINDING AFFINITY PREDICTED BY RF-SCORE:    0.00 PKD
ROOT
HETATM    1  C   UNL     1     -11.771   3.839  74.112  1.00  0.00     0.997 C  
HETATM    2  O   UNL     1     -12.021   5.175  73.688  1.00  0.00     0.294 OA 
ENDROOT
BRANCH   2   3
HETATM    3  C   UNL     1     -11.521   5.537  72.461  1.00  0.00    -0.244 A  
HETATM    4  C   UNL     1     -12.257   5.846  71.309  1.00  0.00     0.680 A  
HETATM    5  C   UNL     1     -11.565   6.213  70.153  1.00  0.00    -0.260 A  
HETATM    6  C   UNL     1     -10.116   5.531  72.402  1.00  0.00    -0.218 A  
HETATM    7  C   UNL     1     -10.162   6.150  70.069  1.00  0.00    -0.250 A  
HETATM    8  C   UNL     1      -9.430   5.818  71.207  1.00  0.00    -0.179 A  
HETATM    9  C   UNL     1      -9.505   6.335  68.706  1.00  0.00    -0.122 C  
HETATM   10  C   UNL     1     -10.034   5.226  67.794  1.00  0.00    -0.204 C  
HETATM   11  C   UNL     1      -9.482   5.505  66.441  1.00  0.00    -0.155 C  
HETATM   12  C   UNL     1      -7.980   5.366  66.347  1.00  0.00    -0.104 C  
HETATM   13  O   UNL     1     -10.212   5.829  65.508  1.00  0.00     0.364 OA 
HETATM   14  C   UNL     1      -7.391   6.352  67.377  1.00  0.00    -0.087 C  
HETATM   15  C   UNL     1      -7.929   5.844  71.145  1.00  0.00    -0.113 C  
HETATM   16  C   UNL     1      -7.396   5.549  69.727  1.00  0.00    -0.066 C  
HETATM   17  N   UNL     1      -8.024   6.405  68.718  1.00  0.00    -0.109 NA 
BRANCH   4  18
HETATM   18  O   UNL     1     -13.626   5.767  71.338  1.00  0.00     1.829 OA 
HETATM   19  C   UNL     1     -14.201   5.108  72.465  1.00  0.00     2.767 C  
ENDBRANCH   4  18
BRANCH  12  20
HETATM   20  C   UNL     1      -7.557   5.602  64.884  1.00  0.00    -0.083 C  
HETATM   21  C   UNL     1      -6.214   5.012  64.427  1.00  0.00    -0.022 C  
HETATM   22  C   UNL     1      -5.973   5.394  62.959  1.00  0.00    -0.018 C  
HETATM   23  C   UNL     1      -6.163   3.490  64.560  1.00  0.00    -0.023 C  
ENDBRANCH  12  20
ENDBRANCH   2   3
TORSDOF 3
ENDMDL
MODEL      142
REMARK 921   NORMALIZED FREE ENERGY PREDICTED BY IDOCK:    8.34 KCAL/MOL
REMARK 922        TOTAL FREE ENERGY PREDICTED BY IDOCK:    9.47 KCAL/MOL
REMARK 923 INTER-LIGAND FREE ENERGY PREDICTED BY IDOCK:    5.85 KCAL/MOL
REMARK 924 INTRA-LIGAND FREE ENERGY PREDICTED BY IDOCK:    3.62 KCAL/MOL
REMARK 927      BINDING AFFINITY PREDICTED BY RF-SCORE:    0.00 PKD
ROOT
HETATM    1  C   UNL     1     -13.484  16.159  64.527  1.00  0.00     3.690 C  
HETATM    2  O   UNL     1     -12.299  15.554  64.021  1.00  0.00    -0.650 OA 
ENDROOT
BRANCH   2   3
HETATM    3  C   UNL     1     -11.307  15.282  64.932  1.00  0.00    -0.384 A  
HETATM    4  C   UNL     1     -11.218  14.164  65.772  1.00  0.00    -0.312 A  
HETATM    5  C   UNL     1     -10.116  14.054  66.623  1.00  0.00    -0.276 A  
HETATM    6  C   UNL     1     -10.333  16.292  65.022  1.00  0.00    -0.025 A  
HETATM    7  C   UNL     1      -9.171  15.088  66.762  1.00  0.00    -0.280 A  
HETATM    8  C   UNL     1      -9.274  16.212  65.945  1.00  0.00    -0.296 A  
HETATM    9  C   UNL     1      -8.142  14.989  67.881  1.00  0.00    -0.136 C  
HETATM   10  C   UNL     1      -8.912  14.939  69.202  1.00  0.00    -0.140 C  
HETATM   11  C   UNL     1      -7.896  14.711  70.265  1.00  0.00     0.841 C  
HETATM   12  C   UNL     1      -6.930  15.859  70.451  1.00  0.00     0.740 C  
HETATM   13  O   UNL     1      -7.867  13.664  70.907  1.00  0.00     2.965 OA 
HETATM   14  C   UNL     1      -6.239  16.065  69.087  1.00  0.00    -0.145 C  
HETATM   15  C   UNL     1      -8.212  17.273  66.023  1.00  0.00    -0.175 C  
HETATM   16  C   UNL     1      -7.560  17.346  67.420  1.00  0.00    -0.191 C  
HETATM   17  N   UNL     1      -7.091  16.034  67.873  1.00  0.00    -0.127 NA 
BRANCH   4  18
HETATM   18  O   UNL     1     -12.212  13.219  65.752  1.00  0.00    -0.417 OA 
HETATM   19  C   UNL     1     -11.898  11.954  66.329  1.00  0.00    -0.028 C  
ENDBRANCH   4  18
BRANCH  12  20
HETATM   20  C   UNL     1      -5.992  15.523  71.628  1.00  0.00     0.836 C  
HETATM   21  C   UNL     1      -6.126  14.135  72.270  1.00  0.00     0.484 C  
HETATM   22  C   UNL     1      -5.133  14.026  73.437  1.00  0.00    -0.342 C  
HETATM   23  C   UNL     1      -5.859  12.999  71.283  1.00  0.00     0.213 C  
ENDBRANCH  12  20
ENDBRANCH   2   3
TORSDOF 3
ENDMDL
MODEL      143
REMARK 921   NORMALIZED FREE ENERGY PREDICTED BY IDOCK:    9.41 KCAL/MOL
REMARK 922        TOTAL FREE ENERGY PREDICTED BY IDOCK:   10.72 KCAL/MOL
REMARK 923 INTER-LIGAND FREE ENERGY PREDICTED BY IDOCK:    7.87 KCAL/MOL
REMARK 924 INTRA-LIGAND FREE ENERGY PREDICTED BY IDOCK:    2.85 KCAL/MOL
REMARK 927      BINDING AFFINITY PREDICTED BY RF-SCORE:    0.00 PKD
ROOT
HETATM    1  C   UNL     1     -11.119   2.829  69.883  1.00  0.00     5.843 C  
HETATM    2  O   UNL     1     -10.825   3.210  68.542  1.00  0.00     3.205 OA 
ENDROOT
BRANCH   2   3
HETATM    3  C   UNL     1     -10.126   4.379  68.372  1.00  0.00     0.096 A  
HETATM    4  C   UNL     1      -8.782   4.612  68.694  1.00  0.00    -0.097 A  
HETATM    5  C   UNL     1      -8.240   5.871  68.427  1.00  0.00    -0.109 A  
HETATM    6  C   UNL     1     -10.907   5.433  67.864  1.00  0.00     0.042 A  
HETATM    7  C   UNL     1      -9.028   6.946  67.976  1.00  0.00    -0.121 A  
HETATM    8  C   UNL     1     -10.371   6.721  67.681  1.00  0.00    -0.255 A  
HETATM    9  C   UNL     1      -8.411   8.338  67.941  1.00  0.00    -0.132 C  
HETATM   10  C   UNL     1      -7.997   8.687  69.372  1.00  0.00    -0.102 C  
HETATM   11  C   UNL     1      -7.282   9.988  69.290  1.00  0.00    -0.078 C  
HETATM   12  C   UNL     1      -8.157  11.148  68.872  1.00  0.00    -0.115 C  
HETATM   13  O   UNL     1      -6.081  10.074  69.536  1.00  0.00    -0.040 OA 
HETATM   14  C   UNL     1      -8.740  10.773  67.495  1.00  0.00    -0.125 C  
HETATM   15  C   UNL     1     -11.192   7.843  67.108  1.00  0.00     0.606 C  
HETATM   16  C   UNL     1     -10.684   9.229  67.559  1.00  0.00    -0.203 C  
HETATM   17  N   UNL     1      -9.249   9.390  67.317  1.00  0.00    -0.129 NA 
BRANCH   4  18
HETATM   18  O   UNL     1      -8.041   3.613  69.272  1.00  0.00    -0.054 OA 
HETATM   19  C   UNL     1      -8.618   2.969  70.406  1.00  0.00    -0.063 C  
ENDBRANCH   4  18
BRANCH  12  20
HETATM   20  C   UNL     1      -7.311  12.437  68.908  1.00  0.00    -0.031 C  
HETATM   21  C   UNL     1      -5.874  12.360  68.371  1.00  0.00    -0.056 C  
HETATM   22  C   UNL     1      -5.206  13.733  68.534  1.00  0.00    -0.091 C  
HETATM   23  C   UNL     1      -5.814  11.949  66.900  1.00  0.00    -0.118 C  
ENDBRANCH  12  20
ENDBRANCH   2   3
TORSDOF 3
ENDMDL
MODEL      144
REMARK 921   NORMALIZED FREE ENERGY PREDICTED BY IDOCK:   17.81 KCAL/MOL
REMARK 922        TOTAL FREE ENERGY PREDICTED BY IDOCK:   20.59 KCAL/MOL
REMARK 923 INTER-LIGAND FREE ENERGY PREDICTED BY IDOCK:   20.74 KCAL/MOL
REMARK 924 INTRA-LIGAND FREE ENERGY PREDICTED BY IDOCK:   -0.14 KCAL/MOL
REMARK 927      BINDING AFFINITY PREDICTED BY RF-SCORE:    0.00 PKD
ROOT
HETATM    1  C   UNL     1     -13.777   5.535  62.758  1.00  0.00    11.822 C  
HETATM    2  O   UNL     1     -12.860   4.448  62.681  1.00  0.00     4.288 OA 
ENDROOT
BRANCH   2   3
HETATM    3  C   UNL     1     -11.842   4.433  63.604  1.00  0.00     2.231 A  
HETATM    4  C   UNL     1     -10.642   3.714  63.522  1.00  0.00    -0.260 A  
HETATM    5  C   UNL     1      -9.715   3.843  64.559  1.00  0.00    -0.183 A  
HETATM    6  C   UNL     1     -12.112   5.198  64.752  1.00  0.00     3.593 A  
HETATM    7  C   UNL     1     -10.003   4.557  65.737  1.00  0.00    -0.253 A  
HETATM    8  C   UNL     1     -11.207   5.251  65.829  1.00  0.00     0.468 A  
HETATM    9  C   UNL     1      -9.037   4.447  66.910  1.00  0.00    -0.129 C  
HETATM   10  C   UNL     1      -8.979   2.972  67.313  1.00  0.00    -0.184 C  
HETATM   11  C   UNL     1      -7.936   2.873  68.368  1.00  0.00    -0.057 C  
HETATM   12  C   UNL     1      -8.288   3.587  69.653  1.00  0.00    -0.079 C  
HETATM   13  O   UNL     1      -6.886   2.266  68.174  1.00  0.00    -0.041 OA 
HETATM   14  C   UNL     1      -8.525   5.063  69.275  1.00  0.00    -0.088 C  
HETATM   15  C   UNL     1     -11.476   6.093  67.045  1.00  0.00     0.304 C  
HETATM   16  C   UNL     1     -10.754   5.557  68.299  1.00  0.00    -0.081 C  
HETATM   17  N   UNL     1      -9.326   5.341  68.057  1.00  0.00    -0.113 NA 
BRANCH   4  18
HETATM   18  O   UNL     1     -10.413   2.896  62.446  1.00  0.00    -0.113 OA 
HETATM   19  C   UNL     1     -11.220   1.723  62.357  1.00  0.00    -0.210 C  
ENDBRANCH   4  18
BRANCH  12  20
HETATM   20  C   UNL     1      -7.164   3.334  70.678  1.00  0.00    -0.033 C  
HETATM   21  C   UNL     1      -7.438   3.709  72.141  1.00  0.00    -0.057 C  
HETATM   22  C   UNL     1      -6.184   3.413  72.977  1.00  0.00    -0.009 C  
HETATM   23  C   UNL     1      -8.622   2.946  72.735  1.00  0.00    -0.078 C  
ENDBRANCH  12  20
ENDBRANCH   2   3
TORSDOF 3
ENDMDL
MODEL      145
REMARK 921   NORMALIZED FREE ENERGY PREDICTED BY IDOCK:   21.94 KCAL/MOL
REMARK 922        TOTAL FREE ENERGY PREDICTED BY IDOCK:   25.45 KCAL/MOL
REMARK 923 INTER-LIGAND FREE ENERGY PREDICTED BY IDOCK:   20.97 KCAL/MOL
REMARK 924 INTRA-LIGAND FREE ENERGY PREDICTED BY IDOCK:    4.48 KCAL/MOL
REMARK 927      BINDING AFFINITY PREDICTED BY RF-SCORE:    0.00 PKD
ROOT
HETATM    1  C   UNL     1      -6.708  18.266  73.425  1.00  0.00     7.231 C  
HETATM    2  O   UNL     1      -5.871  18.339  72.276  1.00  0.00     0.481 OA 
ENDROOT
BRANCH   2   3
HETATM    3  C   UNL     1      -6.465  18.093  71.062  1.00  0.00     1.816 A  
HETATM    4  C   UNL     1      -7.440  18.874  70.427  1.00  0.00     1.593 A  
HETATM    5  C   UNL     1      -7.913  18.467  69.178  1.00  0.00    -0.009 A  
HETATM    6  C   UNL     1      -6.048  16.890  70.466  1.00  0.00     0.384 A  
HETATM    7  C   UNL     1      -7.546  17.235  68.604  1.00  0.00    -0.260 A  
HETATM    8  C   UNL     1      -6.597  16.445  69.248  1.00  0.00    -0.206 A  
HETATM    9  C   UNL     1      -8.289  16.761  67.361  1.00  0.00    -0.181 C  
HETATM   10  C   UNL     1      -9.766  16.630  67.738  1.00  0.00    -0.240 C  
HETATM   11  C   UNL     1     -10.485  16.294  66.480  1.00  0.00    -0.290 C  
HETATM   12  C   UNL     1     -10.134  14.939  65.911  1.00  0.00    -0.348 C  
HETATM   13  O   UNL     1     -11.280  17.079  65.969  1.00  0.00     0.243 OA 
HETATM   14  C   UNL     1      -8.611  14.956  65.666  1.00  0.00     1.604 C  
HETATM   15  C   UNL     1      -6.131  15.177  68.589  1.00  0.00    -0.086 C  
HETATM   16  C   UNL     1      -7.215  14.559  67.680  1.00  0.00    -0.187 C  
HETATM   17  N   UNL     1      -7.750  15.534  66.728  1.00  0.00    -0.159 NA 
BRANCH   4  18
HETATM   18  O   UNL     1      -7.914  20.002  71.047  1.00  0.00     1.137 OA 
HETATM   19  C   UNL     1      -9.096  20.580  70.496  1.00  0.00     1.892 C  
ENDBRANCH   4  18
BRANCH  12  20
HETATM   20  C   UNL     1     -11.005  14.690  64.663  1.00  0.00    -0.340 C  
HETATM   21  C   UNL     1     -12.483  15.099  64.736  1.00  0.00     0.009 C  
HETATM   22  C   UNL     1     -13.169  14.732  63.411  1.00  0.00     2.750 C  
HETATM   23  C   UNL     1     -12.671  16.595  64.994  1.00  0.00     4.138 C  
ENDBRANCH  12  20
ENDBRANCH   2   3
TORSDOF 3
ENDMDL
MODEL      146
REMARK 921   NORMALIZED FREE ENERGY PREDICTED BY IDOCK:   23.86 KCAL/MOL
REMARK 922        TOTAL FREE ENERGY PREDICTED BY IDOCK:   27.71 KCAL/MOL
REMARK 923 INTER-LIGAND FREE ENERGY PREDICTED BY IDOCK:   27.70 KCAL/MOL
REMARK 924 INTRA-LIGAND FREE ENERGY PREDICTED BY IDOCK:    0.00 KCAL/MOL
REMARK 927      BINDING AFFINITY PREDICTED BY RF-SCORE:    0.00 PKD
ROOT
HETATM    1  C   UNL     1     -10.459   8.196  66.995  1.00  0.00    -0.326 C  
HETATM    2  O   UNL     1      -9.778   8.625  68.170  1.00  0.00    -0.151 OA 
ENDROOT
BRANCH   2   3
HETATM    3  C   UNL     1      -9.929   9.943  68.525  1.00  0.00    -0.159 A  
HETATM    4  C   UNL     1      -9.111  11.016  68.147  1.00  0.00    -0.155 A  
HETATM    5  C   UNL     1      -9.439  12.297  68.597  1.00  0.00    -0.030 A  
HETATM    6  C   UNL     1     -11.005  10.170  69.401  1.00  0.00    -0.285 A  
HETATM    7  C   UNL     1     -10.476  12.523  69.521  1.00  0.00     0.501 A  
HETATM    8  C   UNL     1     -11.273  11.451  69.918  1.00  0.00    -0.221 A  
HETATM    9  C   UNL     1     -10.611  13.908  70.141  1.00  0.00     0.850 C  
HETATM   10  C   UNL     1      -9.307  14.200  70.887  1.00  0.00     4.215 C  
HETATM   11  C   UNL     1      -9.412  15.603  71.369  1.00  0.00     3.295 C  
HETATM   12  C   UNL     1     -10.484  15.818  72.413  1.00  0.00     2.383 C  
HETATM   13  O   UNL     1      -8.683  16.487  70.927  1.00  0.00     3.604 OA 
HETATM   14  C   UNL     1     -11.812  15.377  71.764  1.00  0.00    -0.412 C  
HETATM   15  C   UNL     1     -12.442  11.706  70.829  1.00  0.00    -0.425 C  
HETATM   16  C   UNL     1     -12.213  12.926  71.746  1.00  0.00     0.630 C  
HETATM   17  N   UNL     1     -11.811  14.112  70.987  1.00  0.00    -0.259 NA 
BRANCH   4  18
HETATM   18  O   UNL     1      -8.008  10.785  67.365  1.00  0.00    -0.109 OA 
HETATM   19  C   UNL     1      -7.313  11.937  66.892  1.00  0.00    -0.075 C  
ENDBRANCH   4  18
BRANCH  12  20
HETATM   20  C   UNL     1     -10.427  17.287  72.878  1.00  0.00     5.409 C  
HETATM   21  C   UNL     1     -11.761  18.015  73.099  1.00  0.00     2.145 C  
HETATM   22  C   UNL     1     -11.475  19.465  73.520  1.00  0.00     6.304 C  
HETATM   23  C   UNL     1     -12.627  17.349  74.169  1.00  0.00     0.977 C  
ENDBRANCH  12  20
ENDBRANCH   2   3
TORSDOF 3
ENDMDL
MODEL      147
REMARK 921   NORMALIZED FREE ENERGY PREDICTED BY IDOCK:   27.80 KCAL/MOL
REMARK 922        TOTAL FREE ENERGY PREDICTED BY IDOCK:   32.34 KCAL/MOL
REMARK 923 INTER-LIGAND FREE ENERGY PREDICTED BY IDOCK:   28.38 KCAL/MOL
REMARK 924 INTRA-LIGAND FREE ENERGY PREDICTED BY IDOCK:    3.96 KCAL/MOL
REMARK 927      BINDING AFFINITY PREDICTED BY RF-SCORE:    0.00 PKD
ROOT
HETATM    1  C   UNL     1      -9.574  13.954  62.785  1.00  0.00    10.171 C  
HETATM    2  O   UNL     1      -9.655  13.125  63.939  1.00  0.00     0.160 OA 
ENDROOT
BRANCH   2   3
HETATM    3  C   UNL     1      -9.633  13.758  65.158  1.00  0.00     0.232 A  
HETATM    4  C   UNL     1      -9.914  13.190  66.407  1.00  0.00    -0.282 A  
HETATM    5  C   UNL     1      -9.820  13.997  67.543  1.00  0.00    -0.236 A  
HETATM    6  C   UNL     1      -9.342  15.131  65.072  1.00  0.00     0.971 A  
HETATM    7  C   UNL     1      -9.589  15.383  67.461  1.00  0.00    -0.206 A  
HETATM    8  C   UNL     1      -9.336  15.953  66.215  1.00  0.00    -0.357 A  
HETATM    9  C   UNL     1      -9.740  16.224  68.722  1.00  0.00    -0.240 C  
HETATM   10  C   UNL     1     -11.183  16.063  69.204  1.00  0.00    -0.342 C  
HETATM   11  C   UNL     1     -11.269  16.783  70.502  1.00  0.00     0.254 C  
HETATM   12  C   UNL     1     -11.088  18.280  70.390  1.00  0.00     3.006 C  
HETATM   13  O   UNL     1     -11.460  16.182  71.556  1.00  0.00    -0.417 OA 
HETATM   14  C   UNL     1      -9.702  18.499  69.749  1.00  0.00     0.670 C  
HETATM   15  C   UNL     1      -8.993  17.414  66.135  1.00  0.00    -0.174 C  
HETATM   16  C   UNL     1      -9.628  18.228  67.282  1.00  0.00    -0.281 C  
HETATM   17  N   UNL     1      -9.337  17.644  68.593  1.00  0.00    -0.282 NA 
BRANCH   4  18
HETATM   18  O   UNL     1     -10.286  11.873  66.485  1.00  0.00    -0.210 OA 
HETATM   19  C   UNL     1      -9.672  11.099  67.514  1.00  0.00    -0.176 C  
ENDBRANCH   4  18
BRANCH  12  20
HETATM   20  C   UNL     1     -11.280  18.903  71.788  1.00  0.00     5.055 C  
HETATM   21  C   UNL     1     -11.585  17.951  72.954  1.00  0.00     2.100 C  
HETATM   22  C   UNL     1     -11.775  18.776  74.236  1.00  0.00     3.178 C  
HETATM   23  C   UNL     1     -10.475  16.925  73.184  1.00  0.00     5.784 C  
ENDBRANCH  12  20
ENDBRANCH   2   3
TORSDOF 3
ENDMDL
MODEL      148
REMARK 921   NORMALIZED FREE ENERGY PREDICTED BY IDOCK:   33.23 KCAL/MOL
REMARK 922        TOTAL FREE ENERGY PREDICTED BY IDOCK:   38.72 KCAL/MOL
REMARK 923 INTER-LIGAND FREE ENERGY PREDICTED BY IDOCK:   37.89 KCAL/MOL
REMARK 924 INTRA-LIGAND FREE ENERGY PREDICTED BY IDOCK:    0.83 KCAL/MOL
REMARK 927      BINDING AFFINITY PREDICTED BY RF-SCORE:    0.00 PKD
ROOT
HETATM    1  C   UNL     1      -6.660  17.039  71.382  1.00  0.00     3.442 C  
HETATM    2  O   UNL     1      -6.796  15.736  71.940  1.00  0.00     2.805 OA 
ENDROOT
BRANCH   2   3
HETATM    3  C   UNL     1      -7.064  14.713  71.062  1.00  0.00     1.173 A  
HETATM    4  C   UNL     1      -6.282  14.313  69.971  1.00  0.00    -0.157 A  
HETATM    5  C   UNL     1      -6.715  13.231  69.201  1.00  0.00    -0.092 A  
HETATM    6  C   UNL     1      -8.292  14.072  71.305  1.00  0.00     5.989 A  
HETATM    7  C   UNL     1      -7.969  12.624  69.400  1.00  0.00     0.831 A  
HETATM    8  C   UNL     1      -8.759  13.040  70.469  1.00  0.00     6.239 A  
HETATM    9  C   UNL     1      -8.463  11.616  68.369  1.00  0.00    -0.157 C  
HETATM   10  C   UNL     1      -8.554  12.348  67.028  1.00  0.00    -0.191 C  
HETATM   11  C   UNL     1      -8.910  11.316  66.018  1.00  0.00    -0.184 C  
HETATM   12  C   UNL     1     -10.288  10.722  66.202  1.00  0.00    -0.300 C  
HETATM   13  O   UNL     1      -8.124  10.992  65.132  1.00  0.00     0.018 OA 
HETATM   14  C   UNL     1     -10.307  10.110  67.619  1.00  0.00    -0.219 C  
HETATM   15  C   UNL     1     -10.054  12.328  70.742  1.00  0.00     5.844 C  
HETATM   16  C   UNL     1     -10.676  11.733  69.462  1.00  0.00     0.100 C  
HETATM   17  N   UNL     1      -9.717  10.910  68.721  1.00  0.00    -0.185 NA 
BRANCH   4  18
HETATM   18  O   UNL     1      -5.129  14.994  69.677  1.00  0.00    -0.090 OA 
HETATM   19  C   UNL     1      -5.149  15.800  68.501  1.00  0.00    -0.093 C  
ENDBRANCH   4  18
BRANCH  12  20
HETATM   20  C   UNL     1     -10.554   9.734  65.048  1.00  0.00     1.102 C  
HETATM   21  C   UNL     1     -10.090   8.282  65.233  1.00  0.00     1.890 C  
HETATM   22  C   UNL     1     -10.416   7.487  63.960  1.00  0.00     9.504 C  
HETATM   23  C   UNL     1     -10.751   7.599  66.430  1.00  0.00     0.621 C  
ENDBRANCH  12  20
ENDBRANCH   2   3
TORSDOF 3
ENDMDL
MODEL      149
REMARK 921   NORMALIZED FREE ENERGY PREDICTED BY IDOCK:   45.00 KCAL/MOL
REMARK 922        TOTAL FREE ENERGY PREDICTED BY IDOCK:   52.56 KCAL/MOL
REMARK 923 INTER-LIGAND FREE ENERGY PREDICTED BY IDOCK:   50.92 KCAL/MOL
REMARK 924 INTRA-LIGAND FREE ENERGY PREDICTED BY IDOCK:    1.63 KCAL/MOL
REMARK 927      BINDING AFFINITY PREDICTED BY RF-SCORE:    0.00 PKD
ROOT
HETATM    1  C   UNL     1     -13.924   5.533  62.779  1.00  0.00    13.328 C  
HETATM    2  O   UNL     1     -13.074   4.396  62.894  1.00  0.00     6.540 OA 
ENDROOT
BRANCH   2   3
HETATM    3  C   UNL     1     -12.237   4.358  63.983  1.00  0.00     3.633 A  
HETATM    4  C   UNL     1     -12.477   4.908  65.249  1.00  0.00     4.758 A  
HETATM    5  C   UNL     1     -11.506   4.749  66.240  1.00  0.00     1.860 A  
HETATM    6  C   UNL     1     -11.005   3.733  63.723  1.00  0.00    -0.083 A  
HETATM    7  C   UNL     1     -10.247   4.179  65.971  1.00  0.00    -0.099 A  
HETATM    8  C   UNL     1      -9.999   3.656  64.704  1.00  0.00    -0.180 A  
HETATM    9  C   UNL     1      -9.166   4.262  67.041  1.00  0.00    -0.149 C  
HETATM   10  C   UNL     1      -8.910   5.746  67.312  1.00  0.00    -0.106 C  
HETATM   11  C   UNL     1      -7.950   5.799  68.448  1.00  0.00    -0.104 C  
HETATM   12  C   UNL     1      -6.580   5.247  68.124  1.00  0.00    -0.049 C  
HETATM   13  O   UNL     1      -8.280   6.248  69.542  1.00  0.00    -0.114 OA 
HETATM   14  C   UNL     1      -6.799   3.786  67.679  1.00  0.00    -0.050 C  
HETATM   15  C   UNL     1      -8.693   2.959  64.443  1.00  0.00    -0.096 C  
HETATM   16  C   UNL     1      -7.553   3.503  65.330  1.00  0.00    -0.078 C  
HETATM   17  N   UNL     1      -7.922   3.512  66.748  1.00  0.00    -0.084 NA 
BRANCH   4  18
HETATM   18  O   UNL     1     -13.640   5.597  65.480  1.00  0.00     5.952 OA 
HETATM   19  C   UNL     1     -13.653   6.457  66.618  1.00  0.00    16.120 C  
ENDBRANCH   4  18
BRANCH  12  20
HETATM   20  C   UNL     1      -5.672   5.438  69.356  1.00  0.00    -0.012 C  
HETATM   21  C   UNL     1      -6.276   5.143  70.737  1.00  0.00    -0.023 C  
HETATM   22  C   UNL     1      -5.221   5.432  71.815  1.00  0.00    -0.009 C  
HETATM   23  C   UNL     1      -6.748   3.696  70.878  1.00  0.00    -0.032 C  
ENDBRANCH  12  20
ENDBRANCH   2   3
TORSDOF 3
ENDMDL
MODEL      150
REMARK 921   NORMALIZED FREE ENERGY PREDICTED BY IDOCK:   49.39 KCAL/MOL
REMARK 922        TOTAL FREE ENERGY PREDICTED BY IDOCK:   57.71 KCAL/MOL
REMARK 923 INTER-LIGAND FREE ENERGY PREDICTED BY IDOCK:   57.04 KCAL/MOL
REMARK 924 INTRA-LIGAND FREE ENERGY PREDICTED BY IDOCK:    0.67 KCAL/MOL
REMARK 927      BINDING AFFINITY PREDICTED BY RF-SCORE:    0.00 PKD
ROOT
HETATM    1  C   UNL     1     -13.920   5.616  65.814  1.00  0.00    12.965 C  
HETATM    2  O   UNL     1     -12.511   5.707  65.998  1.00  0.00     3.166 OA 
ENDROOT
BRANCH   2   3
HETATM    3  C   UNL     1     -11.997   6.961  66.224  1.00  0.00     4.393 A  
HETATM    4  C   UNL     1     -11.353   7.788  65.293  1.00  0.00     8.683 A  
HETATM    5  C   UNL     1     -10.914   9.046  65.710  1.00  0.00     2.446 A  
HETATM    6  C   UNL     1     -12.115   7.385  67.559  1.00  0.00     3.643 A  
HETATM    7  C   UNL     1     -10.973   9.452  67.056  1.00  0.00     0.056 A  
HETATM    8  C   UNL     1     -11.590   8.619  67.987  1.00  0.00     1.658 A  
HETATM    9  C   UNL     1     -10.257  10.734  67.463  1.00  0.00    -0.196 C  
HETATM   10  C   UNL     1      -8.773  10.545  67.143  1.00  0.00    -0.130 C  
HETATM   11  C   UNL     1      -8.120  11.851  67.425  1.00  0.00    -0.165 C  
HETATM   12  C   UNL     1      -8.129  12.243  68.885  1.00  0.00     0.158 C  
HETATM   13  O   UNL     1      -7.636  12.532  66.525  1.00  0.00     0.244 OA 
HETATM   14  C   UNL     1      -9.612  12.285  69.310  1.00  0.00     0.729 C  
HETATM   15  C   UNL     1     -11.742   9.092  69.406  1.00  0.00     0.613 C  
HETATM   16  C   UNL     1     -10.626  10.076  69.816  1.00  0.00    -0.267 C  
HETATM   17  N   UNL     1     -10.488  11.176  68.859  1.00  0.00    -0.202 NA 
BRANCH   4  18
HETATM   18  O   UNL     1     -11.157   7.341  64.012  1.00  0.00    12.867 OA 
HETATM   19  C   UNL     1     -11.140   5.927  63.827  1.00  0.00     6.639 C  
ENDBRANCH   4  18
BRANCH  12  20
HETATM   20  C   UNL     1      -7.355  13.567  69.042  1.00  0.00     0.004 C  
HETATM   21  C   UNL     1      -6.336  13.663  70.187  1.00  0.00    -0.037 C  
HETATM   22  C   UNL     1      -5.712  15.067  70.184  1.00  0.00    -0.133 C  
HETATM   23  C   UNL     1      -5.221  12.623  70.075  1.00  0.00    -0.093 C  
ENDBRANCH  12  20
ENDBRANCH   2   3
TORSDOF 3
ENDMDL
