MODEL        1
REMARK 921   NORMALIZED FREE ENERGY PREDICTED BY IDOCK:   -7.94 KCAL/MOL
REMARK 922        TOTAL FREE ENERGY PREDICTED BY IDOCK:  -12.57 KCAL/MOL
REMARK 923 INTER-LIGAND FREE ENERGY PREDICTED BY IDOCK:  -11.66 KCAL/MOL
REMARK 924 INTRA-LIGAND FREE ENERGY PREDICTED BY IDOCK:   -0.92 KCAL/MOL
REMARK 927      BINDING AFFINITY PREDICTED BY RF-SCORE:    0.00 PKD
ROOT
HETATM    1  C   UNL     1      -8.559  17.669  67.471  1.00  0.00    -0.222 C  
HETATM    2  C   UNL     1     -10.022  17.672  68.001  1.00  0.00    -0.326 C  
HETATM    3  C   UNL     1      -9.969  18.386  69.366  1.00  0.00     0.065 C  
ENDROOT
BRANCH   2   4
HETATM    4  C   UNL     1     -10.875  18.493  66.990  1.00  0.00    -0.207 C  
HETATM    5  H   UNL     1     -10.714  19.268  65.151  1.00  0.00     0.000 HD 
HETATM    6  O   UNL     1     -10.193  18.767  65.768  1.00  0.00    -0.541 OA 
ENDBRANCH   2   4
BRANCH   2   7
HETATM    7  C   UNL     1     -10.526  16.222  68.169  1.00  0.00    -0.289 A  
HETATM    8  C   UNL     1     -11.003  15.640  69.334  1.00  0.00    -0.283 A  
HETATM    9  C   UNL     1     -11.287  14.283  69.099  1.00  0.00    -0.312 A  
HETATM   10  C   UNL     1     -11.749  13.248  69.939  1.00  0.00    -0.330 A  
HETATM   11  C   UNL     1     -11.925  11.958  69.436  1.00  0.00    -0.289 A  
HETATM   12  C   UNL     1     -11.619  11.722  68.092  1.00  0.00    -0.323 A  
HETATM   13  C   UNL     1     -11.002  14.021  67.764  1.00  0.00    -0.258 A  
HETATM   14  C   UNL     1     -11.154  12.724  67.237  1.00  0.00    -0.314 A  
HETATM   15  F   UNL     1     -11.784  10.481  67.594  1.00  0.00    -0.345 F  
HETATM   16  N   UNL     1     -10.592  15.224  67.194  1.00  0.00    -0.295 NA 
BRANCH  11  17
HETATM   17  N   UNL     1     -12.386  10.881  70.221  1.00  0.00    -0.322 N  
HETATM   18  H   UNL     1     -13.391  10.835  70.395  1.00  0.00     0.000 HD 
HETATM   19  C   UNL     1     -11.613   9.883  70.777  1.00  0.00    -0.349 C  
HETATM   20  O   UNL     1     -10.399   9.754  70.711  1.00  0.00    -0.294 OA 
BRANCH  19  21
HETATM   21  C   UNL     1     -12.408   8.836  71.520  1.00  0.00    -0.380 C  
HETATM   22  C   UNL     1     -13.910   8.748  71.273  1.00  0.00    -0.226 C  
HETATM   23  C   UNL     1     -13.413   9.369  72.540  1.00  0.00    -0.437 C  
BRANCH  21  24
HETATM   24  C   UNL     1     -11.613   7.580  71.878  1.00  0.00    -0.312 A  
HETATM   25  C   UNL     1      -9.221   3.828  71.298  1.00  0.00    -0.128 C  
HETATM   26  C   UNL     1     -10.960   7.487  73.137  1.00  0.00    -0.420 A  
HETATM   27  C   UNL     1     -11.399   6.543  70.952  1.00  0.00    -0.393 A  
HETATM   28  C   UNL     1     -10.088   6.438  73.452  1.00  0.00    -0.222 A  
HETATM   29  C   UNL     1      -9.885   5.474  72.493  1.00  0.00    -0.164 A  
HETATM   30  C   UNL     1     -10.535   5.519  71.282  1.00  0.00    -0.239 A  
HETATM   31  F   UNL     1      -8.030   3.837  70.652  1.00  0.00    -0.052 F  
HETATM   32  O   UNL     1     -10.192   4.483  70.469  1.00  0.00    -0.204 OA 
HETATM   33  F   UNL     1      -9.591   2.535  71.457  1.00  0.00    -0.176 F  
HETATM   34  O   UNL     1      -9.042   4.414  72.596  1.00  0.00    -0.116 OA 
ENDBRANCH  21  24
ENDBRANCH  19  21
ENDBRANCH  11  17
BRANCH  16  35
HETATM   35  C   UNL     1     -10.269  15.351  65.778  1.00  0.00    -0.354 C  
BRANCH  35  36
HETATM   36  C   UNL     1     -11.483  15.302  64.833  1.00  0.00    -0.343 C  
HETATM   37  H   UNL     1     -12.221  16.380  63.337  1.00  0.00     0.000 HD 
HETATM   38  O   UNL     1     -11.472  16.411  63.920  1.00  0.00    -1.063 OA 
BRANCH  36  39
HETATM   39  C   UNL     1     -11.427  14.026  63.982  1.00  0.00    -0.096 C  
HETATM   40  O   UNL     1     -12.508  14.020  63.049  1.00  0.00    -1.101 OA 
HETATM   41  H   UNL     1     -12.473  13.231  62.522  1.00  0.00     0.000 HD 
ENDBRANCH  36  39
ENDBRANCH  35  36
ENDBRANCH  16  35
ENDBRANCH   2   7
TORSDOF 8
ENDMDL
MODEL        2
REMARK 921   NORMALIZED FREE ENERGY PREDICTED BY IDOCK:   -7.72 KCAL/MOL
REMARK 922        TOTAL FREE ENERGY PREDICTED BY IDOCK:  -12.25 KCAL/MOL
REMARK 923 INTER-LIGAND FREE ENERGY PREDICTED BY IDOCK:  -11.08 KCAL/MOL
REMARK 924 INTRA-LIGAND FREE ENERGY PREDICTED BY IDOCK:   -1.17 KCAL/MOL
REMARK 927      BINDING AFFINITY PREDICTED BY RF-SCORE:    0.00 PKD
ROOT
HETATM    1  C   UNL     1      -8.421  17.535  67.580  1.00  0.00    -0.216 C  
HETATM    2  C   UNL     1      -9.911  17.515  68.025  1.00  0.00    -0.299 C  
HETATM    3  C   UNL     1      -9.942  18.208  69.403  1.00  0.00     0.045 C  
ENDROOT
BRANCH   2   4
HETATM    4  C   UNL     1     -10.713  18.345  66.980  1.00  0.00    -0.293 C  
HETATM    5  H   UNL     1     -10.379  19.457  65.350  1.00  0.00     0.000 HD 
HETATM    6  O   UNL     1      -9.889  18.951  65.988  1.00  0.00    -0.461 OA 
ENDBRANCH   2   4
BRANCH   2   7
HETATM    7  C   UNL     1     -10.409  16.059  68.142  1.00  0.00    -0.260 A  
HETATM    8  C   UNL     1     -10.862  15.427  69.290  1.00  0.00    -0.253 A  
HETATM    9  C   UNL     1     -11.148  14.080  69.005  1.00  0.00    -0.296 A  
HETATM   10  C   UNL     1     -11.593  13.010  69.809  1.00  0.00    -0.286 A  
HETATM   11  C   UNL     1     -11.776  11.742  69.256  1.00  0.00    -0.335 A  
HETATM   12  C   UNL     1     -11.495  11.563  67.898  1.00  0.00    -0.301 A  
HETATM   13  C   UNL     1     -10.889  13.875  67.655  1.00  0.00    -0.254 A  
HETATM   14  C   UNL     1     -11.049  12.602  67.077  1.00  0.00    -0.322 A  
HETATM   15  F   UNL     1     -11.668  10.344  67.352  1.00  0.00    -0.230 F  
HETATM   16  N   UNL     1     -10.492  15.102  67.128  1.00  0.00    -0.275 NA 
BRANCH  11  17
HETATM   17  N   UNL     1     -12.220  10.632  70.004  1.00  0.00    -0.408 N  
HETATM   18  H   UNL     1     -13.226  10.465  70.027  1.00  0.00     0.000 HD 
HETATM   19  C   UNL     1     -11.428   9.749  70.707  1.00  0.00    -0.342 C  
HETATM   20  O   UNL     1     -10.211   9.769  70.828  1.00  0.00    -0.280 OA 
BRANCH  19  21
HETATM   21  C   UNL     1     -12.196   8.625  71.362  1.00  0.00    -0.348 C  
HETATM   22  C   UNL     1     -13.708   8.759  71.499  1.00  0.00    -0.384 C  
HETATM   23  C   UNL     1     -12.845   8.963  72.704  1.00  0.00    -0.316 C  
BRANCH  21  24
HETATM   24  C   UNL     1     -11.558   7.246  71.196  1.00  0.00    -0.323 A  
HETATM   25  C   UNL     1      -9.283   3.886  69.281  1.00  0.00    -0.157 C  
HETATM   26  C   UNL     1     -11.194   6.488  72.342  1.00  0.00    -0.310 A  
HETATM   27  C   UNL     1     -11.202   6.736  69.934  1.00  0.00    -0.379 A  
HETATM   28  C   UNL     1     -10.461   5.299  72.251  1.00  0.00    -0.273 A  
HETATM   29  C   UNL     1     -10.105   4.870  70.993  1.00  0.00    -0.218 A  
HETATM   30  C   UNL     1     -10.479   5.563  69.866  1.00  0.00    -0.316 A  
HETATM   31  F   UNL     1      -7.982   4.020  68.924  1.00  0.00    -0.065 F  
HETATM   32  O   UNL     1     -10.021   4.983  68.724  1.00  0.00    -0.164 OA 
HETATM   33  F   UNL     1      -9.740   2.734  68.734  1.00  0.00    -0.238 F  
HETATM   34  O   UNL     1      -9.356   3.773  70.709  1.00  0.00    -0.119 OA 
ENDBRANCH  21  24
ENDBRANCH  19  21
ENDBRANCH  11  17
BRANCH  16  35
HETATM   35  C   UNL     1     -10.197  15.289  65.712  1.00  0.00    -0.349 C  
BRANCH  35  36
HETATM   36  C   UNL     1     -11.435  15.413  64.807  1.00  0.00    -0.336 C  
HETATM   37  H   UNL     1     -12.096  16.635  63.386  1.00  0.00     0.000 HD 
HETATM   38  O   UNL     1     -11.332  16.558  63.945  1.00  0.00    -1.057 OA 
BRANCH  36  39
HETATM   39  C   UNL     1     -11.538  14.182  63.897  1.00  0.00     0.011 C  
HETATM   40  O   UNL     1     -10.273  13.522  63.831  1.00  0.00    -0.676 OA 
HETATM   41  H   UNL     1     -10.338  12.760  63.268  1.00  0.00     0.000 HD 
ENDBRANCH  36  39
ENDBRANCH  35  36
ENDBRANCH  16  35
ENDBRANCH   2   7
TORSDOF 8
ENDMDL
MODEL        3
REMARK 921   NORMALIZED FREE ENERGY PREDICTED BY IDOCK:   -7.42 KCAL/MOL
REMARK 922        TOTAL FREE ENERGY PREDICTED BY IDOCK:  -11.81 KCAL/MOL
REMARK 923 INTER-LIGAND FREE ENERGY PREDICTED BY IDOCK:  -11.49 KCAL/MOL
REMARK 924 INTRA-LIGAND FREE ENERGY PREDICTED BY IDOCK:   -0.32 KCAL/MOL
REMARK 927      BINDING AFFINITY PREDICTED BY RF-SCORE:    0.00 PKD
ROOT
HETATM    1  C   UNL     1     -11.860  14.705  66.895  1.00  0.00    -0.345 C  
HETATM    2  C   UNL     1     -11.172  14.816  68.287  1.00  0.00    -0.299 C  
HETATM    3  C   UNL     1      -9.669  15.002  67.995  1.00  0.00    -0.213 C  
ENDROOT
BRANCH   2   4
HETATM    4  C   UNL     1     -11.752  16.082  68.985  1.00  0.00    -0.318 C  
HETATM    5  H   UNL     1     -11.111  17.649  70.053  1.00  0.00     0.000 HD 
HETATM    6  O   UNL     1     -10.758  16.877  69.627  1.00  0.00    -0.318 OA 
ENDBRANCH   2   4
BRANCH   2   7
HETATM    7  C   UNL     1     -11.410  13.524  69.098  1.00  0.00    -0.282 A  
HETATM    8  C   UNL     1     -10.809  12.292  68.889  1.00  0.00    -0.238 A  
HETATM    9  C   UNL     1     -11.347  11.348  69.781  1.00  0.00    -0.332 A  
HETATM   10  C   UNL     1     -11.118   9.968  69.960  1.00  0.00    -0.350 A  
HETATM   11  C   UNL     1     -11.826   9.257  70.930  1.00  0.00    -0.282 A  
HETATM   12  C   UNL     1     -12.768   9.943  71.702  1.00  0.00    -0.429 A  
HETATM   13  C   UNL     1     -12.282  12.007  70.572  1.00  0.00    -0.325 A  
HETATM   14  C   UNL     1     -13.021  11.308  71.545  1.00  0.00    -0.520 A  
HETATM   15  F   UNL     1     -13.457   9.268  72.642  1.00  0.00    -0.469 F  
HETATM   16  N   UNL     1     -12.270  13.345  70.183  1.00  0.00    -0.332 NA 
BRANCH  11  17
HETATM   17  N   UNL     1     -11.643   7.877  71.161  1.00  0.00    -0.278 N  
HETATM   18  H   UNL     1     -12.387   7.255  70.843  1.00  0.00     0.000 HD 
HETATM   19  C   UNL     1     -10.557   7.286  71.772  1.00  0.00    -0.205 C  
HETATM   20  O   UNL     1      -9.570   7.836  72.239  1.00  0.00    -0.155 OA 
BRANCH  19  21
HETATM   21  C   UNL     1     -10.628   5.778  71.820  1.00  0.00    -0.293 C  
HETATM   22  C   UNL     1     -11.513   5.123  72.875  1.00  0.00    -0.329 C  
HETATM   23  C   UNL     1     -10.029   5.127  73.066  1.00  0.00    -0.190 C  
BRANCH  21  24
HETATM   24  C   UNL     1     -10.406   5.095  70.470  1.00  0.00    -0.314 A  
HETATM   25  C   UNL     1      -9.944   4.639  66.030  1.00  0.00    -0.244 C  
HETATM   26  C   UNL     1      -9.695   3.865  70.405  1.00  0.00    -0.245 A  
HETATM   27  C   UNL     1     -10.780   5.700  69.257  1.00  0.00    -0.350 A  
HETATM   28  C   UNL     1      -9.321   3.282  69.189  1.00  0.00    -0.233 A  
HETATM   29  C   UNL     1      -9.678   3.940  68.035  1.00  0.00    -0.064 A  
HETATM   30  C   UNL     1     -10.400   5.109  68.069  1.00  0.00    -0.076 A  
HETATM   31  F   UNL     1      -8.960   5.275  65.349  1.00  0.00    -0.150 F  
HETATM   32  O   UNL     1     -10.642   5.607  66.827  1.00  0.00    -0.262 OA 
HETATM   33  F   UNL     1     -10.806   4.125  65.121  1.00  0.00    -0.260 F  
HETATM   34  O   UNL     1      -9.362   3.556  66.770  1.00  0.00    -0.175 OA 
ENDBRANCH  21  24
ENDBRANCH  19  21
ENDBRANCH  11  17
BRANCH  16  35
HETATM   35  C   UNL     1     -13.083  14.360  70.842  1.00  0.00    -0.328 C  
BRANCH  35  36
HETATM   36  C   UNL     1     -12.659  14.690  72.283  1.00  0.00    -0.322 C  
HETATM   37  H   UNL     1     -11.085  15.477  73.205  1.00  0.00     0.000 HD 
HETATM   38  O   UNL     1     -11.347  15.274  72.315  1.00  0.00    -0.449 OA 
BRANCH  36  39
HETATM   39  C   UNL     1     -13.619  15.726  72.883  1.00  0.00    -0.577 C  
HETATM   40  O   UNL     1     -13.086  16.226  74.110  1.00  0.00    -0.934 OA 
HETATM   41  H   UNL     1     -13.681  16.868  74.480  1.00  0.00     0.000 HD 
ENDBRANCH  36  39
ENDBRANCH  35  36
ENDBRANCH  16  35
ENDBRANCH   2   7
TORSDOF 8
ENDMDL
MODEL        4
REMARK 921   NORMALIZED FREE ENERGY PREDICTED BY IDOCK:   -7.33 KCAL/MOL
REMARK 922        TOTAL FREE ENERGY PREDICTED BY IDOCK:  -11.67 KCAL/MOL
REMARK 923 INTER-LIGAND FREE ENERGY PREDICTED BY IDOCK:  -10.89 KCAL/MOL
REMARK 924 INTRA-LIGAND FREE ENERGY PREDICTED BY IDOCK:   -0.78 KCAL/MOL
REMARK 927      BINDING AFFINITY PREDICTED BY RF-SCORE:    0.00 PKD
ROOT
HETATM    1  C   UNL     1     -10.416  14.402  65.044  1.00  0.00    -0.454 C  
HETATM    2  C   UNL     1     -11.577  13.371  65.132  1.00  0.00    -0.329 C  
HETATM    3  C   UNL     1     -12.870  14.207  65.223  1.00  0.00    -0.370 C  
ENDROOT
BRANCH   2   4
HETATM    4  C   UNL     1     -11.556  12.542  63.814  1.00  0.00    -0.475 C  
HETATM    5  H   UNL     1     -12.845  11.755  62.500  1.00  0.00     0.000 HD 
HETATM    6  O   UNL     1     -12.857  12.260  63.304  1.00  0.00    -0.719 OA 
ENDBRANCH   2   4
BRANCH   2   7
HETATM    7  C   UNL     1     -11.411  12.495  66.393  1.00  0.00    -0.365 A  
HETATM    8  C   UNL     1     -10.893  11.210  66.446  1.00  0.00    -0.284 A  
HETATM    9  C   UNL     1     -10.984  10.720  67.761  1.00  0.00    -0.354 A  
HETATM   10  C   UNL     1     -10.643   9.480  68.341  1.00  0.00    -0.261 A  
HETATM   11  C   UNL     1     -10.868   9.253  69.700  1.00  0.00    -0.212 A  
HETATM   12  C   UNL     1     -11.448  10.275  70.457  1.00  0.00    -0.343 A  
HETATM   13  C   UNL     1     -11.548  11.722  68.542  1.00  0.00    -0.321 A  
HETATM   14  C   UNL     1     -11.802  11.511  69.910  1.00  0.00    -0.430 A  
HETATM   15  F   UNL     1     -11.670  10.068  71.769  1.00  0.00    -0.440 F  
HETATM   16  N   UNL     1     -11.753  12.819  67.707  1.00  0.00    -0.351 NA 
BRANCH  11  17
HETATM   17  N   UNL     1     -10.548   8.038  70.341  1.00  0.00    -0.220 N  
HETATM   18  H   UNL     1      -9.557   7.810  70.428  1.00  0.00     0.000 HD 
HETATM   19  C   UNL     1     -11.442   7.127  70.862  1.00  0.00    -0.297 C  
HETATM   20  O   UNL     1     -12.664   7.188  70.853  1.00  0.00    -0.314 OA 
BRANCH  19  21
HETATM   21  C   UNL     1     -10.788   5.946  71.539  1.00  0.00    -0.325 C  
HETATM   22  C   UNL     1     -11.247   5.562  72.941  1.00  0.00    -0.358 C  
HETATM   23  C   UNL     1      -9.943   6.274  72.769  1.00  0.00    -0.183 C  
BRANCH  21  24
HETATM   24  C   UNL     1     -10.277   4.873  70.577  1.00  0.00    -0.288 A  
HETATM   25  C   UNL     1      -8.700   3.047  66.794  1.00  0.00    -0.129 C  
HETATM   26  C   UNL     1      -9.683   3.686  71.085  1.00  0.00    -0.245 A  
HETATM   27  C   UNL     1     -10.263   5.067  69.183  1.00  0.00    -0.227 A  
HETATM   28  C   UNL     1      -9.053   2.750  70.257  1.00  0.00    -0.183 A  
HETATM   29  C   UNL     1      -9.034   3.013  68.907  1.00  0.00    -0.129 A  
HETATM   30  C   UNL     1      -9.636   4.133  68.384  1.00  0.00    -0.125 A  
HETATM   31  F   UNL     1      -7.519   3.437  66.254  1.00  0.00    -0.071 F  
HETATM   32  O   UNL     1      -9.497   4.215  67.033  1.00  0.00    -0.166 OA 
HETATM   33  F   UNL     1      -9.331   2.273  65.880  1.00  0.00    -0.127 F  
HETATM   34  O   UNL     1      -8.430   2.251  67.957  1.00  0.00    -0.066 OA 
ENDBRANCH  21  24
ENDBRANCH  19  21
ENDBRANCH  11  17
BRANCH  16  35
HETATM   35  C   UNL     1     -12.275  14.090  68.196  1.00  0.00    -0.156 C  
BRANCH  35  36
HETATM   36  C   UNL     1     -11.211  15.054  68.749  1.00  0.00    -0.277 C  
HETATM   37  H   UNL     1     -10.387  16.785  68.227  1.00  0.00     0.000 HD 
HETATM   38  O   UNL     1     -11.044  16.189  67.886  1.00  0.00    -0.340 OA 
BRANCH  36  39
HETATM   39  C   UNL     1     -11.660  15.596  70.112  1.00  0.00    -0.354 C  
HETATM   40  O   UNL     1     -13.017  15.224  70.357  1.00  0.00    -0.601 OA 
HETATM   41  H   UNL     1     -13.295  15.560  71.202  1.00  0.00     0.000 HD 
ENDBRANCH  36  39
ENDBRANCH  35  36
ENDBRANCH  16  35
ENDBRANCH   2   7
TORSDOF 8
ENDMDL
MODEL        5
REMARK 921   NORMALIZED FREE ENERGY PREDICTED BY IDOCK:   -7.31 KCAL/MOL
REMARK 922        TOTAL FREE ENERGY PREDICTED BY IDOCK:  -11.65 KCAL/MOL
REMARK 923 INTER-LIGAND FREE ENERGY PREDICTED BY IDOCK:  -10.90 KCAL/MOL
REMARK 924 INTRA-LIGAND FREE ENERGY PREDICTED BY IDOCK:   -0.74 KCAL/MOL
REMARK 927      BINDING AFFINITY PREDICTED BY RF-SCORE:    0.00 PKD
ROOT
HETATM    1  C   UNL     1      -8.629  16.297  66.140  1.00  0.00    -0.342 C  
HETATM    2  C   UNL     1     -10.169  16.189  66.331  1.00  0.00    -0.315 C  
HETATM    3  C   UNL     1     -10.530  17.234  67.406  1.00  0.00    -0.338 C  
ENDROOT
BRANCH   2   4
HETATM    4  C   UNL     1     -10.828  16.560  64.969  1.00  0.00    -0.229 C  
HETATM    5  H   UNL     1     -11.553  18.170  64.026  1.00  0.00     0.000 HD 
HETATM    6  O   UNL     1     -11.152  17.943  64.857  1.00  0.00    -0.782 OA 
ENDBRANCH   2   4
BRANCH   2   7
HETATM    7  C   UNL     1     -10.544  14.770  66.809  1.00  0.00    -0.302 A  
HETATM    8  C   UNL     1     -11.149  14.433  68.011  1.00  0.00    -0.287 A  
HETATM    9  C   UNL     1     -11.250  13.034  68.111  1.00  0.00    -0.305 A  
HETATM   10  C   UNL     1     -11.740  12.185  69.125  1.00  0.00    -0.384 A  
HETATM   11  C   UNL     1     -11.696  10.800  68.966  1.00  0.00    -0.286 A  
HETATM   12  C   UNL     1     -11.145  10.283  67.789  1.00  0.00    -0.269 A  
HETATM   13  C   UNL     1     -10.719  12.492  66.946  1.00  0.00    -0.243 A  
HETATM   14  C   UNL     1     -10.647  11.098  66.769  1.00  0.00    -0.311 A  
HETATM   15  F   UNL     1     -11.097   8.948  67.623  1.00  0.00    -0.250 F  
HETATM   16  N   UNL     1     -10.343  13.563  66.137  1.00  0.00    -0.290 NA 
BRANCH  11  17
HETATM   17  N   UNL     1     -12.171   9.896  69.940  1.00  0.00    -0.469 N  
HETATM   18  H   UNL     1     -13.172   9.697  69.934  1.00  0.00     0.000 HD 
HETATM   19  C   UNL     1     -11.416   9.255  70.899  1.00  0.00    -0.303 C  
HETATM   20  O   UNL     1     -10.213   9.358  71.097  1.00  0.00    -0.304 OA 
BRANCH  19  21
HETATM   21  C   UNL     1     -12.207   8.302  71.764  1.00  0.00    -0.367 C  
HETATM   22  C   UNL     1     -13.695   8.128  71.485  1.00  0.00    -0.359 C  
HETATM   23  C   UNL     1     -13.263   8.945  72.661  1.00  0.00    -0.363 C  
BRANCH  21  24
HETATM   24  C   UNL     1     -11.389   7.141  72.330  1.00  0.00    -0.303 A  
HETATM   25  C   UNL     1      -8.906   3.404  72.392  1.00  0.00    -0.088 C  
HETATM   26  C   UNL     1     -10.753   7.269  73.594  1.00  0.00    -0.282 A  
HETATM   27  C   UNL     1     -11.138   5.973  71.586  1.00  0.00    -0.333 A  
HETATM   28  C   UNL     1      -9.863   6.306  74.085  1.00  0.00    -0.269 A  
HETATM   29  C   UNL     1      -9.624   5.205  73.296  1.00  0.00    -0.141 A  
HETATM   30  C   UNL     1     -10.257   5.037  72.087  1.00  0.00    -0.201 A  
HETATM   31  F   UNL     1      -7.705   3.337  71.766  1.00  0.00    -0.049 F  
HETATM   32  O   UNL     1      -9.878   3.892  71.457  1.00  0.00    -0.179 OA 
HETATM   33  F   UNL     1      -9.248   2.145  72.754  1.00  0.00    -0.076 F  
HETATM   34  O   UNL     1      -8.759   4.196  73.579  1.00  0.00    -0.092 OA 
ENDBRANCH  21  24
ENDBRANCH  19  21
ENDBRANCH  11  17
BRANCH  16  35
HETATM   35  C   UNL     1      -9.801  13.379  64.796  1.00  0.00     0.011 C  
BRANCH  35  36
HETATM   36  C   UNL     1     -10.851  13.084  63.711  1.00  0.00    -0.230 C  
HETATM   37  H   UNL     1     -11.581  11.493  62.770  1.00  0.00     0.000 HD 
HETATM   38  O   UNL     1     -10.933  11.675  63.441  1.00  0.00    -0.397 OA 
BRANCH  36  39
HETATM   39  C   UNL     1     -12.238  13.523  64.197  1.00  0.00    -0.394 C  
HETATM   40  O   UNL     1     -13.059  12.375  64.416  1.00  0.00    -0.786 OA 
HETATM   41  H   UNL     1     -13.918  12.648  64.718  1.00  0.00     0.000 HD 
ENDBRANCH  36  39
ENDBRANCH  35  36
ENDBRANCH  16  35
ENDBRANCH   2   7
TORSDOF 8
ENDMDL
MODEL        6
REMARK 921   NORMALIZED FREE ENERGY PREDICTED BY IDOCK:   -7.29 KCAL/MOL
REMARK 922        TOTAL FREE ENERGY PREDICTED BY IDOCK:  -11.62 KCAL/MOL
REMARK 923 INTER-LIGAND FREE ENERGY PREDICTED BY IDOCK:  -10.23 KCAL/MOL
REMARK 924 INTRA-LIGAND FREE ENERGY PREDICTED BY IDOCK:   -1.39 KCAL/MOL
REMARK 927      BINDING AFFINITY PREDICTED BY RF-SCORE:    0.00 PKD
ROOT
HETATM    1  C   UNL     1     -10.311   7.191  73.798  1.00  0.00    -0.390 C  
HETATM    2  C   UNL     1      -9.957   6.315  72.562  1.00  0.00    -0.184 C  
HETATM    3  C   UNL     1      -8.510   5.836  72.792  1.00  0.00    -0.119 C  
ENDROOT
BRANCH   2   4
HETATM    4  C   UNL     1     -10.937   5.105  72.561  1.00  0.00    -0.215 C  
HETATM    5  H   UNL     1     -10.887   3.116  72.782  1.00  0.00     0.000 HD 
HETATM    6  O   UNL     1     -10.289   3.854  72.782  1.00  0.00    -0.159 OA 
ENDBRANCH   2   4
BRANCH   2   7
HETATM    7  C   UNL     1     -10.049   7.159  71.272  1.00  0.00    -0.189 A  
HETATM    8  C   UNL     1     -10.561   8.443  71.156  1.00  0.00    -0.266 A  
HETATM    9  C   UNL     1     -10.544   8.836  69.806  1.00  0.00    -0.227 A  
HETATM   10  C   UNL     1     -10.979  10.006  69.150  1.00  0.00    -0.256 A  
HETATM   11  C   UNL     1     -10.858  10.123  67.765  1.00  0.00    -0.292 A  
HETATM   12  C   UNL     1     -10.312   9.051  67.053  1.00  0.00    -0.269 A  
HETATM   13  C   UNL     1      -9.993   7.791  69.074  1.00  0.00    -0.182 A  
HETATM   14  C   UNL     1      -9.877   7.877  67.674  1.00  0.00    -0.212 A  
HETATM   15  F   UNL     1     -10.189   9.151  65.715  1.00  0.00    -0.373 F  
HETATM   16  N   UNL     1      -9.644   6.797  69.986  1.00  0.00    -0.157 NA 
BRANCH  11  17
HETATM   17  N   UNL     1     -11.271  11.267  67.049  1.00  0.00    -0.294 N  
HETATM   18  H   UNL     1     -12.277  11.408  66.949  1.00  0.00     0.000 HD 
HETATM   19  C   UNL     1     -10.450  12.212  66.471  1.00  0.00    -0.225 C  
HETATM   20  O   UNL     1      -9.227  12.231  66.454  1.00  0.00    -0.227 OA 
BRANCH  19  21
HETATM   21  C   UNL     1     -11.195  13.353  65.820  1.00  0.00    -0.305 C  
HETATM   22  C   UNL     1     -12.541  13.066  65.166  1.00  0.00    -0.530 C  
HETATM   23  C   UNL     1     -11.338  13.269  64.301  1.00  0.00    -0.428 C  
BRANCH  21  24
HETATM   24  C   UNL     1     -10.919  14.721  66.444  1.00  0.00    -0.331 A  
HETATM   25  C   UNL     1     -10.205  19.144  66.698  1.00  0.00    -0.411 C  
HETATM   26  C   UNL     1     -11.262  14.965  67.802  1.00  0.00    -0.329 A  
HETATM   27  C   UNL     1     -10.438  15.804  65.686  1.00  0.00    -0.402 A  
HETATM   28  C   UNL     1     -11.183  16.240  68.376  1.00  0.00    -0.349 A  
HETATM   29  C   UNL     1     -10.746  17.269  67.575  1.00  0.00    -0.278 A  
HETATM   30  C   UNL     1     -10.369  17.052  66.270  1.00  0.00    -0.306 A  
HETATM   31  F   UNL     1     -11.132  20.039  66.275  1.00  0.00    -0.483 F  
HETATM   32  O   UNL     1      -9.979  18.196  65.645  1.00  0.00    -0.514 OA 
HETATM   33  F   UNL     1      -9.055  19.822  66.924  1.00  0.00    -0.330 F  
HETATM   34  O   UNL     1     -10.651  18.575  67.937  1.00  0.00    -0.392 OA 
ENDBRANCH  21  24
ENDBRANCH  19  21
ENDBRANCH  11  17
BRANCH  16  35
HETATM   35  C   UNL     1      -8.974   5.566  69.585  1.00  0.00    -0.117 C  
BRANCH  35  36
HETATM   36  C   UNL     1      -9.904   4.482  69.014  1.00  0.00    -0.132 C  
HETATM   37  H   UNL     1     -10.428   3.792  67.225  1.00  0.00     0.000 HD 
HETATM   38  O   UNL     1      -9.853   4.462  67.578  1.00  0.00    -0.177 OA 
BRANCH  36  39
HETATM   39  C   UNL     1      -9.444   3.098  69.492  1.00  0.00    -0.120 C  
HETATM   40  O   UNL     1      -8.453   3.244  70.511  1.00  0.00    -0.058 OA 
HETATM   41  H   UNL     1      -8.169   2.387  70.807  1.00  0.00     0.000 HD 
ENDBRANCH  36  39
ENDBRANCH  35  36
ENDBRANCH  16  35
ENDBRANCH   2   7
TORSDOF 8
ENDMDL
MODEL        7
REMARK 921   NORMALIZED FREE ENERGY PREDICTED BY IDOCK:   -7.29 KCAL/MOL
REMARK 922        TOTAL FREE ENERGY PREDICTED BY IDOCK:  -11.62 KCAL/MOL
REMARK 923 INTER-LIGAND FREE ENERGY PREDICTED BY IDOCK:  -10.60 KCAL/MOL
REMARK 924 INTRA-LIGAND FREE ENERGY PREDICTED BY IDOCK:   -1.02 KCAL/MOL
REMARK 927      BINDING AFFINITY PREDICTED BY RF-SCORE:    0.00 PKD
ROOT
HETATM    1  C   UNL     1      -7.863   5.023  67.619  1.00  0.00    -0.095 C  
HETATM    2  C   UNL     1      -8.684   5.244  68.922  1.00  0.00    -0.094 C  
HETATM    3  C   UNL     1      -9.721   4.103  68.959  1.00  0.00    -0.188 C  
ENDROOT
BRANCH   2   4
HETATM    4  C   UNL     1      -7.693   5.117  70.116  1.00  0.00    -0.071 C  
HETATM    5  H   UNL     1      -5.918   5.840  70.693  1.00  0.00     0.000 HD 
HETATM    6  O   UNL     1      -6.522   5.916  69.965  1.00  0.00    -0.036 OA 
ENDBRANCH   2   4
BRANCH   2   7
HETATM    7  C   UNL     1      -9.392   6.615  68.874  1.00  0.00    -0.128 A  
HETATM    8  C   UNL     1      -9.586   7.410  67.754  1.00  0.00    -0.162 A  
HETATM    9  C   UNL     1     -10.197   8.618  68.134  1.00  0.00    -0.250 A  
HETATM   10  C   UNL     1     -10.571   9.766  67.406  1.00  0.00    -0.330 A  
HETATM   11  C   UNL     1     -11.153  10.854  68.057  1.00  0.00    -0.293 A  
HETATM   12  C   UNL     1     -11.339  10.779  69.440  1.00  0.00    -0.285 A  
HETATM   13  C   UNL     1     -10.406   8.566  69.508  1.00  0.00    -0.218 A  
HETATM   14  C   UNL     1     -10.974   9.658  70.190  1.00  0.00    -0.320 A  
HETATM   15  F   UNL     1     -11.900  11.823  70.080  1.00  0.00    -0.353 F  
HETATM   16  N   UNL     1      -9.961   7.318  69.938  1.00  0.00    -0.182 NA 
BRANCH  11  17
HETATM   17  N   UNL     1     -11.551  12.030  67.386  1.00  0.00    -0.330 N  
HETATM   18  H   UNL     1     -12.505  12.353  67.551  1.00  0.00     0.000 HD 
HETATM   19  C   UNL     1     -10.778  12.787  66.531  1.00  0.00    -0.258 C  
HETATM   20  O   UNL     1      -9.625  12.577  66.182  1.00  0.00    -0.249 OA 
BRANCH  19  21
HETATM   21  C   UNL     1     -11.472  14.025  66.013  1.00  0.00    -0.340 C  
HETATM   22  C   UNL     1     -12.908  13.903  65.517  1.00  0.00    -0.471 C  
HETATM   23  C   UNL     1     -11.798  14.024  64.521  1.00  0.00    -0.452 C  
BRANCH  21  24
HETATM   24  C   UNL     1     -10.984  15.329  66.645  1.00  0.00    -0.297 A  
HETATM   25  C   UNL     1      -9.671  19.610  66.936  1.00  0.00    -0.369 C  
HETATM   26  C   UNL     1     -11.226  15.585  68.022  1.00  0.00    -0.332 A  
HETATM   27  C   UNL     1     -10.399  16.355  65.882  1.00  0.00    -0.378 A  
HETATM   28  C   UNL     1     -10.949  16.824  68.612  1.00  0.00    -0.298 A  
HETATM   29  C   UNL     1     -10.416  17.803  67.807  1.00  0.00    -0.397 A  
HETATM   30  C   UNL     1     -10.136  17.569  66.482  1.00  0.00    -0.331 A  
HETATM   31  F   UNL     1     -10.488  20.630  66.575  1.00  0.00    -0.415 F  
HETATM   32  O   UNL     1      -9.625  18.665  65.857  1.00  0.00    -0.479 OA 
HETATM   33  F   UNL     1      -8.431  20.123  67.115  1.00  0.00    -0.328 F  
HETATM   34  O   UNL     1     -10.130  19.076  68.186  1.00  0.00    -0.356 OA 
ENDBRANCH  21  24
ENDBRANCH  19  21
ENDBRANCH  11  17
BRANCH  16  35
HETATM   35  C   UNL     1     -10.082   6.877  71.323  1.00  0.00    -0.190 C  
BRANCH  35  36
HETATM   36  C   UNL     1     -11.311   5.999  71.615  1.00  0.00    -0.252 C  
HETATM   37  H   UNL     1     -11.834   4.598  72.924  1.00  0.00     0.000 HD 
HETATM   38  O   UNL     1     -11.076   5.142  72.744  1.00  0.00    -0.251 OA 
BRANCH  36  39
HETATM   39  C   UNL     1     -12.510   6.886  71.975  1.00  0.00    -0.248 C  
HETATM   40  O   UNL     1     -13.261   7.184  70.797  1.00  0.00    -0.576 OA 
HETATM   41  H   UNL     1     -14.004   7.733  71.020  1.00  0.00     0.000 HD 
ENDBRANCH  36  39
ENDBRANCH  35  36
ENDBRANCH  16  35
ENDBRANCH   2   7
TORSDOF 8
ENDMDL
MODEL        8
REMARK 921   NORMALIZED FREE ENERGY PREDICTED BY IDOCK:   -7.28 KCAL/MOL
REMARK 922        TOTAL FREE ENERGY PREDICTED BY IDOCK:  -11.60 KCAL/MOL
REMARK 923 INTER-LIGAND FREE ENERGY PREDICTED BY IDOCK:  -10.40 KCAL/MOL
REMARK 924 INTRA-LIGAND FREE ENERGY PREDICTED BY IDOCK:   -1.20 KCAL/MOL
REMARK 927      BINDING AFFINITY PREDICTED BY RF-SCORE:    0.00 PKD
ROOT
HETATM    1  C   UNL     1     -10.520  13.321  64.184  1.00  0.00    -0.281 C  
HETATM    2  C   UNL     1     -11.057  14.114  65.410  1.00  0.00    -0.321 C  
HETATM    3  C   UNL     1     -10.007  15.208  65.690  1.00  0.00    -0.387 C  
ENDROOT
BRANCH   2   4
HETATM    4  C   UNL     1     -12.411  14.756  64.984  1.00  0.00    -0.207 C  
HETATM    5  H   UNL     1     -13.540  14.960  63.345  1.00  0.00     0.000 HD 
HETATM    6  O   UNL     1     -12.714  14.569  63.604  1.00  0.00    -0.754 OA 
ENDBRANCH   2   4
BRANCH   2   7
HETATM    7  C   UNL     1     -11.197  13.175  66.627  1.00  0.00    -0.304 A  
HETATM    8  C   UNL     1     -10.935  11.813  66.658  1.00  0.00    -0.342 A  
HETATM    9  C   UNL     1     -11.261  11.301  67.926  1.00  0.00    -0.353 A  
HETATM   10  C   UNL     1     -11.223   9.998  68.465  1.00  0.00    -0.180 A  
HETATM   11  C   UNL     1     -11.635   9.766  69.778  1.00  0.00    -0.030 A  
HETATM   12  C   UNL     1     -12.096  10.849  70.531  1.00  0.00    -0.371 A  
HETATM   13  C   UNL     1     -11.713  12.362  68.703  1.00  0.00    -0.326 A  
HETATM   14  C   UNL     1     -12.151  12.150  70.024  1.00  0.00    -0.352 A  
HETATM   15  F   UNL     1     -12.497  10.639  71.799  1.00  0.00    -0.454 F  
HETATM   16  N   UNL     1     -11.617  13.508  67.917  1.00  0.00    -0.320 NA 
BRANCH  11  17
HETATM   17  N   UNL     1     -11.619   8.488  70.376  1.00  0.00    -0.460 N  
HETATM   18  H   UNL     1     -12.505   7.982  70.403  1.00  0.00     0.000 HD 
HETATM   19  C   UNL     1     -10.525   7.856  70.928  1.00  0.00    -0.203 C  
HETATM   20  O   UNL     1      -9.382   8.282  71.019  1.00  0.00    -0.150 OA 
BRANCH  19  21
HETATM   21  C   UNL     1     -10.816   6.466  71.441  1.00  0.00    -0.301 C  
HETATM   22  C   UNL     1     -12.044   6.255  72.320  1.00  0.00    -0.255 C  
HETATM   23  C   UNL     1     -10.689   6.279  72.953  1.00  0.00    -0.274 C  
BRANCH  21  24
HETATM   24  C   UNL     1     -10.320   5.343  70.531  1.00  0.00    -0.344 A  
HETATM   25  C   UNL     1      -8.755   3.321  66.843  1.00  0.00    -0.125 C  
HETATM   26  C   UNL     1      -9.751   4.168  71.095  1.00  0.00    -0.258 A  
HETATM   27  C   UNL     1     -10.294   5.474  69.130  1.00  0.00    -0.318 A  
HETATM   28  C   UNL     1      -9.134   3.185  70.313  1.00  0.00    -0.194 A  
HETATM   29  C   UNL     1      -9.102   3.387  68.953  1.00  0.00    -0.144 A  
HETATM   30  C   UNL     1      -9.680   4.494  68.378  1.00  0.00    -0.122 A  
HETATM   31  F   UNL     1      -7.564   3.666  66.294  1.00  0.00    -0.078 F  
HETATM   32  O   UNL     1      -9.531   4.514  67.025  1.00  0.00    -0.145 OA 
HETATM   33  F   UNL     1      -9.396   2.520  65.959  1.00  0.00    -0.143 F  
HETATM   34  O   UNL     1      -8.507   2.574  68.041  1.00  0.00    -0.069 OA 
ENDBRANCH  21  24
ENDBRANCH  19  21
ENDBRANCH  11  17
BRANCH  16  35
HETATM   35  C   UNL     1     -11.945  14.835  68.424  1.00  0.00    -0.235 C  
BRANCH  35  36
HETATM   36  C   UNL     1     -10.940  15.404  69.440  1.00  0.00    -0.276 C  
HETATM   37  H   UNL     1      -9.716  16.964  69.577  1.00  0.00     0.000 HD 
HETATM   38  O   UNL     1     -10.338  16.613  68.950  1.00  0.00    -0.260 OA 
BRANCH  36  39
HETATM   39  C   UNL     1     -11.666  15.768  70.741  1.00  0.00    -0.399 C  
HETATM   40  O   UNL     1     -13.074  15.595  70.573  1.00  0.00    -0.668 OA 
HETATM   41  H   UNL     1     -13.524  15.820  71.380  1.00  0.00     0.000 HD 
ENDBRANCH  36  39
ENDBRANCH  35  36
ENDBRANCH  16  35
ENDBRANCH   2   7
TORSDOF 8
ENDMDL
MODEL        9
REMARK 921   NORMALIZED FREE ENERGY PREDICTED BY IDOCK:   -7.18 KCAL/MOL
REMARK 922        TOTAL FREE ENERGY PREDICTED BY IDOCK:  -11.46 KCAL/MOL
REMARK 923 INTER-LIGAND FREE ENERGY PREDICTED BY IDOCK:  -11.05 KCAL/MOL
REMARK 924 INTRA-LIGAND FREE ENERGY PREDICTED BY IDOCK:   -0.41 KCAL/MOL
REMARK 927      BINDING AFFINITY PREDICTED BY RF-SCORE:    0.00 PKD
ROOT
HETATM    1  C   UNL     1      -9.853   4.280  69.739  1.00  0.00    -0.258 C  
HETATM    2  C   UNL     1      -9.641   5.634  70.476  1.00  0.00    -0.221 C  
HETATM    3  C   UNL     1     -10.745   5.701  71.550  1.00  0.00    -0.306 C  
ENDROOT
BRANCH   2   4
HETATM    4  C   UNL     1      -8.235   5.578  71.143  1.00  0.00    -0.120 C  
HETATM    5  H   UNL     1      -6.632   6.750  71.397  1.00  0.00     0.000 HD 
HETATM    6  O   UNL     1      -7.490   6.783  70.990  1.00  0.00    -0.081 OA 
ENDBRANCH   2   4
BRANCH   2   7
HETATM    7  C   UNL     1      -9.784   6.805  69.480  1.00  0.00    -0.150 A  
HETATM    8  C   UNL     1     -10.365   8.040  69.730  1.00  0.00    -0.219 A  
HETATM    9  C   UNL     1     -10.376   8.803  68.549  1.00  0.00    -0.231 A  
HETATM   10  C   UNL     1     -10.876  10.087  68.250  1.00  0.00    -0.286 A  
HETATM   11  C   UNL     1     -10.769  10.601  66.957  1.00  0.00    -0.259 A  
HETATM   12  C   UNL     1     -10.170   9.808  65.974  1.00  0.00    -0.193 A  
HETATM   13  C   UNL     1      -9.774   8.041  67.554  1.00  0.00    -0.161 A  
HETATM   14  C   UNL     1      -9.670   8.530  66.238  1.00  0.00    -0.300 A  
HETATM   15  F   UNL     1     -10.061  10.292  64.723  1.00  0.00    -0.368 F  
HETATM   16  N   UNL     1      -9.368   6.848  68.148  1.00  0.00    -0.125 NA 
BRANCH  11  17
HETATM   17  N   UNL     1     -11.246  11.878  66.593  1.00  0.00    -0.313 N  
HETATM   18  H   UNL     1     -12.251  11.968  66.443  1.00  0.00     0.000 HD 
HETATM   19  C   UNL     1     -10.488  13.017  66.421  1.00  0.00    -0.276 C  
HETATM   20  O   UNL     1      -9.276  13.132  66.532  1.00  0.00    -0.241 OA 
BRANCH  19  21
HETATM   21  C   UNL     1     -11.299  14.246  66.086  1.00  0.00    -0.342 C  
HETATM   22  C   UNL     1     -12.785  14.081  65.789  1.00  0.00    -0.487 C  
HETATM   23  C   UNL     1     -11.836  14.314  64.657  1.00  0.00    -0.459 C  
BRANCH  21  24
HETATM   24  C   UNL     1     -10.780  15.535  66.724  1.00  0.00    -0.305 A  
HETATM   25  C   UNL     1      -9.354  19.778  67.033  1.00  0.00    -0.355 C  
HETATM   26  C   UNL     1     -11.022  15.794  68.100  1.00  0.00    -0.330 A  
HETATM   27  C   UNL     1     -10.163  16.547  65.966  1.00  0.00    -0.372 A  
HETATM   28  C   UNL     1     -10.716  17.024  68.695  1.00  0.00    -0.333 A  
HETATM   29  C   UNL     1     -10.152  17.990  67.896  1.00  0.00    -0.355 A  
HETATM   30  C   UNL     1      -9.871  17.752  66.571  1.00  0.00    -0.329 A  
HETATM   31  F   UNL     1     -10.141  20.821  66.671  1.00  0.00    -0.530 F  
HETATM   32  O   UNL     1      -9.327  18.835  65.952  1.00  0.00    -0.466 OA 
HETATM   33  F   UNL     1      -8.101  20.257  67.220  1.00  0.00    -0.323 F  
HETATM   34  O   UNL     1      -9.834  19.254  68.279  1.00  0.00    -0.348 OA 
ENDBRANCH  21  24
ENDBRANCH  19  21
ENDBRANCH  11  17
BRANCH  16  35
HETATM   35  C   UNL     1      -8.635   5.819  67.419  1.00  0.00    -0.105 C  
BRANCH  35  36
HETATM   36  C   UNL     1      -9.268   5.404  66.079  1.00  0.00    -0.158 C  
HETATM   37  H   UNL     1      -9.009   3.984  64.714  1.00  0.00     0.000 HD 
HETATM   38  O   UNL     1      -8.619   4.240  65.541  1.00  0.00    -0.116 OA 
BRANCH  36  39
HETATM   39  C   UNL     1     -10.740   5.030  66.294  1.00  0.00    -0.199 C  
HETATM   40  O   UNL     1     -11.305   4.566  65.067  1.00  0.00    -1.027 OA 
HETATM   41  H   UNL     1     -12.217   4.334  65.201  1.00  0.00     0.000 HD 
ENDBRANCH  36  39
ENDBRANCH  35  36
ENDBRANCH  16  35
ENDBRANCH   2   7
TORSDOF 8
ENDMDL
MODEL       10
REMARK 921   NORMALIZED FREE ENERGY PREDICTED BY IDOCK:   -7.15 KCAL/MOL
REMARK 922        TOTAL FREE ENERGY PREDICTED BY IDOCK:  -11.41 KCAL/MOL
REMARK 923 INTER-LIGAND FREE ENERGY PREDICTED BY IDOCK:  -10.76 KCAL/MOL
REMARK 924 INTRA-LIGAND FREE ENERGY PREDICTED BY IDOCK:   -0.65 KCAL/MOL
REMARK 927      BINDING AFFINITY PREDICTED BY RF-SCORE:    0.00 PKD
ROOT
HETATM    1  C   UNL     1     -10.101  17.867  69.031  1.00  0.00    -0.292 C  
HETATM    2  C   UNL     1      -9.900  17.090  67.699  1.00  0.00    -0.257 C  
HETATM    3  C   UNL     1     -10.758  17.829  66.652  1.00  0.00    -0.124 C  
ENDROOT
BRANCH   2   4
HETATM    4  C   UNL     1      -8.390  17.189  67.332  1.00  0.00    -0.190 C  
HETATM    5  H   UNL     1      -7.241  17.657  65.762  1.00  0.00     0.000 HD 
HETATM    6  O   UNL     1      -8.162  17.595  65.985  1.00  0.00    -0.495 OA 
ENDBRANCH   2   4
BRANCH   2   7
HETATM    7  C   UNL     1     -10.381  15.631  67.860  1.00  0.00    -0.259 A  
HETATM    8  C   UNL     1     -10.708  14.993  69.047  1.00  0.00    -0.239 A  
HETATM    9  C   UNL     1     -11.022  13.647  68.786  1.00  0.00    -0.292 A  
HETATM   10  C   UNL     1     -11.377  12.572  69.627  1.00  0.00    -0.182 A  
HETATM   11  C   UNL     1     -11.617  11.307  69.089  1.00  0.00    -0.319 A  
HETATM   12  C   UNL     1     -11.484  11.136  67.708  1.00  0.00    -0.272 A  
HETATM   13  C   UNL     1     -10.909  13.450  67.414  1.00  0.00    -0.268 A  
HETATM   14  C   UNL     1     -11.129  12.180  66.850  1.00  0.00    -0.348 A  
HETATM   15  F   UNL     1     -11.714   9.920  67.177  1.00  0.00     0.203 F  
HETATM   16  N   UNL     1     -10.572  14.681  66.855  1.00  0.00    -0.277 NA 
BRANCH  11  17
HETATM   17  N   UNL     1     -11.977  10.191  69.875  1.00  0.00    -0.462 N  
HETATM   18  H   UNL     1     -11.696   9.274  69.527  1.00  0.00     0.000 HD 
HETATM   19  C   UNL     1     -12.672  10.219  71.066  1.00  0.00    -0.396 C  
HETATM   20  O   UNL     1     -13.116  11.196  71.650  1.00  0.00    -0.449 OA 
BRANCH  19  21
HETATM   21  C   UNL     1     -12.854   8.859  71.698  1.00  0.00    -0.401 C  
HETATM   22  C   UNL     1     -14.203   8.164  71.556  1.00  0.00    -0.502 C  
HETATM   23  C   UNL     1     -13.843   8.799  72.861  1.00  0.00    -0.092 C  
BRANCH  21  24
HETATM   24  C   UNL     1     -11.570   8.035  71.799  1.00  0.00    -0.331 A  
HETATM   25  C   UNL     1      -7.449   6.843  73.113  1.00  0.00    -0.077 C  
HETATM   26  C   UNL     1     -11.594   6.644  71.509  1.00  0.00    -0.357 A  
HETATM   27  C   UNL     1     -10.369   8.581  72.287  1.00  0.00    -0.402 A  
HETATM   28  C   UNL     1     -10.492   5.812  71.741  1.00  0.00    -0.281 A  
HETATM   29  C   UNL     1      -9.358   6.394  72.259  1.00  0.00    -0.141 A  
HETATM   30  C   UNL     1      -9.295   7.745  72.510  1.00  0.00    -0.178 A  
HETATM   31  F   UNL     1      -7.162   6.594  74.415  1.00  0.00    -0.096 F  
HETATM   32  O   UNL     1      -8.095   8.121  73.029  1.00  0.00    -0.154 OA 
HETATM   33  F   UNL     1      -6.275   6.907  72.441  1.00  0.00    -0.044 F  
HETATM   34  O   UNL     1      -8.213   5.745  72.595  1.00  0.00    -0.112 OA 
ENDBRANCH  21  24
ENDBRANCH  19  21
ENDBRANCH  11  17
BRANCH  16  35
HETATM   35  C   UNL     1     -10.432  14.876  65.417  1.00  0.00    -0.384 C  
BRANCH  35  36
HETATM   36  C   UNL     1     -11.759  14.930  64.640  1.00  0.00    -0.404 C  
HETATM   37  H   UNL     1     -12.643  16.131  63.327  1.00  0.00     0.000 HD 
HETATM   38  O   UNL     1     -11.823  16.097  63.806  1.00  0.00    -0.885 OA 
BRANCH  36  39
HETATM   39  C   UNL     1     -11.866  13.714  63.710  1.00  0.00    -0.329 C  
HETATM   40  O   UNL     1     -12.969  12.898  64.105  1.00  0.00    -0.673 OA 
HETATM   41  H   UNL     1     -13.035  12.146  63.529  1.00  0.00     0.000 HD 
ENDBRANCH  36  39
ENDBRANCH  35  36
ENDBRANCH  16  35
ENDBRANCH   2   7
TORSDOF 8
ENDMDL
MODEL       11
REMARK 921   NORMALIZED FREE ENERGY PREDICTED BY IDOCK:   -7.14 KCAL/MOL
REMARK 922        TOTAL FREE ENERGY PREDICTED BY IDOCK:  -11.39 KCAL/MOL
REMARK 923 INTER-LIGAND FREE ENERGY PREDICTED BY IDOCK:  -10.28 KCAL/MOL
REMARK 924 INTRA-LIGAND FREE ENERGY PREDICTED BY IDOCK:   -1.11 KCAL/MOL
REMARK 927      BINDING AFFINITY PREDICTED BY RF-SCORE:    0.00 PKD
ROOT
HETATM    1  C   UNL     1      -9.425   4.381  67.484  1.00  0.00    -0.201 C  
HETATM    2  C   UNL     1      -9.171   5.081  68.850  1.00  0.00    -0.155 C  
HETATM    3  C   UNL     1      -9.906   4.225  69.901  1.00  0.00    -0.267 C  
ENDROOT
BRANCH   2   4
HETATM    4  C   UNL     1      -7.635   5.051  69.102  1.00  0.00    -0.072 C  
HETATM    5  H   UNL     1      -6.353   4.698  70.598  1.00  0.00     0.000 HD 
HETATM    6  O   UNL     1      -7.290   4.717  70.445  1.00  0.00    -0.048 OA 
ENDBRANCH   2   4
BRANCH   2   7
HETATM    7  C   UNL     1      -9.744   6.515  68.824  1.00  0.00    -0.129 A  
HETATM    8  C   UNL     1      -9.975   7.294  67.700  1.00  0.00    -0.207 A  
HETATM    9  C   UNL     1     -10.425   8.567  68.095  1.00  0.00    -0.236 A  
HETATM   10  C   UNL     1     -10.760   9.727  67.366  1.00  0.00    -0.314 A  
HETATM   11  C   UNL     1     -11.165  10.884  68.032  1.00  0.00    -0.314 A  
HETATM   12  C   UNL     1     -11.215  10.865  69.429  1.00  0.00    -0.272 A  
HETATM   13  C   UNL     1     -10.496   8.572  69.484  1.00  0.00    -0.220 A  
HETATM   14  C   UNL     1     -10.884   9.733  70.179  1.00  0.00    -0.340 A  
HETATM   15  F   UNL     1     -11.604  11.975  70.084  1.00  0.00    -0.359 F  
HETATM   16  N   UNL     1     -10.131   7.298  69.913  1.00  0.00    -0.191 NA 
BRANCH  11  17
HETATM   17  N   UNL     1     -11.515  12.076  67.363  1.00  0.00    -0.328 N  
HETATM   18  H   UNL     1     -12.491  12.369  67.424  1.00  0.00     0.000 HD 
HETATM   19  C   UNL     1     -10.669  12.884  66.633  1.00  0.00    -0.265 C  
HETATM   20  O   UNL     1      -9.477  12.717  66.417  1.00  0.00    -0.246 OA 
BRANCH  19  21
HETATM   21  C   UNL     1     -11.332  14.125  66.083  1.00  0.00    -0.337 C  
HETATM   22  C   UNL     1     -12.767  14.022  65.577  1.00  0.00    -0.517 C  
HETATM   23  C   UNL     1     -11.647  14.097  64.588  1.00  0.00    -0.414 C  
BRANCH  21  24
HETATM   24  C   UNL     1     -10.822  15.432  66.689  1.00  0.00    -0.302 A  
HETATM   25  C   UNL     1      -9.402  19.684  66.890  1.00  0.00    -0.355 C  
HETATM   26  C   UNL     1     -11.080  15.732  68.054  1.00  0.00    -0.337 A  
HETATM   27  C   UNL     1     -10.196  16.422  65.909  1.00  0.00    -0.379 A  
HETATM   28  C   UNL     1     -10.782  16.978  68.616  1.00  0.00    -0.333 A  
HETATM   29  C   UNL     1     -10.209  17.922  67.795  1.00  0.00    -0.368 A  
HETATM   30  C   UNL     1      -9.911  17.644  66.482  1.00  0.00    -0.332 A  
HETATM   31  F   UNL     1     -10.185  20.715  66.488  1.00  0.00    -0.516 F  
HETATM   32  O   UNL     1      -9.361  18.709  65.838  1.00  0.00    -0.475 OA 
HETATM   33  F   UNL     1      -8.152  20.169  67.078  1.00  0.00    -0.308 F  
HETATM   34  O   UNL     1      -9.896  19.197  68.145  1.00  0.00    -0.326 OA 
ENDBRANCH  21  24
ENDBRANCH  19  21
ENDBRANCH  11  17
BRANCH  16  35
HETATM   35  C   UNL     1     -10.151   6.908  71.318  1.00  0.00    -0.190 C  
BRANCH  35  36
HETATM   36  C   UNL     1      -8.867   7.240  72.097  1.00  0.00    -0.127 C  
HETATM   37  H   UNL     1      -8.125   8.775  73.118  1.00  0.00     0.000 HD 
HETATM   38  O   UNL     1      -8.919   8.570  72.637  1.00  0.00    -0.279 OA 
BRANCH  36  39
HETATM   39  C   UNL     1      -8.721   6.284  73.289  1.00  0.00    -0.125 C  
HETATM   40  O   UNL     1      -7.535   5.503  73.140  1.00  0.00    -0.093 OA 
HETATM   41  H   UNL     1      -7.446   4.911  73.878  1.00  0.00     0.000 HD 
ENDBRANCH  36  39
ENDBRANCH  35  36
ENDBRANCH  16  35
ENDBRANCH   2   7
TORSDOF 8
ENDMDL
MODEL       12
REMARK 921   NORMALIZED FREE ENERGY PREDICTED BY IDOCK:   -7.10 KCAL/MOL
REMARK 922        TOTAL FREE ENERGY PREDICTED BY IDOCK:  -11.34 KCAL/MOL
REMARK 923 INTER-LIGAND FREE ENERGY PREDICTED BY IDOCK:  -10.37 KCAL/MOL
REMARK 924 INTRA-LIGAND FREE ENERGY PREDICTED BY IDOCK:   -0.96 KCAL/MOL
REMARK 927      BINDING AFFINITY PREDICTED BY RF-SCORE:    0.00 PKD
ROOT
HETATM    1  C   UNL     1      -9.188   7.950  73.661  1.00  0.00    -0.320 C  
HETATM    2  C   UNL     1      -9.158   7.066  72.381  1.00  0.00    -0.147 C  
HETATM    3  C   UNL     1      -7.728   6.493  72.305  1.00  0.00    -0.097 C  
ENDROOT
BRANCH   2   4
HETATM    4  C   UNL     1     -10.193   5.921  72.590  1.00  0.00    -0.183 C  
HETATM    5  H   UNL     1     -10.220   3.956  72.972  1.00  0.00     0.000 HD 
HETATM    6  O   UNL     1      -9.589   4.654  72.844  1.00  0.00    -0.129 OA 
ENDBRANCH   2   4
BRANCH   2   7
HETATM    7  C   UNL     1      -9.462   7.927  71.136  1.00  0.00    -0.158 A  
HETATM    8  C   UNL     1      -9.899   9.243  71.126  1.00  0.00    -0.342 A  
HETATM    9  C   UNL     1     -10.140   9.648  69.801  1.00  0.00    -0.258 A  
HETATM   10  C   UNL     1     -10.624  10.851  69.246  1.00  0.00    -0.251 A  
HETATM   11  C   UNL     1     -10.790  10.973  67.866  1.00  0.00    -0.237 A  
HETATM   12  C   UNL     1     -10.482   9.874  67.060  1.00  0.00    -0.230 A  
HETATM   13  C   UNL     1      -9.829   8.575  68.973  1.00  0.00    -0.183 A  
HETATM   14  C   UNL     1     -10.006   8.667  67.580  1.00  0.00    -0.256 A  
HETATM   15  F   UNL     1     -10.638   9.979  65.726  1.00  0.00    -0.266 F  
HETATM   16  N   UNL     1      -9.364   7.551  69.795  1.00  0.00    -0.151 NA 
BRANCH  11  17
HETATM   17  N   UNL     1     -11.267  12.149  67.249  1.00  0.00    -0.286 N  
HETATM   18  H   UNL     1     -12.241  12.397  67.422  1.00  0.00     0.000 HD 
HETATM   19  C   UNL     1     -10.545  12.996  66.435  1.00  0.00    -0.284 C  
HETATM   20  O   UNL     1      -9.379  12.884  66.084  1.00  0.00    -0.203 OA 
BRANCH  19  21
HETATM   21  C   UNL     1     -11.321  14.207  65.970  1.00  0.00    -0.330 C  
HETATM   22  C   UNL     1     -12.756  14.014  65.493  1.00  0.00    -0.517 C  
HETATM   23  C   UNL     1     -11.674  14.235  64.484  1.00  0.00    -0.431 C  
BRANCH  21  24
HETATM   24  C   UNL     1     -10.901  15.516  66.638  1.00  0.00    -0.285 A  
HETATM   25  C   UNL     1      -9.524  19.770  67.022  1.00  0.00    -0.363 C  
HETATM   26  C   UNL     1     -11.350  15.820  67.952  1.00  0.00    -0.277 A  
HETATM   27  C   UNL     1     -10.172  16.504  65.950  1.00  0.00    -0.368 A  
HETATM   28  C   UNL     1     -11.133  17.069  68.546  1.00  0.00    -0.156 A  
HETATM   29  C   UNL     1     -10.451  18.010  67.811  1.00  0.00    -0.408 A  
HETATM   30  C   UNL     1      -9.971  17.729  66.553  1.00  0.00    -0.346 A  
HETATM   31  F   UNL     1     -10.243  20.799  66.510  1.00  0.00    -0.465 F  
HETATM   32  O   UNL     1      -9.336  18.791  65.989  1.00  0.00    -0.478 OA 
HETATM   33  F   UNL     1      -8.313  20.257  67.383  1.00  0.00    -0.340 F  
HETATM   34  O   UNL     1     -10.190  19.286  68.197  1.00  0.00    -0.383 OA 
ENDBRANCH  21  24
ENDBRANCH  19  21
ENDBRANCH  11  17
BRANCH  16  35
HETATM   35  C   UNL     1      -8.879   6.281  69.267  1.00  0.00    -0.123 C  
BRANCH  35  36
HETATM   36  C   UNL     1      -9.974   5.235  68.996  1.00  0.00    -0.189 C  
HETATM   37  H   UNL     1     -11.948   5.095  69.182  1.00  0.00     0.000 HD 
HETATM   38  O   UNL     1     -11.271   5.742  69.349  1.00  0.00    -0.321 OA 
BRANCH  36  39
HETATM   39  C   UNL     1     -10.019   4.907  67.498  1.00  0.00    -0.156 C  
HETATM   40  O   UNL     1     -11.148   5.543  66.898  1.00  0.00    -0.455 OA 
HETATM   41  H   UNL     1     -11.175   5.340  65.970  1.00  0.00     0.000 HD 
ENDBRANCH  36  39
ENDBRANCH  35  36
ENDBRANCH  16  35
ENDBRANCH   2   7
TORSDOF 8
ENDMDL
MODEL       13
REMARK 921   NORMALIZED FREE ENERGY PREDICTED BY IDOCK:   -7.09 KCAL/MOL
REMARK 922        TOTAL FREE ENERGY PREDICTED BY IDOCK:  -11.32 KCAL/MOL
REMARK 923 INTER-LIGAND FREE ENERGY PREDICTED BY IDOCK:  -10.43 KCAL/MOL
REMARK 924 INTRA-LIGAND FREE ENERGY PREDICTED BY IDOCK:   -0.89 KCAL/MOL
REMARK 927      BINDING AFFINITY PREDICTED BY RF-SCORE:    0.00 PKD
ROOT
HETATM    1  C   UNL     1     -10.452   6.421  72.258  1.00  0.00    -0.222 C  
HETATM    2  C   UNL     1      -9.116   7.170  71.983  1.00  0.00    -0.142 C  
HETATM    3  C   UNL     1      -8.875   8.058  73.220  1.00  0.00    -0.330 C  
ENDROOT
BRANCH   2   4
HETATM    4  C   UNL     1      -8.001   6.091  71.862  1.00  0.00    -0.107 C  
HETATM    5  H   UNL     1      -6.011   5.984  71.672  1.00  0.00     0.000 HD 
HETATM    6  O   UNL     1      -6.692   6.643  71.745  1.00  0.00    -0.060 OA 
ENDBRANCH   2   4
BRANCH   2   7
HETATM    7  C   UNL     1      -9.250   8.037  70.713  1.00  0.00    -0.157 A  
HETATM    8  C   UNL     1      -9.391   9.416  70.662  1.00  0.00    -0.314 A  
HETATM    9  C   UNL     1      -9.563   9.822  69.326  1.00  0.00    -0.204 A  
HETATM   10  C   UNL     1      -9.785  11.084  68.736  1.00  0.00    -0.199 A  
HETATM   11  C   UNL     1      -9.946  11.196  67.354  1.00  0.00    -0.179 A  
HETATM   12  C   UNL     1      -9.898  10.031  66.583  1.00  0.00    -0.203 A  
HETATM   13  C   UNL     1      -9.507   8.682  68.532  1.00  0.00    -0.142 A  
HETATM   14  C   UNL     1      -9.685   8.767  67.139  1.00  0.00    -0.248 A  
HETATM   15  F   UNL     1     -10.052  10.126  65.248  1.00  0.00    -0.343 F  
HETATM   16  N   UNL     1      -9.260   7.608  69.384  1.00  0.00    -0.149 NA 
BRANCH  11  17
HETATM   17  N   UNL     1     -10.168  12.427  66.702  1.00  0.00    -0.222 N  
HETATM   18  H   UNL     1      -9.377  12.831  66.199  1.00  0.00     0.000 HD 
HETATM   19  C   UNL     1     -11.349  13.139  66.677  1.00  0.00    -0.325 C  
HETATM   20  O   UNL     1     -12.407  12.853  67.220  1.00  0.00    -0.312 OA 
BRANCH  19  21
HETATM   21  C   UNL     1     -11.286  14.397  65.843  1.00  0.00    -0.332 C  
HETATM   22  C   UNL     1     -12.261  14.551  64.681  1.00  0.00    -0.474 C  
HETATM   23  C   UNL     1     -10.832  14.209  64.396  1.00  0.00    -0.218 C  
BRANCH  21  24
HETATM   24  C   UNL     1     -10.792  15.630  66.601  1.00  0.00    -0.266 A  
HETATM   25  C   UNL     1      -9.337  19.817  67.294  1.00  0.00    -0.346 C  
HETATM   26  C   UNL     1     -11.114  15.796  67.975  1.00  0.00    -0.337 A  
HETATM   27  C   UNL     1     -10.118  16.682  65.955  1.00  0.00    -0.341 A  
HETATM   28  C   UNL     1     -10.830  16.976  68.673  1.00  0.00    -0.284 A  
HETATM   29  C   UNL     1     -10.207  17.987  67.979  1.00  0.00    -0.382 A  
HETATM   30  C   UNL     1      -9.848  17.837  66.660  1.00  0.00    -0.322 A  
HETATM   31  F   UNL     1     -10.088  20.896  66.960  1.00  0.00    -0.573 F  
HETATM   32  O   UNL     1      -9.255  18.952  66.152  1.00  0.00    -0.434 OA 
HETATM   33  F   UNL     1      -8.092  20.262  67.589  1.00  0.00    -0.327 F  
HETATM   34  O   UNL     1      -9.897  19.215  68.469  1.00  0.00    -0.366 OA 
ENDBRANCH  21  24
ENDBRANCH  19  21
ENDBRANCH  11  17
BRANCH  16  35
HETATM   35  C   UNL     1      -9.071   6.247  68.895  1.00  0.00    -0.124 C  
BRANCH  35  36
HETATM   36  C   UNL     1     -10.373   5.477  68.612  1.00  0.00    -0.185 C  
HETATM   37  H   UNL     1     -12.328   5.786  68.787  1.00  0.00     0.000 HD 
HETATM   38  O   UNL     1     -11.524   6.262  68.961  1.00  0.00    -0.363 OA 
BRANCH  36  39
HETATM   39  C   UNL     1     -10.481   5.175  67.111  1.00  0.00    -0.162 C  
HETATM   40  O   UNL     1     -11.398   6.084  66.501  1.00  0.00    -0.737 OA 
HETATM   41  H   UNL     1     -11.464   5.896  65.571  1.00  0.00     0.000 HD 
ENDBRANCH  36  39
ENDBRANCH  35  36
ENDBRANCH  16  35
ENDBRANCH   2   7
TORSDOF 8
ENDMDL
MODEL       14
REMARK 921   NORMALIZED FREE ENERGY PREDICTED BY IDOCK:   -7.07 KCAL/MOL
REMARK 922        TOTAL FREE ENERGY PREDICTED BY IDOCK:  -11.30 KCAL/MOL
REMARK 923 INTER-LIGAND FREE ENERGY PREDICTED BY IDOCK:  -10.56 KCAL/MOL
REMARK 924 INTRA-LIGAND FREE ENERGY PREDICTED BY IDOCK:   -0.74 KCAL/MOL
REMARK 927      BINDING AFFINITY PREDICTED BY RF-SCORE:    0.00 PKD
ROOT
HETATM    1  C   UNL     1      -7.329   4.510  70.135  1.00  0.00    -0.050 C  
HETATM    2  C   UNL     1      -8.839   4.859  70.269  1.00  0.00    -0.134 C  
HETATM    3  C   UNL     1      -9.599   3.635  69.718  1.00  0.00    -0.228 C  
ENDROOT
BRANCH   2   4
HETATM    4  C   UNL     1      -9.134   5.045  71.786  1.00  0.00    -0.137 C  
HETATM    5  H   UNL     1     -10.597   4.671  73.101  1.00  0.00     0.000 HD 
HETATM    6  O   UNL     1     -10.417   4.558  72.175  1.00  0.00    -0.187 OA 
ENDBRANCH   2   4
BRANCH   2   7
HETATM    7  C   UNL     1      -9.166   6.118  69.437  1.00  0.00    -0.133 A  
HETATM    8  C   UNL     1      -9.778   7.277  69.893  1.00  0.00    -0.174 A  
HETATM    9  C   UNL     1      -9.974   8.159  68.816  1.00  0.00    -0.198 A  
HETATM   10  C   UNL     1     -10.576   9.432  68.726  1.00  0.00    -0.234 A  
HETATM   11  C   UNL     1     -10.656  10.087  67.497  1.00  0.00    -0.280 A  
HETATM   12  C   UNL     1     -10.141   9.446  66.367  1.00  0.00    -0.262 A  
HETATM   13  C   UNL     1      -9.459   7.551  67.677  1.00  0.00    -0.138 A  
HETATM   14  C   UNL     1      -9.545   8.183  66.423  1.00  0.00    -0.286 A  
HETATM   15  F   UNL     1     -10.213  10.068  65.175  1.00  0.00    -0.388 F  
HETATM   16  N   UNL     1      -8.920   6.331  68.079  1.00  0.00    -0.115 NA 
BRANCH  11  17
HETATM   17  N   UNL     1     -11.243  11.361  67.340  1.00  0.00    -0.297 N  
HETATM   18  H   UNL     1     -12.254  11.389  67.208  1.00  0.00     0.000 HD 
HETATM   19  C   UNL     1     -10.584  12.572  67.346  1.00  0.00    -0.223 C  
HETATM   20  O   UNL     1      -9.383  12.770  67.470  1.00  0.00    -0.178 OA 
BRANCH  19  21
HETATM   21  C   UNL     1     -11.499  13.767  67.211  1.00  0.00    -0.367 C  
HETATM   22  C   UNL     1     -12.606  13.722  66.164  1.00  0.00    -0.423 C  
HETATM   23  C   UNL     1     -11.383  14.542  65.899  1.00  0.00    -0.341 C  
BRANCH  21  24
HETATM   24  C   UNL     1     -11.693  14.560  68.503  1.00  0.00    -0.353 A  
HETATM   25  C   UNL     1     -12.514  15.368  72.840  1.00  0.00    -0.418 C  
HETATM   26  C   UNL     1     -11.083  15.835  68.653  1.00  0.00    -0.327 A  
HETATM   27  C   UNL     1     -12.365  14.021  69.615  1.00  0.00    -0.309 A  
HETATM   28  C   UNL     1     -11.090  16.530  69.868  1.00  0.00    -0.241 A  
HETATM   29  C   UNL     1     -11.727  15.935  70.933  1.00  0.00    -0.420 A  
HETATM   30  C   UNL     1     -12.360  14.721  70.804  1.00  0.00    -0.330 A  
HETATM   31  F   UNL     1     -11.734  14.850  73.820  1.00  0.00    -0.455 F  
HETATM   32  O   UNL     1     -12.918  14.300  71.971  1.00  0.00    -0.322 OA 
HETATM   33  F   UNL     1     -13.617  15.888  73.428  1.00  0.00    -0.601 F  
HETATM   34  O   UNL     1     -11.796  16.430  72.196  1.00  0.00    -0.525 OA 
ENDBRANCH  21  24
ENDBRANCH  19  21
ENDBRANCH  11  17
BRANCH  16  35
HETATM   35  C   UNL     1      -8.228   5.438  67.157  1.00  0.00    -0.104 C  
BRANCH  35  36
HETATM   36  C   UNL     1      -8.956   5.198  65.823  1.00  0.00    -0.152 C  
HETATM   37  H   UNL     1      -8.535   4.429  64.040  1.00  0.00     0.000 HD 
HETATM   38  O   UNL     1      -8.085   4.577  64.864  1.00  0.00    -0.096 OA 
BRANCH  36  39
HETATM   39  C   UNL     1     -10.133   4.238  66.040  1.00  0.00    -0.197 C  
HETATM   40  O   UNL     1     -11.319   4.790  65.466  1.00  0.00    -0.940 OA 
HETATM   41  H   UNL     1     -12.047   4.195  65.600  1.00  0.00     0.000 HD 
ENDBRANCH  36  39
ENDBRANCH  35  36
ENDBRANCH  16  35
ENDBRANCH   2   7
TORSDOF 8
ENDMDL
MODEL       15
REMARK 921   NORMALIZED FREE ENERGY PREDICTED BY IDOCK:   -7.03 KCAL/MOL
REMARK 922        TOTAL FREE ENERGY PREDICTED BY IDOCK:  -11.24 KCAL/MOL
REMARK 923 INTER-LIGAND FREE ENERGY PREDICTED BY IDOCK:  -10.74 KCAL/MOL
REMARK 924 INTRA-LIGAND FREE ENERGY PREDICTED BY IDOCK:   -0.49 KCAL/MOL
REMARK 927      BINDING AFFINITY PREDICTED BY RF-SCORE:    0.00 PKD
ROOT
HETATM    1  C   UNL     1      -6.000   8.119  72.230  1.00  0.00    -0.048 C  
HETATM    2  C   UNL     1      -7.485   7.773  72.537  1.00  0.00    -0.101 C  
HETATM    3  C   UNL     1      -7.615   6.254  72.305  1.00  0.00    -0.095 C  
ENDROOT
BRANCH   2   4
HETATM    4  C   UNL     1      -7.737   8.117  74.035  1.00  0.00    -0.206 C  
HETATM    5  H   UNL     1      -7.194   9.492  75.384  1.00  0.00     0.000 HD 
HETATM    6  O   UNL     1      -7.040   9.282  74.471  1.00  0.00    -0.392 OA 
ENDBRANCH   2   4
BRANCH   2   7
HETATM    7  C   UNL     1      -8.417   8.547  71.580  1.00  0.00    -0.178 A  
HETATM    8  C   UNL     1      -8.038   9.279  70.466  1.00  0.00    -0.198 A  
HETATM    9  C   UNL     1      -9.167   9.902  69.905  1.00  0.00    -0.245 A  
HETATM   10  C   UNL     1      -9.327  10.773  68.807  1.00  0.00    -0.186 A  
HETATM   11  C   UNL     1     -10.589  11.270  68.481  1.00  0.00    -0.199 A  
HETATM   12  C   UNL     1     -11.677  10.894  69.274  1.00  0.00    -0.324 A  
HETATM   13  C   UNL     1     -10.269   9.536  70.669  1.00  0.00    -0.297 A  
HETATM   14  C   UNL     1     -11.549  10.038  70.371  1.00  0.00    -0.379 A  
HETATM   15  F   UNL     1     -12.901  11.367  68.970  1.00  0.00     0.023 F  
HETATM   16  N   UNL     1      -9.807   8.665  71.654  1.00  0.00    -0.252 NA 
BRANCH  11  17
HETATM   17  N   UNL     1     -10.817  12.142  67.395  1.00  0.00    -0.236 N  
HETATM   18  H   UNL     1     -11.479  12.904  67.548  1.00  0.00     0.000 HD 
HETATM   19  C   UNL     1     -10.234  12.067  66.148  1.00  0.00    -0.226 C  
HETATM   20  O   UNL     1      -9.434  11.234  65.745  1.00  0.00    -0.214 OA 
BRANCH  19  21
HETATM   21  C   UNL     1     -10.639  13.183  65.215  1.00  0.00    -0.325 C  
HETATM   22  C   UNL     1     -11.957  13.059  64.458  1.00  0.00    -0.450 C  
HETATM   23  C   UNL     1     -10.671  12.824  63.730  1.00  0.00    -0.397 C  
BRANCH  21  24
HETATM   24  C   UNL     1     -10.108  14.560  65.613  1.00  0.00    -0.384 A  
HETATM   25  C   UNL     1     -10.093  18.977  66.405  1.00  0.00    -0.415 C  
HETATM   26  C   UNL     1      -8.996  14.666  66.492  1.00  0.00    -0.236 A  
HETATM   27  C   UNL     1     -10.758  15.749  65.234  1.00  0.00    -0.446 A  
HETATM   28  C   UNL     1      -8.572  15.892  67.018  1.00  0.00    -0.245 A  
HETATM   29  C   UNL     1      -9.270  17.016  66.644  1.00  0.00    -0.256 A  
HETATM   30  C   UNL     1     -10.325  16.947  65.764  1.00  0.00    -0.283 A  
HETATM   31  F   UNL     1     -10.911  19.536  67.331  1.00  0.00    -0.550 F  
HETATM   32  O   UNL     1     -10.889  18.163  65.531  1.00  0.00    -0.489 OA 
HETATM   33  F   UNL     1      -9.547  19.983  65.682  1.00  0.00    -0.413 F  
HETATM   34  O   UNL     1      -9.040  18.280  67.087  1.00  0.00    -0.256 OA 
ENDBRANCH  21  24
ENDBRANCH  19  21
ENDBRANCH  11  17
BRANCH  16  35
HETATM   35  C   UNL     1     -10.698   8.019  72.610  1.00  0.00    -0.358 C  
BRANCH  35  36
HETATM   36  C   UNL     1     -11.481   6.818  72.052  1.00  0.00    -0.282 C  
HETATM   37  H   UNL     1     -13.332   6.429  71.442  1.00  0.00     0.000 HD 
HETATM   38  O   UNL     1     -12.848   7.171  71.786  1.00  0.00    -0.345 OA 
BRANCH  36  39
HETATM   39  C   UNL     1     -10.870   6.375  70.716  1.00  0.00    -0.267 C  
HETATM   40  O   UNL     1     -11.867   6.412  69.694  1.00  0.00    -0.594 OA 
HETATM   41  H   UNL     1     -11.488   6.138  68.866  1.00  0.00     0.000 HD 
ENDBRANCH  36  39
ENDBRANCH  35  36
ENDBRANCH  16  35
ENDBRANCH   2   7
TORSDOF 8
ENDMDL
MODEL       16
REMARK 921   NORMALIZED FREE ENERGY PREDICTED BY IDOCK:   -7.02 KCAL/MOL
REMARK 922        TOTAL FREE ENERGY PREDICTED BY IDOCK:  -11.22 KCAL/MOL
REMARK 923 INTER-LIGAND FREE ENERGY PREDICTED BY IDOCK:  -10.62 KCAL/MOL
REMARK 924 INTRA-LIGAND FREE ENERGY PREDICTED BY IDOCK:   -0.60 KCAL/MOL
REMARK 927      BINDING AFFINITY PREDICTED BY RF-SCORE:    0.00 PKD
ROOT
HETATM    1  C   UNL     1     -10.606  17.339  68.192  1.00  0.00    -0.386 C  
HETATM    2  C   UNL     1     -10.105  16.405  67.053  1.00  0.00    -0.272 C  
HETATM    3  C   UNL     1     -10.866  16.848  65.787  1.00  0.00    -0.061 C  
ENDROOT
BRANCH   2   4
HETATM    4  C   UNL     1      -8.578  16.661  66.888  1.00  0.00    -0.211 C  
HETATM    5  H   UNL     1      -7.338  17.736  65.742  1.00  0.00     0.000 HD 
HETATM    6  O   UNL     1      -8.270  17.579  65.842  1.00  0.00    -0.538 OA 
ENDBRANCH   2   4
BRANCH   2   7
HETATM    7  C   UNL     1     -10.432  14.935  67.393  1.00  0.00    -0.255 A  
HETATM    8  C   UNL     1     -10.616  14.398  68.658  1.00  0.00    -0.253 A  
HETATM    9  C   UNL     1     -10.816  13.010  68.556  1.00  0.00    -0.282 A  
HETATM   10  C   UNL     1     -11.009  12.002  69.523  1.00  0.00    -0.056 A  
HETATM   11  C   UNL     1     -11.162  10.671  69.132  1.00  0.00    -0.265 A  
HETATM   12  C   UNL     1     -11.106  10.368  67.769  1.00  0.00    -0.299 A  
HETATM   13  C   UNL     1     -10.777  12.681  67.206  1.00  0.00    -0.237 A  
HETATM   14  C   UNL     1     -10.911  11.343  66.787  1.00  0.00    -0.347 A  
HETATM   15  F   UNL     1     -11.253   9.087  67.379  1.00  0.00    -0.209 F  
HETATM   16  N   UNL     1     -10.598  13.871  66.504  1.00  0.00    -0.277 NA 
BRANCH  11  17
HETATM   17  N   UNL     1     -11.360   9.616  70.049  1.00  0.00    -0.348 N  
HETATM   18  H   UNL     1     -12.303   9.501  70.421  1.00  0.00     0.000 HD 
HETATM   19  C   UNL     1     -10.404   8.727  70.491  1.00  0.00    -0.203 C  
HETATM   20  O   UNL     1      -9.219   8.692  70.192  1.00  0.00    -0.151 OA 
BRANCH  19  21
HETATM   21  C   UNL     1     -10.939   7.672  71.431  1.00  0.00    -0.257 C  
HETATM   22  C   UNL     1     -12.248   7.944  72.164  1.00  0.00    -0.353 C  
HETATM   23  C   UNL     1     -10.957   8.052  72.911  1.00  0.00    -0.398 C  
BRANCH  21  24
HETATM   24  C   UNL     1     -10.549   6.241  71.058  1.00  0.00    -0.289 A  
HETATM   25  C   UNL     1      -9.062   2.818  68.566  1.00  0.00    -0.163 C  
HETATM   26  C   UNL     1     -10.182   5.317  72.073  1.00  0.00    -0.259 A  
HETATM   27  C   UNL     1     -10.422   5.827  69.719  1.00  0.00    -0.363 A  
HETATM   28  C   UNL     1      -9.662   4.051  71.780  1.00  0.00    -0.241 A  
HETATM   29  C   UNL     1      -9.521   3.716  70.453  1.00  0.00    -0.185 A  
HETATM   30  C   UNL     1      -9.906   4.576  69.452  1.00  0.00    -0.190 A  
HETATM   31  F   UNL     1      -7.805   2.801  68.060  1.00  0.00    -0.058 F  
HETATM   32  O   UNL     1      -9.676   4.066  68.211  1.00  0.00    -0.144 OA 
HETATM   33  F   UNL     1      -9.754   1.814  67.978  1.00  0.00    -0.236 F  
HETATM   34  O   UNL     1      -8.991   2.560  69.975  1.00  0.00    -0.076 OA 
ENDBRANCH  21  24
ENDBRANCH  19  21
ENDBRANCH  11  17
BRANCH  16  35
HETATM   35  C   UNL     1     -10.573  13.926  65.047  1.00  0.00    -0.404 C  
BRANCH  35  36
HETATM   36  C   UNL     1     -11.893  13.527  64.364  1.00  0.00    -0.414 C  
HETATM   37  H   UNL     1     -13.276  14.391  63.229  1.00  0.00     0.000 HD 
HETATM   38  O   UNL     1     -12.461  14.637  63.650  1.00  0.00    -0.754 OA 
BRANCH  36  39
HETATM   39  C   UNL     1     -11.631  12.423  63.331  1.00  0.00    -0.462 C  
HETATM   40  O   UNL     1     -12.872  11.893  62.865  1.00  0.00    -0.729 OA 
HETATM   41  H   UNL     1     -12.709  11.210  62.225  1.00  0.00     0.000 HD 
ENDBRANCH  36  39
ENDBRANCH  35  36
ENDBRANCH  16  35
ENDBRANCH   2   7
TORSDOF 8
ENDMDL
MODEL       17
REMARK 921   NORMALIZED FREE ENERGY PREDICTED BY IDOCK:   -6.99 KCAL/MOL
REMARK 922        TOTAL FREE ENERGY PREDICTED BY IDOCK:  -11.18 KCAL/MOL
REMARK 923 INTER-LIGAND FREE ENERGY PREDICTED BY IDOCK:  -10.38 KCAL/MOL
REMARK 924 INTRA-LIGAND FREE ENERGY PREDICTED BY IDOCK:   -0.80 KCAL/MOL
REMARK 927      BINDING AFFINITY PREDICTED BY RF-SCORE:    0.00 PKD
ROOT
HETATM    1  C   UNL     1      -8.805   3.635  68.076  1.00  0.00    -0.146 C  
HETATM    2  C   UNL     1      -8.757   4.514  69.359  1.00  0.00    -0.117 C  
HETATM    3  C   UNL     1      -9.840   3.942  70.296  1.00  0.00    -0.168 C  
ENDROOT
BRANCH   2   4
HETATM    4  C   UNL     1      -7.343   4.334  69.986  1.00  0.00    -0.046 C  
HETATM    5  H   UNL     1      -5.424   4.626  69.501  1.00  0.00     0.000 HD 
HETATM    6  O   UNL     1      -6.286   4.735  69.118  1.00  0.00    -0.028 OA 
ENDBRANCH   2   4
BRANCH   2   7
HETATM    7  C   UNL     1      -9.071   5.984  69.005  1.00  0.00    -0.122 A  
HETATM    8  C   UNL     1      -9.189   6.523  67.732  1.00  0.00    -0.113 A  
HETATM    9  C   UNL     1      -9.400   7.910  67.826  1.00  0.00    -0.153 A  
HETATM   10  C   UNL     1      -9.544   8.919  66.852  1.00  0.00    -0.248 A  
HETATM   11  C   UNL     1      -9.724  10.248  67.237  1.00  0.00    -0.166 A  
HETATM   12  C   UNL     1      -9.742  10.549  68.602  1.00  0.00    -0.173 A  
HETATM   13  C   UNL     1      -9.435   8.236  69.177  1.00  0.00    -0.155 A  
HETATM   14  C   UNL     1      -9.597   9.572  69.590  1.00  0.00    -0.216 A  
HETATM   15  F   UNL     1      -9.915  11.828  68.986  1.00  0.00    -0.189 F  
HETATM   16  N   UNL     1      -9.289   7.045  69.885  1.00  0.00    -0.151 NA 
BRANCH  11  17
HETATM   17  N   UNL     1      -9.877  11.304  66.313  1.00  0.00    -0.207 N  
HETATM   18  H   UNL     1      -9.060  11.546  65.751  1.00  0.00     0.000 HD 
HETATM   19  C   UNL     1     -11.021  12.042  66.094  1.00  0.00    -0.302 C  
HETATM   20  O   UNL     1     -12.100  11.935  66.661  1.00  0.00    -0.587 OA 
BRANCH  19  21
HETATM   21  C   UNL     1     -10.886  13.069  64.995  1.00  0.00    -0.328 C  
HETATM   22  C   UNL     1     -11.839  12.997  63.808  1.00  0.00    -0.566 C  
HETATM   23  C   UNL     1     -10.427  12.531  63.640  1.00  0.00    -0.418 C  
BRANCH  21  24
HETATM   24  C   UNL     1     -10.336  14.418  65.460  1.00  0.00    -0.382 A  
HETATM   25  C   UNL     1     -10.181  18.833  66.246  1.00  0.00    -0.424 C  
HETATM   26  C   UNL     1      -9.345  14.469  66.478  1.00  0.00    -0.307 A  
HETATM   27  C   UNL     1     -10.863  15.638  64.997  1.00  0.00    -0.468 A  
HETATM   28  C   UNL     1      -8.927  15.674  67.055  1.00  0.00    -0.244 A  
HETATM   29  C   UNL     1      -9.507  16.832  66.591  1.00  0.00    -0.257 A  
HETATM   30  C   UNL     1     -10.438  16.814  65.580  1.00  0.00    -0.269 A  
HETATM   31  F   UNL     1     -11.082  19.443  67.055  1.00  0.00    -0.553 F  
HETATM   32  O   UNL     1     -10.898  18.057  65.274  1.00  0.00    -0.627 OA 
HETATM   33  F   UNL     1      -9.489  19.802  65.600  1.00  0.00    -0.341 F  
HETATM   34  O   UNL     1      -9.268  18.085  67.060  1.00  0.00    -0.254 OA 
ENDBRANCH  21  24
ENDBRANCH  19  21
ENDBRANCH  11  17
BRANCH  16  35
HETATM   35  C   UNL     1      -9.342   6.987  71.341  1.00  0.00    -0.155 C  
BRANCH  35  36
HETATM   36  C   UNL     1     -10.761   6.918  71.932  1.00  0.00    -0.218 C  
HETATM   37  H   UNL     1     -11.688   5.974  73.415  1.00  0.00     0.000 HD 
HETATM   38  O   UNL     1     -10.811   6.017  73.050  1.00  0.00    -0.237 OA 
BRANCH  36  39
HETATM   39  C   UNL     1     -11.173   8.300  72.458  1.00  0.00    -0.376 C  
HETATM   40  O   UNL     1     -12.504   8.244  72.972  1.00  0.00    -0.673 OA 
HETATM   41  H   UNL     1     -12.759   9.100  73.297  1.00  0.00     0.000 HD 
ENDBRANCH  36  39
ENDBRANCH  35  36
ENDBRANCH  16  35
ENDBRANCH   2   7
TORSDOF 8
ENDMDL
MODEL       18
REMARK 921   NORMALIZED FREE ENERGY PREDICTED BY IDOCK:   -6.96 KCAL/MOL
REMARK 922        TOTAL FREE ENERGY PREDICTED BY IDOCK:  -11.14 KCAL/MOL
REMARK 923 INTER-LIGAND FREE ENERGY PREDICTED BY IDOCK:  -10.02 KCAL/MOL
REMARK 924 INTRA-LIGAND FREE ENERGY PREDICTED BY IDOCK:   -1.11 KCAL/MOL
REMARK 927      BINDING AFFINITY PREDICTED BY RF-SCORE:    0.00 PKD
ROOT
HETATM    1  C   UNL     1      -9.915   3.656  71.696  1.00  0.00    -0.196 C  
HETATM    2  C   UNL     1      -9.934   4.905  72.623  1.00  0.00    -0.210 C  
HETATM    3  C   UNL     1     -11.338   4.930  73.259  1.00  0.00    -0.408 C  
ENDROOT
BRANCH   2   4
HETATM    4  C   UNL     1      -8.846   4.682  73.715  1.00  0.00    -0.104 C  
HETATM    5  H   UNL     1      -7.808   5.745  75.057  1.00  0.00     0.000 HD 
HETATM    6  O   UNL     1      -8.471   5.881  74.391  1.00  0.00    -0.114 OA 
ENDBRANCH   2   4
BRANCH   2   7
HETATM    7  C   UNL     1      -9.694   6.183  71.792  1.00  0.00    -0.153 A  
HETATM    8  C   UNL     1     -10.451   7.345  71.820  1.00  0.00    -0.221 A  
HETATM    9  C   UNL     1      -9.961   8.249  70.861  1.00  0.00    -0.223 A  
HETATM   10  C   UNL     1     -10.384   9.534  70.461  1.00  0.00    -0.350 A  
HETATM   11  C   UNL     1      -9.711  10.211  69.443  1.00  0.00    -0.229 A  
HETATM   12  C   UNL     1      -8.626   9.579  68.829  1.00  0.00    -0.123 A  
HETATM   13  C   UNL     1      -8.871   7.651  70.241  1.00  0.00    -0.145 A  
HETATM   14  C   UNL     1      -8.187   8.306  69.200  1.00  0.00    -0.121 A  
HETATM   15  F   UNL     1      -7.968  10.223  67.846  1.00  0.00    -0.099 F  
HETATM   16  N   UNL     1      -8.684   6.414  70.856  1.00  0.00    -0.135 NA 
BRANCH  11  17
HETATM   17  N   UNL     1     -10.082  11.498  68.998  1.00  0.00    -0.395 N  
HETATM   18  H   UNL     1      -9.452  12.265  69.232  1.00  0.00     0.000 HD 
HETATM   19  C   UNL     1     -11.212  11.820  68.276  1.00  0.00    -0.255 C  
HETATM   20  O   UNL     1     -12.102  11.068  67.905  1.00  0.00    -0.600 OA 
BRANCH  19  21
HETATM   21  C   UNL     1     -11.300  13.280  67.898  1.00  0.00    -0.317 C  
HETATM   22  C   UNL     1     -11.795  13.643  66.502  1.00  0.00    -0.441 C  
HETATM   23  C   UNL     1     -10.333  13.739  66.807  1.00  0.00    -0.272 C  
BRANCH  21  24
HETATM   24  C   UNL     1     -11.560  14.220  69.075  1.00  0.00    -0.342 A  
HETATM   25  C   UNL     1     -12.808  15.557  73.173  1.00  0.00    -0.497 C  
HETATM   26  C   UNL     1     -10.834  15.437  69.187  1.00  0.00    -0.249 A  
HETATM   27  C   UNL     1     -12.419  13.870  70.133  1.00  0.00    -0.355 A  
HETATM   28  C   UNL     1     -10.912  16.252  70.322  1.00  0.00    -0.314 A  
HETATM   29  C   UNL     1     -11.736  15.839  71.343  1.00  0.00    -0.445 A  
HETATM   30  C   UNL     1     -12.480  14.688  71.243  1.00  0.00    -0.339 A  
HETATM   31  F   UNL     1     -12.215  15.070  74.291  1.00  0.00    -0.657 F  
HETATM   32  O   UNL     1     -13.220  14.449  72.360  1.00  0.00    -0.373 OA 
HETATM   33  F   UNL     1     -13.909  16.243  73.559  1.00  0.00    -0.623 F  
HETATM   34  O   UNL     1     -11.902  16.469  72.535  1.00  0.00    -0.534 OA 
ENDBRANCH  21  24
ENDBRANCH  19  21
ENDBRANCH  11  17
BRANCH  16  35
HETATM   35  C   UNL     1      -7.582   5.525  70.508  1.00  0.00    -0.084 C  
BRANCH  35  36
HETATM   36  C   UNL     1      -6.197   5.997  70.983  1.00  0.00    -0.039 C  
HETATM   37  H   UNL     1      -5.443   7.045  72.493  1.00  0.00     0.000 HD 
HETATM   38  O   UNL     1      -6.298   6.753  72.200  1.00  0.00    -0.048 OA 
BRANCH  36  39
HETATM   39  C   UNL     1      -5.310   4.783  71.288  1.00  0.00    -0.004 C  
HETATM   40  O   UNL     1      -5.340   3.874  70.187  1.00  0.00    -0.007 OA 
HETATM   41  H   UNL     1      -4.791   3.122  70.376  1.00  0.00     0.000 HD 
ENDBRANCH  36  39
ENDBRANCH  35  36
ENDBRANCH  16  35
ENDBRANCH   2   7
TORSDOF 8
ENDMDL
MODEL       19
REMARK 921   NORMALIZED FREE ENERGY PREDICTED BY IDOCK:   -6.94 KCAL/MOL
REMARK 922        TOTAL FREE ENERGY PREDICTED BY IDOCK:  -11.10 KCAL/MOL
REMARK 923 INTER-LIGAND FREE ENERGY PREDICTED BY IDOCK:  -10.12 KCAL/MOL
REMARK 924 INTRA-LIGAND FREE ENERGY PREDICTED BY IDOCK:   -0.98 KCAL/MOL
REMARK 927      BINDING AFFINITY PREDICTED BY RF-SCORE:    0.00 PKD
ROOT
HETATM    1  C   UNL     1      -8.187  16.936  66.215  1.00  0.00    -0.344 C  
HETATM    2  C   UNL     1      -9.275  16.732  67.308  1.00  0.00    -0.234 C  
HETATM    3  C   UNL     1      -8.638  17.217  68.626  1.00  0.00    -0.265 C  
ENDROOT
BRANCH   2   4
HETATM    4  C   UNL     1     -10.485  17.634  66.924  1.00  0.00    -0.290 C  
HETATM    5  H   UNL     1     -11.041  18.879  65.459  1.00  0.00     0.000 HD 
HETATM    6  O   UNL     1     -10.303  18.329  65.693  1.00  0.00    -0.607 OA 
ENDBRANCH   2   4
BRANCH   2   7
HETATM    7  C   UNL     1      -9.651  15.238  67.407  1.00  0.00    -0.207 A  
HETATM    8  C   UNL     1      -9.655  14.459  68.554  1.00  0.00    -0.217 A  
HETATM    9  C   UNL     1      -9.976  13.131  68.220  1.00  0.00    -0.236 A  
HETATM   10  C   UNL     1     -10.076  11.953  68.989  1.00  0.00     0.032 A  
HETATM   11  C   UNL     1     -10.397  10.739  68.380  1.00  0.00    -0.180 A  
HETATM   12  C   UNL     1     -10.600  10.723  66.997  1.00  0.00    -0.260 A  
HETATM   13  C   UNL     1     -10.196  13.087  66.848  1.00  0.00    -0.244 A  
HETATM   14  C   UNL     1     -10.503  11.872  66.207  1.00  0.00    -0.274 A  
HETATM   15  F   UNL     1     -10.910   9.558  66.397  1.00  0.00    -0.179 F  
HETATM   16  N   UNL     1     -10.049  14.388  66.373  1.00  0.00    -0.276 NA 
BRANCH  11  17
HETATM   17  N   UNL     1     -10.514   9.527  69.092  1.00  0.00    -0.205 N  
HETATM   18  H   UNL     1      -9.885   8.771  68.821  1.00  0.00     0.000 HD 
HETATM   19  C   UNL     1     -11.396   9.263  70.119  1.00  0.00    -0.164 C  
HETATM   20  O   UNL     1     -12.242  10.010  70.590  1.00  0.00    -0.281 OA 
BRANCH  19  21
HETATM   21  C   UNL     1     -11.240   7.886  70.721  1.00  0.00    -0.274 C  
HETATM   22  C   UNL     1     -12.308   7.386  71.686  1.00  0.00    -0.373 C  
HETATM   23  C   UNL     1     -10.993   7.848  72.228  1.00  0.00    -0.359 C  
BRANCH  21  24
HETATM   24  C   UNL     1     -10.476   6.898  69.838  1.00  0.00    -0.239 A  
HETATM   25  C   UNL     1      -9.431   4.445  66.229  1.00  0.00    -0.174 C  
HETATM   26  C   UNL     1      -9.100   6.641  70.085  1.00  0.00    -0.155 A  
HETATM   27  C   UNL     1     -11.059   6.309  68.701  1.00  0.00    -0.409 A  
HETATM   28  C   UNL     1      -8.315   5.876  69.215  1.00  0.00    -0.113 A  
HETATM   29  C   UNL     1      -8.928   5.360  68.097  1.00  0.00    -0.108 A  
HETATM   30  C   UNL     1     -10.266   5.560  67.856  1.00  0.00    -0.181 A  
HETATM   31  F   UNL     1      -9.137   5.023  65.038  1.00  0.00    -0.153 F  
HETATM   32  O   UNL     1     -10.678   4.980  66.696  1.00  0.00    -0.254 OA 
HETATM   33  F   UNL     1      -9.583   3.117  66.013  1.00  0.00    -0.158 F  
HETATM   34  O   UNL     1      -8.321   4.639  67.118  1.00  0.00    -0.105 OA 
ENDBRANCH  21  24
ENDBRANCH  19  21
ENDBRANCH  11  17
BRANCH  16  35
HETATM   35  C   UNL     1     -10.272  14.743  64.976  1.00  0.00    -0.344 C  
BRANCH  35  36
HETATM   36  C   UNL     1     -11.722  15.120  64.630  1.00  0.00    -0.348 C  
HETATM   37  H   UNL     1     -12.660  16.474  63.518  1.00  0.00     0.000 HD 
HETATM   38  O   UNL     1     -11.764  16.241  63.732  1.00  0.00    -0.969 OA 
BRANCH  36  39
HETATM   39  C   UNL     1     -12.406  13.950  63.910  1.00  0.00    -0.272 C  
HETATM   40  O   UNL     1     -13.217  13.222  64.833  1.00  0.00    -0.703 OA 
HETATM   41  H   UNL     1     -13.640  12.498  64.387  1.00  0.00     0.000 HD 
ENDBRANCH  36  39
ENDBRANCH  35  36
ENDBRANCH  16  35
ENDBRANCH   2   7
TORSDOF 8
ENDMDL
MODEL       20
REMARK 921   NORMALIZED FREE ENERGY PREDICTED BY IDOCK:   -6.92 KCAL/MOL
REMARK 922        TOTAL FREE ENERGY PREDICTED BY IDOCK:  -11.08 KCAL/MOL
REMARK 923 INTER-LIGAND FREE ENERGY PREDICTED BY IDOCK:  -10.11 KCAL/MOL
REMARK 924 INTRA-LIGAND FREE ENERGY PREDICTED BY IDOCK:   -0.96 KCAL/MOL
REMARK 927      BINDING AFFINITY PREDICTED BY RF-SCORE:    0.00 PKD
ROOT
HETATM    1  C   UNL     1     -11.561   5.767  72.164  1.00  0.00    -0.265 C  
HETATM    2  C   UNL     1     -10.366   6.761  72.236  1.00  0.00    -0.219 C  
HETATM    3  C   UNL     1     -10.657   7.675  73.444  1.00  0.00    -0.353 C  
ENDROOT
BRANCH   2   4
HETATM    4  C   UNL     1      -9.082   5.918  72.489  1.00  0.00    -0.135 C  
HETATM    5  H   UNL     1      -7.103   6.180  72.635  1.00  0.00     0.000 HD 
HETATM    6  O   UNL     1      -7.886   6.694  72.481  1.00  0.00    -0.101 OA 
ENDBRANCH   2   4
BRANCH   2   7
HETATM    7  C   UNL     1     -10.291   7.591  70.936  1.00  0.00    -0.201 A  
HETATM    8  C   UNL     1     -10.292   8.974  70.835  1.00  0.00    -0.323 A  
HETATM    9  C   UNL     1     -10.294   9.346  69.479  1.00  0.00    -0.223 A  
HETATM   10  C   UNL     1     -10.333  10.601  68.836  1.00  0.00    -0.225 A  
HETATM   11  C   UNL     1     -10.348  10.678  67.442  1.00  0.00    -0.219 A  
HETATM   12  C   UNL     1     -10.337   9.487  66.711  1.00  0.00    -0.228 A  
HETATM   13  C   UNL     1     -10.271   8.178  68.725  1.00  0.00    -0.207 A  
HETATM   14  C   UNL     1     -10.304   8.229  67.319  1.00  0.00    -0.372 A  
HETATM   15  F   UNL     1     -10.351   9.548  65.365  1.00  0.00    -0.317 F  
HETATM   16  N   UNL     1     -10.213   7.117  69.625  1.00  0.00    -0.202 NA 
BRANCH  11  17
HETATM   17  N   UNL     1     -10.384  11.901  66.739  1.00  0.00    -0.206 N  
HETATM   18  H   UNL     1      -9.569  12.129  66.170  1.00  0.00     0.000 HD 
HETATM   19  C   UNL     1     -11.415  12.817  66.744  1.00  0.00    -0.343 C  
HETATM   20  O   UNL     1     -12.468  12.755  67.362  1.00  0.00    -0.168 OA 
BRANCH  19  21
HETATM   21  C   UNL     1     -11.180  14.006  65.841  1.00  0.00    -0.308 C  
HETATM   22  C   UNL     1     -11.938  14.080  64.521  1.00  0.00    -0.470 C  
HETATM   23  C   UNL     1     -10.491  13.700  64.512  1.00  0.00    -0.411 C  
BRANCH  21  24
HETATM   24  C   UNL     1     -10.791  15.287  66.578  1.00  0.00    -0.311 A  
HETATM   25  C   UNL     1      -9.557  19.558  67.191  1.00  0.00    -0.331 C  
HETATM   26  C   UNL     1     -11.218  15.495  67.918  1.00  0.00    -0.325 A  
HETATM   27  C   UNL     1     -10.115  16.341  65.937  1.00  0.00    -0.381 A  
HETATM   28  C   UNL     1     -11.032  16.713  68.583  1.00  0.00    -0.328 A  
HETATM   29  C   UNL     1     -10.401  17.721  67.891  1.00  0.00    -0.386 A  
HETATM   30  C   UNL     1      -9.943  17.533  66.609  1.00  0.00    -0.314 A  
HETATM   31  F   UNL     1     -10.324  20.589  66.759  1.00  0.00    -0.540 F  
HETATM   32  O   UNL     1      -9.359  18.651  66.097  1.00  0.00    -0.452 OA 
HETATM   33  F   UNL     1      -8.356  20.066  67.554  1.00  0.00    -0.328 F  
HETATM   34  O   UNL     1     -10.177  18.980  68.349  1.00  0.00    -0.380 OA 
ENDBRANCH  21  24
ENDBRANCH  19  21
ENDBRANCH  11  17
BRANCH  16  35
HETATM   35  C   UNL     1     -10.110   5.728  69.194  1.00  0.00    -0.197 C  
BRANCH  35  36
HETATM   36  C   UNL     1      -8.721   5.095  69.383  1.00  0.00    -0.099 C  
HETATM   37  H   UNL     1      -7.759   3.462  68.786  1.00  0.00     0.000 HD 
HETATM   38  O   UNL     1      -8.617   3.853  68.668  1.00  0.00    -0.088 OA 
BRANCH  36  39
HETATM   39  C   UNL     1      -7.643   6.026  68.812  1.00  0.00    -0.091 C  
HETATM   40  O   UNL     1      -7.129   6.863  69.849  1.00  0.00    -0.066 OA 
HETATM   41  H   UNL     1      -6.462   7.439  69.494  1.00  0.00     0.000 HD 
ENDBRANCH  36  39
ENDBRANCH  35  36
ENDBRANCH  16  35
ENDBRANCH   2   7
TORSDOF 8
ENDMDL
MODEL       21
REMARK 921   NORMALIZED FREE ENERGY PREDICTED BY IDOCK:   -6.76 KCAL/MOL
REMARK 922        TOTAL FREE ENERGY PREDICTED BY IDOCK:  -10.83 KCAL/MOL
REMARK 923 INTER-LIGAND FREE ENERGY PREDICTED BY IDOCK:   -9.44 KCAL/MOL
REMARK 924 INTRA-LIGAND FREE ENERGY PREDICTED BY IDOCK:   -1.40 KCAL/MOL
REMARK 927      BINDING AFFINITY PREDICTED BY RF-SCORE:    0.00 PKD
ROOT
HETATM    1  C   UNL     1      -9.322   3.709  69.050  1.00  0.00    -0.239 C  
HETATM    2  C   UNL     1      -9.118   4.699  70.232  1.00  0.00    -0.164 C  
HETATM    3  C   UNL     1      -9.925   4.115  71.409  1.00  0.00    -0.223 C  
ENDROOT
BRANCH   2   4
HETATM    4  C   UNL     1      -7.597   4.707  70.567  1.00  0.00    -0.054 C  
HETATM    5  H   UNL     1      -6.356   4.033  71.985  1.00  0.00     0.000 HD 
HETATM    6  O   UNL     1      -7.283   4.029  71.781  1.00  0.00    -0.053 OA 
ENDBRANCH   2   4
BRANCH   2   7
HETATM    7  C   UNL     1      -9.653   6.096  69.851  1.00  0.00    -0.159 A  
HETATM    8  C   UNL     1      -9.918   6.561  68.571  1.00  0.00    -0.148 A  
HETATM    9  C   UNL     1     -10.314   7.909  68.633  1.00  0.00    -0.224 A  
HETATM   10  C   UNL     1     -10.652   8.848  67.637  1.00  0.00    -0.292 A  
HETATM   11  C   UNL     1     -10.993  10.155  67.988  1.00  0.00    -0.270 A  
HETATM   12  C   UNL     1     -10.975  10.506  69.341  1.00  0.00    -0.250 A  
HETATM   13  C   UNL     1     -10.316   8.283  69.972  1.00  0.00    -0.212 A  
HETATM   14  C   UNL     1     -10.638   9.599  70.350  1.00  0.00    -0.354 A  
HETATM   15  F   UNL     1     -11.301  11.764  69.693  1.00  0.00    -0.293 F  
HETATM   16  N   UNL     1      -9.965   7.153  70.708  1.00  0.00    -0.190 NA 
BRANCH  11  17
HETATM   17  N   UNL     1     -11.344  11.141  67.041  1.00  0.00    -0.226 N  
HETATM   18  H   UNL     1     -12.338  11.345  66.937  1.00  0.00     0.000 HD 
HETATM   19  C   UNL     1     -10.475  11.855  66.243  1.00  0.00    -0.239 C  
HETATM   20  O   UNL     1      -9.257  11.761  66.192  1.00  0.00    -0.219 OA 
BRANCH  19  21
HETATM   21  C   UNL     1     -11.153  12.884  65.369  1.00  0.00    -0.309 C  
HETATM   22  C   UNL     1     -12.422  12.486  64.625  1.00  0.00    -0.539 C  
HETATM   23  C   UNL     1     -11.136  12.591  63.870  1.00  0.00    -0.476 C  
BRANCH  21  24
HETATM   24  C   UNL     1     -10.949  14.329  65.825  1.00  0.00    -0.305 A  
HETATM   25  C   UNL     1      -9.642  17.766  68.396  1.00  0.00    -0.323 C  
HETATM   26  C   UNL     1     -10.930  15.380  64.869  1.00  0.00    -0.453 A  
HETATM   27  C   UNL     1     -10.659  14.655  67.162  1.00  0.00    -0.282 A  
HETATM   28  C   UNL     1     -10.586  16.694  65.208  1.00  0.00    -0.224 A  
HETATM   29  C   UNL     1     -10.271  16.946  66.522  1.00  0.00    -0.318 A  
HETATM   30  C   UNL     1     -10.321  15.956  67.475  1.00  0.00    -0.283 A  
HETATM   31  F   UNL     1      -8.336  17.976  68.692  1.00  0.00    -0.287 F  
HETATM   32  O   UNL     1      -9.964  16.404  68.709  1.00  0.00    -0.224 OA 
HETATM   33  F   UNL     1     -10.377  18.579  69.191  1.00  0.00    -0.379 F  
HETATM   34  O   UNL     1      -9.867  18.140  67.029  1.00  0.00    -0.297 OA 
ENDBRANCH  21  24
ENDBRANCH  19  21
ENDBRANCH  11  17
BRANCH  16  35
HETATM   35  C   UNL     1      -9.927   7.148  72.165  1.00  0.00    -0.165 C  
BRANCH  35  36
HETATM   36  C   UNL     1      -8.535   7.390  72.775  1.00  0.00    -0.113 C  
HETATM   37  H   UNL     1      -7.415   8.944  73.305  1.00  0.00     0.000 HD 
HETATM   38  O   UNL     1      -8.275   8.794  72.929  1.00  0.00    -0.410 OA 
BRANCH  36  39
HETATM   39  C   UNL     1      -8.467   6.771  74.177  1.00  0.00    -0.141 C  
HETATM   40  O   UNL     1      -7.909   5.459  74.099  1.00  0.00    -0.099 OA 
HETATM   41  H   UNL     1      -7.867   5.076  74.968  1.00  0.00     0.000 HD 
ENDBRANCH  36  39
ENDBRANCH  35  36
ENDBRANCH  16  35
ENDBRANCH   2   7
TORSDOF 8
ENDMDL
MODEL       22
REMARK 921   NORMALIZED FREE ENERGY PREDICTED BY IDOCK:   -6.71 KCAL/MOL
REMARK 922        TOTAL FREE ENERGY PREDICTED BY IDOCK:  -10.77 KCAL/MOL
REMARK 923 INTER-LIGAND FREE ENERGY PREDICTED BY IDOCK:   -9.76 KCAL/MOL
REMARK 924 INTRA-LIGAND FREE ENERGY PREDICTED BY IDOCK:   -1.01 KCAL/MOL
REMARK 927      BINDING AFFINITY PREDICTED BY RF-SCORE:    0.00 PKD
ROOT
HETATM    1  C   UNL     1     -13.231  14.048  72.871  1.00  0.00    -0.502 C  
HETATM    2  C   UNL     1     -12.719  14.594  71.507  1.00  0.00    -0.408 C  
HETATM    3  C   UNL     1     -13.897  15.390  70.909  1.00  0.00    -0.245 C  
ENDROOT
BRANCH   2   4
HETATM    4  C   UNL     1     -11.522  15.542  71.812  1.00  0.00    -0.426 C  
HETATM    5  H   UNL     1     -11.118  17.165  72.911  1.00  0.00     0.000 HD 
HETATM    6  O   UNL     1     -11.848  16.588  72.724  1.00  0.00    -0.539 OA 
ENDBRANCH   2   4
BRANCH   2   7
HETATM    7  C   UNL     1     -12.332  13.421  70.580  1.00  0.00    -0.348 A  
HETATM    8  C   UNL     1     -12.234  12.084  70.933  1.00  0.00    -0.325 A  
HETATM    9  C   UNL     1     -11.778  11.339  69.831  1.00  0.00    -0.430 A  
HETATM   10  C   UNL     1     -11.475   9.972  69.666  1.00  0.00    -0.210 A  
HETATM   11  C   UNL     1     -11.007   9.497  68.440  1.00  0.00    -0.069 A  
HETATM   12  C   UNL     1     -10.835  10.410  67.395  1.00  0.00    -0.286 A  
HETATM   13  C   UNL     1     -11.609  12.222  68.771  1.00  0.00    -0.330 A  
HETATM   14  C   UNL     1     -11.122  11.771  67.530  1.00  0.00    -0.330 A  
HETATM   15  F   UNL     1     -10.385   9.965  66.207  1.00  0.00    -0.298 F  
HETATM   16  N   UNL     1     -12.004  13.479  69.225  1.00  0.00    -0.331 NA 
BRANCH  11  17
HETATM   17  N   UNL     1     -10.688   8.142  68.209  1.00  0.00    -0.422 N  
HETATM   18  H   UNL     1     -11.458   7.527  67.945  1.00  0.00     0.000 HD 
HETATM   19  C   UNL     1      -9.438   7.567  68.304  1.00  0.00    -0.144 C  
HETATM   20  O   UNL     1      -8.388   8.109  68.618  1.00  0.00    -0.124 OA 
BRANCH  19  21
HETATM   21  C   UNL     1      -9.410   6.102  67.939  1.00  0.00    -0.113 C  
HETATM   22  C   UNL     1      -8.718   5.686  66.646  1.00  0.00    -0.118 C  
HETATM   23  C   UNL     1     -10.212   5.714  66.698  1.00  0.00    -0.276 C  
BRANCH  21  24
HETATM   24  C   UNL     1      -9.432   5.155  69.138  1.00  0.00    -0.188 A  
HETATM   25  C   UNL     1     -10.524   3.536  73.179  1.00  0.00    -0.172 C  
HETATM   26  C   UNL     1      -9.119   3.779  68.964  1.00  0.00    -0.199 A  
HETATM   27  C   UNL     1      -9.872   5.570  70.409  1.00  0.00    -0.259 A  
HETATM   28  C   UNL     1      -9.282   2.839  69.989  1.00  0.00    -0.205 A  
HETATM   29  C   UNL     1      -9.754   3.296  71.197  1.00  0.00    -0.142 A  
HETATM   30  C   UNL     1     -10.027   4.627  71.404  1.00  0.00    -0.197 A  
HETATM   31  F   UNL     1     -11.805   3.230  73.500  1.00  0.00    -0.299 F  
HETATM   32  O   UNL     1     -10.494   4.873  72.658  1.00  0.00    -0.192 OA 
HETATM   33  F   UNL     1      -9.796   3.501  74.320  1.00  0.00    -0.117 F  
HETATM   34  O   UNL     1     -10.023   2.530  72.287  1.00  0.00    -0.142 OA 
ENDBRANCH  21  24
ENDBRANCH  19  21
ENDBRANCH  11  17
BRANCH  16  35
HETATM   35  C   UNL     1     -12.026  14.653  68.360  1.00  0.00    -0.254 C  
BRANCH  35  36
HETATM   36  C   UNL     1     -10.672  15.369  68.209  1.00  0.00    -0.260 C  
HETATM   37  H   UNL     1      -9.058  15.226  67.059  1.00  0.00     0.000 HD 
HETATM   38  O   UNL     1      -9.894  14.784  67.152  1.00  0.00    -0.228 OA 
BRANCH  36  39
HETATM   39  C   UNL     1     -10.901  16.838  67.830  1.00  0.00    -0.311 C  
HETATM   40  O   UNL     1      -9.973  17.667  68.530  1.00  0.00    -0.326 OA 
HETATM   41  H   UNL     1     -10.114  18.577  68.295  1.00  0.00     0.000 HD 
ENDBRANCH  36  39
ENDBRANCH  35  36
ENDBRANCH  16  35
ENDBRANCH   2   7
TORSDOF 8
ENDMDL
MODEL       23
REMARK 921   NORMALIZED FREE ENERGY PREDICTED BY IDOCK:   -6.70 KCAL/MOL
REMARK 922        TOTAL FREE ENERGY PREDICTED BY IDOCK:  -10.75 KCAL/MOL
REMARK 923 INTER-LIGAND FREE ENERGY PREDICTED BY IDOCK:  -10.07 KCAL/MOL
REMARK 924 INTRA-LIGAND FREE ENERGY PREDICTED BY IDOCK:   -0.68 KCAL/MOL
REMARK 927      BINDING AFFINITY PREDICTED BY RF-SCORE:    0.00 PKD
ROOT
HETATM    1  C   UNL     1      -8.589   6.283  65.581  1.00  0.00    -0.143 C  
HETATM    2  C   UNL     1      -9.216   5.856  66.939  1.00  0.00    -0.128 C  
HETATM    3  C   UNL     1     -10.369   4.897  66.582  1.00  0.00    -0.285 C  
ENDROOT
BRANCH   2   4
HETATM    4  C   UNL     1      -8.110   5.104  67.738  1.00  0.00    -0.099 C  
HETATM    5  H   UNL     1      -7.478   3.231  68.053  1.00  0.00     0.000 HD 
HETATM    6  O   UNL     1      -8.153   3.690  67.566  1.00  0.00    -0.088 OA 
ENDBRANCH   2   4
BRANCH   2   7
HETATM    7  C   UNL     1      -9.755   7.095  67.685  1.00  0.00    -0.143 A  
HETATM    8  C   UNL     1      -9.559   8.423  67.336  1.00  0.00    -0.202 A  
HETATM    9  C   UNL     1     -10.139   9.256  68.310  1.00  0.00    -0.214 A  
HETATM   10  C   UNL     1     -10.192  10.657  68.455  1.00  0.00    -0.191 A  
HETATM   11  C   UNL     1     -10.830  11.228  69.557  1.00  0.00    -0.151 A  
HETATM   12  C   UNL     1     -11.396  10.377  70.511  1.00  0.00    -0.341 A  
HETATM   13  C   UNL     1     -10.723   8.434  69.268  1.00  0.00    -0.126 A  
HETATM   14  C   UNL     1     -11.356   8.985  70.398  1.00  0.00    -0.242 A  
HETATM   15  F   UNL     1     -12.015  10.916  71.579  1.00  0.00    -0.358 F  
HETATM   16  N   UNL     1     -10.530   7.121  68.847  1.00  0.00    -0.203 NA 
BRANCH  11  17
HETATM   17  N   UNL     1     -10.919  12.622  69.760  1.00  0.00    -0.394 N  
HETATM   18  H   UNL     1     -10.480  12.993  70.603  1.00  0.00     0.000 HD 
HETATM   19  C   UNL     1     -11.541  13.531  68.931  1.00  0.00    -0.323 C  
HETATM   20  O   UNL     1     -12.139  13.306  67.888  1.00  0.00    -0.331 OA 
BRANCH  19  21
HETATM   21  C   UNL     1     -11.416  14.964  69.393  1.00  0.00    -0.324 C  
HETATM   22  C   UNL     1     -11.209  15.236  70.878  1.00  0.00    -0.367 C  
HETATM   23  C   UNL     1     -12.555  15.476  70.273  1.00  0.00    -0.362 C  
BRANCH  21  24
HETATM   24  C   UNL     1     -10.830  15.913  68.347  1.00  0.00    -0.316 A  
HETATM   25  C   UNL     1      -9.594  19.768  66.412  1.00  0.00    -0.411 C  
HETATM   26  C   UNL     1      -9.841  15.446  67.439  1.00  0.00    -0.216 A  
HETATM   27  C   UNL     1     -11.148  17.283  68.321  1.00  0.00    -0.064 A  
HETATM   28  C   UNL     1      -9.154  16.306  66.574  1.00  0.00    -0.302 A  
HETATM   29  C   UNL     1      -9.478  17.642  66.621  1.00  0.00    -0.279 A  
HETATM   30  C   UNL     1     -10.458  18.113  67.462  1.00  0.00    -0.410 A  
HETATM   31  F   UNL     1      -8.700  20.603  66.997  1.00  0.00    -0.393 F  
HETATM   32  O   UNL     1     -10.620  19.461  67.367  1.00  0.00    -0.437 OA 
HETATM   33  F   UNL     1     -10.155  20.432  65.374  1.00  0.00    -0.476 F  
HETATM   34  O   UNL     1      -8.888  18.630  65.898  1.00  0.00    -0.475 OA 
ENDBRANCH  21  24
ENDBRANCH  19  21
ENDBRANCH  11  17
BRANCH  16  35
HETATM   35  C   UNL     1     -11.068   5.977  69.574  1.00  0.00    -0.398 C  
BRANCH  35  36
HETATM   36  C   UNL     1     -10.638   5.891  71.049  1.00  0.00    -0.250 C  
HETATM   37  H   UNL     1     -11.511   5.900  72.834  1.00  0.00     0.000 HD 
HETATM   38  O   UNL     1     -11.777   5.952  71.923  1.00  0.00    -0.255 OA 
BRANCH  36  39
HETATM   39  C   UNL     1      -9.951   4.544  71.312  1.00  0.00    -0.188 C  
HETATM   40  O   UNL     1      -9.863   3.801  70.095  1.00  0.00    -0.188 OA 
HETATM   41  H   UNL     1      -9.437   2.967  70.259  1.00  0.00     0.000 HD 
ENDBRANCH  36  39
ENDBRANCH  35  36
ENDBRANCH  16  35
ENDBRANCH   2   7
TORSDOF 8
ENDMDL
MODEL       24
REMARK 921   NORMALIZED FREE ENERGY PREDICTED BY IDOCK:   -6.68 KCAL/MOL
REMARK 922        TOTAL FREE ENERGY PREDICTED BY IDOCK:  -10.72 KCAL/MOL
REMARK 923 INTER-LIGAND FREE ENERGY PREDICTED BY IDOCK:   -9.66 KCAL/MOL
REMARK 924 INTRA-LIGAND FREE ENERGY PREDICTED BY IDOCK:   -1.06 KCAL/MOL
REMARK 927      BINDING AFFINITY PREDICTED BY RF-SCORE:    0.00 PKD
ROOT
HETATM    1  C   UNL     1      -7.921   4.551  72.146  1.00  0.00    -0.100 C  
HETATM    2  C   UNL     1      -9.443   4.808  71.955  1.00  0.00    -0.186 C  
HETATM    3  C   UNL     1     -10.021   3.492  71.396  1.00  0.00    -0.151 C  
ENDROOT
BRANCH   2   4
HETATM    4  C   UNL     1     -10.039   5.108  73.363  1.00  0.00    -0.177 C  
HETATM    5  H   UNL     1     -11.755   4.866  74.364  1.00  0.00     0.000 HD 
HETATM    6  O   UNL     1     -11.392   4.684  73.506  1.00  0.00    -0.321 OA 
ENDBRANCH   2   4
BRANCH   2   7
HETATM    7  C   UNL     1      -9.663   5.963  70.954  1.00  0.00    -0.172 A  
HETATM    8  C   UNL     1     -10.120   7.239  71.249  1.00  0.00    -0.195 A  
HETATM    9  C   UNL     1     -10.263   7.973  70.058  1.00  0.00    -0.205 A  
HETATM   10  C   UNL     1     -10.721   9.281  69.795  1.00  0.00    -0.245 A  
HETATM   11  C   UNL     1     -10.781   9.756  68.485  1.00  0.00    -0.215 A  
HETATM   12  C   UNL     1     -10.391   8.901  67.449  1.00  0.00    -0.269 A  
HETATM   13  C   UNL     1      -9.870   7.150  69.009  1.00  0.00    -0.156 A  
HETATM   14  C   UNL     1      -9.939   7.599  67.677  1.00  0.00    -0.225 A  
HETATM   15  F   UNL     1     -10.444   9.348  66.180  1.00  0.00    -0.316 F  
HETATM   16  N   UNL     1      -9.454   5.946  69.574  1.00  0.00    -0.137 NA 
BRANCH  11  17
HETATM   17  N   UNL     1     -11.227  11.054  68.155  1.00  0.00    -0.277 N  
HETATM   18  H   UNL     1     -12.216  11.157  67.928  1.00  0.00     0.000 HD 
HETATM   19  C   UNL     1     -10.457  12.197  68.109  1.00  0.00    -0.211 C  
HETATM   20  O   UNL     1      -9.257  12.301  68.325  1.00  0.00    -0.196 OA 
BRANCH  19  21
HETATM   21  C   UNL     1     -11.237  13.447  67.778  1.00  0.00    -0.306 C  
HETATM   22  C   UNL     1     -12.196  13.415  66.593  1.00  0.00    -0.391 C  
HETATM   23  C   UNL     1     -10.882  14.116  66.450  1.00  0.00    -0.304 C  
BRANCH  21  24
HETATM   24  C   UNL     1     -11.531  14.343  68.981  1.00  0.00    -0.314 A  
HETATM   25  C   UNL     1     -12.991  15.549  73.049  1.00  0.00    -0.499 C  
HETATM   26  C   UNL     1     -10.753  15.511  69.204  1.00  0.00    -0.250 A  
HETATM   27  C   UNL     1     -12.478  13.990  69.960  1.00  0.00    -0.339 A  
HETATM   28  C   UNL     1     -10.868  16.275  70.371  1.00  0.00    -0.211 A  
HETATM   29  C   UNL     1     -11.781  15.860  71.312  1.00  0.00    -0.448 A  
HETATM   30  C   UNL     1     -12.574  14.756  71.104  1.00  0.00    -0.337 A  
HETATM   31  F   UNL     1     -12.504  14.978  74.178  1.00  0.00    -0.620 F  
HETATM   32  O   UNL     1     -13.402  14.505  72.155  1.00  0.00    -0.326 OA 
HETATM   33  F   UNL     1     -14.081  16.275  73.396  1.00  0.00    -0.627 F  
HETATM   34  O   UNL     1     -11.998  16.440  72.522  1.00  0.00    -0.534 OA 
ENDBRANCH  21  24
ENDBRANCH  19  21
ENDBRANCH  11  17
BRANCH  16  35
HETATM   35  C   UNL     1      -8.908   4.853  68.777  1.00  0.00    -0.094 C  
BRANCH  35  36
HETATM   36  C   UNL     1      -7.475   5.081  68.267  1.00  0.00    -0.075 C  
HETATM   37  H   UNL     1      -5.643   4.454  68.714  1.00  0.00     0.000 HD 
HETATM   38  O   UNL     1      -6.528   4.313  69.029  1.00  0.00    -0.037 OA 
BRANCH  36  39
HETATM   39  C   UNL     1      -7.360   4.608  66.812  1.00  0.00    -0.081 C  
HETATM   40  O   UNL     1      -8.663   4.465  66.246  1.00  0.00    -0.112 OA 
HETATM   41  H   UNL     1      -8.591   4.172  65.345  1.00  0.00     0.000 HD 
ENDBRANCH  36  39
ENDBRANCH  35  36
ENDBRANCH  16  35
ENDBRANCH   2   7
TORSDOF 8
ENDMDL
MODEL       25
REMARK 921   NORMALIZED FREE ENERGY PREDICTED BY IDOCK:   -6.65 KCAL/MOL
REMARK 922        TOTAL FREE ENERGY PREDICTED BY IDOCK:  -10.68 KCAL/MOL
REMARK 923 INTER-LIGAND FREE ENERGY PREDICTED BY IDOCK:  -10.08 KCAL/MOL
REMARK 924 INTRA-LIGAND FREE ENERGY PREDICTED BY IDOCK:   -0.61 KCAL/MOL
REMARK 927      BINDING AFFINITY PREDICTED BY RF-SCORE:    0.00 PKD
ROOT
HETATM    1  C   UNL     1      -9.179  17.432  68.430  1.00  0.00    -0.277 C  
HETATM    2  C   UNL     1      -9.389  16.475  67.221  1.00  0.00    -0.227 C  
HETATM    3  C   UNL     1     -10.472  17.140  66.347  1.00  0.00    -0.255 C  
ENDROOT
BRANCH   2   4
HETATM    4  C   UNL     1      -8.037  16.404  66.452  1.00  0.00    -0.322 C  
HETATM    5  H   UNL     1      -6.916  17.547  65.251  1.00  0.00     0.000 HD 
HETATM    6  O   UNL     1      -7.741  17.591  65.720  1.00  0.00    -0.530 OA 
ENDBRANCH   2   4
BRANCH   2   7
HETATM    7  C   UNL     1      -9.868  15.094  67.717  1.00  0.00    -0.223 A  
HETATM    8  C   UNL     1      -9.364  13.858  67.342  1.00  0.00    -0.228 A  
HETATM    9  C   UNL     1     -10.118  12.838  67.949  1.00  0.00    -0.231 A  
HETATM   10  C   UNL     1     -10.052  11.431  67.873  1.00  0.00    -0.198 A  
HETATM   11  C   UNL     1     -10.962  10.645  68.581  1.00  0.00    -0.246 A  
HETATM   12  C   UNL     1     -11.939  11.285  69.348  1.00  0.00    -0.341 A  
HETATM   13  C   UNL     1     -11.093  13.448  68.731  1.00  0.00    -0.262 A  
HETATM   14  C   UNL     1     -12.033  12.677  69.439  1.00  0.00    -0.318 A  
HETATM   15  F   UNL     1     -12.823  10.538  70.036  1.00  0.00    -0.367 F  
HETATM   16  N   UNL     1     -10.895  14.823  68.624  1.00  0.00    -0.244 NA 
BRANCH  11  17
HETATM   17  N   UNL     1     -10.949   9.234  68.549  1.00  0.00    -0.456 N  
HETATM   18  H   UNL     1     -11.793   8.774  68.207  1.00  0.00     0.000 HD 
HETATM   19  C   UNL     1      -9.908   8.416  68.933  1.00  0.00    -0.180 C  
HETATM   20  O   UNL     1      -8.821   8.750  69.384  1.00  0.00    -0.139 OA 
BRANCH  19  21
HETATM   21  C   UNL     1     -10.178   6.944  68.727  1.00  0.00    -0.179 C  
HETATM   22  C   UNL     1      -9.434   6.215  67.614  1.00  0.00    -0.111 C  
HETATM   23  C   UNL     1     -10.872   6.577  67.416  1.00  0.00    -0.449 C  
BRANCH  21  24
HETATM   24  C   UNL     1     -10.589   6.196  69.995  1.00  0.00    -0.323 A  
HETATM   25  C   UNL     1     -10.294   3.400  73.492  1.00  0.00    -0.153 C  
HETATM   26  C   UNL     1     -11.577   6.747  70.856  1.00  0.00    -0.403 A  
HETATM   27  C   UNL     1      -9.936   5.023  70.415  1.00  0.00    -0.317 A  
HETATM   28  C   UNL     1     -11.873   6.192  72.107  1.00  0.00    -0.339 A  
HETATM   29  C   UNL     1     -11.174   5.068  72.482  1.00  0.00    -0.112 A  
HETATM   30  C   UNL     1     -10.242   4.492  71.651  1.00  0.00    -0.144 A  
HETATM   31  F   UNL     1      -9.342   3.551  74.445  1.00  0.00    -0.097 F  
HETATM   32  O   UNL     1      -9.654   3.399  72.208  1.00  0.00    -0.118 OA 
HETATM   33  F   UNL     1     -10.878   2.193  73.685  1.00  0.00    -0.186 F  
HETATM   34  O   UNL     1     -11.286   4.421  73.671  1.00  0.00    -0.287 OA 
ENDBRANCH  21  24
ENDBRANCH  19  21
ENDBRANCH  11  17
BRANCH  16  35
HETATM   35  C   UNL     1     -11.696  15.790  69.365  1.00  0.00    -0.370 C  
BRANCH  35  36
HETATM   36  C   UNL     1     -11.538  15.722  70.894  1.00  0.00    -0.405 C  
HETATM   37  H   UNL     1     -11.143  16.975  72.385  1.00  0.00     0.000 HD 
HETATM   38  O   UNL     1     -11.241  17.017  71.441  1.00  0.00     0.229 OA 
BRANCH  36  39
HETATM   39  C   UNL     1     -12.855  15.263  71.533  1.00  0.00    -0.398 C  
HETATM   40  O   UNL     1     -13.933  15.469  70.619  1.00  0.00    -0.868 OA 
HETATM   41  H   UNL     1     -14.748  15.184  71.015  1.00  0.00     0.000 HD 
ENDBRANCH  36  39
ENDBRANCH  35  36
ENDBRANCH  16  35
ENDBRANCH   2   7
TORSDOF 8
ENDMDL
MODEL       26
REMARK 921   NORMALIZED FREE ENERGY PREDICTED BY IDOCK:   -6.64 KCAL/MOL
REMARK 922        TOTAL FREE ENERGY PREDICTED BY IDOCK:  -10.66 KCAL/MOL
REMARK 923 INTER-LIGAND FREE ENERGY PREDICTED BY IDOCK:   -9.76 KCAL/MOL
REMARK 924 INTRA-LIGAND FREE ENERGY PREDICTED BY IDOCK:   -0.90 KCAL/MOL
REMARK 927      BINDING AFFINITY PREDICTED BY RF-SCORE:    0.00 PKD
ROOT
HETATM    1  C   UNL     1      -8.634   3.521  65.710  1.00  0.00    -0.115 C  
HETATM    2  C   UNL     1      -8.521   3.658  67.255  1.00  0.00    -0.105 C  
HETATM    3  C   UNL     1      -9.511   2.630  67.838  1.00  0.00    -0.186 C  
ENDROOT
BRANCH   2   4
HETATM    4  C   UNL     1      -7.060   3.288  67.643  1.00  0.00    -0.050 C  
HETATM    5  H   UNL     1      -5.225   4.084  67.570  1.00  0.00     0.000 HD 
HETATM    6  O   UNL     1      -6.116   4.310  67.333  1.00  0.00    -0.029 OA 
ENDBRANCH   2   4
BRANCH   2   7
HETATM    7  C   UNL     1      -8.911   5.089  67.688  1.00  0.00    -0.103 A  
HETATM    8  C   UNL     1      -9.269   6.138  66.855  1.00  0.00    -0.135 A  
HETATM    9  C   UNL     1      -9.472   7.299  67.622  1.00  0.00    -0.149 A  
HETATM   10  C   UNL     1      -9.805   8.624  67.273  1.00  0.00    -0.256 A  
HETATM   11  C   UNL     1      -9.923   9.604  68.259  1.00  0.00    -0.155 A  
HETATM   12  C   UNL     1      -9.690   9.240  69.589  1.00  0.00    -0.182 A  
HETATM   13  C   UNL     1      -9.258   6.963  68.953  1.00  0.00    -0.132 A  
HETATM   14  C   UNL     1      -9.353   7.937  69.965  1.00  0.00    -0.157 A  
HETATM   15  F   UNL     1      -9.801  10.176  70.551  1.00  0.00    -0.267 F  
HETATM   16  N   UNL     1      -8.971   5.600  68.985  1.00  0.00    -0.112 NA 
BRANCH  11  17
HETATM   17  N   UNL     1     -10.255  10.946  67.977  1.00  0.00    -0.173 N  
HETATM   18  H   UNL     1      -9.510  11.536  67.607  1.00  0.00     0.000 HD 
HETATM   19  C   UNL     1     -11.488  11.538  68.152  1.00  0.00    -0.315 C  
HETATM   20  O   UNL     1     -12.508  11.027  68.593  1.00  0.00    -0.462 OA 
BRANCH  19  21
HETATM   21  C   UNL     1     -11.543  12.980  67.704  1.00  0.00    -0.403 C  
HETATM   22  C   UNL     1     -12.070  13.289  66.307  1.00  0.00    -0.472 C  
HETATM   23  C   UNL     1     -10.597  13.353  66.563  1.00  0.00    -0.287 C  
BRANCH  21  24
HETATM   24  C   UNL     1     -11.737  13.984  68.839  1.00  0.00    -0.375 A  
HETATM   25  C   UNL     1     -12.702  15.544  72.935  1.00  0.00    -0.439 C  
HETATM   26  C   UNL     1     -11.036  15.221  68.822  1.00  0.00    -0.273 A  
HETATM   27  C   UNL     1     -12.503  13.683  69.980  1.00  0.00    -0.267 A  
HETATM   28  C   UNL     1     -11.048  16.103  69.909  1.00  0.00    -0.357 A  
HETATM   29  C   UNL     1     -11.781  15.736  71.013  1.00  0.00    -0.422 A  
HETATM   30  C   UNL     1     -12.500  14.565  71.041  1.00  0.00    -0.341 A  
HETATM   31  F   UNL     1     -12.013  15.140  74.030  1.00  0.00    -0.581 F  
HETATM   32  O   UNL     1     -13.146  14.380  72.224  1.00  0.00    -0.339 OA 
HETATM   33  F   UNL     1     -13.788  16.229  73.364  1.00  0.00    -0.671 F  
HETATM   34  O   UNL     1     -11.872  16.434  72.175  1.00  0.00    -0.525 OA 
ENDBRANCH  21  24
ENDBRANCH  19  21
ENDBRANCH  11  17
BRANCH  16  35
HETATM   35  C   UNL     1      -8.752   4.874  70.231  1.00  0.00    -0.098 C  
BRANCH  35  36
HETATM   36  C   UNL     1     -10.035   4.488  70.987  1.00  0.00    -0.187 C  
HETATM   37  H   UNL     1     -10.775   2.884  71.896  1.00  0.00     0.000 HD 
HETATM   38  O   UNL     1      -9.983   3.122  71.430  1.00  0.00    -0.157 OA 
BRANCH  36  39
HETATM   39  C   UNL     1     -10.179   5.356  72.244  1.00  0.00    -0.196 C  
HETATM   40  O   UNL     1     -11.341   4.960  72.974  1.00  0.00    -0.291 OA 
HETATM   41  H   UNL     1     -11.429   5.498  73.753  1.00  0.00     0.000 HD 
ENDBRANCH  36  39
ENDBRANCH  35  36
ENDBRANCH  16  35
ENDBRANCH   2   7
TORSDOF 8
ENDMDL
MODEL       27
REMARK 921   NORMALIZED FREE ENERGY PREDICTED BY IDOCK:   -6.60 KCAL/MOL
REMARK 922        TOTAL FREE ENERGY PREDICTED BY IDOCK:  -10.61 KCAL/MOL
REMARK 923 INTER-LIGAND FREE ENERGY PREDICTED BY IDOCK:   -9.38 KCAL/MOL
REMARK 924 INTRA-LIGAND FREE ENERGY PREDICTED BY IDOCK:   -1.23 KCAL/MOL
REMARK 927      BINDING AFFINITY PREDICTED BY RF-SCORE:    0.00 PKD
ROOT
HETATM    1  C   UNL     1      -8.366  16.881  66.260  1.00  0.00    -0.331 C  
HETATM    2  C   UNL     1      -9.065  16.243  67.494  1.00  0.00    -0.196 C  
HETATM    3  C   UNL     1      -8.156  16.562  68.698  1.00  0.00    -0.233 C  
ENDROOT
BRANCH   2   4
HETATM    4  C   UNL     1     -10.446  16.944  67.654  1.00  0.00    -0.332 C  
HETATM    5  H   UNL     1     -11.619  18.223  66.656  1.00  0.00     0.000 HD 
HETATM    6  O   UNL     1     -10.776  17.795  66.559  1.00  0.00    -0.253 OA 
ENDBRANCH   2   4
BRANCH   2   7
HETATM    7  C   UNL     1      -9.188  14.716  67.301  1.00  0.00    -0.205 A  
HETATM    8  C   UNL     1      -8.792  13.732  68.195  1.00  0.00    -0.185 A  
HETATM    9  C   UNL     1      -8.996  12.465  67.621  1.00  0.00    -0.183 A  
HETATM   10  C   UNL     1      -8.731  11.158  68.080  1.00  0.00    -0.141 A  
HETATM   11  C   UNL     1      -9.021  10.056  67.274  1.00  0.00    -0.135 A  
HETATM   12  C   UNL     1      -9.563  10.285  66.006  1.00  0.00    -0.206 A  
HETATM   13  C   UNL     1      -9.547  12.662  66.360  1.00  0.00    -0.248 A  
HETATM   14  C   UNL     1      -9.832  11.568  65.521  1.00  0.00    -0.269 A  
HETATM   15  F   UNL     1      -9.847   9.230  65.218  1.00  0.00    -0.342 F  
HETATM   16  N   UNL     1      -9.711  14.036  66.199  1.00  0.00    -0.295 NA 
BRANCH  11  17
HETATM   17  N   UNL     1      -8.782   8.725  67.674  1.00  0.00    -0.135 N  
HETATM   18  H   UNL     1      -9.577   8.207  68.049  1.00  0.00     0.000 HD 
HETATM   19  C   UNL     1      -7.579   8.053  67.607  1.00  0.00    -0.102 C  
HETATM   20  O   UNL     1      -6.504   8.481  67.212  1.00  0.00    -0.056 OA 
BRANCH  19  21
HETATM   21  C   UNL     1      -7.656   6.614  68.060  1.00  0.00    -0.107 C  
HETATM   22  C   UNL     1      -6.449   5.712  67.831  1.00  0.00    -0.044 C  
HETATM   23  C   UNL     1      -7.645   5.570  66.945  1.00  0.00    -0.092 C  
BRANCH  21  24
HETATM   24  C   UNL     1      -8.576   6.381  69.259  1.00  0.00    -0.125 A  
HETATM   25  C   UNL     1     -10.934   7.282  72.968  1.00  0.00    -0.344 C  
HETATM   26  C   UNL     1      -9.520   5.318  69.235  1.00  0.00    -0.185 A  
HETATM   27  C   UNL     1      -8.607   7.259  70.357  1.00  0.00    -0.144 A  
HETATM   28  C   UNL     1     -10.492   5.159  70.229  1.00  0.00    -0.296 A  
HETATM   29  C   UNL     1     -10.502   6.073  71.257  1.00  0.00    -0.230 A  
HETATM   30  C   UNL     1      -9.575   7.086  71.325  1.00  0.00    -0.164 A  
HETATM   31  F   UNL     1     -11.930   8.202  72.972  1.00  0.00    -0.433 F  
HETATM   32  O   UNL     1      -9.760   7.887  72.409  1.00  0.00    -0.177 OA 
HETATM   33  F   UNL     1     -10.678   6.951  74.256  1.00  0.00    -0.353 F  
HETATM   34  O   UNL     1     -11.395   6.111  72.280  1.00  0.00    -0.271 OA 
ENDBRANCH  21  24
ENDBRANCH  19  21
ENDBRANCH  11  17
BRANCH  16  35
HETATM   35  C   UNL     1     -10.328  14.618  65.013  1.00  0.00    -0.402 C  
BRANCH  35  36
HETATM   36  C   UNL     1     -11.850  14.419  64.914  1.00  0.00    -0.417 C  
HETATM   37  H   UNL     1     -13.381  14.169  66.156  1.00  0.00     0.000 HD 
HETATM   38  O   UNL     1     -12.441  14.293  66.217  1.00  0.00    -0.445 OA 
BRANCH  36  39
HETATM   39  C   UNL     1     -12.493  15.646  64.253  1.00  0.00     0.225 C  
HETATM   40  O   UNL     1     -11.509  16.663  64.064  1.00  0.00    -1.523 OA 
HETATM   41  H   UNL     1     -11.908  17.423  63.654  1.00  0.00     0.000 HD 
ENDBRANCH  36  39
ENDBRANCH  35  36
ENDBRANCH  16  35
ENDBRANCH   2   7
TORSDOF 8
ENDMDL
MODEL       28
REMARK 921   NORMALIZED FREE ENERGY PREDICTED BY IDOCK:   -6.60 KCAL/MOL
REMARK 922        TOTAL FREE ENERGY PREDICTED BY IDOCK:  -10.60 KCAL/MOL
REMARK 923 INTER-LIGAND FREE ENERGY PREDICTED BY IDOCK:   -9.69 KCAL/MOL
REMARK 924 INTRA-LIGAND FREE ENERGY PREDICTED BY IDOCK:   -0.91 KCAL/MOL
REMARK 927      BINDING AFFINITY PREDICTED BY RF-SCORE:    0.00 PKD
ROOT
HETATM    1  C   UNL     1     -12.090  14.379  66.726  1.00  0.00    -0.393 C  
HETATM    2  C   UNL     1     -10.871  14.209  67.676  1.00  0.00    -0.266 C  
HETATM    3  C   UNL     1      -9.668  13.908  66.760  1.00  0.00    -0.282 C  
ENDROOT
BRANCH   2   4
HETATM    4  C   UNL     1     -10.669  15.567  68.411  1.00  0.00    -0.263 C  
HETATM    5  H   UNL     1     -10.622  17.523  67.992  1.00  0.00     0.000 HD 
HETATM    6  O   UNL     1     -10.745  16.695  67.544  1.00  0.00    -0.325 OA 
ENDBRANCH   2   4
BRANCH   2   7
HETATM    7  C   UNL     1     -11.117  13.034  68.647  1.00  0.00    -0.269 A  
HETATM    8  C   UNL     1     -10.529  11.779  68.597  1.00  0.00    -0.242 A  
HETATM    9  C   UNL     1     -11.073  10.963  69.605  1.00  0.00    -0.328 A  
HETATM   10  C   UNL     1     -10.857   9.615  69.958  1.00  0.00    -0.302 A  
HETATM   11  C   UNL     1     -11.567   9.042  71.014  1.00  0.00    -0.300 A  
HETATM   12  C   UNL     1     -12.500   9.830  71.693  1.00  0.00    -0.410 A  
HETATM   13  C   UNL     1     -11.998  11.728  70.307  1.00  0.00    -0.343 A  
HETATM   14  C   UNL     1     -12.740  11.167  71.363  1.00  0.00    -0.524 A  
HETATM   15  F   UNL     1     -13.192   9.289  72.714  1.00  0.00    -0.479 F  
HETATM   16  N   UNL     1     -11.975  13.004  69.749  1.00  0.00    -0.322 NA 
BRANCH  11  17
HETATM   17  N   UNL     1     -11.397   7.701  71.419  1.00  0.00    -0.253 N  
HETATM   18  H   UNL     1     -11.959   6.999  70.936  1.00  0.00     0.000 HD 
HETATM   19  C   UNL     1     -10.545   7.245  72.403  1.00  0.00    -0.237 C  
HETATM   20  O   UNL     1      -9.799   7.906  73.112  1.00  0.00    -0.268 OA 
BRANCH  19  21
HETATM   21  C   UNL     1     -10.547   5.743  72.565  1.00  0.00    -0.262 C  
HETATM   22  C   UNL     1     -11.841   5.057  72.986  1.00  0.00    -0.141 C  
HETATM   23  C   UNL     1     -10.748   5.234  73.992  1.00  0.00    -0.286 C  
BRANCH  21  24
HETATM   24  C   UNL     1      -9.543   5.013  71.673  1.00  0.00    -0.210 A  
HETATM   25  C   UNL     1      -7.209   3.950  67.990  1.00  0.00    -0.059 C  
HETATM   26  C   UNL     1      -8.425   4.354  72.251  1.00  0.00    -0.110 A  
HETATM   27  C   UNL     1      -9.618   5.065  70.269  1.00  0.00    -0.255 A  
HETATM   28  C   UNL     1      -7.392   3.813  71.476  1.00  0.00    -0.040 A  
HETATM   29  C   UNL     1      -7.498   3.930  70.110  1.00  0.00    -0.045 A  
HETATM   30  C   UNL     1      -8.589   4.527  69.524  1.00  0.00    -0.080 A  
HETATM   31  F   UNL     1      -6.398   4.848  67.379  1.00  0.00    -0.035 F  
HETATM   32  O   UNL     1      -8.500   4.553  68.166  1.00  0.00    -0.094 OA 
HETATM   33  F   UNL     1      -7.338   2.886  67.163  1.00  0.00    -0.058 F  
HETATM   34  O   UNL     1      -6.578   3.513  69.202  1.00  0.00    -0.033 OA 
ENDBRANCH  21  24
ENDBRANCH  19  21
ENDBRANCH  11  17
BRANCH  16  35
HETATM   35  C   UNL     1     -12.776  14.104  70.274  1.00  0.00    -0.229 C  
BRANCH  35  36
HETATM   36  C   UNL     1     -12.345  14.609  71.662  1.00  0.00    -0.351 C  
HETATM   37  H   UNL     1     -11.667  16.297  72.462  1.00  0.00     0.000 HD 
HETATM   38  O   UNL     1     -11.934  15.985  71.605  1.00  0.00    -0.441 OA 
BRANCH  36  39
HETATM   39  C   UNL     1     -13.533  14.542  72.631  1.00  0.00    -0.493 C  
HETATM   40  O   UNL     1     -13.705  15.806  73.273  1.00  0.00    -0.662 OA 
HETATM   41  H   UNL     1     -14.441  15.764  73.873  1.00  0.00     0.000 HD 
ENDBRANCH  36  39
ENDBRANCH  35  36
ENDBRANCH  16  35
ENDBRANCH   2   7
TORSDOF 8
ENDMDL
MODEL       29
REMARK 921   NORMALIZED FREE ENERGY PREDICTED BY IDOCK:   -6.55 KCAL/MOL
REMARK 922        TOTAL FREE ENERGY PREDICTED BY IDOCK:  -10.52 KCAL/MOL
REMARK 923 INTER-LIGAND FREE ENERGY PREDICTED BY IDOCK:   -9.62 KCAL/MOL
REMARK 924 INTRA-LIGAND FREE ENERGY PREDICTED BY IDOCK:   -0.90 KCAL/MOL
REMARK 927      BINDING AFFINITY PREDICTED BY RF-SCORE:    0.00 PKD
ROOT
HETATM    1  C   UNL     1      -8.834  16.704  66.828  1.00  0.00    -0.259 C  
HETATM    2  C   UNL     1      -9.580  15.787  67.839  1.00  0.00    -0.214 C  
HETATM    3  C   UNL     1      -8.784  15.883  69.156  1.00  0.00    -0.256 C  
ENDROOT
BRANCH   2   4
HETATM    4  C   UNL     1     -11.010  16.375  68.024  1.00  0.00    -0.327 C  
HETATM    5  H   UNL     1     -12.816  15.792  68.659  1.00  0.00     0.000 HD 
HETATM    6  O   UNL     1     -11.945  15.434  68.545  1.00  0.00    -0.316 OA 
ENDBRANCH   2   4
BRANCH   2   7
HETATM    7  C   UNL     1      -9.594  14.332  67.321  1.00  0.00    -0.232 A  
HETATM    8  C   UNL     1      -9.322  13.188  68.056  1.00  0.00    -0.219 A  
HETATM    9  C   UNL     1      -9.358  12.066  67.210  1.00  0.00    -0.180 A  
HETATM   10  C   UNL     1      -9.119  10.694  67.437  1.00  0.00    -0.146 A  
HETATM   11  C   UNL     1      -9.205   9.781  66.386  1.00  0.00    -0.160 A  
HETATM   12  C   UNL     1      -9.517  10.263  65.111  1.00  0.00    -0.252 A  
HETATM   13  C   UNL     1      -9.678  12.514  65.934  1.00  0.00    -0.219 A  
HETATM   14  C   UNL     1      -9.753  11.616  64.853  1.00  0.00    -0.232 A  
HETATM   15  F   UNL     1      -9.603   9.392  64.088  1.00  0.00    -0.197 F  
HETATM   16  N   UNL     1      -9.874  13.891  66.027  1.00  0.00    -0.302 NA 
BRANCH  11  17
HETATM   17  N   UNL     1      -8.981   8.397  66.546  1.00  0.00    -0.147 N  
HETATM   18  H   UNL     1      -8.019   8.072  66.446  1.00  0.00     0.000 HD 
HETATM   19  C   UNL     1      -9.933   7.440  66.826  1.00  0.00    -0.230 C  
HETATM   20  O   UNL     1     -11.137   7.602  66.970  1.00  0.00    -0.171 OA 
BRANCH  19  21
HETATM   21  C   UNL     1      -9.371   6.049  66.996  1.00  0.00    -0.128 C  
HETATM   22  C   UNL     1      -8.246   5.599  66.071  1.00  0.00    -0.113 C  
HETATM   23  C   UNL     1      -9.632   5.085  65.839  1.00  0.00    -0.176 C  
BRANCH  21  24
HETATM   24  C   UNL     1      -9.458   5.505  68.422  1.00  0.00    -0.144 A  
HETATM   25  C   UNL     1     -10.700   5.205  72.723  1.00  0.00    -0.241 C  
HETATM   26  C   UNL     1      -9.196   4.131  68.676  1.00  0.00    -0.203 A  
HETATM   27  C   UNL     1      -9.908   6.295  69.496  1.00  0.00    -0.183 A  
HETATM   28  C   UNL     1      -9.419   3.546  69.929  1.00  0.00    -0.254 A  
HETATM   29  C   UNL     1      -9.899   4.358  70.930  1.00  0.00    -0.196 A  
HETATM   30  C   UNL     1     -10.122   5.699  70.721  1.00  0.00    -0.209 A  
HETATM   31  F   UNL     1     -12.000   5.051  73.079  1.00  0.00    -0.378 F  
HETATM   32  O   UNL     1     -10.606   6.324  71.829  1.00  0.00    -0.214 OA 
HETATM   33  F   UNL     1     -10.000   5.490  73.847  1.00  0.00    -0.152 F  
HETATM   34  O   UNL     1     -10.222   3.963  72.189  1.00  0.00    -0.177 OA 
ENDBRANCH  21  24
ENDBRANCH  19  21
ENDBRANCH  11  17
BRANCH  16  35
HETATM   35  C   UNL     1     -10.291  14.701  64.888  1.00  0.00    -0.350 C  
BRANCH  35  36
HETATM   36  C   UNL     1     -11.780  15.087  64.882  1.00  0.00    -0.336 C  
HETATM   37  H   UNL     1     -12.945  16.427  63.989  1.00  0.00     0.000 HD 
HETATM   38  O   UNL     1     -12.025  16.188  63.992  1.00  0.00    -0.897 OA 
BRANCH  36  39
HETATM   39  C   UNL     1     -12.621  13.910  64.371  1.00  0.00    -0.168 C  
HETATM   40  O   UNL     1     -12.375  13.709  62.979  1.00  0.00    -1.041 OA 
HETATM   41  H   UNL     1     -12.895  12.980  62.662  1.00  0.00     0.000 HD 
ENDBRANCH  36  39
ENDBRANCH  35  36
ENDBRANCH  16  35
ENDBRANCH   2   7
TORSDOF 8
ENDMDL
MODEL       30
REMARK 921   NORMALIZED FREE ENERGY PREDICTED BY IDOCK:   -6.53 KCAL/MOL
REMARK 922        TOTAL FREE ENERGY PREDICTED BY IDOCK:  -10.50 KCAL/MOL
REMARK 923 INTER-LIGAND FREE ENERGY PREDICTED BY IDOCK:   -9.89 KCAL/MOL
REMARK 924 INTRA-LIGAND FREE ENERGY PREDICTED BY IDOCK:   -0.62 KCAL/MOL
REMARK 927      BINDING AFFINITY PREDICTED BY RF-SCORE:    0.00 PKD
ROOT
HETATM    1  C   UNL     1      -5.209  17.670  66.902  1.00  0.00    -0.173 C  
HETATM    2  C   UNL     1      -6.673  18.119  66.628  1.00  0.00    -0.233 C  
HETATM    3  C   UNL     1      -6.994  19.172  67.708  1.00  0.00    -0.249 C  
ENDROOT
BRANCH   2   4
HETATM    4  C   UNL     1      -6.697  18.766  65.212  1.00  0.00    -0.145 C  
HETATM    5  H   UNL     1      -7.130  20.524  64.358  1.00  0.00     0.000 HD 
HETATM    6  O   UNL     1      -7.116  20.129  65.222  1.00  0.00    -0.314 OA 
ENDBRANCH   2   4
BRANCH   2   7
HETATM    7  C   UNL     1      -7.627  16.912  66.751  1.00  0.00    -0.245 A  
HETATM    8  C   UNL     1      -7.285  15.617  67.112  1.00  0.00    -0.230 A  
HETATM    9  C   UNL     1      -8.419  14.790  67.029  1.00  0.00    -0.250 A  
HETATM   10  C   UNL     1      -8.608  13.409  67.246  1.00  0.00    -0.216 A  
HETATM   11  C   UNL     1      -9.866  12.834  67.065  1.00  0.00    -0.231 A  
HETATM   12  C   UNL     1     -10.919  13.655  66.651  1.00  0.00    -0.292 A  
HETATM   13  C   UNL     1      -9.488  15.585  66.630  1.00  0.00    -0.259 A  
HETATM   14  C   UNL     1     -10.762  15.024  66.423  1.00  0.00    -0.322 A  
HETATM   15  F   UNL     1     -12.138  13.111  66.473  1.00  0.00    -0.402 F  
HETATM   16  N   UNL     1      -9.004  16.886  66.518  1.00  0.00    -0.255 NA 
BRANCH  11  17
HETATM   17  N   UNL     1     -10.122  11.461  67.268  1.00  0.00    -0.190 N  
HETATM   18  H   UNL     1     -10.936  11.070  66.793  1.00  0.00     0.000 HD 
HETATM   19  C   UNL     1      -9.380  10.596  68.044  1.00  0.00    -0.147 C  
HETATM   20  O   UNL     1      -8.386  10.852  68.708  1.00  0.00    -0.139 OA 
BRANCH  19  21
HETATM   21  C   UNL     1      -9.877   9.169  68.015  1.00  0.00    -0.197 C  
HETATM   22  C   UNL     1      -9.273   8.207  66.999  1.00  0.00    -0.187 C  
HETATM   23  C   UNL     1     -10.642   8.761  66.757  1.00  0.00    -0.220 C  
BRANCH  21  24
HETATM   24  C   UNL     1     -10.377   8.650  69.364  1.00  0.00    -0.221 A  
HETATM   25  C   UNL     1     -11.203   5.761  72.696  1.00  0.00    -0.301 C  
HETATM   26  C   UNL     1     -10.537   9.547  70.455  1.00  0.00    -0.358 A  
HETATM   27  C   UNL     1     -10.577   7.279  69.608  1.00  0.00    -0.246 A  
HETATM   28  C   UNL     1     -10.832   9.104  71.750  1.00  0.00    -0.416 A  
HETATM   29  C   UNL     1     -10.976   7.749  71.937  1.00  0.00    -0.249 A  
HETATM   30  C   UNL     1     -10.866   6.864  70.891  1.00  0.00    -0.244 A  
HETATM   31  F   UNL     1     -10.201   5.113  73.340  1.00  0.00    -0.169 F  
HETATM   32  O   UNL     1     -11.030   5.571  71.284  1.00  0.00    -0.221 OA 
HETATM   33  F   UNL     1     -12.370   5.185  73.070  1.00  0.00    -0.323 F  
HETATM   34  O   UNL     1     -11.212   7.130  73.124  1.00  0.00    -0.278 OA 
ENDBRANCH  21  24
ENDBRANCH  19  21
ENDBRANCH  11  17
BRANCH  16  35
HETATM   35  C   UNL     1      -9.863  18.015  66.179  1.00  0.00    -0.249 C  
BRANCH  35  36
HETATM   36  C   UNL     1     -10.642  18.611  67.364  1.00  0.00    -0.441 C  
HETATM   37  H   UNL     1     -10.721  18.374  69.336  1.00  0.00     0.000 HD 
HETATM   38  O   UNL     1     -10.240  18.006  68.604  1.00  0.00    -0.376 OA 
BRANCH  36  39
HETATM   39  C   UNL     1     -10.337  20.110  67.485  1.00  0.00    -0.332 C  
HETATM   40  O   UNL     1     -10.027  20.645  66.197  1.00  0.00    -0.566 OA 
HETATM   41  H   UNL     1      -9.839  21.573  66.272  1.00  0.00     0.000 HD 
ENDBRANCH  36  39
ENDBRANCH  35  36
ENDBRANCH  16  35
ENDBRANCH   2   7
TORSDOF 8
ENDMDL
MODEL       31
REMARK 921   NORMALIZED FREE ENERGY PREDICTED BY IDOCK:   -6.53 KCAL/MOL
REMARK 922        TOTAL FREE ENERGY PREDICTED BY IDOCK:  -10.49 KCAL/MOL
REMARK 923 INTER-LIGAND FREE ENERGY PREDICTED BY IDOCK:   -9.61 KCAL/MOL
REMARK 924 INTRA-LIGAND FREE ENERGY PREDICTED BY IDOCK:   -0.88 KCAL/MOL
REMARK 927      BINDING AFFINITY PREDICTED BY RF-SCORE:    0.00 PKD
ROOT
HETATM    1  C   UNL     1      -7.393   4.171  70.093  1.00  0.00    -0.045 C  
HETATM    2  C   UNL     1      -8.871   4.650  70.172  1.00  0.00    -0.126 C  
HETATM    3  C   UNL     1      -9.641   3.796  69.146  1.00  0.00    -0.195 C  
ENDROOT
BRANCH   2   4
HETATM    4  C   UNL     1      -9.373   4.352  71.616  1.00  0.00    -0.141 C  
HETATM    5  H   UNL     1     -10.941   4.768  72.789  1.00  0.00     0.000 HD 
HETATM    6  O   UNL     1     -10.634   4.950  71.909  1.00  0.00    -0.191 OA 
ENDBRANCH   2   4
BRANCH   2   7
HETATM    7  C   UNL     1      -8.961   6.147  69.805  1.00  0.00    -0.138 A  
HETATM    8  C   UNL     1      -9.756   6.713  68.820  1.00  0.00    -0.130 A  
HETATM    9  C   UNL     1      -9.495   8.092  68.739  1.00  0.00    -0.148 A  
HETATM   10  C   UNL     1      -9.993   9.107  67.896  1.00  0.00    -0.228 A  
HETATM   11  C   UNL     1      -9.532  10.418  68.024  1.00  0.00    -0.143 A  
HETATM   12  C   UNL     1      -8.561  10.690  68.993  1.00  0.00    -0.146 A  
HETATM   13  C   UNL     1      -8.539   8.394  69.702  1.00  0.00    -0.132 A  
HETATM   14  C   UNL     1      -8.045   9.705  69.839  1.00  0.00    -0.180 A  
HETATM   15  F   UNL     1      -8.108  11.951  69.126  1.00  0.00    -0.043 F  
HETATM   16  N   UNL     1      -8.262   7.210  70.382  1.00  0.00    -0.124 NA 
BRANCH  11  17
HETATM   17  N   UNL     1      -9.991  11.479  67.215  1.00  0.00    -0.190 N  
HETATM   18  H   UNL     1      -9.304  11.921  66.603  1.00  0.00     0.000 HD 
HETATM   19  C   UNL     1     -11.276  11.978  67.169  1.00  0.00    -0.316 C  
HETATM   20  O   UNL     1     -12.243  11.613  67.822  1.00  0.00    -0.560 OA 
BRANCH  19  21
HETATM   21  C   UNL     1     -11.467  13.082  66.156  1.00  0.00    -0.381 C  
HETATM   22  C   UNL     1     -12.564  12.928  65.108  1.00  0.00    -0.536 C  
HETATM   23  C   UNL     1     -11.137  12.717  64.710  1.00  0.00    -0.335 C  
BRANCH  21  24
HETATM   24  C   UNL     1     -11.072  14.471  66.659  1.00  0.00    -0.333 A  
HETATM   25  C   UNL     1     -10.144  18.860  66.546  1.00  0.00    -0.398 C  
HETATM   26  C   UNL     1     -11.272  14.817  68.023  1.00  0.00    -0.311 A  
HETATM   27  C   UNL     1     -10.620  15.479  65.787  1.00  0.00    -0.370 A  
HETATM   28  C   UNL     1     -11.082  16.119  68.500  1.00  0.00    -0.357 A  
HETATM   29  C   UNL     1     -10.679  17.072  67.594  1.00  0.00    -0.295 A  
HETATM   30  C   UNL     1     -10.441  16.756  66.277  1.00  0.00    -0.261 A  
HETATM   31  F   UNL     1     -11.067  19.772  66.153  1.00  0.00    -0.489 F  
HETATM   32  O   UNL     1     -10.062  17.837  65.543  1.00  0.00    -0.548 OA 
HETATM   33  F   UNL     1      -8.949  19.492  66.618  1.00  0.00    -0.299 F  
HETATM   34  O   UNL     1     -10.493  18.392  67.857  1.00  0.00    -0.388 OA 
ENDBRANCH  21  24
ENDBRANCH  19  21
ENDBRANCH  11  17
BRANCH  16  35
HETATM   35  C   UNL     1      -7.345   7.153  71.515  1.00  0.00    -0.078 C  
BRANCH  35  36
HETATM   36  C   UNL     1      -7.938   7.637  72.849  1.00  0.00    -0.109 C  
HETATM   37  H   UNL     1      -7.657   9.140  74.119  1.00  0.00     0.000 HD 
HETATM   38  O   UNL     1      -7.292   8.841  73.294  1.00  0.00    -0.359 OA 
BRANCH  36  39
HETATM   39  C   UNL     1      -9.424   7.974  72.667  1.00  0.00    -0.250 C  
HETATM   40  O   UNL     1     -10.189   7.358  73.703  1.00  0.00    -0.341 OA 
HETATM   41  H   UNL     1     -11.109   7.567  73.589  1.00  0.00     0.000 HD 
ENDBRANCH  36  39
ENDBRANCH  35  36
ENDBRANCH  16  35
ENDBRANCH   2   7
TORSDOF 8
ENDMDL
MODEL       32
REMARK 921   NORMALIZED FREE ENERGY PREDICTED BY IDOCK:   -6.50 KCAL/MOL
REMARK 922        TOTAL FREE ENERGY PREDICTED BY IDOCK:  -10.46 KCAL/MOL
REMARK 923 INTER-LIGAND FREE ENERGY PREDICTED BY IDOCK:   -9.69 KCAL/MOL
REMARK 924 INTRA-LIGAND FREE ENERGY PREDICTED BY IDOCK:   -0.77 KCAL/MOL
REMARK 927      BINDING AFFINITY PREDICTED BY RF-SCORE:    0.00 PKD
ROOT
HETATM    1  C   UNL     1      -8.364  16.502  66.207  1.00  0.00    -0.364 C  
HETATM    2  C   UNL     1      -9.645  16.362  67.078  1.00  0.00    -0.244 C  
HETATM    3  C   UNL     1      -9.301  17.012  68.433  1.00  0.00    -0.266 C  
ENDROOT
BRANCH   2   4
HETATM    4  C   UNL     1     -10.775  17.161  66.364  1.00  0.00    -0.072 C  
HETATM    5  H   UNL     1     -10.976  18.711  65.113  1.00  0.00     0.000 HD 
HETATM    6  O   UNL     1     -10.287  18.224  65.549  1.00  0.00    -0.575 OA 
ENDBRANCH   2   4
BRANCH   2   7
HETATM    7  C   UNL     1      -9.995  14.871  67.268  1.00  0.00    -0.230 A  
HETATM    8  C   UNL     1     -10.008  14.168  68.463  1.00  0.00    -0.235 A  
HETATM    9  C   UNL     1     -10.297  12.815  68.210  1.00  0.00    -0.248 A  
HETATM   10  C   UNL     1     -10.390  11.688  69.053  1.00  0.00    -0.119 A  
HETATM   11  C   UNL     1     -10.677  10.431  68.519  1.00  0.00    -0.221 A  
HETATM   12  C   UNL     1     -10.852  10.321  67.136  1.00  0.00    -0.212 A  
HETATM   13  C   UNL     1     -10.489  12.678  66.840  1.00  0.00    -0.233 A  
HETATM   14  C   UNL     1     -10.760  11.418  66.275  1.00  0.00    -0.322 A  
HETATM   15  F   UNL     1     -11.129   9.113  66.608  1.00  0.00    -0.105 F  
HETATM   16  N   UNL     1     -10.357  13.948  66.284  1.00  0.00    -0.287 NA 
BRANCH  11  17
HETATM   17  N   UNL     1     -10.786   9.265  69.306  1.00  0.00    -0.287 N  
HETATM   18  H   UNL     1     -10.185   8.480  69.052  1.00  0.00     0.000 HD 
HETATM   19  C   UNL     1     -11.623   9.082  70.386  1.00  0.00    -0.117 C  
HETATM   20  O   UNL     1     -12.431   9.875  70.850  1.00  0.00    -0.308 OA 
BRANCH  19  21
HETATM   21  C   UNL     1     -11.467   7.740  71.061  1.00  0.00    -0.298 C  
HETATM   22  C   UNL     1     -12.674   7.135  71.770  1.00  0.00    -0.374 C  
HETATM   23  C   UNL     1     -11.580   7.749  72.584  1.00  0.00    -0.398 C  
BRANCH  21  24
HETATM   24  C   UNL     1     -10.417   6.832  70.419  1.00  0.00    -0.236 A  
HETATM   25  C   UNL     1      -6.462   4.821  69.753  1.00  0.00    -0.035 C  
HETATM   26  C   UNL     1     -10.823   5.696  69.667  1.00  0.00    -0.365 A  
HETATM   27  C   UNL     1      -9.040   7.011  70.643  1.00  0.00    -0.158 A  
HETATM   28  C   UNL     1      -9.910   4.744  69.198  1.00  0.00    -0.254 A  
HETATM   29  C   UNL     1      -8.580   4.949  69.483  1.00  0.00    -0.086 A  
HETATM   30  C   UNL     1      -8.157   6.060  70.173  1.00  0.00    -0.114 A  
HETATM   31  F   UNL     1      -5.899   4.028  70.698  1.00  0.00    -0.011 F  
HETATM   32  O   UNL     1      -6.809   6.073  70.362  1.00  0.00    -0.050 OA 
HETATM   33  F   UNL     1      -5.527   5.048  68.800  1.00  0.00    -0.008 F  
HETATM   34  O   UNL     1      -7.559   4.115  69.156  1.00  0.00    -0.054 OA 
ENDBRANCH  21  24
ENDBRANCH  19  21
ENDBRANCH  11  17
BRANCH  16  35
HETATM   35  C   UNL     1     -10.559  14.206  64.863  1.00  0.00    -0.430 C  
BRANCH  35  36
HETATM   36  C   UNL     1     -12.018  14.097  64.389  1.00  0.00    -0.457 C  
HETATM   37  H   UNL     1     -13.378  15.274  63.544  1.00  0.00     0.000 HD 
HETATM   38  O   UNL     1     -12.476  15.341  63.837  1.00  0.00    -0.737 OA 
BRANCH  36  39
HETATM   39  C   UNL     1     -12.123  13.051  63.270  1.00  0.00    -0.422 C  
HETATM   40  O   UNL     1     -13.069  12.046  63.637  1.00  0.00    -0.756 OA 
HETATM   41  H   UNL     1     -13.134  11.399  62.944  1.00  0.00     0.000 HD 
ENDBRANCH  36  39
ENDBRANCH  35  36
ENDBRANCH  16  35
ENDBRANCH   2   7
TORSDOF 8
ENDMDL
MODEL       33
REMARK 921   NORMALIZED FREE ENERGY PREDICTED BY IDOCK:   -6.48 KCAL/MOL
REMARK 922        TOTAL FREE ENERGY PREDICTED BY IDOCK:  -10.43 KCAL/MOL
REMARK 923 INTER-LIGAND FREE ENERGY PREDICTED BY IDOCK:   -9.18 KCAL/MOL
REMARK 924 INTRA-LIGAND FREE ENERGY PREDICTED BY IDOCK:   -1.25 KCAL/MOL
REMARK 927      BINDING AFFINITY PREDICTED BY RF-SCORE:    0.00 PKD
ROOT
HETATM    1  C   UNL     1      -9.711   5.060  71.804  1.00  0.00    -0.218 C  
HETATM    2  C   UNL     1     -10.564   6.243  72.345  1.00  0.00    -0.241 C  
HETATM    3  C   UNL     1     -12.033   5.789  72.219  1.00  0.00    -0.147 C  
ENDROOT
BRANCH   2   4
HETATM    4  C   UNL     1     -10.182   6.438  73.842  1.00  0.00    -0.313 C  
HETATM    5  H   UNL     1      -8.769   5.850  75.132  1.00  0.00     0.000 HD 
HETATM    6  O   UNL     1      -9.003   5.731  74.219  1.00  0.00    -0.121 OA 
ENDBRANCH   2   4
BRANCH   2   7
HETATM    7  C   UNL     1     -10.314   7.507  71.494  1.00  0.00    -0.196 A  
HETATM    8  C   UNL     1     -11.276   8.368  70.986  1.00  0.00    -0.304 A  
HETATM    9  C   UNL     1     -10.656   9.353  70.198  1.00  0.00    -0.279 A  
HETATM   10  C   UNL     1     -11.167  10.424  69.436  1.00  0.00    -0.314 A  
HETATM   11  C   UNL     1     -10.305  11.251  68.715  1.00  0.00    -0.205 A  
HETATM   12  C   UNL     1      -8.934  10.980  68.758  1.00  0.00    -0.149 A  
HETATM   13  C   UNL     1      -9.286   9.114  70.231  1.00  0.00    -0.220 A  
HETATM   14  C   UNL     1      -8.398   9.923  69.498  1.00  0.00    -0.174 A  
HETATM   15  F   UNL     1      -8.091  11.770  68.067  1.00  0.00    -0.117 F  
HETATM   16  N   UNL     1      -9.087   8.020  71.070  1.00  0.00    -0.145 NA 
BRANCH  11  17
HETATM   17  N   UNL     1     -10.752  12.340  67.937  1.00  0.00    -0.209 N  
HETATM   18  H   UNL     1     -11.058  13.172  68.442  1.00  0.00     0.000 HD 
HETATM   19  C   UNL     1     -10.817  12.390  66.560  1.00  0.00    -0.250 C  
HETATM   20  O   UNL     1     -10.520  11.509  65.765  1.00  0.00    -0.245 OA 
BRANCH  19  21
HETATM   21  C   UNL     1     -11.287  13.719  66.018  1.00  0.00    -0.319 C  
HETATM   22  C   UNL     1     -12.736  13.850  65.564  1.00  0.00    -0.536 C  
HETATM   23  C   UNL     1     -11.656  13.734  64.536  1.00  0.00    -0.413 C  
BRANCH  21  24
HETATM   24  C   UNL     1     -10.547  14.928  66.591  1.00  0.00    -0.305 A  
HETATM   25  C   UNL     1      -7.816  18.486  66.736  1.00  0.00    -0.242 C  
HETATM   26  C   UNL     1     -11.081  15.624  67.709  1.00  0.00    -0.311 A  
HETATM   27  C   UNL     1      -9.401  15.462  65.974  1.00  0.00    -0.364 A  
HETATM   28  C   UNL     1     -10.537  16.829  68.170  1.00  0.00    -0.350 A  
HETATM   29  C   UNL     1      -9.441  17.324  67.503  1.00  0.00    -0.245 A  
HETATM   30  C   UNL     1      -8.881  16.651  66.444  1.00  0.00    -0.302 A  
HETATM   31  F   UNL     1      -8.011  19.565  65.938  1.00  0.00    -0.310 F  
HETATM   32  O   UNL     1      -7.814  17.310  65.914  1.00  0.00    -0.505 OA 
HETATM   33  F   UNL     1      -6.596  18.615  67.309  1.00  0.00    -0.192 F  
HETATM   34  O   UNL     1      -8.810  18.497  67.771  1.00  0.00    -0.269 OA 
ENDBRANCH  21  24
ENDBRANCH  19  21
ENDBRANCH  11  17
BRANCH  16  35
HETATM   35  C   UNL     1      -7.758   7.517  71.400  1.00  0.00    -0.085 C  
BRANCH  35  36
HETATM   36  C   UNL     1      -6.996   8.348  72.447  1.00  0.00    -0.088 C  
HETATM   37  H   UNL     1      -7.415   9.357  74.106  1.00  0.00     0.000 HD 
HETATM   38  O   UNL     1      -7.886   8.844  73.459  1.00  0.00    -0.377 OA 
BRANCH  36  39
HETATM   39  C   UNL     1      -5.964   7.463  73.159  1.00  0.00    -0.055 C  
HETATM   40  O   UNL     1      -6.420   6.111  73.183  1.00  0.00    -0.065 OA 
HETATM   41  H   UNL     1      -5.781   5.564  73.624  1.00  0.00     0.000 HD 
ENDBRANCH  36  39
ENDBRANCH  35  36
ENDBRANCH  16  35
ENDBRANCH   2   7
TORSDOF 8
ENDMDL
MODEL       34
REMARK 921   NORMALIZED FREE ENERGY PREDICTED BY IDOCK:   -6.47 KCAL/MOL
REMARK 922        TOTAL FREE ENERGY PREDICTED BY IDOCK:  -10.42 KCAL/MOL
REMARK 923 INTER-LIGAND FREE ENERGY PREDICTED BY IDOCK:   -9.57 KCAL/MOL
REMARK 924 INTRA-LIGAND FREE ENERGY PREDICTED BY IDOCK:   -0.85 KCAL/MOL
REMARK 927      BINDING AFFINITY PREDICTED BY RF-SCORE:    0.00 PKD
ROOT
HETATM    1  C   UNL     1      -9.133  15.494  66.270  1.00  0.00    -0.369 C  
HETATM    2  C   UNL     1      -9.887  15.038  67.551  1.00  0.00    -0.217 C  
HETATM    3  C   UNL     1      -9.047  15.556  68.736  1.00  0.00    -0.207 C  
ENDROOT
BRANCH   2   4
HETATM    4  C   UNL     1     -11.284  15.727  67.531  1.00  0.00    -0.218 C  
HETATM    5  H   UNL     1     -12.769  16.174  68.796  1.00  0.00     0.000 HD 
HETATM    6  O   UNL     1     -11.918  15.753  68.808  1.00  0.00    -0.374 OA 
ENDBRANCH   2   4
BRANCH   2   7
HETATM    7  C   UNL     1      -9.982  13.497  67.589  1.00  0.00    -0.229 A  
HETATM    8  C   UNL     1      -9.704  12.676  68.671  1.00  0.00    -0.050 A  
HETATM    9  C   UNL     1      -9.829  11.330  68.284  1.00  0.00    -0.201 A  
HETATM   10  C   UNL     1      -9.623  10.118  68.976  1.00  0.00    -0.202 A  
HETATM   11  C   UNL     1      -9.803   8.897  68.325  1.00  0.00    -0.167 A  
HETATM   12  C   UNL     1     -10.175   8.910  66.977  1.00  0.00    -0.275 A  
HETATM   13  C   UNL     1     -10.211  11.313  66.948  1.00  0.00    -0.219 A  
HETATM   14  C   UNL     1     -10.381  10.094  66.264  1.00  0.00    -0.245 A  
HETATM   15  F   UNL     1     -10.352   7.739  66.338  1.00  0.00    -0.313 F  
HETATM   16  N   UNL     1     -10.355  12.641  66.551  1.00  0.00    -0.239 NA 
BRANCH  11  17
HETATM   17  N   UNL     1      -9.616   7.650  68.959  1.00  0.00    -0.150 N  
HETATM   18  H   UNL     1      -8.730   7.174  68.786  1.00  0.00     0.000 HD 
HETATM   19  C   UNL     1     -10.512   7.012  69.790  1.00  0.00    -0.219 C  
HETATM   20  O   UNL     1     -11.629   7.389  70.117  1.00  0.00    -0.191 OA 
BRANCH  19  21
HETATM   21  C   UNL     1      -9.997   5.712  70.362  1.00  0.00    -0.267 C  
HETATM   22  C   UNL     1     -10.320   5.375  71.813  1.00  0.00    -0.271 C  
HETATM   23  C   UNL     1      -8.944   5.845  71.461  1.00  0.00    -0.147 C  
BRANCH  21  24
HETATM   24  C   UNL     1      -9.827   4.595  69.331  1.00  0.00    -0.272 A  
HETATM   25  C   UNL     1      -9.010   2.626  65.383  1.00  0.00    -0.134 C  
HETATM   26  C   UNL     1      -9.499   3.279  69.757  1.00  0.00    -0.212 A  
HETATM   27  C   UNL     1      -9.869   4.844  67.947  1.00  0.00    -0.196 A  
HETATM   28  C   UNL     1      -9.172   2.261  68.854  1.00  0.00    -0.216 A  
HETATM   29  C   UNL     1      -9.189   2.573  67.514  1.00  0.00    -0.168 A  
HETATM   30  C   UNL     1      -9.542   3.827  67.074  1.00  0.00    -0.180 A  
HETATM   31  F   UNL     1      -7.813   2.752  64.760  1.00  0.00    -0.073 F  
HETATM   32  O   UNL     1      -9.486   3.937  65.719  1.00  0.00    -0.159 OA 
HETATM   33  F   UNL     1      -9.873   2.066  64.502  1.00  0.00    -0.136 F  
HETATM   34  O   UNL     1      -8.855   1.737  66.498  1.00  0.00    -0.116 OA 
ENDBRANCH  21  24
ENDBRANCH  19  21
ENDBRANCH  11  17
BRANCH  16  35
HETATM   35  C   UNL     1     -10.812  13.015  65.218  1.00  0.00    -0.291 C  
BRANCH  35  36
HETATM   36  C   UNL     1     -12.298  12.727  64.942  1.00  0.00    -0.490 C  
HETATM   37  H   UNL     1     -14.010  13.735  64.930  1.00  0.00     0.000 HD 
HETATM   38  O   UNL     1     -13.093  13.913  65.100  1.00  0.00    -0.773 OA 
BRANCH  36  39
HETATM   39  C   UNL     1     -12.476  12.265  63.489  1.00  0.00    -0.534 C  
HETATM   40  O   UNL     1     -11.471  11.306  63.160  1.00  0.00    -0.850 OA 
HETATM   41  H   UNL     1     -11.581  11.020  62.261  1.00  0.00     0.000 HD 
ENDBRANCH  36  39
ENDBRANCH  35  36
ENDBRANCH  16  35
ENDBRANCH   2   7
TORSDOF 8
ENDMDL
MODEL       35
REMARK 921   NORMALIZED FREE ENERGY PREDICTED BY IDOCK:   -6.45 KCAL/MOL
REMARK 922        TOTAL FREE ENERGY PREDICTED BY IDOCK:  -10.39 KCAL/MOL
REMARK 923 INTER-LIGAND FREE ENERGY PREDICTED BY IDOCK:   -9.34 KCAL/MOL
REMARK 924 INTRA-LIGAND FREE ENERGY PREDICTED BY IDOCK:   -1.05 KCAL/MOL
REMARK 927      BINDING AFFINITY PREDICTED BY RF-SCORE:    0.00 PKD
ROOT
HETATM    1  C   UNL     1      -8.883  16.620  66.228  1.00  0.00    -0.348 C  
HETATM    2  C   UNL     1      -9.492  15.905  67.468  1.00  0.00    -0.219 C  
HETATM    3  C   UNL     1      -8.560  16.251  68.647  1.00  0.00    -0.222 C  
ENDROOT
BRANCH   2   4
HETATM    4  C   UNL     1     -10.908  16.512  67.698  1.00  0.00    -0.269 C  
HETATM    5  H   UNL     1     -12.504  16.227  68.871  1.00  0.00     0.000 HD 
HETATM    6  O   UNL     1     -11.641  15.857  68.731  1.00  0.00    -0.373 OA 
ENDBRANCH   2   4
BRANCH   2   7
HETATM    7  C   UNL     1      -9.525  14.379  67.235  1.00  0.00    -0.215 A  
HETATM    8  C   UNL     1      -9.173  13.394  68.145  1.00  0.00    -0.215 A  
HETATM    9  C   UNL     1      -9.261  12.133  67.531  1.00  0.00    -0.182 A  
HETATM   10  C   UNL     1      -8.982  10.828  67.989  1.00  0.00    -0.139 A  
HETATM   11  C   UNL     1      -9.141   9.734  67.139  1.00  0.00    -0.135 A  
HETATM   12  C   UNL     1      -9.566   9.967  65.828  1.00  0.00    -0.250 A  
HETATM   13  C   UNL     1      -9.696  12.333  66.225  1.00  0.00    -0.244 A  
HETATM   14  C   UNL     1      -9.846  11.247  65.343  1.00  0.00    -0.281 A  
HETATM   15  F   UNL     1      -9.724   8.919  64.997  1.00  0.00    -0.127 F  
HETATM   16  N   UNL     1      -9.906  13.702  66.075  1.00  0.00    -0.294 NA 
BRANCH  11  17
HETATM   17  N   UNL     1      -8.880   8.405  67.536  1.00  0.00    -0.135 N  
HETATM   18  H   UNL     1      -8.079   7.944  67.104  1.00  0.00     0.000 HD 
HETATM   19  C   UNL     1      -9.602   7.668  68.450  1.00  0.00    -0.151 C  
HETATM   20  O   UNL     1     -10.600   8.012  69.069  1.00  0.00    -0.215 OA 
BRANCH  19  21
HETATM   21  C   UNL     1      -9.039   6.290  68.706  1.00  0.00    -0.127 C  
HETATM   22  C   UNL     1      -9.077   5.738  70.127  1.00  0.00    -0.155 C  
HETATM   23  C   UNL     1      -7.782   6.240  69.573  1.00  0.00    -0.099 C  
BRANCH  21  24
HETATM   24  C   UNL     1      -9.129   5.342  67.510  1.00  0.00    -0.110 A  
HETATM   25  C   UNL     1     -10.724   3.475  63.754  1.00  0.00    -0.256 C  
HETATM   26  C   UNL     1      -7.955   4.718  67.007  1.00  0.00    -0.103 A  
HETATM   27  C   UNL     1     -10.328   5.148  66.800  1.00  0.00    -0.306 A  
HETATM   28  C   UNL     1      -7.952   3.974  65.822  1.00  0.00    -0.097 A  
HETATM   29  C   UNL     1      -9.145   3.853  65.148  1.00  0.00    -0.142 A  
HETATM   30  C   UNL     1     -10.303   4.413  65.633  1.00  0.00    -0.225 A  
HETATM   31  F   UNL     1     -10.866   4.188  62.610  1.00  0.00    -0.211 F  
HETATM   32  O   UNL     1     -11.369   4.190  64.817  1.00  0.00    -0.294 OA 
HETATM   33  F   UNL     1     -11.360   2.292  63.580  1.00  0.00    -0.245 F  
HETATM   34  O   UNL     1      -9.328   3.216  63.962  1.00  0.00    -0.118 OA 
ENDBRANCH  21  24
ENDBRANCH  19  21
ENDBRANCH  11  17
BRANCH  16  35
HETATM   35  C   UNL     1     -10.431  14.284  64.845  1.00  0.00    -0.430 C  
BRANCH  35  36
HETATM   36  C   UNL     1     -11.910  14.701  64.909  1.00  0.00    -0.403 C  
HETATM   37  H   UNL     1     -13.390  15.059  63.631  1.00  0.00     0.000 HD 
HETATM   38  O   UNL     1     -12.476  14.801  63.592  1.00  0.00    -0.726 OA 
BRANCH  36  39
HETATM   39  C   UNL     1     -12.719  13.635  65.659  1.00  0.00    -0.454 C  
HETATM   40  O   UNL     1     -13.033  12.557  64.777  1.00  0.00    -0.827 OA 
HETATM   41  H   UNL     1     -13.533  11.896  65.242  1.00  0.00     0.000 HD 
ENDBRANCH  36  39
ENDBRANCH  35  36
ENDBRANCH  16  35
ENDBRANCH   2   7
TORSDOF 8
ENDMDL
MODEL       36
REMARK 921   NORMALIZED FREE ENERGY PREDICTED BY IDOCK:   -6.41 KCAL/MOL
REMARK 922        TOTAL FREE ENERGY PREDICTED BY IDOCK:  -10.32 KCAL/MOL
REMARK 923 INTER-LIGAND FREE ENERGY PREDICTED BY IDOCK:   -9.30 KCAL/MOL
REMARK 924 INTRA-LIGAND FREE ENERGY PREDICTED BY IDOCK:   -1.02 KCAL/MOL
REMARK 927      BINDING AFFINITY PREDICTED BY RF-SCORE:    0.00 PKD
ROOT
HETATM    1  C   UNL     1      -7.364   3.692  68.497  1.00  0.00    -0.054 C  
HETATM    2  C   UNL     1      -8.841   4.146  68.313  1.00  0.00    -0.133 C  
HETATM    3  C   UNL     1      -9.354   3.401  67.064  1.00  0.00    -0.212 C  
ENDROOT
BRANCH   2   4
HETATM    4  C   UNL     1      -9.623   3.687  69.580  1.00  0.00    -0.137 C  
HETATM    5  H   UNL     1     -10.864   4.451  70.952  1.00  0.00     0.000 HD 
HETATM    6  O   UNL     1     -10.387   4.731  70.180  1.00  0.00    -0.242 OA 
ENDBRANCH   2   4
BRANCH   2   7
HETATM    7  C   UNL     1      -8.901   5.673  68.094  1.00  0.00    -0.108 A  
HETATM    8  C   UNL     1      -9.705   6.349  67.188  1.00  0.00    -0.170 A  
HETATM    9  C   UNL     1      -9.410   7.724  67.234  1.00  0.00    -0.175 A  
HETATM   10  C   UNL     1      -9.902   8.827  66.505  1.00  0.00    -0.349 A  
HETATM   11  C   UNL     1      -9.404  10.108  66.746  1.00  0.00    -0.160 A  
HETATM   12  C   UNL     1      -8.404  10.262  67.710  1.00  0.00    -0.110 A  
HETATM   13  C   UNL     1      -8.424   7.909  68.196  1.00  0.00    -0.124 A  
HETATM   14  C   UNL     1      -7.893   9.188  68.444  1.00  0.00    -0.102 A  
HETATM   15  F   UNL     1      -7.915  11.493  67.953  1.00  0.00    -0.108 F  
HETATM   16  N   UNL     1      -8.162   6.658  68.752  1.00  0.00    -0.119 NA 
BRANCH  11  17
HETATM   17  N   UNL     1      -9.854  11.252  66.054  1.00  0.00    -0.219 N  
HETATM   18  H   UNL     1      -9.243  11.618  65.323  1.00  0.00     0.000 HD 
HETATM   19  C   UNL     1     -11.039  11.925  66.268  1.00  0.00    -0.314 C  
HETATM   20  O   UNL     1     -11.904  11.673  67.095  1.00  0.00    -0.608 OA 
BRANCH  19  21
HETATM   21  C   UNL     1     -11.263  13.084  65.325  1.00  0.00    -0.316 C  
HETATM   22  C   UNL     1     -12.496  13.066  64.428  1.00  0.00    -0.406 C  
HETATM   23  C   UNL     1     -11.158  12.754  63.837  1.00  0.00    -0.477 C  
BRANCH  21  24
HETATM   24  C   UNL     1     -10.685  14.412  65.813  1.00  0.00    -0.312 A  
HETATM   25  C   UNL     1     -10.203  18.848  66.291  1.00  0.00    -0.438 C  
HETATM   26  C   UNL     1      -9.967  14.468  67.038  1.00  0.00    -0.255 A  
HETATM   27  C   UNL     1     -10.939  15.626  65.147  1.00  0.00    -0.411 A  
HETATM   28  C   UNL     1      -9.559  15.678  67.612  1.00  0.00    -0.220 A  
HETATM   29  C   UNL     1      -9.871  16.835  66.937  1.00  0.00    -0.266 A  
HETATM   30  C   UNL     1     -10.530  16.807  65.731  1.00  0.00    -0.292 A  
HETATM   31  F   UNL     1     -11.192  19.619  66.806  1.00  0.00    -0.527 F  
HETATM   32  O   UNL     1     -10.753  18.053  65.231  1.00  0.00    -0.625 OA 
HETATM   33  F   UNL     1      -9.267  19.676  65.770  1.00  0.00    -0.346 F  
HETATM   34  O   UNL     1      -9.605  18.099  67.359  1.00  0.00    -0.269 OA 
ENDBRANCH  21  24
ENDBRANCH  19  21
ENDBRANCH  11  17
BRANCH  16  35
HETATM   35  C   UNL     1      -7.221   6.471  69.849  1.00  0.00    -0.077 C  
BRANCH  35  36
HETATM   36  C   UNL     1      -7.817   6.674  71.253  1.00  0.00    -0.102 C  
HETATM   37  H   UNL     1      -8.186   5.570  72.863  1.00  0.00     0.000 HD 
HETATM   38  O   UNL     1      -7.818   5.445  71.997  1.00  0.00    -0.102 OA 
BRANCH  36  39
HETATM   39  C   UNL     1      -6.957   7.669  72.044  1.00  0.00    -0.064 C  
HETATM   40  O   UNL     1      -7.690   8.876  72.259  1.00  0.00    -0.354 OA 
HETATM   41  H   UNL     1      -7.157   9.491  72.749  1.00  0.00     0.000 HD 
ENDBRANCH  36  39
ENDBRANCH  35  36
ENDBRANCH  16  35
ENDBRANCH   2   7
TORSDOF 8
ENDMDL
MODEL       37
REMARK 921   NORMALIZED FREE ENERGY PREDICTED BY IDOCK:   -6.41 KCAL/MOL
REMARK 922        TOTAL FREE ENERGY PREDICTED BY IDOCK:  -10.32 KCAL/MOL
REMARK 923 INTER-LIGAND FREE ENERGY PREDICTED BY IDOCK:   -9.61 KCAL/MOL
REMARK 924 INTRA-LIGAND FREE ENERGY PREDICTED BY IDOCK:   -0.71 KCAL/MOL
REMARK 927      BINDING AFFINITY PREDICTED BY RF-SCORE:    0.00 PKD
ROOT
HETATM    1  C   UNL     1     -10.235   3.169  72.040  1.00  0.00    -0.108 C  
HETATM    2  C   UNL     1      -9.737   4.389  72.866  1.00  0.00    -0.176 C  
HETATM    3  C   UNL     1     -10.593   4.401  74.149  1.00  0.00    -0.329 C  
ENDROOT
BRANCH   2   4
HETATM    4  C   UNL     1      -8.241   4.129  73.213  1.00  0.00    -0.090 C  
HETATM    5  H   UNL     1      -6.448   4.964  72.907  1.00  0.00     0.000 HD 
HETATM    6  O   UNL     1      -7.360   5.123  72.695  1.00  0.00    -0.089 OA 
ENDBRANCH   2   4
BRANCH   2   7
HETATM    7  C   UNL     1      -9.947   5.692  72.064  1.00  0.00    -0.177 A  
HETATM    8  C   UNL     1     -10.179   6.957  72.583  1.00  0.00    -0.210 A  
HETATM    9  C   UNL     1     -10.399   7.864  71.532  1.00  0.00    -0.243 A  
HETATM   10  C   UNL     1     -10.711   9.239  71.510  1.00  0.00    -0.425 A  
HETATM   11  C   UNL     1     -10.902   9.899  70.295  1.00  0.00    -0.310 A  
HETATM   12  C   UNL     1     -10.789   9.161  69.113  1.00  0.00    -0.110 A  
HETATM   13  C   UNL     1     -10.280   7.158  70.340  1.00  0.00    -0.193 A  
HETATM   14  C   UNL     1     -10.485   7.797  69.102  1.00  0.00    -0.219 A  
HETATM   15  F   UNL     1     -10.970   9.786  67.935  1.00  0.00    -0.295 F  
HETATM   16  N   UNL     1      -9.949   5.847  70.677  1.00  0.00    -0.182 NA 
BRANCH  11  17
HETATM   17  N   UNL     1     -11.214  11.272  70.205  1.00  0.00    -0.490 N  
HETATM   18  H   UNL     1     -10.549  11.863  69.706  1.00  0.00     0.000 HD 
HETATM   19  C   UNL     1     -12.330  11.893  70.724  1.00  0.00    -0.320 C  
HETATM   20  O   UNL     1     -13.239  11.385  71.365  1.00  0.00    -0.326 OA 
BRANCH  19  21
HETATM   21  C   UNL     1     -12.410  13.369  70.411  1.00  0.00    -0.382 C  
HETATM   22  C   UNL     1     -12.285  14.365  71.558  1.00  0.00    -0.406 C  
HETATM   23  C   UNL     1     -13.632  14.097  70.967  1.00  0.00    -0.171 C  
BRANCH  21  24
HETATM   24  C   UNL     1     -11.921  13.742  69.011  1.00  0.00    -0.399 A  
HETATM   25  C   UNL     1     -11.590  13.688  64.537  1.00  0.00    -0.390 C  
HETATM   26  C   UNL     1     -11.356  15.024  68.774  1.00  0.00    -0.306 A  
HETATM   27  C   UNL     1     -12.118  12.898  67.903  1.00  0.00    -0.209 A  
HETATM   28  C   UNL     1     -11.044  15.478  67.487  1.00  0.00    -0.305 A  
HETATM   29  C   UNL     1     -11.297  14.626  66.437  1.00  0.00    -0.348 A  
HETATM   30  C   UNL     1     -11.806  13.365  66.643  1.00  0.00    -0.395 A  
HETATM   31  F   UNL     1     -12.649  13.979  63.742  1.00  0.00    -0.423 F  
HETATM   32  O   UNL     1     -11.994  12.685  65.480  1.00  0.00    -0.413 OA 
HETATM   33  F   UNL     1     -10.616  13.174  63.749  1.00  0.00    -0.389 F  
HETATM   34  O   UNL     1     -11.108  14.907  65.121  1.00  0.00    -0.350 OA 
ENDBRANCH  21  24
ENDBRANCH  19  21
ENDBRANCH  11  17
BRANCH  16  35
HETATM   35  C   UNL     1      -9.679   4.825  69.673  1.00  0.00    -0.202 C  
BRANCH  35  36
HETATM   36  C   UNL     1      -8.249   4.840  69.105  1.00  0.00    -0.081 C  
HETATM   37  H   UNL     1      -6.606   5.940  69.299  1.00  0.00     0.000 HD 
HETATM   38  O   UNL     1      -7.489   5.930  69.650  1.00  0.00    -0.073 OA 
BRANCH  36  39
HETATM   39  C   UNL     1      -7.519   3.549  69.500  1.00  0.00    -0.048 C  
HETATM   40  O   UNL     1      -6.312   3.870  70.192  1.00  0.00    -0.026 OA 
HETATM   41  H   UNL     1      -5.861   3.070  70.437  1.00  0.00     0.000 HD 
ENDBRANCH  36  39
ENDBRANCH  35  36
ENDBRANCH  16  35
ENDBRANCH   2   7
TORSDOF 8
ENDMDL
MODEL       38
REMARK 921   NORMALIZED FREE ENERGY PREDICTED BY IDOCK:   -6.34 KCAL/MOL
REMARK 922        TOTAL FREE ENERGY PREDICTED BY IDOCK:  -10.23 KCAL/MOL
REMARK 923 INTER-LIGAND FREE ENERGY PREDICTED BY IDOCK:   -9.18 KCAL/MOL
REMARK 924 INTRA-LIGAND FREE ENERGY PREDICTED BY IDOCK:   -1.05 KCAL/MOL
REMARK 927      BINDING AFFINITY PREDICTED BY RF-SCORE:    0.00 PKD
ROOT
HETATM    1  C   UNL     1      -9.842   4.470  69.903  1.00  0.00    -0.298 C  
HETATM    2  C   UNL     1      -8.986   4.432  68.604  1.00  0.00    -0.153 C  
HETATM    3  C   UNL     1      -7.535   4.195  69.068  1.00  0.00    -0.055 C  
ENDROOT
BRANCH   2   4
HETATM    4  C   UNL     1      -9.491   3.226  67.757  1.00  0.00    -0.164 C  
HETATM    5  H   UNL     1      -8.758   1.593  66.863  1.00  0.00     0.000 HD 
HETATM    6  O   UNL     1      -8.450   2.328  67.378  1.00  0.00    -0.082 OA 
ENDBRANCH   2   4
BRANCH   2   7
HETATM    7  C   UNL     1      -9.101   5.778  67.856  1.00  0.00    -0.109 A  
HETATM    8  C   UNL     1      -9.968   6.819  68.152  1.00  0.00    -0.161 A  
HETATM    9  C   UNL     1      -9.826   7.837  67.192  1.00  0.00    -0.270 A  
HETATM   10  C   UNL     1     -10.483   9.071  67.009  1.00  0.00    -0.316 A  
HETATM   11  C   UNL     1     -10.149   9.894  65.932  1.00  0.00    -0.245 A  
HETATM   12  C   UNL     1      -9.164   9.456  65.042  1.00  0.00    -0.218 A  
HETATM   13  C   UNL     1      -8.841   7.433  66.298  1.00  0.00    -0.159 A  
HETATM   14  C   UNL     1      -8.499   8.236  65.194  1.00  0.00    -0.164 A  
HETATM   15  F   UNL     1      -8.833  10.240  63.999  1.00  0.00    -0.164 F  
HETATM   16  N   UNL     1      -8.369   6.201  66.745  1.00  0.00    -0.109 NA 
BRANCH  11  17
HETATM   17  N   UNL     1     -10.766  11.140  65.694  1.00  0.00    -0.224 N  
HETATM   18  H   UNL     1     -11.654  11.125  65.191  1.00  0.00     0.000 HD 
HETATM   19  C   UNL     1     -10.288  12.376  66.074  1.00  0.00    -0.251 C  
HETATM   20  O   UNL     1      -9.247  12.627  66.665  1.00  0.00    -0.225 OA 
BRANCH  19  21
HETATM   21  C   UNL     1     -11.208  13.522  65.723  1.00  0.00    -0.308 C  
HETATM   22  C   UNL     1     -12.631  13.204  65.278  1.00  0.00    -0.531 C  
HETATM   23  C   UNL     1     -11.620  13.612  64.254  1.00  0.00    -0.413 C  
BRANCH  21  24
HETATM   24  C   UNL     1     -10.907  14.822  66.469  1.00  0.00    -0.319 A  
HETATM   25  C   UNL     1     -10.017  19.172  67.117  1.00  0.00    -0.356 C  
HETATM   26  C   UNL     1     -11.312  14.974  67.823  1.00  0.00    -0.340 A  
HETATM   27  C   UNL     1     -10.339  15.937  65.826  1.00  0.00    -0.396 A  
HETATM   28  C   UNL     1     -11.209  16.194  68.502  1.00  0.00    -0.365 A  
HETATM   29  C   UNL     1     -10.685  17.261  67.810  1.00  0.00    -0.333 A  
HETATM   30  C   UNL     1     -10.248  17.130  66.513  1.00  0.00    -0.322 A  
HETATM   31  F   UNL     1     -10.880  20.140  66.723  1.00  0.00    -0.529 F  
HETATM   32  O   UNL     1      -9.775  18.300  66.004  1.00  0.00    -0.498 OA 
HETATM   33  F   UNL     1      -8.853  19.774  67.456  1.00  0.00    -0.326 F  
HETATM   34  O   UNL     1     -10.554  18.528  68.282  1.00  0.00    -0.320 OA 
ENDBRANCH  21  24
ENDBRANCH  19  21
ENDBRANCH  11  17
BRANCH  16  35
HETATM   35  C   UNL     1      -7.275   5.495  66.088  1.00  0.00    -0.077 C  
BRANCH  35  36
HETATM   36  C   UNL     1      -7.698   4.617  64.897  1.00  0.00    -0.078 C  
HETATM   37  H   UNL     1      -9.385   4.097  63.984  1.00  0.00     0.000 HD 
HETATM   38  O   UNL     1      -9.124   4.640  64.719  1.00  0.00    -0.154 OA 
BRANCH  36  39
HETATM   39  C   UNL     1      -7.082   5.166  63.603  1.00  0.00    -0.048 C  
HETATM   40  O   UNL     1      -8.116   5.632  62.735  1.00  0.00    -0.096 OA 
HETATM   41  H   UNL     1      -7.734   5.972  61.934  1.00  0.00     0.000 HD 
ENDBRANCH  36  39
ENDBRANCH  35  36
ENDBRANCH  16  35
ENDBRANCH   2   7
TORSDOF 8
ENDMDL
MODEL       39
REMARK 921   NORMALIZED FREE ENERGY PREDICTED BY IDOCK:   -6.32 KCAL/MOL
REMARK 922        TOTAL FREE ENERGY PREDICTED BY IDOCK:  -10.20 KCAL/MOL
REMARK 923 INTER-LIGAND FREE ENERGY PREDICTED BY IDOCK:   -9.29 KCAL/MOL
REMARK 924 INTRA-LIGAND FREE ENERGY PREDICTED BY IDOCK:   -0.90 KCAL/MOL
REMARK 927      BINDING AFFINITY PREDICTED BY RF-SCORE:    0.00 PKD
ROOT
HETATM    1  C   UNL     1      -9.952   4.532  70.566  1.00  0.00    -0.278 C  
HETATM    2  C   UNL     1      -9.104   4.630  69.266  1.00  0.00    -0.159 C  
HETATM    3  C   UNL     1      -7.634   4.517  69.718  1.00  0.00    -0.054 C  
ENDROOT
BRANCH   2   4
HETATM    4  C   UNL     1      -9.493   3.416  68.372  1.00  0.00    -0.145 C  
HETATM    5  H   UNL     1      -8.811   1.589  67.919  1.00  0.00     0.000 HD 
HETATM    6  O   UNL     1      -8.574   2.330  68.464  1.00  0.00    -0.064 OA 
ENDBRANCH   2   4
BRANCH   2   7
HETATM    7  C   UNL     1      -9.353   5.987  68.573  1.00  0.00    -0.117 A  
HETATM    8  C   UNL     1      -9.957   7.104  69.131  1.00  0.00    -0.168 A  
HETATM    9  C   UNL     1     -10.073   8.112  68.157  1.00  0.00    -0.237 A  
HETATM   10  C   UNL     1     -10.635   9.405  68.188  1.00  0.00    -0.261 A  
HETATM   11  C   UNL     1     -10.632  10.201  67.042  1.00  0.00    -0.225 A  
HETATM   12  C   UNL     1     -10.075   9.679  65.871  1.00  0.00    -0.234 A  
HETATM   13  C   UNL     1      -9.514   7.623  66.982  1.00  0.00    -0.163 A  
HETATM   14  C   UNL     1      -9.516   8.399  65.808  1.00  0.00    -0.088 A  
HETATM   15  F   UNL     1     -10.067  10.437  64.758  1.00  0.00    -0.352 F  
HETATM   16  N   UNL     1      -9.029   6.348  67.264  1.00  0.00    -0.107 NA 
BRANCH  11  17
HETATM   17  N   UNL     1     -11.176  11.503  67.007  1.00  0.00    -0.302 N  
HETATM   18  H   UNL     1     -12.081  11.611  66.547  1.00  0.00     0.000 HD 
HETATM   19  C   UNL     1     -10.605  12.643  67.532  1.00  0.00    -0.221 C  
HETATM   20  O   UNL     1      -9.529  12.745  68.105  1.00  0.00    -0.210 OA 
BRANCH  19  21
HETATM   21  C   UNL     1     -11.461  13.879  67.385  1.00  0.00    -0.374 C  
HETATM   22  C   UNL     1     -12.533  13.898  66.301  1.00  0.00    -0.454 C  
HETATM   23  C   UNL     1     -11.267  14.666  66.090  1.00  0.00    -0.341 C  
BRANCH  21  24
HETATM   24  C   UNL     1     -11.664  14.661  68.682  1.00  0.00    -0.362 A  
HETATM   25  C   UNL     1     -12.817  15.491  72.938  1.00  0.00    -0.457 C  
HETATM   26  C   UNL     1     -10.871  15.810  68.950  1.00  0.00    -0.260 A  
HETATM   27  C   UNL     1     -12.536  14.218  69.693  1.00  0.00    -0.215 A  
HETATM   28  C   UNL     1     -10.899  16.466  70.187  1.00  0.00    -0.265 A  
HETATM   29  C   UNL     1     -11.740  15.963  71.151  1.00  0.00    -0.442 A  
HETATM   30  C   UNL     1     -12.546  14.877  70.905  1.00  0.00    -0.341 A  
HETATM   31  F   UNL     1     -12.248  14.824  73.973  1.00  0.00    -0.602 F  
HETATM   32  O   UNL     1     -13.294  14.529  71.987  1.00  0.00    -0.324 OA 
HETATM   33  F   UNL     1     -13.877  16.176  73.428  1.00  0.00    -0.656 F  
HETATM   34  O   UNL     1     -11.866  16.431  72.421  1.00  0.00    -0.533 OA 
ENDBRANCH  21  24
ENDBRANCH  19  21
ENDBRANCH  11  17
BRANCH  16  35
HETATM   35  C   UNL     1      -8.313   5.546  66.278  1.00  0.00    -0.112 C  
BRANCH  35  36
HETATM   36  C   UNL     1      -6.780   5.590  66.403  1.00  0.00    -0.057 C  
HETATM   37  H   UNL     1      -5.206   5.420  65.202  1.00  0.00     0.000 HD 
HETATM   38  O   UNL     1      -6.153   5.394  65.125  1.00  0.00    -0.025 OA 
BRANCH  36  39
HETATM   39  C   UNL     1      -6.339   6.970  66.906  1.00  0.00    -0.052 C  
HETATM   40  O   UNL     1      -5.817   7.737  65.820  1.00  0.00    -0.037 OA 
HETATM   41  H   UNL     1      -5.544   8.592  66.132  1.00  0.00     0.000 HD 
ENDBRANCH  36  39
ENDBRANCH  35  36
ENDBRANCH  16  35
ENDBRANCH   2   7
TORSDOF 8
ENDMDL
MODEL       40
REMARK 921   NORMALIZED FREE ENERGY PREDICTED BY IDOCK:   -6.31 KCAL/MOL
REMARK 922        TOTAL FREE ENERGY PREDICTED BY IDOCK:  -10.18 KCAL/MOL
REMARK 923 INTER-LIGAND FREE ENERGY PREDICTED BY IDOCK:  -10.02 KCAL/MOL
REMARK 924 INTRA-LIGAND FREE ENERGY PREDICTED BY IDOCK:   -0.16 KCAL/MOL
REMARK 927      BINDING AFFINITY PREDICTED BY RF-SCORE:    0.00 PKD
ROOT
HETATM    1  C   UNL     1      -9.860   3.795  70.223  1.00  0.00    -0.131 C  
HETATM    2  C   UNL     1      -9.457   4.867  71.276  1.00  0.00    -0.214 C  
HETATM    3  C   UNL     1     -10.329   4.582  72.515  1.00  0.00    -0.257 C  
ENDROOT
BRANCH   2   4
HETATM    4  C   UNL     1      -7.952   4.642  71.607  1.00  0.00    -0.101 C  
HETATM    5  H   UNL     1      -6.646   5.048  73.068  1.00  0.00     0.000 HD 
HETATM    6  O   UNL     1      -7.563   5.185  72.866  1.00  0.00    -0.093 OA 
ENDBRANCH   2   4
BRANCH   2   7
HETATM    7  C   UNL     1      -9.743   6.281  70.726  1.00  0.00    -0.180 A  
HETATM    8  C   UNL     1      -9.979   7.427  71.470  1.00  0.00    -0.193 A  
HETATM    9  C   UNL     1     -10.278   8.495  70.606  1.00  0.00    -0.230 A  
HETATM   10  C   UNL     1     -10.627   9.842  70.842  1.00  0.00    -0.344 A  
HETATM   11  C   UNL     1     -10.899  10.696  69.773  1.00  0.00    -0.261 A  
HETATM   12  C   UNL     1     -10.832  10.180  68.476  1.00  0.00    -0.237 A  
HETATM   13  C   UNL     1     -10.206   8.013  69.304  1.00  0.00    -0.213 A  
HETATM   14  C   UNL     1     -10.494   8.850  68.210  1.00  0.00    -0.243 A  
HETATM   15  F   UNL     1     -11.092  10.994  67.435  1.00  0.00    -0.277 F  
HETATM   16  N   UNL     1      -9.825   6.676  69.389  1.00  0.00    -0.150 NA 
BRANCH  11  17
HETATM   17  N   UNL     1     -11.251  12.052  69.941  1.00  0.00    -0.493 N  
HETATM   18  H   UNL     1     -10.671  12.741  69.461  1.00  0.00     0.000 HD 
HETATM   19  C   UNL     1     -12.302  12.539  70.689  1.00  0.00    -0.282 C  
HETATM   20  O   UNL     1     -13.106  11.900  71.354  1.00  0.00    -0.350 OA 
BRANCH  19  21
HETATM   21  C   UNL     1     -12.455  14.040  70.626  1.00  0.00    -0.435 C  
HETATM   22  C   UNL     1     -12.303  14.844  71.912  1.00  0.00    -0.415 C  
HETATM   23  C   UNL     1     -13.671  14.612  71.353  1.00  0.00    -0.474 C  
BRANCH  21  24
HETATM   24  C   UNL     1     -12.061  14.656  69.283  1.00  0.00    -0.307 A  
HETATM   25  C   UNL     1     -10.022  17.383  66.361  1.00  0.00    -0.316 C  
HETATM   26  C   UNL     1     -12.160  13.887  68.092  1.00  0.00    -0.317 A  
HETATM   27  C   UNL     1     -11.485  15.936  69.189  1.00  0.00    -0.377 A  
HETATM   28  C   UNL     1     -11.662  14.340  66.865  1.00  0.00    -0.430 A  
HETATM   29  C   UNL     1     -11.072  15.582  66.842  1.00  0.00    -0.221 A  
HETATM   30  C   UNL     1     -10.999  16.363  67.971  1.00  0.00    -0.327 A  
HETATM   31  F   UNL     1      -8.671  17.427  66.252  1.00  0.00    -0.260 F  
HETATM   32  O   UNL     1     -10.370  17.548  67.743  1.00  0.00    -0.335 OA 
HETATM   33  F   UNL     1     -10.522  18.429  65.661  1.00  0.00    -0.404 F  
HETATM   34  O   UNL     1     -10.490  16.167  65.762  1.00  0.00    -0.341 OA 
ENDBRANCH  21  24
ENDBRANCH  19  21
ENDBRANCH  11  17
BRANCH  16  35
HETATM   35  C   UNL     1      -9.583   5.853  68.210  1.00  0.00    -0.121 C  
BRANCH  35  36
HETATM   36  C   UNL     1      -8.180   6.002  67.596  1.00  0.00    -0.109 C  
HETATM   37  H   UNL     1      -6.602   4.845  67.247  1.00  0.00     0.000 HD 
HETATM   38  O   UNL     1      -7.469   4.754  67.625  1.00  0.00    -0.076 OA 
BRANCH  36  39
HETATM   39  C   UNL     1      -8.298   6.410  66.122  1.00  0.00    -0.128 C  
HETATM   40  O   UNL     1      -9.671   6.605  65.783  1.00  0.00    -0.372 OA 
HETATM   41  H   UNL     1      -9.744   6.858  64.870  1.00  0.00     0.000 HD 
ENDBRANCH  36  39
ENDBRANCH  35  36
ENDBRANCH  16  35
ENDBRANCH   2   7
TORSDOF 8
ENDMDL
MODEL       41
REMARK 921   NORMALIZED FREE ENERGY PREDICTED BY IDOCK:   -6.31 KCAL/MOL
REMARK 922        TOTAL FREE ENERGY PREDICTED BY IDOCK:  -10.17 KCAL/MOL
REMARK 923 INTER-LIGAND FREE ENERGY PREDICTED BY IDOCK:   -9.60 KCAL/MOL
REMARK 924 INTRA-LIGAND FREE ENERGY PREDICTED BY IDOCK:   -0.57 KCAL/MOL
REMARK 927      BINDING AFFINITY PREDICTED BY RF-SCORE:    0.00 PKD
ROOT
HETATM    1  C   UNL     1     -10.518  19.562  65.655  1.00  0.00    -0.412 C  
HETATM    2  C   UNL     1      -9.326  19.521  66.653  1.00  0.00    -0.430 C  
HETATM    3  C   UNL     1      -8.188  20.311  65.976  1.00  0.00    -0.116 C  
ENDROOT
BRANCH   2   4
HETATM    4  C   UNL     1      -9.790  20.242  67.953  1.00  0.00    -0.352 C  
HETATM    5  H   UNL     1     -10.182  19.808  69.867  1.00  0.00     0.000 HD 
HETATM    6  O   UNL     1      -9.900  19.368  69.074  1.00  0.00    -0.428 OA 
ENDBRANCH   2   4
BRANCH   2   7
HETATM    7  C   UNL     1      -8.895  18.059  66.902  1.00  0.00    -0.258 A  
HETATM    8  C   UNL     1      -9.663  16.923  66.696  1.00  0.00    -0.283 A  
HETATM    9  C   UNL     1      -8.945  15.788  67.116  1.00  0.00    -0.233 A  
HETATM   10  C   UNL     1      -9.273  14.417  67.160  1.00  0.00    -0.230 A  
HETATM   11  C   UNL     1      -8.356  13.490  67.657  1.00  0.00    -0.179 A  
HETATM   12  C   UNL     1      -7.122  13.957  68.118  1.00  0.00    -0.118 A  
HETATM   13  C   UNL     1      -7.705  16.223  67.569  1.00  0.00    -0.146 A  
HETATM   14  C   UNL     1      -6.770  15.309  68.091  1.00  0.00    -0.137 A  
HETATM   15  F   UNL     1      -6.228  13.072  68.600  1.00  0.00    -0.066 F  
HETATM   16  N   UNL     1      -7.666  17.603  67.381  1.00  0.00    -0.197 NA 
BRANCH  11  17
HETATM   17  N   UNL     1      -8.621  12.106  67.727  1.00  0.00    -0.154 N  
HETATM   18  H   UNL     1      -8.244  11.605  68.533  1.00  0.00     0.000 HD 
HETATM   19  C   UNL     1      -9.340  11.363  66.815  1.00  0.00    -0.180 C  
HETATM   20  O   UNL     1      -9.861  11.751  65.779  1.00  0.00    -0.228 OA 
BRANCH  19  21
HETATM   21  C   UNL     1      -9.499   9.910  67.198  1.00  0.00    -0.190 C  
HETATM   22  C   UNL     1      -8.350   8.950  66.911  1.00  0.00    -0.112 C  
HETATM   23  C   UNL     1      -9.561   8.922  66.035  1.00  0.00    -0.320 C  
BRANCH  21  24
HETATM   24  C   UNL     1     -10.418   9.674  68.397  1.00  0.00    -0.258 A  
HETATM   25  C   UNL     1     -12.009   7.803  72.152  1.00  0.00    -0.317 C  
HETATM   26  C   UNL     1     -11.212  10.738  68.905  1.00  0.00    -0.328 A  
HETATM   27  C   UNL     1     -10.425   8.457  69.103  1.00  0.00    -0.218 A  
HETATM   28  C   UNL     1     -11.944  10.624  70.092  1.00  0.00    -0.417 A  
HETATM   29  C   UNL     1     -11.880   9.425  70.763  1.00  0.00    -0.256 A  
HETATM   30  C   UNL     1     -11.152   8.367  70.273  1.00  0.00    -0.213 A  
HETATM   31  F   UNL     1     -11.279   7.768  73.294  1.00  0.00    -0.444 F  
HETATM   32  O   UNL     1     -11.207   7.277  71.085  1.00  0.00    -0.248 OA 
HETATM   33  F   UNL     1     -13.081   6.994  72.328  1.00  0.00    -0.216 F  
HETATM   34  O   UNL     1     -12.478   9.144  71.950  1.00  0.00    -0.339 OA 
ENDBRANCH  21  24
ENDBRANCH  19  21
ENDBRANCH  11  17
BRANCH  16  35
HETATM   35  C   UNL     1      -6.484  18.402  67.685  1.00  0.00    -0.199 C  
BRANCH  35  36
HETATM   36  C   UNL     1      -6.447  18.983  69.109  1.00  0.00    -0.286 C  
HETATM   37  H   UNL     1      -5.552  18.578  70.836  1.00  0.00     0.000 HD 
HETATM   38  O   UNL     1      -5.574  18.219  69.956  1.00  0.00    -0.220 OA 
BRANCH  36  39
HETATM   39  C   UNL     1      -5.890  20.412  69.072  1.00  0.00    -0.329 C  
HETATM   40  O   UNL     1      -5.721  20.899  70.404  1.00  0.00    -0.546 OA 
HETATM   41  H   UNL     1      -5.375  21.784  70.381  1.00  0.00     0.000 HD 
ENDBRANCH  36  39
ENDBRANCH  35  36
ENDBRANCH  16  35
ENDBRANCH   2   7
TORSDOF 8
ENDMDL
MODEL       42
REMARK 921   NORMALIZED FREE ENERGY PREDICTED BY IDOCK:   -6.31 KCAL/MOL
REMARK 922        TOTAL FREE ENERGY PREDICTED BY IDOCK:  -10.17 KCAL/MOL
REMARK 923 INTER-LIGAND FREE ENERGY PREDICTED BY IDOCK:   -9.86 KCAL/MOL
REMARK 924 INTRA-LIGAND FREE ENERGY PREDICTED BY IDOCK:   -0.31 KCAL/MOL
REMARK 927      BINDING AFFINITY PREDICTED BY RF-SCORE:    0.00 PKD
ROOT
HETATM    1  C   UNL     1     -12.378  15.705  69.473  1.00  0.00    -0.141 C  
HETATM    2  C   UNL     1     -12.652  14.883  70.765  1.00  0.00    -0.414 C  
HETATM    3  C   UNL     1     -11.736  15.489  71.847  1.00  0.00    -0.527 C  
ENDROOT
BRANCH   2   4
HETATM    4  C   UNL     1     -14.149  15.100  71.137  1.00  0.00    -0.374 C  
HETATM    5  H   UNL     1     -15.244  15.832  72.644  1.00  0.00     0.000 HD 
HETATM    6  O   UNL     1     -14.331  15.699  72.417  1.00  0.00    -0.546 OA 
ENDBRANCH   2   4
BRANCH   2   7
HETATM    7  C   UNL     1     -12.303  13.398  70.531  1.00  0.00    -0.329 A  
HETATM    8  C   UNL     1     -12.595  12.335  71.373  1.00  0.00    -0.303 A  
HETATM    9  C   UNL     1     -12.041  11.154  70.849  1.00  0.00    -0.427 A  
HETATM   10  C   UNL     1     -12.011   9.825  71.321  1.00  0.00    -0.471 A  
HETATM   11  C   UNL     1     -11.356   8.833  70.591  1.00  0.00    -0.254 A  
HETATM   12  C   UNL     1     -10.722   9.194  69.398  1.00  0.00    -0.198 A  
HETATM   13  C   UNL     1     -11.413  11.482  69.653  1.00  0.00    -0.301 A  
HETATM   14  C   UNL     1     -10.729  10.503  68.907  1.00  0.00    -0.253 A  
HETATM   15  F   UNL     1     -10.086   8.246  68.684  1.00  0.00    -0.176 F  
HETATM   16  N   UNL     1     -11.628  12.842  69.443  1.00  0.00    -0.300 NA 
BRANCH  11  17
HETATM   17  N   UNL     1     -11.291   7.486  71.006  1.00  0.00    -0.268 N  
HETATM   18  H   UNL     1     -12.114   6.910  70.827  1.00  0.00     0.000 HD 
HETATM   19  C   UNL     1     -10.226   6.871  71.628  1.00  0.00    -0.191 C  
HETATM   20  O   UNL     1      -9.157   7.371  71.950  1.00  0.00    -0.129 OA 
BRANCH  19  21
HETATM   21  C   UNL     1     -10.440   5.400  71.897  1.00  0.00    -0.283 C  
HETATM   22  C   UNL     1     -11.531   4.990  72.880  1.00  0.00    -0.306 C  
HETATM   23  C   UNL     1     -10.100   4.930  73.311  1.00  0.00    -0.193 C  
BRANCH  21  24
HETATM   24  C   UNL     1     -10.077   4.487  70.726  1.00  0.00    -0.233 A  
HETATM   25  C   UNL     1      -8.859   3.274  66.581  1.00  0.00    -0.143 C  
HETATM   26  C   UNL     1      -9.573   3.181  70.972  1.00  0.00    -0.228 A  
HETATM   27  C   UNL     1     -10.112   4.935  69.392  1.00  0.00    -0.270 A  
HETATM   28  C   UNL     1      -9.073   2.367  69.948  1.00  0.00    -0.176 A  
HETATM   29  C   UNL     1      -9.094   2.874  68.670  1.00  0.00    -0.157 A  
HETATM   30  C   UNL     1      -9.613   4.118  68.399  1.00  0.00    -0.125 A  
HETATM   31  F   UNL     1      -7.674   3.659  66.047  1.00  0.00    -0.083 F  
HETATM   32  O   UNL     1      -9.531   4.439  67.079  1.00  0.00    -0.149 OA 
HETATM   33  F   UNL     1      -9.603   2.738  65.584  1.00  0.00    -0.123 F  
HETATM   34  O   UNL     1      -8.609   2.256  67.561  1.00  0.00    -0.088 OA 
ENDBRANCH  21  24
ENDBRANCH  19  21
ENDBRANCH  11  17
BRANCH  16  35
HETATM   35  C   UNL     1     -11.167  13.533  68.244  1.00  0.00    -0.274 C  
BRANCH  35  36
HETATM   36  C   UNL     1     -11.801  13.041  66.932  1.00  0.00    -0.380 C  
HETATM   37  H   UNL     1     -12.950  13.782  65.490  1.00  0.00     0.000 HD 
HETATM   38  O   UNL     1     -12.558  14.086  66.300  1.00  0.00    -0.451 OA 
BRANCH  36  39
HETATM   39  C   UNL     1     -10.701  12.632  65.944  1.00  0.00    -0.266 C  
HETATM   40  O   UNL     1     -10.913  13.280  64.689  1.00  0.00    -0.331 OA 
HETATM   41  H   UNL     1     -10.231  13.027  64.077  1.00  0.00     0.000 HD 
ENDBRANCH  36  39
ENDBRANCH  35  36
ENDBRANCH  16  35
ENDBRANCH   2   7
TORSDOF 8
ENDMDL
MODEL       43
REMARK 921   NORMALIZED FREE ENERGY PREDICTED BY IDOCK:   -6.26 KCAL/MOL
REMARK 922        TOTAL FREE ENERGY PREDICTED BY IDOCK:  -10.10 KCAL/MOL
REMARK 923 INTER-LIGAND FREE ENERGY PREDICTED BY IDOCK:   -9.67 KCAL/MOL
REMARK 924 INTRA-LIGAND FREE ENERGY PREDICTED BY IDOCK:   -0.44 KCAL/MOL
REMARK 927      BINDING AFFINITY PREDICTED BY RF-SCORE:    0.00 PKD
ROOT
HETATM    1  C   UNL     1     -10.385  19.372  69.893  1.00  0.00     0.663 C  
HETATM    2  C   UNL     1      -9.973  18.617  68.597  1.00  0.00    -0.431 C  
HETATM    3  C   UNL     1     -10.614  19.402  67.435  1.00  0.00    -0.603 C  
ENDROOT
BRANCH   2   4
HETATM    4  C   UNL     1      -8.420  18.679  68.504  1.00  0.00    -0.338 C  
HETATM    5  H   UNL     1      -6.820  17.708  69.215  1.00  0.00     0.000 HD 
HETATM    6  O   UNL     1      -7.768  17.670  69.272  1.00  0.00    -0.092 OA 
ENDBRANCH   2   4
BRANCH   2   7
HETATM    7  C   UNL     1     -10.512  17.171  68.634  1.00  0.00    -0.366 A  
HETATM    8  C   UNL     1     -10.955  16.479  69.752  1.00  0.00    -0.292 A  
HETATM    9  C   UNL     1     -11.290  15.163  69.388  1.00  0.00    -0.307 A  
HETATM   10  C   UNL     1     -11.745  14.056  70.135  1.00  0.00    -0.331 A  
HETATM   11  C   UNL     1     -11.983  12.833  69.506  1.00  0.00    -0.276 A  
HETATM   12  C   UNL     1     -11.745  12.734  68.132  1.00  0.00    -0.345 A  
HETATM   13  C   UNL     1     -11.073  15.039  68.021  1.00  0.00    -0.300 A  
HETATM   14  C   UNL     1     -11.288  13.811  67.367  1.00  0.00    -0.348 A  
HETATM   15  F   UNL     1     -11.970  11.559  67.514  1.00  0.00    -0.325 F  
HETATM   16  N   UNL     1     -10.653  16.285  67.563  1.00  0.00    -0.309 NA 
BRANCH  11  17
HETATM   17  N   UNL     1     -12.441  11.689  70.194  1.00  0.00    -0.182 N  
HETATM   18  H   UNL     1     -13.418  11.690  70.490  1.00  0.00     0.000 HD 
HETATM   19  C   UNL     1     -11.699  10.570  70.506  1.00  0.00    -0.350 C  
HETATM   20  O   UNL     1     -10.518  10.364  70.265  1.00  0.00    -0.227 OA 
BRANCH  19  21
HETATM   21  C   UNL     1     -12.490   9.485  71.200  1.00  0.00    -0.399 C  
HETATM   22  C   UNL     1     -13.997   9.430  70.982  1.00  0.00     0.063 C  
HETATM   23  C   UNL     1     -13.465   9.964  72.274  1.00  0.00    -0.397 C  
BRANCH  21  24
HETATM   24  C   UNL     1     -11.702   8.201  71.460  1.00  0.00    -0.325 A  
HETATM   25  C   UNL     1     -10.054   4.677  73.696  1.00  0.00    -0.165 C  
HETATM   26  C   UNL     1     -11.384   7.331  70.382  1.00  0.00    -0.299 A  
HETATM   27  C   UNL     1     -11.372   7.779  72.761  1.00  0.00    -0.446 A  
HETATM   28  C   UNL     1     -10.812   6.069  70.583  1.00  0.00    -0.364 A  
HETATM   29  C   UNL     1     -10.550   5.693  71.879  1.00  0.00    -0.232 A  
HETATM   30  C   UNL     1     -10.809   6.532  72.937  1.00  0.00    -0.258 A  
HETATM   31  F   UNL     1     -10.866   3.742  74.247  1.00  0.00    -0.247 F  
HETATM   32  O   UNL     1     -10.491   5.971  74.135  1.00  0.00    -0.279 OA 
HETATM   33  F   UNL     1      -8.803   4.461  74.166  1.00  0.00    -0.101 F  
HETATM   34  O   UNL     1     -10.045   4.494  72.273  1.00  0.00    -0.178 OA 
ENDBRANCH  21  24
ENDBRANCH  19  21
ENDBRANCH  11  17
BRANCH  16  35
HETATM   35  C   UNL     1     -10.390  16.555  66.154  1.00  0.00    -0.334 C  
BRANCH  35  36
HETATM   36  C   UNL     1      -8.938  16.310  65.710  1.00  0.00    -0.030 C  
HETATM   37  H   UNL     1      -7.311  17.393  65.352  1.00  0.00     0.000 HD 
HETATM   38  O   UNL     1      -8.208  17.544  65.627  1.00  0.00    -0.505 OA 
BRANCH  36  39
HETATM   39  C   UNL     1      -8.218  15.438  66.747  1.00  0.00    -0.217 C  
HETATM   40  O   UNL     1      -7.017  16.085  67.170  1.00  0.00    -0.192 OA 
HETATM   41  H   UNL     1      -6.571  15.545  67.813  1.00  0.00     0.000 HD 
ENDBRANCH  36  39
ENDBRANCH  35  36
ENDBRANCH  16  35
ENDBRANCH   2   7
TORSDOF 8
ENDMDL
MODEL       44
REMARK 921   NORMALIZED FREE ENERGY PREDICTED BY IDOCK:   -6.22 KCAL/MOL
REMARK 922        TOTAL FREE ENERGY PREDICTED BY IDOCK:  -10.04 KCAL/MOL
REMARK 923 INTER-LIGAND FREE ENERGY PREDICTED BY IDOCK:   -9.72 KCAL/MOL
REMARK 924 INTRA-LIGAND FREE ENERGY PREDICTED BY IDOCK:   -0.32 KCAL/MOL
REMARK 927      BINDING AFFINITY PREDICTED BY RF-SCORE:    0.00 PKD
ROOT
HETATM    1  C   UNL     1      -8.605  16.332  66.102  1.00  0.00    -0.342 C  
HETATM    2  C   UNL     1     -10.096  15.952  66.332  1.00  0.00    -0.306 C  
HETATM    3  C   UNL     1     -10.639  16.989  67.336  1.00  0.00    -0.289 C  
ENDROOT
BRANCH   2   4
HETATM    4  C   UNL     1     -10.821  16.090  64.961  1.00  0.00    -0.404 C  
HETATM    5  H   UNL     1     -11.706  17.502  63.852  1.00  0.00     0.000 HD 
HETATM    6  O   UNL     1     -11.264  17.417  64.688  1.00  0.00    -0.992 OA 
ENDBRANCH   2   4
BRANCH   2   7
HETATM    7  C   UNL     1     -10.193  14.528  66.920  1.00  0.00    -0.264 A  
HETATM    8  C   UNL     1      -9.477  14.023  67.994  1.00  0.00    -0.206 A  
HETATM    9  C   UNL     1      -9.788  12.664  68.171  1.00  0.00    -0.226 A  
HETATM   10  C   UNL     1      -9.319  11.689  69.076  1.00  0.00     0.140 A  
HETATM   11  C   UNL     1      -9.795  10.379  69.010  1.00  0.00    -0.212 A  
HETATM   12  C   UNL     1     -10.730  10.061  68.021  1.00  0.00    -0.256 A  
HETATM   13  C   UNL     1     -10.728  12.321  67.205  1.00  0.00    -0.231 A  
HETATM   14  C   UNL     1     -11.209  11.002  67.106  1.00  0.00    -0.290 A  
HETATM   15  F   UNL     1     -11.197   8.800  67.946  1.00  0.00    -0.096 F  
HETATM   16  N   UNL     1     -11.007  13.480  66.484  1.00  0.00    -0.289 NA 
BRANCH  11  17
HETATM   17  N   UNL     1      -9.368   9.359  69.887  1.00  0.00    -0.198 N  
HETATM   18  H   UNL     1      -8.461   8.934  69.691  1.00  0.00     0.000 HD 
HETATM   19  C   UNL     1     -10.056   8.880  70.981  1.00  0.00    -0.255 C  
HETATM   20  O   UNL     1     -11.156   9.229  71.386  1.00  0.00    -0.313 OA 
BRANCH  19  21
HETATM   21  C   UNL     1      -9.309   7.821  71.757  1.00  0.00    -0.179 C  
HETATM   22  C   UNL     1      -9.554   7.707  73.258  1.00  0.00    -0.326 C  
HETATM   23  C   UNL     1      -8.289   8.340  72.770  1.00  0.00    -0.235 C  
BRANCH  21  24
HETATM   24  C   UNL     1      -8.947   6.580  70.940  1.00  0.00    -0.147 A  
HETATM   25  C   UNL     1      -8.969   3.647  67.545  1.00  0.00    -0.140 C  
HETATM   26  C   UNL     1      -7.696   5.936  71.141  1.00  0.00    -0.109 A  
HETATM   27  C   UNL     1      -9.766   6.109  69.898  1.00  0.00    -0.193 A  
HETATM   28  C   UNL     1      -7.246   4.901  70.313  1.00  0.00    -0.050 A  
HETATM   29  C   UNL     1      -8.071   4.510  69.284  1.00  0.00    -0.068 A  
HETATM   30  C   UNL     1      -9.303   5.089  69.092  1.00  0.00    -0.122 A  
HETATM   31  F   UNL     1      -8.610   4.010  66.289  1.00  0.00    -0.107 F  
HETATM   32  O   UNL     1      -9.959   4.571  68.018  1.00  0.00    -0.122 OA 
HETATM   33  F   UNL     1      -9.528   2.416  67.470  1.00  0.00    -0.206 F  
HETATM   34  O   UNL     1      -7.786   3.563  68.352  1.00  0.00    -0.063 OA 
ENDBRANCH  21  24
ENDBRANCH  19  21
ENDBRANCH  11  17
BRANCH  16  35
HETATM   35  C   UNL     1     -12.005  13.520  65.422  1.00  0.00    -0.379 C  
BRANCH  35  36
HETATM   36  C   UNL     1     -12.105  12.236  64.581  1.00  0.00    -0.374 C  
HETATM   37  H   UNL     1     -13.464  11.319  63.459  1.00  0.00     0.000 HD 
HETATM   38  O   UNL     1     -13.402  12.112  63.978  1.00  0.00    -0.706 OA 
BRANCH  36  39
HETATM   39  C   UNL     1     -11.086  12.286  63.434  1.00  0.00    -0.418 C  
HETATM   40  O   UNL     1      -9.965  13.083  63.818  1.00  0.00    -0.744 OA 
HETATM   41  H   UNL     1      -9.335  13.113  63.108  1.00  0.00     0.000 HD 
ENDBRANCH  36  39
ENDBRANCH  35  36
ENDBRANCH  16  35
ENDBRANCH   2   7
TORSDOF 8
ENDMDL
MODEL       45
REMARK 921   NORMALIZED FREE ENERGY PREDICTED BY IDOCK:   -6.21 KCAL/MOL
REMARK 922        TOTAL FREE ENERGY PREDICTED BY IDOCK:  -10.02 KCAL/MOL
REMARK 923 INTER-LIGAND FREE ENERGY PREDICTED BY IDOCK:   -9.13 KCAL/MOL
REMARK 924 INTRA-LIGAND FREE ENERGY PREDICTED BY IDOCK:   -0.89 KCAL/MOL
REMARK 927      BINDING AFFINITY PREDICTED BY RF-SCORE:    0.00 PKD
ROOT
HETATM    1  C   UNL     1      -9.857  18.295  68.869  1.00  0.00    -0.341 C  
HETATM    2  C   UNL     1      -9.557  17.653  67.484  1.00  0.00    -0.267 C  
HETATM    3  C   UNL     1     -10.657  18.173  66.537  1.00  0.00    -0.290 C  
ENDROOT
BRANCH   2   4
HETATM    4  C   UNL     1      -8.159  18.170  67.032  1.00  0.00    -0.226 C  
HETATM    5  H   UNL     1      -7.308  19.036  65.441  1.00  0.00     0.000 HD 
HETATM    6  O   UNL     1      -8.160  18.720  65.717  1.00  0.00    -0.473 OA 
ENDBRANCH   2   4
BRANCH   2   7
HETATM    7  C   UNL     1      -9.619  16.114  67.591  1.00  0.00    -0.222 A  
HETATM    8  C   UNL     1      -8.705  15.209  67.073  1.00  0.00    -0.264 A  
HETATM    9  C   UNL     1      -9.155  13.898  67.309  1.00  0.00    -0.230 A  
HETATM   10  C   UNL     1      -8.632  12.635  66.962  1.00  0.00    -0.181 A  
HETATM   11  C   UNL     1      -9.314  11.470  67.313  1.00  0.00    -0.166 A  
HETATM   12  C   UNL     1     -10.526  11.590  67.999  1.00  0.00    -0.189 A  
HETATM   13  C   UNL     1     -10.356  13.987  68.003  1.00  0.00    -0.240 A  
HETATM   14  C   UNL     1     -11.072  12.827  68.352  1.00  0.00    -0.293 A  
HETATM   15  F   UNL     1     -11.194  10.473  68.343  1.00  0.00    -0.264 F  
HETATM   16  N   UNL     1     -10.600  15.342  68.217  1.00  0.00    -0.247 NA 
BRANCH  11  17
HETATM   17  N   UNL     1      -8.844  10.177  66.997  1.00  0.00    -0.135 N  
HETATM   18  H   UNL     1      -8.302   9.697  67.716  1.00  0.00     0.000 HD 
HETATM   19  C   UNL     1      -9.046   9.499  65.814  1.00  0.00    -0.196 C  
HETATM   20  O   UNL     1      -9.646   9.888  64.821  1.00  0.00    -0.289 OA 
BRANCH  19  21
HETATM   21  C   UNL     1      -8.465   8.105  65.801  1.00  0.00    -0.162 C  
HETATM   22  C   UNL     1      -7.047   7.911  65.276  1.00  0.00    -0.060 C  
HETATM   23  C   UNL     1      -8.204   7.510  64.418  1.00  0.00    -0.018 C  
BRANCH  21  24
HETATM   24  C   UNL     1      -9.015   7.184  66.891  1.00  0.00    -0.145 A  
HETATM   25  C   UNL     1      -9.274   5.032  70.820  1.00  0.00    -0.145 C  
HETATM   26  C   UNL     1     -10.404   6.889  66.937  1.00  0.00    -0.332 A  
HETATM   27  C   UNL     1      -8.208   6.702  67.938  1.00  0.00    -0.120 A  
HETATM   28  C   UNL     1     -10.985   6.189  68.002  1.00  0.00    -0.399 A  
HETATM   29  C   UNL     1     -10.154   5.779  69.018  1.00  0.00    -0.191 A  
HETATM   30  C   UNL     1      -8.800   6.016  68.978  1.00  0.00    -0.121 A  
HETATM   31  F   UNL     1      -9.351   5.704  71.995  1.00  0.00    -0.149 F  
HETATM   32  O   UNL     1      -8.156   5.542  70.079  1.00  0.00    -0.087 OA 
HETATM   33  F   UNL     1      -9.044   3.729  71.108  1.00  0.00    -0.128 F  
HETATM   34  O   UNL     1     -10.539   5.135  70.150  1.00  0.00    -0.272 OA 
ENDBRANCH  21  24
ENDBRANCH  19  21
ENDBRANCH  11  17
BRANCH  16  35
HETATM   35  C   UNL     1     -11.749  15.821  68.977  1.00  0.00    -0.396 C  
BRANCH  35  36
HETATM   36  C   UNL     1     -11.795  15.350  70.441  1.00  0.00    -0.335 C  
HETATM   37  H   UNL     1     -11.763  16.175  72.248  1.00  0.00     0.000 HD 
HETATM   38  O   UNL     1     -11.735  16.466  71.344  1.00  0.00    -0.425 OA 
BRANCH  36  39
HETATM   39  C   UNL     1     -13.122  14.630  70.714  1.00  0.00    -0.323 C  
HETATM   40  O   UNL     1     -14.133  15.586  71.036  1.00  0.00    -0.810 OA 
HETATM   41  H   UNL     1     -14.955  15.140  71.204  1.00  0.00     0.000 HD 
ENDBRANCH  36  39
ENDBRANCH  35  36
ENDBRANCH  16  35
ENDBRANCH   2   7
TORSDOF 8
ENDMDL
MODEL       46
REMARK 921   NORMALIZED FREE ENERGY PREDICTED BY IDOCK:   -6.18 KCAL/MOL
REMARK 922        TOTAL FREE ENERGY PREDICTED BY IDOCK:   -9.98 KCAL/MOL
REMARK 923 INTER-LIGAND FREE ENERGY PREDICTED BY IDOCK:   -9.91 KCAL/MOL
REMARK 924 INTRA-LIGAND FREE ENERGY PREDICTED BY IDOCK:   -0.07 KCAL/MOL
REMARK 927      BINDING AFFINITY PREDICTED BY RF-SCORE:    0.00 PKD
ROOT
HETATM    1  C   UNL     1      -7.101  20.020  69.515  1.00  0.00    -0.148 C  
HETATM    2  C   UNL     1      -6.251  18.970  68.744  1.00  0.00    -0.256 C  
HETATM    3  C   UNL     1      -5.624  19.731  67.559  1.00  0.00    -0.181 C  
ENDROOT
BRANCH   2   4
HETATM    4  C   UNL     1      -5.142  18.472  69.718  1.00  0.00    -0.188 C  
HETATM    5  H   UNL     1      -4.804  18.341  71.687  1.00  0.00     0.000 HD 
HETATM    6  O   UNL     1      -5.479  18.645  71.092  1.00  0.00    -0.243 OA 
ENDBRANCH   2   4
BRANCH   2   7
HETATM    7  C   UNL     1      -7.156  17.827  68.235  1.00  0.00    -0.230 A  
HETATM    8  C   UNL     1      -7.238  16.542  68.750  1.00  0.00    -0.197 A  
HETATM    9  C   UNL     1      -8.114  15.775  67.963  1.00  0.00    -0.143 A  
HETATM   10  C   UNL     1      -8.514  14.424  68.024  1.00  0.00    -0.164 A  
HETATM   11  C   UNL     1      -9.401  13.908  67.078  1.00  0.00    -0.251 A  
HETATM   12  C   UNL     1      -9.865  14.757  66.069  1.00  0.00    -0.324 A  
HETATM   13  C   UNL     1      -8.602  16.600  66.955  1.00  0.00    -0.195 A  
HETATM   14  C   UNL     1      -9.483  16.099  65.979  1.00  0.00    -0.374 A  
HETATM   15  F   UNL     1     -10.721  14.272  65.150  1.00  0.00    -0.307 F  
HETATM   16  N   UNL     1      -8.053  17.863  67.165  1.00  0.00    -0.208 NA 
BRANCH  11  17
HETATM   17  N   UNL     1      -9.841  12.567  67.085  1.00  0.00    -0.207 N  
HETATM   18  H   UNL     1     -10.746  12.378  66.652  1.00  0.00     0.000 HD 
HETATM   19  C   UNL     1      -9.170  11.488  67.620  1.00  0.00    -0.171 C  
HETATM   20  O   UNL     1      -8.091  11.488  68.195  1.00  0.00    -0.130 OA 
BRANCH  19  21
HETATM   21  C   UNL     1      -9.877  10.168  67.420  1.00  0.00    -0.225 C  
HETATM   22  C   UNL     1      -9.346   9.210  66.360  1.00  0.00    -0.261 C  
HETATM   23  C   UNL     1     -10.587   9.996  66.078  1.00  0.00    -0.045 C  
BRANCH  21  24
HETATM   24  C   UNL     1     -10.562   9.625  68.674  1.00  0.00    -0.246 A  
HETATM   25  C   UNL     1     -11.539   6.811  72.029  1.00  0.00    -0.291 C  
HETATM   26  C   UNL     1     -11.153  10.522  69.605  1.00  0.00    -0.338 A  
HETATM   27  C   UNL     1     -10.530   8.260  69.010  1.00  0.00    -0.212 A  
HETATM   28  C   UNL     1     -11.647  10.095  70.844  1.00  0.00    -0.459 A  
HETATM   29  C   UNL     1     -11.551   8.755  71.136  1.00  0.00    -0.289 A  
HETATM   30  C   UNL     1     -11.020   7.861  70.236  1.00  0.00    -0.248 A  
HETATM   31  F   UNL     1     -10.605   6.439  72.940  1.00  0.00    -0.200 F  
HETATM   32  O   UNL     1     -11.005   6.588  70.716  1.00  0.00    -0.245 OA 
HETATM   33  F   UNL     1     -12.617   6.010  72.199  1.00  0.00    -0.369 F  
HETATM   34  O   UNL     1     -11.927   8.165  72.300  1.00  0.00    -0.337 OA 
ENDBRANCH  21  24
ENDBRANCH  19  21
ENDBRANCH  11  17
BRANCH  16  35
HETATM   35  C   UNL     1      -8.392  19.013  66.335  1.00  0.00    -0.307 C  
BRANCH  35  36
HETATM   36  C   UNL     1      -9.705  19.719  66.715  1.00  0.00    -0.397 C  
HETATM   37  H   UNL     1     -11.411  20.219  65.829  1.00  0.00     0.000 HD 
HETATM   38  O   UNL     1     -10.600  19.783  65.594  1.00  0.00    -0.507 OA 
BRANCH  36  39
HETATM   39  C   UNL     1     -10.425  18.921  67.811  1.00  0.00    -0.416 C  
HETATM   40  O   UNL     1     -10.353  19.628  69.050  1.00  0.00    -0.600 OA 
HETATM   41  H   UNL     1     -10.799  19.134  69.728  1.00  0.00     0.000 HD 
ENDBRANCH  36  39
ENDBRANCH  35  36
ENDBRANCH  16  35
ENDBRANCH   2   7
TORSDOF 8
ENDMDL
MODEL       47
REMARK 921   NORMALIZED FREE ENERGY PREDICTED BY IDOCK:   -6.12 KCAL/MOL
REMARK 922        TOTAL FREE ENERGY PREDICTED BY IDOCK:   -9.90 KCAL/MOL
REMARK 923 INTER-LIGAND FREE ENERGY PREDICTED BY IDOCK:   -9.07 KCAL/MOL
REMARK 924 INTRA-LIGAND FREE ENERGY PREDICTED BY IDOCK:   -0.82 KCAL/MOL
REMARK 927      BINDING AFFINITY PREDICTED BY RF-SCORE:    0.00 PKD
ROOT
HETATM    1  C   UNL     1     -10.676  17.094  66.717  1.00  0.00    -0.097 C  
HETATM    2  C   UNL     1      -9.500  16.357  67.421  1.00  0.00    -0.227 C  
HETATM    3  C   UNL     1      -8.413  16.182  66.342  1.00  0.00    -0.369 C  
ENDROOT
BRANCH   2   4
HETATM    4  C   UNL     1      -8.991  17.289  68.560  1.00  0.00    -0.273 C  
HETATM    5  H   UNL     1      -9.490  19.016  69.441  1.00  0.00     0.000 HD 
HETATM    6  O   UNL     1      -9.801  18.448  68.746  1.00  0.00    -0.357 OA 
ENDBRANCH   2   4
BRANCH   2   7
HETATM    7  C   UNL     1      -9.974  14.982  67.940  1.00  0.00    -0.222 A  
HETATM    8  C   UNL     1      -9.456  13.743  67.593  1.00  0.00    -0.217 A  
HETATM    9  C   UNL     1     -10.208  12.730  68.214  1.00  0.00    -0.245 A  
HETATM   10  C   UNL     1     -10.131  11.322  68.166  1.00  0.00    -0.195 A  
HETATM   11  C   UNL     1     -11.041  10.542  68.881  1.00  0.00    -0.261 A  
HETATM   12  C   UNL     1     -12.030  11.190  69.627  1.00  0.00    -0.359 A  
HETATM   13  C   UNL     1     -11.194  13.347  68.975  1.00  0.00    -0.275 A  
HETATM   14  C   UNL     1     -12.135  12.582  69.690  1.00  0.00    -0.272 A  
HETATM   15  F   UNL     1     -12.913  10.449  70.322  1.00  0.00    -0.372 F  
HETATM   16  N   UNL     1     -11.006  14.721  68.843  1.00  0.00    -0.243 NA 
BRANCH  11  17
HETATM   17  N   UNL     1     -11.017   9.131  68.877  1.00  0.00    -0.435 N  
HETATM   18  H   UNL     1     -11.816   8.659  68.454  1.00  0.00     0.000 HD 
HETATM   19  C   UNL     1     -10.019   8.328  69.387  1.00  0.00    -0.188 C  
HETATM   20  O   UNL     1      -8.990   8.678  69.947  1.00  0.00    -0.143 OA 
BRANCH  19  21
HETATM   21  C   UNL     1     -10.257   6.851  69.180  1.00  0.00    -0.196 C  
HETATM   22  C   UNL     1     -11.375   6.175  69.967  1.00  0.00    -0.443 C  
HETATM   23  C   UNL     1      -9.955   5.958  70.383  1.00  0.00    -0.247 C  
BRANCH  21  24
HETATM   24  C   UNL     1      -9.878   6.342  67.789  1.00  0.00    -0.130 A  
HETATM   25  C   UNL     1      -7.284   5.107  64.343  1.00  0.00    -0.055 C  
HETATM   26  C   UNL     1     -10.779   5.515  67.065  1.00  0.00    -0.286 A  
HETATM   27  C   UNL     1      -8.605   6.565  67.234  1.00  0.00    -0.111 A  
HETATM   28  C   UNL     1     -10.421   4.889  65.865  1.00  0.00    -0.282 A  
HETATM   29  C   UNL     1      -9.149   5.111  65.392  1.00  0.00    -0.140 A  
HETATM   30  C   UNL     1      -8.271   5.939  66.052  1.00  0.00    -0.123 A  
HETATM   31  F   UNL     1      -6.395   4.089  64.451  1.00  0.00    -0.024 F  
HETATM   32  O   UNL     1      -7.064   6.018  65.430  1.00  0.00    -0.062 OA 
HETATM   33  F   UNL     1      -7.028   5.751  63.180  1.00  0.00    -0.039 F  
HETATM   34  O   UNL     1      -8.606   4.555  64.277  1.00  0.00    -0.120 OA 
ENDBRANCH  21  24
ENDBRANCH  19  21
ENDBRANCH  11  17
BRANCH  16  35
HETATM   35  C   UNL     1     -11.821  15.696  69.559  1.00  0.00    -0.372 C  
BRANCH  35  36
HETATM   36  C   UNL     1     -11.853  15.513  71.086  1.00  0.00    -0.387 C  
HETATM   37  H   UNL     1     -11.344  16.556  72.699  1.00  0.00     0.000 HD 
HETATM   38  O   UNL     1     -11.324  16.669  71.756  1.00  0.00    -0.160 OA 
BRANCH  36  39
HETATM   39  C   UNL     1     -13.304  15.353  71.559  1.00  0.00    -0.500 C  
HETATM   40  O   UNL     1     -14.194  15.531  70.457  1.00  0.00    -0.647 OA 
HETATM   41  H   UNL     1     -15.093  15.431  70.750  1.00  0.00     0.000 HD 
ENDBRANCH  36  39
ENDBRANCH  35  36
ENDBRANCH  16  35
ENDBRANCH   2   7
TORSDOF 8
ENDMDL
MODEL       48
REMARK 921   NORMALIZED FREE ENERGY PREDICTED BY IDOCK:   -6.10 KCAL/MOL
REMARK 922        TOTAL FREE ENERGY PREDICTED BY IDOCK:   -9.87 KCAL/MOL
REMARK 923 INTER-LIGAND FREE ENERGY PREDICTED BY IDOCK:   -8.67 KCAL/MOL
REMARK 924 INTRA-LIGAND FREE ENERGY PREDICTED BY IDOCK:   -1.19 KCAL/MOL
REMARK 927      BINDING AFFINITY PREDICTED BY RF-SCORE:    0.00 PKD
ROOT
HETATM    1  C   UNL     1      -8.461  16.864  68.459  1.00  0.00    -0.258 C  
HETATM    2  C   UNL     1      -9.638  16.303  67.611  1.00  0.00    -0.227 C  
HETATM    3  C   UNL     1     -10.920  16.876  68.249  1.00  0.00    -0.298 C  
ENDROOT
BRANCH   2   4
HETATM    4  C   UNL     1      -9.461  16.848  66.163  1.00  0.00    -0.245 C  
HETATM    5  H   UNL     1     -10.340  18.141  64.914  1.00  0.00     0.000 HD 
HETATM    6  O   UNL     1     -10.448  17.809  65.797  1.00  0.00    -0.556 OA 
ENDBRANCH   2   4
BRANCH   2   7
HETATM    7  C   UNL     1      -9.647  14.761  67.673  1.00  0.00    -0.208 A  
HETATM    8  C   UNL     1      -8.726  13.952  68.323  1.00  0.00    -0.183 A  
HETATM    9  C   UNL     1      -9.032  12.601  68.079  1.00  0.00    -0.200 A  
HETATM   10  C   UNL     1      -8.404  11.399  68.464  1.00  0.00    -0.153 A  
HETATM   11  C   UNL     1      -8.922  10.170  68.052  1.00  0.00    -0.125 A  
HETATM   12  C   UNL     1     -10.061  10.168  67.242  1.00  0.00    -0.206 A  
HETATM   13  C   UNL     1     -10.171  12.568  67.283  1.00  0.00    -0.216 A  
HETATM   14  C   UNL     1     -10.703  11.342  66.839  1.00  0.00    -0.308 A  
HETATM   15  F   UNL     1     -10.571   8.989  66.837  1.00  0.00    -0.326 F  
HETATM   16  N   UNL     1     -10.568  13.889  67.089  1.00  0.00    -0.276 NA 
BRANCH  11  17
HETATM   17  N   UNL     1      -8.343   8.932  68.403  1.00  0.00    -0.124 N  
HETATM   18  H   UNL     1      -8.711   8.473  69.237  1.00  0.00     0.000 HD 
HETATM   19  C   UNL     1      -7.329   8.282  67.732  1.00  0.00    -0.093 C  
HETATM   20  O   UNL     1      -6.736   8.656  66.729  1.00  0.00    -0.066 OA 
BRANCH  19  21
HETATM   21  C   UNL     1      -6.964   6.942  68.325  1.00  0.00    -0.080 C  
HETATM   22  C   UNL     1      -5.594   6.353  68.008  1.00  0.00    -0.008 C  
HETATM   23  C   UNL     1      -6.803   5.798  67.324  1.00  0.00    -0.064 C  
BRANCH  21  24
HETATM   24  C   UNL     1      -7.641   6.641  69.662  1.00  0.00    -0.098 A  
HETATM   25  C   UNL     1     -10.498   4.801  72.592  1.00  0.00    -0.203 C  
HETATM   26  C   UNL     1      -6.927   6.826  70.878  1.00  0.00    -0.067 A  
HETATM   27  C   UNL     1      -8.923   6.067  69.738  1.00  0.00    -0.135 A  
HETATM   28  C   UNL     1      -7.436   6.414  72.115  1.00  0.00    -0.093 A  
HETATM   29  C   UNL     1      -8.678   5.822  72.122  1.00  0.00    -0.133 A  
HETATM   30  C   UNL     1      -9.406   5.667  70.966  1.00  0.00    -0.153 A  
HETATM   31  F   UNL     1     -10.546   3.461  72.793  1.00  0.00    -0.220 F  
HETATM   32  O   UNL     1     -10.600   5.050  71.183  1.00  0.00    -0.179 OA 
HETATM   33  F   UNL     1     -11.575   5.345  73.206  1.00  0.00    -0.328 F  
HETATM   34  O   UNL     1      -9.311   5.315  73.212  1.00  0.00    -0.138 OA 
ENDBRANCH  21  24
ENDBRANCH  19  21
ENDBRANCH  11  17
BRANCH  16  35
HETATM   35  C   UNL     1     -11.775  14.245  66.351  1.00  0.00    -0.391 C  
BRANCH  35  36
HETATM   36  C   UNL     1     -11.608  14.282  64.822  1.00  0.00    -0.401 C  
HETATM   37  H   UNL     1     -11.953  13.079  63.279  1.00  0.00     0.000 HD 
HETATM   38  O   UNL     1     -12.057  13.056  64.224  1.00  0.00    -0.373 OA 
BRANCH  36  39
HETATM   39  C   UNL     1     -12.472  15.405  64.233  1.00  0.00     0.066 C  
HETATM   40  O   UNL     1     -11.634  16.434  63.707  1.00  0.00    -1.605 OA 
HETATM   41  H   UNL     1     -12.170  17.129  63.342  1.00  0.00     0.000 HD 
ENDBRANCH  36  39
ENDBRANCH  35  36
ENDBRANCH  16  35
ENDBRANCH   2   7
TORSDOF 8
ENDMDL
MODEL       49
REMARK 921   NORMALIZED FREE ENERGY PREDICTED BY IDOCK:   -6.09 KCAL/MOL
REMARK 922        TOTAL FREE ENERGY PREDICTED BY IDOCK:   -9.86 KCAL/MOL
REMARK 923 INTER-LIGAND FREE ENERGY PREDICTED BY IDOCK:   -9.14 KCAL/MOL
REMARK 924 INTRA-LIGAND FREE ENERGY PREDICTED BY IDOCK:   -0.72 KCAL/MOL
REMARK 927      BINDING AFFINITY PREDICTED BY RF-SCORE:    0.00 PKD
ROOT
HETATM    1  C   UNL     1      -7.912   5.364  72.036  1.00  0.00    -0.113 C  
HETATM    2  C   UNL     1      -8.425   5.216  70.575  1.00  0.00    -0.113 C  
HETATM    3  C   UNL     1      -7.220   4.705  69.760  1.00  0.00    -0.054 C  
ENDROOT
BRANCH   2   4
HETATM    4  C   UNL     1      -9.561   4.151  70.593  1.00  0.00    -0.194 C  
HETATM    5  H   UNL     1     -10.609   3.077  71.918  1.00  0.00     0.000 HD 
HETATM    6  O   UNL     1      -9.916   3.726  71.907  1.00  0.00    -0.172 OA 
ENDBRANCH   2   4
BRANCH   2   7
HETATM    7  C   UNL     1      -8.898   6.585  70.040  1.00  0.00    -0.144 A  
HETATM    8  C   UNL     1      -9.225   7.702  70.795  1.00  0.00    -0.157 A  
HETATM    9  C   UNL     1      -9.687   8.724  69.947  1.00  0.00    -0.183 A  
HETATM   10  C   UNL     1     -10.173  10.024  70.199  1.00  0.00    -0.297 A  
HETATM   11  C   UNL     1     -10.596  10.835  69.145  1.00  0.00    -0.222 A  
HETATM   12  C   UNL     1     -10.536  10.321  67.846  1.00  0.00    -0.239 A  
HETATM   13  C   UNL     1      -9.628   8.244  68.643  1.00  0.00    -0.149 A  
HETATM   14  C   UNL     1     -10.065   9.036  67.565  1.00  0.00    -0.285 A  
HETATM   15  F   UNL     1     -10.941  11.094  66.821  1.00  0.00    -0.292 F  
HETATM   16  N   UNL     1      -9.093   6.959  68.709  1.00  0.00    -0.133 NA 
BRANCH  11  17
HETATM   17  N   UNL     1     -11.090  12.143  69.330  1.00  0.00    -0.435 N  
HETATM   18  H   UNL     1     -12.023  12.230  69.734  1.00  0.00     0.000 HD 
HETATM   19  C   UNL     1     -10.436  13.317  69.019  1.00  0.00    -0.017 C  
HETATM   20  O   UNL     1      -9.328  13.446  68.517  1.00  0.00    -0.181 OA 
BRANCH  19  21
HETATM   21  C   UNL     1     -11.207  14.563  69.389  1.00  0.00    -0.312 C  
HETATM   22  C   UNL     1     -11.620  14.760  70.843  1.00  0.00    -0.316 C  
HETATM   23  C   UNL     1     -12.648  14.338  69.842  1.00  0.00    -0.214 C  
BRANCH  21  24
HETATM   24  C   UNL     1     -10.909  15.772  68.502  1.00  0.00    -0.290 A  
HETATM   25  C   UNL     1      -9.243  19.750  67.264  1.00  0.00    -0.341 C  
HETATM   26  C   UNL     1     -10.940  15.641  67.088  1.00  0.00    -0.270 A  
HETATM   27  C   UNL     1     -10.483  17.002  69.037  1.00  0.00    -0.337 A  
HETATM   28  C   UNL     1     -10.519  16.666  66.232  1.00  0.00    -0.272 A  
HETATM   29  C   UNL     1     -10.074  17.831  66.812  1.00  0.00    -0.349 A  
HETATM   30  C   UNL     1     -10.071  17.998  68.176  1.00  0.00    -0.372 A  
HETATM   31  F   UNL     1      -7.908  19.986  67.239  1.00  0.00    -0.283 F  
HETATM   32  O   UNL     1      -9.584  19.213  68.550  1.00  0.00    -0.348 OA 
HETATM   33  F   UNL     1      -9.871  20.941  67.113  1.00  0.00    -0.608 F  
HETATM   34  O   UNL     1      -9.581  18.911  66.151  1.00  0.00    -0.413 OA 
ENDBRANCH  21  24
ENDBRANCH  19  21
ENDBRANCH  11  17
BRANCH  16  35
HETATM   35  C   UNL     1      -8.820   6.162  67.519  1.00  0.00    -0.106 C  
BRANCH  35  36
HETATM   36  C   UNL     1      -9.921   5.152  67.153  1.00  0.00    -0.191 C  
HETATM   37  H   UNL     1     -11.553   5.106  66.021  1.00  0.00     0.000 HD 
HETATM   38  O   UNL     1     -10.873   5.730  66.246  1.00  0.00    -0.168 OA 
BRANCH  36  39
HETATM   39  C   UNL     1      -9.302   3.945  66.435  1.00  0.00    -0.182 C  
HETATM   40  O   UNL     1     -10.243   3.396  65.513  1.00  0.00    -0.388 OA 
HETATM   41  H   UNL     1      -9.859   2.650  65.068  1.00  0.00     0.000 HD 
ENDBRANCH  36  39
ENDBRANCH  35  36
ENDBRANCH  16  35
ENDBRANCH   2   7
TORSDOF 8
ENDMDL
MODEL       50
REMARK 921   NORMALIZED FREE ENERGY PREDICTED BY IDOCK:   -5.99 KCAL/MOL
REMARK 922        TOTAL FREE ENERGY PREDICTED BY IDOCK:   -9.71 KCAL/MOL
REMARK 923 INTER-LIGAND FREE ENERGY PREDICTED BY IDOCK:   -8.69 KCAL/MOL
REMARK 924 INTRA-LIGAND FREE ENERGY PREDICTED BY IDOCK:   -1.03 KCAL/MOL
REMARK 927      BINDING AFFINITY PREDICTED BY RF-SCORE:    0.00 PKD
ROOT
HETATM    1  C   UNL     1     -10.221   4.609  70.752  1.00  0.00    -0.214 C  
HETATM    2  C   UNL     1      -8.872   5.051  70.115  1.00  0.00    -0.138 C  
HETATM    3  C   UNL     1      -7.830   4.972  71.250  1.00  0.00    -0.101 C  
ENDROOT
BRANCH   2   4
HETATM    4  C   UNL     1      -8.534   4.023  68.995  1.00  0.00    -0.077 C  
HETATM    5  H   UNL     1      -9.340   2.409  68.128  1.00  0.00     0.000 HD 
HETATM    6  O   UNL     1      -9.546   3.036  68.812  1.00  0.00    -0.155 OA 
ENDBRANCH   2   4
BRANCH   2   7
HETATM    7  C   UNL     1      -8.986   6.496  69.586  1.00  0.00    -0.141 A  
HETATM    8  C   UNL     1      -8.243   7.592  70.000  1.00  0.00    -0.130 A  
HETATM    9  C   UNL     1      -8.698   8.746  69.338  1.00  0.00    -0.142 A  
HETATM   10  C   UNL     1      -8.320  10.102  69.421  1.00  0.00    -0.174 A  
HETATM   11  C   UNL     1      -8.972  11.064  68.647  1.00  0.00    -0.167 A  
HETATM   12  C   UNL     1     -10.009  10.649  67.807  1.00  0.00    -0.167 A  
HETATM   13  C   UNL     1      -9.725   8.361  68.484  1.00  0.00    -0.160 A  
HETATM   14  C   UNL     1     -10.410   9.314  67.707  1.00  0.00    -0.292 A  
HETATM   15  F   UNL     1     -10.646  11.567  67.055  1.00  0.00    -0.234 F  
HETATM   16  N   UNL     1      -9.853   6.979  68.604  1.00  0.00    -0.145 NA 
BRANCH  11  17
HETATM   17  N   UNL     1      -8.641  12.435  68.682  1.00  0.00    -0.361 N  
HETATM   18  H   UNL     1      -9.114  13.005  69.384  1.00  0.00     0.000 HD 
HETATM   19  C   UNL     1      -7.740  13.080  67.861  1.00  0.00    -0.145 C  
HETATM   20  O   UNL     1      -7.080  12.600  66.950  1.00  0.00     0.005 OA 
BRANCH  19  21
HETATM   21  C   UNL     1      -7.561  14.545  68.183  1.00  0.00    -0.125 C  
HETATM   22  C   UNL     1      -6.162  15.053  68.516  1.00  0.00    -0.094 C  
HETATM   23  C   UNL     1      -7.151  14.860  69.621  1.00  0.00    -0.179 C  
BRANCH  21  24
HETATM   24  C   UNL     1      -8.572  15.467  67.502  1.00  0.00    -0.184 A  
HETATM   25  C   UNL     1     -10.529  19.275  66.159  1.00  0.00    -0.488 C  
HETATM   26  C   UNL     1      -9.328  14.998  66.394  1.00  0.00    -0.334 A  
HETATM   27  C   UNL     1      -8.705  16.822  67.857  1.00  0.00    -0.203 A  
HETATM   28  C   UNL     1     -10.144  15.843  65.633  1.00  0.00    -0.388 A  
HETATM   29  C   UNL     1     -10.203  17.167  66.002  1.00  0.00    -0.321 A  
HETATM   30  C   UNL     1      -9.513  17.638  67.094  1.00  0.00    -0.267 A  
HETATM   31  F   UNL     1      -9.881  20.169  65.371  1.00  0.00    -0.385 F  
HETATM   32  O   UNL     1      -9.693  18.974  67.285  1.00  0.00    -0.302 OA 
HETATM   33  F   UNL     1     -11.660  19.870  66.607  1.00  0.00    -0.180 F  
HETATM   34  O   UNL     1     -10.896  18.142  65.359  1.00  0.00    -0.556 OA 
ENDBRANCH  21  24
ENDBRANCH  19  21
ENDBRANCH  11  17
BRANCH  16  35
HETATM   35  C   UNL     1     -10.796   6.207  67.803  1.00  0.00    -0.325 C  
BRANCH  35  36
HETATM   36  C   UNL     1     -10.359   5.965  66.348  1.00  0.00    -0.111 C  
HETATM   37  H   UNL     1      -8.682   6.053  65.286  1.00  0.00     0.000 HD 
HETATM   38  O   UNL     1      -8.952   6.202  66.185  1.00  0.00    -0.152 OA 
BRANCH  36  39
HETATM   39  C   UNL     1     -10.608   4.499  65.968  1.00  0.00    -0.100 C  
HETATM   40  O   UNL     1     -11.595   4.427  64.938  1.00  0.00    -1.053 OA 
HETATM   41  H   UNL     1     -11.748   3.519  64.703  1.00  0.00     0.000 HD 
ENDBRANCH  36  39
ENDBRANCH  35  36
ENDBRANCH  16  35
ENDBRANCH   2   7
TORSDOF 8
ENDMDL
MODEL       51
REMARK 921   NORMALIZED FREE ENERGY PREDICTED BY IDOCK:   -5.97 KCAL/MOL
REMARK 922        TOTAL FREE ENERGY PREDICTED BY IDOCK:   -9.67 KCAL/MOL
REMARK 923 INTER-LIGAND FREE ENERGY PREDICTED BY IDOCK:   -8.71 KCAL/MOL
REMARK 924 INTRA-LIGAND FREE ENERGY PREDICTED BY IDOCK:   -0.96 KCAL/MOL
REMARK 927      BINDING AFFINITY PREDICTED BY RF-SCORE:    0.00 PKD
ROOT
HETATM    1  C   UNL     1     -13.147  14.117  65.153  1.00  0.00    -0.053 C  
HETATM    2  C   UNL     1     -11.793  13.439  64.797  1.00  0.00    -0.415 C  
HETATM    3  C   UNL     1     -12.037  12.693  63.470  1.00  0.00    -0.648 C  
ENDROOT
BRANCH   2   4
HETATM    4  C   UNL     1     -10.749  14.576  64.598  1.00  0.00    -0.310 C  
HETATM    5  H   UNL     1     -10.680  16.576  64.538  1.00  0.00     0.000 HD 
HETATM    6  O   UNL     1     -11.317  15.882  64.659  1.00  0.00    -0.430 OA 
ENDBRANCH   2   4
BRANCH   2   7
HETATM    7  C   UNL     1     -11.391  12.446  65.909  1.00  0.00    -0.356 A  
HETATM    8  C   UNL     1     -10.818  11.195  65.736  1.00  0.00    -0.218 A  
HETATM    9  C   UNL     1     -10.677  10.566  66.985  1.00  0.00    -0.310 A  
HETATM   10  C   UNL     1     -10.196   9.294  67.362  1.00  0.00    -0.304 A  
HETATM   11  C   UNL     1     -10.191   8.912  68.704  1.00  0.00    -0.200 A  
HETATM   12  C   UNL     1     -10.684   9.812  69.653  1.00  0.00    -0.242 A  
HETATM   13  C   UNL     1     -11.150  11.445  67.952  1.00  0.00    -0.261 A  
HETATM   14  C   UNL     1     -11.172  11.076  69.311  1.00  0.00    -0.321 A  
HETATM   15  F   UNL     1     -10.684   9.456  70.951  1.00  0.00    -0.283 F  
HETATM   16  N   UNL     1     -11.531  12.609  67.289  1.00  0.00    -0.321 NA 
BRANCH  11  17
HETATM   17  N   UNL     1      -9.722   7.657  69.146  1.00  0.00    -0.162 N  
HETATM   18  H   UNL     1     -10.357   6.865  69.040  1.00  0.00     0.000 HD 
HETATM   19  C   UNL     1      -8.490   7.394  69.707  1.00  0.00    -0.136 C  
HETATM   20  O   UNL     1      -7.590   8.189  69.940  1.00  0.00    -0.084 OA 
BRANCH  19  21
HETATM   21  C   UNL     1      -8.262   5.936  70.026  1.00  0.00    -0.121 C  
HETATM   22  C   UNL     1      -6.883   5.339  69.766  1.00  0.00    -0.056 C  
HETATM   23  C   UNL     1      -8.003   5.029  68.824  1.00  0.00    -0.081 C  
BRANCH  21  24
HETATM   24  C   UNL     1      -9.131   5.398  71.163  1.00  0.00    -0.163 A  
HETATM   25  C   UNL     1     -11.196   2.420  73.809  1.00  0.00    -0.201 C  
HETATM   26  C   UNL     1      -9.347   6.185  72.326  1.00  0.00    -0.149 A  
HETATM   27  C   UNL     1      -9.639   4.086  71.157  1.00  0.00    -0.242 A  
HETATM   28  C   UNL     1      -9.994   5.682  73.461  1.00  0.00    -0.185 A  
HETATM   29  C   UNL     1     -10.433   4.379  73.413  1.00  0.00    -0.195 A  
HETATM   30  C   UNL     1     -10.272   3.609  72.286  1.00  0.00    -0.118 A  
HETATM   31  F   UNL     1     -10.501   1.504  74.527  1.00  0.00    -0.128 F  
HETATM   32  O   UNL     1     -10.763   2.349  72.443  1.00  0.00    -0.060 OA 
HETATM   33  F   UNL     1     -12.505   2.076  73.866  1.00  0.00    -0.169 F  
HETATM   34  O   UNL     1     -11.034   3.704  74.428  1.00  0.00    -0.099 OA 
ENDBRANCH  21  24
ENDBRANCH  19  21
ENDBRANCH  11  17
BRANCH  16  35
HETATM   35  C   UNL     1     -12.020  13.789  67.993  1.00  0.00    -0.355 C  
BRANCH  35  36
HETATM   36  C   UNL     1     -11.024  14.960  68.059  1.00  0.00    -0.279 C  
HETATM   37  H   UNL     1     -11.038  16.867  68.617  1.00  0.00     0.000 HD 
HETATM   38  O   UNL     1     -11.652  16.143  68.576  1.00  0.00    -0.377 OA 
BRANCH  36  39
HETATM   39  C   UNL     1      -9.877  14.613  69.018  1.00  0.00    -0.177 C  
HETATM   40  O   UNL     1     -10.232  14.983  70.350  1.00  0.00    -0.502 OA 
HETATM   41  H   UNL     1      -9.522  14.767  70.944  1.00  0.00     0.000 HD 
ENDBRANCH  36  39
ENDBRANCH  35  36
ENDBRANCH  16  35
ENDBRANCH   2   7
TORSDOF 8
ENDMDL
MODEL       52
REMARK 921   NORMALIZED FREE ENERGY PREDICTED BY IDOCK:   -5.91 KCAL/MOL
REMARK 922        TOTAL FREE ENERGY PREDICTED BY IDOCK:   -9.59 KCAL/MOL
REMARK 923 INTER-LIGAND FREE ENERGY PREDICTED BY IDOCK:   -8.80 KCAL/MOL
REMARK 924 INTRA-LIGAND FREE ENERGY PREDICTED BY IDOCK:   -0.78 KCAL/MOL
REMARK 927      BINDING AFFINITY PREDICTED BY RF-SCORE:    0.00 PKD
ROOT
HETATM    1  C   UNL     1      -9.594   4.131  69.918  1.00  0.00    -0.282 C  
HETATM    2  C   UNL     1      -9.022   4.784  68.628  1.00  0.00    -0.136 C  
HETATM    3  C   UNL     1      -7.539   4.364  68.571  1.00  0.00    -0.064 C  
ENDROOT
BRANCH   2   4
HETATM    4  C   UNL     1      -9.804   4.182  67.423  1.00  0.00    -0.101 C  
HETATM    5  H   UNL     1     -10.249   4.639  65.526  1.00  0.00     0.000 HD 
HETATM    6  O   UNL     1      -9.772   5.006  66.261  1.00  0.00    -0.154 OA 
ENDBRANCH   2   4
BRANCH   2   7
HETATM    7  C   UNL     1      -9.145   6.320  68.713  1.00  0.00    -0.127 A  
HETATM    8  C   UNL     1      -8.151   7.248  68.439  1.00  0.00    -0.125 A  
HETATM    9  C   UNL     1      -8.628   8.543  68.711  1.00  0.00    -0.131 A  
HETATM   10  C   UNL     1      -8.023   9.815  68.641  1.00  0.00    -0.089 A  
HETATM   11  C   UNL     1      -8.740  10.957  68.999  1.00  0.00    -0.100 A  
HETATM   12  C   UNL     1     -10.058  10.803  69.440  1.00  0.00    -0.139 A  
HETATM   13  C   UNL     1      -9.945   8.421  69.140  1.00  0.00    -0.196 A  
HETATM   14  C   UNL     1     -10.683   9.556  69.525  1.00  0.00    -0.246 A  
HETATM   15  F   UNL     1     -10.761  11.897  69.789  1.00  0.00    -0.095 F  
HETATM   16  N   UNL     1     -10.265   7.067  69.084  1.00  0.00    -0.181 NA 
BRANCH  11  17
HETATM   17  N   UNL     1      -8.194  12.257  68.950  1.00  0.00    -0.349 N  
HETATM   18  H   UNL     1      -7.589  12.532  69.724  1.00  0.00     0.000 HD 
HETATM   19  C   UNL     1      -8.397  13.193  67.958  1.00  0.00    -0.162 C  
HETATM   20  O   UNL     1      -9.091  13.083  66.957  1.00  0.00    -0.216 OA 
BRANCH  19  21
HETATM   21  C   UNL     1      -7.628  14.477  68.161  1.00  0.00    -0.125 C  
HETATM   22  C   UNL     1      -6.166  14.527  67.731  1.00  0.00    -0.152 C  
HETATM   23  C   UNL     1      -6.496  14.413  69.186  1.00  0.00    -0.107 C  
BRANCH  21  24
HETATM   24  C   UNL     1      -8.488  15.740  68.114  1.00  0.00    -0.162 A  
HETATM   25  C   UNL     1     -10.340  19.488  66.485  1.00  0.00    -0.482 C  
HETATM   26  C   UNL     1      -9.631  15.854  68.951  1.00  0.00    -0.230 A  
HETATM   27  C   UNL     1      -8.259  16.763  67.176  1.00  0.00    -0.210 A  
HETATM   28  C   UNL     1     -10.542  16.909  68.833  1.00  0.00    -0.353 A  
HETATM   29  C   UNL     1     -10.290  17.859  67.871  1.00  0.00    -0.389 A  
HETATM   30  C   UNL     1      -9.171  17.794  67.075  1.00  0.00    -0.255 A  
HETATM   31  F   UNL     1     -11.121  19.472  65.377  1.00  0.00    -0.499 F  
HETATM   32  O   UNL     1      -9.109  18.818  66.181  1.00  0.00    -0.445 OA 
HETATM   33  F   UNL     1     -10.068  20.783  66.774  1.00  0.00    -0.560 F  
HETATM   34  O   UNL     1     -11.081  18.923  67.575  1.00  0.00    -0.356 OA 
ENDBRANCH  21  24
ENDBRANCH  19  21
ENDBRANCH  11  17
BRANCH  16  35
HETATM   35  C   UNL     1     -11.596   6.562  69.402  1.00  0.00    -0.180 C  
BRANCH  35  36
HETATM   36  C   UNL     1     -11.908   6.469  70.906  1.00  0.00    -0.331 C  
HETATM   37  H   UNL     1     -10.982   6.852  72.622  1.00  0.00     0.000 HD 
HETATM   38  O   UNL     1     -10.790   6.910  71.693  1.00  0.00    -0.222 OA 
BRANCH  36  39
HETATM   39  C   UNL     1     -13.084   7.392  71.251  1.00  0.00    -0.296 C  
HETATM   40  O   UNL     1     -13.926   6.761  72.216  1.00  0.00    -0.556 OA 
HETATM   41  H   UNL     1     -14.654   7.333  72.430  1.00  0.00     0.000 HD 
ENDBRANCH  36  39
ENDBRANCH  35  36
ENDBRANCH  16  35
ENDBRANCH   2   7
TORSDOF 8
ENDMDL
MODEL       53
REMARK 921   NORMALIZED FREE ENERGY PREDICTED BY IDOCK:   -5.90 KCAL/MOL
REMARK 922        TOTAL FREE ENERGY PREDICTED BY IDOCK:   -9.58 KCAL/MOL
REMARK 923 INTER-LIGAND FREE ENERGY PREDICTED BY IDOCK:   -8.68 KCAL/MOL
REMARK 924 INTRA-LIGAND FREE ENERGY PREDICTED BY IDOCK:   -0.90 KCAL/MOL
REMARK 927      BINDING AFFINITY PREDICTED BY RF-SCORE:    0.00 PKD
ROOT
HETATM    1  C   UNL     1      -7.394   4.202  68.794  1.00  0.00    -0.055 C  
HETATM    2  C   UNL     1      -8.903   4.577  68.734  1.00  0.00    -0.132 C  
HETATM    3  C   UNL     1      -9.489   3.755  67.567  1.00  0.00    -0.237 C  
ENDROOT
BRANCH   2   4
HETATM    4  C   UNL     1      -9.540   4.135  70.084  1.00  0.00    -0.202 C  
HETATM    5  H   UNL     1     -11.007   4.701  71.323  1.00  0.00     0.000 HD 
HETATM    6  O   UNL     1     -10.618   4.970  70.500  1.00  0.00    -0.209 OA 
ENDBRANCH   2   4
BRANCH   2   7
HETATM    7  C   UNL     1      -9.062   6.088  68.464  1.00  0.00    -0.112 A  
HETATM    8  C   UNL     1      -9.824   6.676  67.465  1.00  0.00    -0.158 A  
HETATM    9  C   UNL     1      -9.646   8.071  67.497  1.00  0.00    -0.191 A  
HETATM   10  C   UNL     1     -10.150   9.114  66.692  1.00  0.00    -0.343 A  
HETATM   11  C   UNL     1      -9.781  10.436  66.941  1.00  0.00    -0.181 A  
HETATM   12  C   UNL     1      -8.895  10.693  67.992  1.00  0.00    -0.130 A  
HETATM   13  C   UNL     1      -8.776   8.357  68.543  1.00  0.00    -0.136 A  
HETATM   14  C   UNL     1      -8.375   9.681  68.803  1.00  0.00    -0.111 A  
HETATM   15  F   UNL     1      -8.532  11.965  68.242  1.00  0.00    -0.136 F  
HETATM   16  N   UNL     1      -8.472   7.145  69.159  1.00  0.00    -0.132 NA 
BRANCH  11  17
HETATM   17  N   UNL     1     -10.250  11.524  66.175  1.00  0.00    -0.225 N  
HETATM   18  H   UNL     1      -9.708  11.772  65.347  1.00  0.00     0.000 HD 
HETATM   19  C   UNL     1     -11.370  12.286  66.435  1.00  0.00    -0.354 C  
HETATM   20  O   UNL     1     -12.148  12.177  67.373  1.00  0.00    -0.553 OA 
BRANCH  19  21
HETATM   21  C   UNL     1     -11.643  13.348  65.396  1.00  0.00    -0.335 C  
HETATM   22  C   UNL     1     -12.776  13.121  64.402  1.00  0.00    -0.235 C  
HETATM   23  C   UNL     1     -11.361  12.943  63.949  1.00  0.00    -0.489 C  
BRANCH  21  24
HETATM   24  C   UNL     1     -11.276  14.766  65.834  1.00  0.00    -0.340 A  
HETATM   25  C   UNL     1      -9.552  18.061  68.345  1.00  0.00    -0.334 C  
HETATM   26  C   UNL     1     -11.165  15.802  64.867  1.00  0.00    -0.358 A  
HETATM   27  C   UNL     1     -10.923  15.068  67.162  1.00  0.00    -0.329 A  
HETATM   28  C   UNL     1     -10.675  17.074  65.187  1.00  0.00    -0.066 A  
HETATM   29  C   UNL     1     -10.306  17.300  66.493  1.00  0.00    -0.308 A  
HETATM   30  C   UNL     1     -10.441  16.327  67.455  1.00  0.00    -0.302 A  
HETATM   31  F   UNL     1      -8.225  18.132  68.612  1.00  0.00    -0.290 F  
HETATM   32  O   UNL     1     -10.011  16.743  68.678  1.00  0.00    -0.248 OA 
HETATM   33  F   UNL     1     -10.179  18.953  69.148  1.00  0.00    -0.420 F  
HETATM   34  O   UNL     1      -9.766  18.447  66.980  1.00  0.00    -0.290 OA 
ENDBRANCH  21  24
ENDBRANCH  19  21
ENDBRANCH  11  17
BRANCH  16  35
HETATM   35  C   UNL     1      -7.630   7.060  70.347  1.00  0.00    -0.090 C  
BRANCH  35  36
HETATM   36  C   UNL     1      -8.398   6.936  71.674  1.00  0.00    -0.109 C  
HETATM   37  H   UNL     1      -8.213   5.950  73.390  1.00  0.00     0.000 HD 
HETATM   38  O   UNL     1      -7.738   6.027  72.570  1.00  0.00    -0.099 OA 
BRANCH  36  39
HETATM   39  C   UNL     1      -8.442   8.298  72.379  1.00  0.00    -0.190 C  
HETATM   40  O   UNL     1      -9.202   8.196  73.584  1.00  0.00    -0.246 OA 
HETATM   41  H   UNL     1      -9.228   9.040  74.019  1.00  0.00     0.000 HD 
ENDBRANCH  36  39
ENDBRANCH  35  36
ENDBRANCH  16  35
ENDBRANCH   2   7
TORSDOF 8
ENDMDL
MODEL       54
REMARK 921   NORMALIZED FREE ENERGY PREDICTED BY IDOCK:   -5.89 KCAL/MOL
REMARK 922        TOTAL FREE ENERGY PREDICTED BY IDOCK:   -9.56 KCAL/MOL
REMARK 923 INTER-LIGAND FREE ENERGY PREDICTED BY IDOCK:   -8.91 KCAL/MOL
REMARK 924 INTRA-LIGAND FREE ENERGY PREDICTED BY IDOCK:   -0.65 KCAL/MOL
REMARK 927      BINDING AFFINITY PREDICTED BY RF-SCORE:    0.00 PKD
ROOT
HETATM    1  C   UNL     1      -6.169   7.043  71.571  1.00  0.00    -0.037 C  
HETATM    2  C   UNL     1      -7.592   6.903  72.184  1.00  0.00    -0.092 C  
HETATM    3  C   UNL     1      -8.045   5.465  71.861  1.00  0.00    -0.114 C  
ENDROOT
BRANCH   2   4
HETATM    4  C   UNL     1      -7.450   7.096  73.723  1.00  0.00    -0.099 C  
HETATM    5  H   UNL     1      -6.083   7.704  75.053  1.00  0.00     0.000 HD 
HETATM    6  O   UNL     1      -6.170   7.586  74.114  1.00  0.00    -0.075 OA 
ENDBRANCH   2   4
BRANCH   2   7
HETATM    7  C   UNL     1      -8.549   7.928  71.538  1.00  0.00    -0.121 A  
HETATM    8  C   UNL     1      -8.228   8.863  70.565  1.00  0.00    -0.160 A  
HETATM    9  C   UNL     1      -9.351   9.666  70.296  1.00  0.00    -0.292 A  
HETATM   10  C   UNL     1      -9.550  10.766  69.437  1.00  0.00    -0.056 A  
HETATM   11  C   UNL     1     -10.790  11.404  69.385  1.00  0.00    -0.162 A  
HETATM   12  C   UNL     1     -11.815  10.933  70.212  1.00  0.00    -0.361 A  
HETATM   13  C   UNL     1     -10.391   9.212  71.098  1.00  0.00    -0.317 A  
HETATM   14  C   UNL     1     -11.646   9.849  71.078  1.00  0.00    -0.470 A  
HETATM   15  F   UNL     1     -13.016  11.540  70.171  1.00  0.00    -0.120 F  
HETATM   16  N   UNL     1      -9.905   8.117  71.810  1.00  0.00    -0.179 NA 
BRANCH  11  17
HETATM   17  N   UNL     1     -11.055  12.507  68.546  1.00  0.00    -0.246 N  
HETATM   18  H   UNL     1     -11.464  13.332  68.986  1.00  0.00     0.000 HD 
HETATM   19  C   UNL     1     -10.817  12.580  67.190  1.00  0.00    -0.250 C  
HETATM   20  O   UNL     1     -10.354  11.712  66.464  1.00  0.00    -0.213 OA 
BRANCH  19  21
HETATM   21  C   UNL     1     -11.156  13.920  66.581  1.00  0.00    -0.310 C  
HETATM   22  C   UNL     1     -12.506  14.088  65.893  1.00  0.00    -0.513 C  
HETATM   23  C   UNL     1     -11.273  13.943  65.058  1.00  0.00    -0.342 C  
BRANCH  21  24
HETATM   24  C   UNL     1     -10.491  15.111  67.272  1.00  0.00    -0.271 A  
HETATM   25  C   UNL     1      -7.253  17.944  68.545  1.00  0.00    -0.261 C  
HETATM   26  C   UNL     1     -11.262  16.255  67.615  1.00  0.00    -0.111 A  
HETATM   27  C   UNL     1      -9.101  15.172  67.481  1.00  0.00    -0.187 A  
HETATM   28  C   UNL     1     -10.680  17.433  68.098  1.00  0.00    -0.343 A  
HETATM   29  C   UNL     1      -9.312  17.449  68.242  1.00  0.00    -0.278 A  
HETATM   30  C   UNL     1      -8.547  16.343  67.956  1.00  0.00    -0.185 A  
HETATM   31  F   UNL     1      -6.541  18.663  67.642  1.00  0.00    -0.194 F  
HETATM   32  O   UNL     1      -7.219  16.564  68.153  1.00  0.00    -0.145 OA 
HETATM   33  F   UNL     1      -6.636  18.069  69.744  1.00  0.00    -0.233 F  
HETATM   34  O   UNL     1      -8.567  18.511  68.646  1.00  0.00    -0.325 OA 
ENDBRANCH  21  24
ENDBRANCH  19  21
ENDBRANCH  11  17
BRANCH  16  35
HETATM   35  C   UNL     1     -10.742   7.335  72.713  1.00  0.00    -0.299 C  
BRANCH  35  36
HETATM   36  C   UNL     1     -11.598   6.256  72.027  1.00  0.00    -0.322 C  
HETATM   37  H   UNL     1     -13.454   6.073  71.342  1.00  0.00     0.000 HD 
HETATM   38  O   UNL     1     -12.925   6.739  71.765  1.00  0.00    -0.349 OA 
BRANCH  36  39
HETATM   39  C   UNL     1     -10.984   5.892  70.669  1.00  0.00    -0.287 C  
HETATM   40  O   UNL     1     -11.804   6.398  69.615  1.00  0.00    -0.594 OA 
HETATM   41  H   UNL     1     -11.423   6.172  68.775  1.00  0.00     0.000 HD 
ENDBRANCH  36  39
ENDBRANCH  35  36
ENDBRANCH  16  35
ENDBRANCH   2   7
TORSDOF 8
ENDMDL
MODEL       55
REMARK 921   NORMALIZED FREE ENERGY PREDICTED BY IDOCK:   -5.88 KCAL/MOL
REMARK 922        TOTAL FREE ENERGY PREDICTED BY IDOCK:   -9.54 KCAL/MOL
REMARK 923 INTER-LIGAND FREE ENERGY PREDICTED BY IDOCK:   -9.27 KCAL/MOL
REMARK 924 INTRA-LIGAND FREE ENERGY PREDICTED BY IDOCK:   -0.28 KCAL/MOL
REMARK 927      BINDING AFFINITY PREDICTED BY RF-SCORE:    0.00 PKD
ROOT
HETATM    1  C   UNL     1     -10.074   6.481  72.112  1.00  0.00    -0.194 C  
HETATM    2  C   UNL     1     -10.708   6.552  70.693  1.00  0.00    -0.297 C  
HETATM    3  C   UNL     1     -10.405   5.191  70.033  1.00  0.00    -0.347 C  
ENDROOT
BRANCH   2   4
HETATM    4  C   UNL     1     -12.243   6.734  70.884  1.00  0.00    -0.331 C  
HETATM    5  H   UNL     1     -13.513   7.821  71.985  1.00  0.00     0.000 HD 
HETATM    6  O   UNL     1     -12.577   7.710  71.868  1.00  0.00    -0.310 OA 
ENDBRANCH   2   4
BRANCH   2   7
HETATM    7  C   UNL     1     -10.066   7.700  69.884  1.00  0.00    -0.198 A  
HETATM    8  C   UNL     1      -9.249   8.705  70.377  1.00  0.00    -0.189 A  
HETATM    9  C   UNL     1      -8.934   9.605  69.344  1.00  0.00    -0.186 A  
HETATM   10  C   UNL     1      -8.183  10.798  69.317  1.00  0.00    -0.087 A  
HETATM   11  C   UNL     1      -8.048  11.519  68.129  1.00  0.00    -0.146 A  
HETATM   12  C   UNL     1      -8.686  11.036  66.983  1.00  0.00    -0.141 A  
HETATM   13  C   UNL     1      -9.546   9.141  68.185  1.00  0.00    -0.144 A  
HETATM   14  C   UNL     1      -9.441   9.860  66.979  1.00  0.00    -0.196 A  
HETATM   15  F   UNL     1      -8.564  11.722  65.831  1.00  0.00    -0.143 F  
HETATM   16  N   UNL     1     -10.188   7.950  68.515  1.00  0.00    -0.202 NA 
BRANCH  11  17
HETATM   17  N   UNL     1      -7.310  12.718  68.034  1.00  0.00    -0.103 N  
HETATM   18  H   UNL     1      -6.354  12.643  67.686  1.00  0.00     0.000 HD 
HETATM   19  C   UNL     1      -7.754  13.981  68.366  1.00  0.00    -0.138 C  
HETATM   20  O   UNL     1      -8.847  14.296  68.813  1.00  0.00    -0.168 OA 
BRANCH  19  21
HETATM   21  C   UNL     1      -6.745  15.073  68.098  1.00  0.00    -0.134 C  
HETATM   22  C   UNL     1      -5.281  14.686  67.924  1.00  0.00    -0.073 C  
HETATM   23  C   UNL     1      -5.722  15.313  69.208  1.00  0.00    -0.097 C  
BRANCH  21  24
HETATM   24  C   UNL     1      -7.313  16.287  67.364  1.00  0.00    -0.193 A  
HETATM   25  C   UNL     1     -10.101  19.663  66.381  1.00  0.00    -0.470 C  
HETATM   26  C   UNL     1      -6.451  17.129  66.610  1.00  0.00    -0.267 A  
HETATM   27  C   UNL     1      -8.657  16.681  67.500  1.00  0.00    -0.199 A  
HETATM   28  C   UNL     1      -6.884  18.339  66.055  1.00  0.00    -0.311 A  
HETATM   29  C   UNL     1      -8.198  18.693  66.256  1.00  0.00    -0.237 A  
HETATM   30  C   UNL     1      -9.063  17.877  66.947  1.00  0.00    -0.260 A  
HETATM   31  F   UNL     1     -10.347  20.662  67.264  1.00  0.00    -0.509 F  
HETATM   32  O   UNL     1     -10.312  18.409  67.046  1.00  0.00    -0.358 OA 
HETATM   33  F   UNL     1     -11.000  19.776  65.375  1.00  0.00    -0.584 F  
HETATM   34  O   UNL     1      -8.785  19.845  65.840  1.00  0.00    -0.333 OA 
ENDBRANCH  21  24
ENDBRANCH  19  21
ENDBRANCH  11  17
BRANCH  16  35
HETATM   35  C   UNL     1     -10.888   7.137  67.528  1.00  0.00    -0.241 C  
BRANCH  35  36
HETATM   36  C   UNL     1      -9.974   6.352  66.572  1.00  0.00    -0.103 C  
HETATM   37  H   UNL     1      -8.067   5.799  66.490  1.00  0.00     0.000 HD 
HETATM   38  O   UNL     1      -8.632   6.284  67.081  1.00  0.00    -0.108 OA 
BRANCH  36  39
HETATM   39  C   UNL     1     -10.473   4.906  66.446  1.00  0.00    -0.280 C  
HETATM   40  O   UNL     1     -11.450   4.822  65.408  1.00  0.00    -0.990 OA 
HETATM   41  H   UNL     1     -11.759   3.926  65.330  1.00  0.00     0.000 HD 
ENDBRANCH  36  39
ENDBRANCH  35  36
ENDBRANCH  16  35
ENDBRANCH   2   7
TORSDOF 8
ENDMDL
MODEL       56
REMARK 921   NORMALIZED FREE ENERGY PREDICTED BY IDOCK:   -5.82 KCAL/MOL
REMARK 922        TOTAL FREE ENERGY PREDICTED BY IDOCK:   -9.45 KCAL/MOL
REMARK 923 INTER-LIGAND FREE ENERGY PREDICTED BY IDOCK:   -8.68 KCAL/MOL
REMARK 924 INTRA-LIGAND FREE ENERGY PREDICTED BY IDOCK:   -0.78 KCAL/MOL
REMARK 927      BINDING AFFINITY PREDICTED BY RF-SCORE:    0.00 PKD
ROOT
HETATM    1  C   UNL     1     -12.149  15.520  67.587  1.00  0.00     0.438 C  
HETATM    2  C   UNL     1     -10.777  15.037  68.137  1.00  0.00    -0.256 C  
HETATM    3  C   UNL     1      -9.721  15.953  67.485  1.00  0.00    -0.223 C  
ENDROOT
BRANCH   2   4
HETATM    4  C   UNL     1     -10.801  15.246  69.679  1.00  0.00    -0.286 C  
HETATM    5  H   UNL     1     -12.121  15.624  71.135  1.00  0.00     0.000 HD 
HETATM    6  O   UNL     1     -12.106  15.497  70.194  1.00  0.00    -0.340 OA 
ENDBRANCH   2   4
BRANCH   2   7
HETATM    7  C   UNL     1     -10.536  13.566  67.737  1.00  0.00    -0.240 A  
HETATM    8  C   UNL     1     -10.379  12.488  68.596  1.00  0.00    -0.193 A  
HETATM    9  C   UNL     1     -10.098  11.329  67.850  1.00  0.00    -0.195 A  
HETATM   10  C   UNL     1      -9.820   9.999  68.228  1.00  0.00    -0.163 A  
HETATM   11  C   UNL     1      -9.548   9.034  67.257  1.00  0.00    -0.159 A  
HETATM   12  C   UNL     1      -9.545   9.424  65.914  1.00  0.00    -0.270 A  
HETATM   13  C   UNL     1     -10.100  11.686  66.507  1.00  0.00    -0.207 A  
HETATM   14  C   UNL     1      -9.811  10.735  65.510  1.00  0.00    -0.309 A  
HETATM   15  F   UNL     1      -9.284   8.503  64.968  1.00  0.00    -0.156 F  
HETATM   16  N   UNL     1     -10.423  13.040  66.448  1.00  0.00    -0.273 NA 
BRANCH  11  17
HETATM   17  N   UNL     1      -9.265   7.687  67.567  1.00  0.00    -0.131 N  
HETATM   18  H   UNL     1      -8.323   7.480  67.900  1.00  0.00     0.000 HD 
HETATM   19  C   UNL     1     -10.136   6.623  67.466  1.00  0.00    -0.160 C  
HETATM   20  O   UNL     1     -11.296   6.640  67.077  1.00  0.00    -0.348 OA 
BRANCH  19  21
HETATM   21  C   UNL     1      -9.553   5.308  67.928  1.00  0.00    -0.161 C  
HETATM   22  C   UNL     1      -8.220   4.856  67.342  1.00  0.00    -0.106 C  
HETATM   23  C   UNL     1      -9.483   4.209  66.869  1.00  0.00    -0.212 C  
BRANCH  21  24
HETATM   24  C   UNL     1      -9.940   4.915  69.353  1.00  0.00    -0.282 A  
HETATM   25  C   UNL     1      -9.734   2.853  73.333  1.00  0.00    -0.101 C  
HETATM   26  C   UNL     1     -10.718   5.800  70.148  1.00  0.00    -0.390 A  
HETATM   27  C   UNL     1      -9.453   3.745  69.963  1.00  0.00    -0.264 A  
HETATM   28  C   UNL     1     -10.962   5.566  71.507  1.00  0.00    -0.220 A  
HETATM   29  C   UNL     1     -10.426   4.427  72.059  1.00  0.00    -0.058 A  
HETATM   30  C   UNL     1      -9.704   3.534  71.303  1.00  0.00    -0.166 A  
HETATM   31  F   UNL     1      -8.669   3.005  74.159  1.00  0.00    -0.074 F  
HETATM   32  O   UNL     1      -9.251   2.480  72.035  1.00  0.00    -0.080 OA 
HETATM   33  F   UNL     1     -10.488   1.840  73.821  1.00  0.00    -0.124 F  
HETATM   34  O   UNL     1     -10.513   4.058  73.364  1.00  0.00    -0.148 OA 
ENDBRANCH  21  24
ENDBRANCH  19  21
ENDBRANCH  11  17
BRANCH  16  35
HETATM   35  C   UNL     1     -10.583  13.753  65.186  1.00  0.00    -0.374 C  
BRANCH  35  36
HETATM   36  C   UNL     1     -11.946  13.555  64.502  1.00  0.00    -0.410 C  
HETATM   37  H   UNL     1     -13.273  14.666  63.525  1.00  0.00     0.000 HD 
HETATM   38  O   UNL     1     -12.431  14.788  63.947  1.00  0.00    -0.811 OA 
BRANCH  36  39
HETATM   39  C   UNL     1     -11.802  12.570  63.333  1.00  0.00    -0.503 C  
HETATM   40  O   UNL     1     -12.965  11.746  63.250  1.00  0.00    -0.725 OA 
HETATM   41  H   UNL     1     -12.875  11.137  62.526  1.00  0.00     0.000 HD 
ENDBRANCH  36  39
ENDBRANCH  35  36
ENDBRANCH  16  35
ENDBRANCH   2   7
TORSDOF 8
ENDMDL
MODEL       57
REMARK 921   NORMALIZED FREE ENERGY PREDICTED BY IDOCK:   -5.81 KCAL/MOL
REMARK 922        TOTAL FREE ENERGY PREDICTED BY IDOCK:   -9.45 KCAL/MOL
REMARK 923 INTER-LIGAND FREE ENERGY PREDICTED BY IDOCK:   -8.59 KCAL/MOL
REMARK 924 INTRA-LIGAND FREE ENERGY PREDICTED BY IDOCK:   -0.86 KCAL/MOL
REMARK 927      BINDING AFFINITY PREDICTED BY RF-SCORE:    0.00 PKD
ROOT
HETATM    1  C   UNL     1      -8.402   4.231  64.533  1.00  0.00    -0.107 C  
HETATM    2  C   UNL     1      -7.926   4.340  66.010  1.00  0.00    -0.098 C  
HETATM    3  C   UNL     1      -8.642   3.200  66.763  1.00  0.00    -0.121 C  
ENDROOT
BRANCH   2   4
HETATM    4  C   UNL     1      -6.386   4.112  66.014  1.00  0.00    -0.033 C  
HETATM    5  H   UNL     1      -4.716   5.045  65.427  1.00  0.00     0.000 HD 
HETATM    6  O   UNL     1      -5.655   5.184  65.424  1.00  0.00    -0.013 OA 
ENDBRANCH   2   4
BRANCH   2   7
HETATM    7  C   UNL     1      -8.330   5.710  66.596  1.00  0.00    -0.112 A  
HETATM    8  C   UNL     1      -8.963   6.745  65.924  1.00  0.00    -0.095 A  
HETATM    9  C   UNL     1      -9.084   7.856  66.777  1.00  0.00    -0.189 A  
HETATM   10  C   UNL     1      -9.605   9.152  66.584  1.00  0.00    -0.263 A  
HETATM   11  C   UNL     1      -9.578  10.084  67.623  1.00  0.00    -0.148 A  
HETATM   12  C   UNL     1      -9.011   9.703  68.843  1.00  0.00    -0.144 A  
HETATM   13  C   UNL     1      -8.538   7.501  68.005  1.00  0.00    -0.122 A  
HETATM   14  C   UNL     1      -8.482   8.428  69.062  1.00  0.00    -0.123 A  
HETATM   15  F   UNL     1      -8.978  10.593  69.853  1.00  0.00    -0.091 F  
HETATM   16  N   UNL     1      -8.132   6.172  67.899  1.00  0.00    -0.113 NA 
BRANCH  11  17
HETATM   17  N   UNL     1     -10.084  11.395  67.496  1.00  0.00    -0.182 N  
HETATM   18  H   UNL     1      -9.479  12.079  67.041  1.00  0.00     0.000 HD 
HETATM   19  C   UNL     1     -11.316  11.842  67.925  1.00  0.00    -0.292 C  
HETATM   20  O   UNL     1     -12.184  11.203  68.503  1.00  0.00    -0.600 OA 
BRANCH  19  21
HETATM   21  C   UNL     1     -11.590  13.289  67.592  1.00  0.00    -0.386 C  
HETATM   22  C   UNL     1     -12.380  13.610  66.328  1.00  0.00    -0.464 C  
HETATM   23  C   UNL     1     -10.899  13.822  66.338  1.00  0.00    -0.287 C  
BRANCH  21  24
HETATM   24  C   UNL     1     -11.682  14.208  68.811  1.00  0.00    -0.380 A  
HETATM   25  C   UNL     1     -12.538  15.515  73.018  1.00  0.00    -0.448 C  
HETATM   26  C   UNL     1     -10.833  15.343  68.912  1.00  0.00    -0.251 A  
HETATM   27  C   UNL     1     -12.506  13.907  69.911  1.00  0.00    -0.285 A  
HETATM   28  C   UNL     1     -10.758  16.121  70.073  1.00  0.00    -0.318 A  
HETATM   29  C   UNL     1     -11.556  15.755  71.132  1.00  0.00    -0.419 A  
HETATM   30  C   UNL     1     -12.417  14.687  71.046  1.00  0.00    -0.329 A  
HETATM   31  F   UNL     1     -11.930  14.932  74.081  1.00  0.00    -0.619 F  
HETATM   32  O   UNL     1     -13.108  14.482  72.201  1.00  0.00    -0.317 OA 
HETATM   33  F   UNL     1     -13.539  16.292  73.494  1.00  0.00    -0.652 F  
HETATM   34  O   UNL     1     -11.585  16.355  72.351  1.00  0.00    -0.435 OA 
ENDBRANCH  21  24
ENDBRANCH  19  21
ENDBRANCH  11  17
BRANCH  16  35
HETATM   35  C   UNL     1      -7.566   5.433  69.021  1.00  0.00    -0.085 C  
BRANCH  35  36
HETATM   36  C   UNL     1      -6.036   5.524  69.148  1.00  0.00    -0.024 C  
HETATM   37  H   UNL     1      -4.557   6.577  68.339  1.00  0.00     0.000 HD 
HETATM   38  O   UNL     1      -5.503   6.521  68.261  1.00  0.00    -0.010 OA 
BRANCH  36  39
HETATM   39  C   UNL     1      -5.657   5.951  70.573  1.00  0.00    -0.013 C  
HETATM   40  O   UNL     1      -5.392   7.354  70.602  1.00  0.00    -0.023 OA 
HETATM   41  H   UNL     1      -5.158   7.618  71.484  1.00  0.00     0.000 HD 
ENDBRANCH  36  39
ENDBRANCH  35  36
ENDBRANCH  16  35
ENDBRANCH   2   7
TORSDOF 8
ENDMDL
MODEL       58
REMARK 921   NORMALIZED FREE ENERGY PREDICTED BY IDOCK:   -5.80 KCAL/MOL
REMARK 922        TOTAL FREE ENERGY PREDICTED BY IDOCK:   -9.43 KCAL/MOL
REMARK 923 INTER-LIGAND FREE ENERGY PREDICTED BY IDOCK:   -8.31 KCAL/MOL
REMARK 924 INTRA-LIGAND FREE ENERGY PREDICTED BY IDOCK:   -1.13 KCAL/MOL
REMARK 927      BINDING AFFINITY PREDICTED BY RF-SCORE:    0.00 PKD
ROOT
HETATM    1  C   UNL     1     -11.206  16.927  68.298  1.00  0.00    -0.105 C  
HETATM    2  C   UNL     1      -9.827  16.359  67.856  1.00  0.00    -0.238 C  
HETATM    3  C   UNL     1      -9.684  16.725  66.365  1.00  0.00    -0.309 C  
ENDROOT
BRANCH   2   4
HETATM    4  C   UNL     1      -8.739  17.084  68.701  1.00  0.00    -0.261 C  
HETATM    5  H   UNL     1      -7.222  18.363  68.439  1.00  0.00     0.000 HD 
HETATM    6  O   UNL     1      -7.885  17.920  67.924  1.00  0.00    -0.220 OA 
ENDBRANCH   2   4
BRANCH   2   7
HETATM    7  C   UNL     1      -9.804  14.826  68.040  1.00  0.00    -0.218 A  
HETATM    8  C   UNL     1     -10.845  14.030  68.492  1.00  0.00    -0.268 A  
HETATM    9  C   UNL     1     -10.407  12.698  68.599  1.00  0.00    -0.192 A  
HETATM   10  C   UNL     1     -11.044  11.519  69.039  1.00  0.00    -0.302 A  
HETATM   11  C   UNL     1     -10.348  10.309  69.062  1.00  0.00    -0.211 A  
HETATM   12  C   UNL     1      -9.010  10.304  68.654  1.00  0.00    -0.144 A  
HETATM   13  C   UNL     1      -9.080  12.661  68.188  1.00  0.00    -0.204 A  
HETATM   14  C   UNL     1      -8.351  11.457  68.219  1.00  0.00    -0.152 A  
HETATM   15  F   UNL     1      -8.328   9.144  68.672  1.00  0.00    -0.117 F  
HETATM   16  N   UNL     1      -8.741  13.954  67.797  1.00  0.00    -0.175 NA 
BRANCH  11  17
HETATM   17  N   UNL     1     -10.926   9.095  69.488  1.00  0.00    -0.386 N  
HETATM   18  H   UNL     1     -11.388   8.530  68.774  1.00  0.00     0.000 HD 
HETATM   19  C   UNL     1     -10.929   8.596  70.773  1.00  0.00    -0.245 C  
HETATM   20  O   UNL     1     -10.453   9.109  71.776  1.00  0.00    -0.352 OA 
BRANCH  19  21
HETATM   21  C   UNL     1     -11.581   7.239  70.901  1.00  0.00    -0.331 C  
HETATM   22  C   UNL     1     -13.033   7.169  71.359  1.00  0.00    -0.419 C  
HETATM   23  C   UNL     1     -11.946   6.813  72.323  1.00  0.00    -0.245 C  
BRANCH  21  24
HETATM   24  C   UNL     1     -11.021   6.180  69.951  1.00  0.00    -0.458 A  
HETATM   25  C   UNL     1      -9.523   4.340  66.143  1.00  0.00    -0.178 C  
HETATM   26  C   UNL     1     -10.261   5.095  70.465  1.00  0.00    -0.330 A  
HETATM   27  C   UNL     1     -11.130   6.300  68.554  1.00  0.00    -0.397 A  
HETATM   28  C   UNL     1      -9.590   4.191  69.633  1.00  0.00    -0.277 A  
HETATM   29  C   UNL     1      -9.698   4.381  68.275  1.00  0.00    -0.107 A  
HETATM   30  C   UNL     1     -10.460   5.399  67.751  1.00  0.00    -0.140 A  
HETATM   31  F   UNL     1      -8.437   4.829  65.496  1.00  0.00    -0.114 F  
HETATM   32  O   UNL     1     -10.429   5.425  66.391  1.00  0.00    -0.254 OA 
HETATM   33  F   UNL     1     -10.127   3.453  65.316  1.00  0.00    -0.122 F  
HETATM   34  O   UNL     1      -9.082   3.642  67.316  1.00  0.00    -0.139 OA 
ENDBRANCH  21  24
ENDBRANCH  19  21
ENDBRANCH  11  17
BRANCH  16  35
HETATM   35  C   UNL     1      -7.435  14.288  67.241  1.00  0.00    -0.055 C  
BRANCH  35  36
HETATM   36  C   UNL     1      -6.315  14.461  68.282  1.00  0.00    -0.118 C  
HETATM   37  H   UNL     1      -4.840  13.369  69.045  1.00  0.00     0.000 HD 
HETATM   38  O   UNL     1      -5.532  13.263  68.401  1.00  0.00    -0.073 OA 
BRANCH  36  39
HETATM   39  C   UNL     1      -5.358  15.574  67.836  1.00  0.00    -0.127 C  
HETATM   40  O   UNL     1      -5.925  16.287  66.736  1.00  0.00    -0.323 OA 
HETATM   41  H   UNL     1      -5.332  16.976  66.461  1.00  0.00     0.000 HD 
ENDBRANCH  36  39
ENDBRANCH  35  36
ENDBRANCH  16  35
ENDBRANCH   2   7
TORSDOF 8
ENDMDL
MODEL       59
REMARK 921   NORMALIZED FREE ENERGY PREDICTED BY IDOCK:   -5.79 KCAL/MOL
REMARK 922        TOTAL FREE ENERGY PREDICTED BY IDOCK:   -9.42 KCAL/MOL
REMARK 923 INTER-LIGAND FREE ENERGY PREDICTED BY IDOCK:   -8.56 KCAL/MOL
REMARK 924 INTRA-LIGAND FREE ENERGY PREDICTED BY IDOCK:   -0.85 KCAL/MOL
REMARK 927      BINDING AFFINITY PREDICTED BY RF-SCORE:    0.00 PKD
ROOT
HETATM    1  C   UNL     1      -9.451   5.804  73.682  1.00  0.00    -0.139 C  
HETATM    2  C   UNL     1     -10.082   5.469  72.300  1.00  0.00    -0.225 C  
HETATM    3  C   UNL     1      -9.433   4.143  71.855  1.00  0.00    -0.201 C  
ENDROOT
BRANCH   2   4
HETATM    4  C   UNL     1     -11.611   5.276  72.528  1.00  0.00    -0.094 C  
HETATM    5  H   UNL     1     -13.317   6.296  72.292  1.00  0.00     0.000 HD 
HETATM    6  O   UNL     1     -12.385   6.413  72.154  1.00  0.00    -0.307 OA 
ENDBRANCH   2   4
BRANCH   2   7
HETATM    7  C   UNL     1      -9.766   6.592  71.288  1.00  0.00    -0.173 A  
HETATM    8  C   UNL     1      -9.113   7.786  71.554  1.00  0.00    -0.158 A  
HETATM    9  C   UNL     1      -9.090   8.578  70.392  1.00  0.00    -0.164 A  
HETATM   10  C   UNL     1      -8.594   9.872  70.131  1.00  0.00    -0.141 A  
HETATM   11  C   UNL     1      -8.729  10.435  68.861  1.00  0.00    -0.157 A  
HETATM   12  C   UNL     1      -9.376   9.692  67.870  1.00  0.00    -0.128 A  
HETATM   13  C   UNL     1      -9.719   7.857  69.383  1.00  0.00    -0.170 A  
HETATM   14  C   UNL     1      -9.883   8.410  68.099  1.00  0.00    -0.196 A  
HETATM   15  F   UNL     1      -9.512  10.224  66.640  1.00  0.00    -0.171 F  
HETATM   16  N   UNL     1     -10.076   6.626  69.928  1.00  0.00    -0.174 NA 
BRANCH  11  17
HETATM   17  N   UNL     1      -8.253  11.723  68.535  1.00  0.00    -0.202 N  
HETATM   18  H   UNL     1      -7.250  11.814  68.368  1.00  0.00     0.000 HD 
HETATM   19  C   UNL     1      -9.009  12.870  68.419  1.00  0.00    -0.124 C  
HETATM   20  O   UNL     1     -10.214  12.992  68.591  1.00  0.00    -0.232 OA 
BRANCH  19  21
HETATM   21  C   UNL     1      -8.217  14.085  68.000  1.00  0.00    -0.155 C  
HETATM   22  C   UNL     1      -6.763  13.899  67.581  1.00  0.00    -0.189 C  
HETATM   23  C   UNL     1      -7.067  14.476  68.927  1.00  0.00    -0.118 C  
BRANCH  21  24
HETATM   24  C   UNL     1      -9.058  15.203  67.383  1.00  0.00    -0.199 A  
HETATM   25  C   UNL     1     -10.412  19.361  66.377  1.00  0.00    -0.488 C  
HETATM   26  C   UNL     1      -9.813  14.956  66.204  1.00  0.00    -0.332 A  
HETATM   27  C   UNL     1      -9.025  16.521  67.874  1.00  0.00    -0.205 A  
HETATM   28  C   UNL     1     -10.467  15.978  65.506  1.00  0.00    -0.426 A  
HETATM   29  C   UNL     1     -10.365  17.253  66.011  1.00  0.00    -0.305 A  
HETATM   30  C   UNL     1      -9.675  17.513  67.171  1.00  0.00    -0.279 A  
HETATM   31  F   UNL     1      -9.610  20.229  65.713  1.00  0.00    -0.445 F  
HETATM   32  O   UNL     1      -9.683  18.835  67.495  1.00  0.00    -0.295 OA 
HETATM   33  F   UNL     1     -11.474  20.060  66.844  1.00  0.00    -0.266 F  
HETATM   34  O   UNL     1     -10.887  18.375  65.449  1.00  0.00    -0.577 OA 
ENDBRANCH  21  24
ENDBRANCH  19  21
ENDBRANCH  11  17
BRANCH  16  35
HETATM   35  C   UNL     1     -10.704   5.572  69.139  1.00  0.00    -0.190 C  
BRANCH  35  36
HETATM   36  C   UNL     1      -9.760   4.845  68.166  1.00  0.00    -0.148 C  
HETATM   37  H   UNL     1      -9.167   2.981  67.816  1.00  0.00     0.000 HD 
HETATM   38  O   UNL     1      -9.750   3.430  68.417  1.00  0.00    -0.125 OA 
BRANCH  36  39
HETATM   39  C   UNL     1     -10.252   5.035  66.725  1.00  0.00    -0.248 C  
HETATM   40  O   UNL     1     -10.274   3.776  66.051  1.00  0.00    -0.420 OA 
HETATM   41  H   UNL     1     -10.578   3.895  65.159  1.00  0.00     0.000 HD 
ENDBRANCH  36  39
ENDBRANCH  35  36
ENDBRANCH  16  35
ENDBRANCH   2   7
TORSDOF 8
ENDMDL
MODEL       60
REMARK 921   NORMALIZED FREE ENERGY PREDICTED BY IDOCK:   -5.77 KCAL/MOL
REMARK 922        TOTAL FREE ENERGY PREDICTED BY IDOCK:   -9.39 KCAL/MOL
REMARK 923 INTER-LIGAND FREE ENERGY PREDICTED BY IDOCK:   -8.78 KCAL/MOL
REMARK 924 INTRA-LIGAND FREE ENERGY PREDICTED BY IDOCK:   -0.61 KCAL/MOL
REMARK 927      BINDING AFFINITY PREDICTED BY RF-SCORE:    0.00 PKD
ROOT
HETATM    1  C   UNL     1      -7.044  20.458  68.512  1.00  0.00    -0.141 C  
HETATM    2  C   UNL     1      -6.311  19.088  68.433  1.00  0.00    -0.247 C  
HETATM    3  C   UNL     1      -5.419  19.165  67.177  1.00  0.00    -0.160 C  
ENDROOT
BRANCH   2   4
HETATM    4  C   UNL     1      -5.436  18.960  69.715  1.00  0.00    -0.213 C  
HETATM    5  H   UNL     1      -5.365  19.687  71.578  1.00  0.00     0.000 HD 
HETATM    6  O   UNL     1      -5.898  19.766  70.796  1.00  0.00    -0.262 OA 
ENDBRANCH   2   4
BRANCH   2   7
HETATM    7  C   UNL     1      -7.341  17.945  68.295  1.00  0.00    -0.249 A  
HETATM    8  C   UNL     1      -7.490  16.858  69.143  1.00  0.00    -0.180 A  
HETATM    9  C   UNL     1      -8.480  15.999  68.636  1.00  0.00    -0.208 A  
HETATM   10  C   UNL     1      -8.984  14.758  69.080  1.00  0.00    -0.078 A  
HETATM   11  C   UNL     1      -9.975  14.099  68.352  1.00  0.00    -0.235 A  
HETATM   12  C   UNL     1     -10.438  14.690  67.173  1.00  0.00    -0.268 A  
HETATM   13  C   UNL     1      -8.970  16.569  67.466  1.00  0.00    -0.196 A  
HETATM   14  C   UNL     1      -9.956  15.915  66.704  1.00  0.00    -0.267 A  
HETATM   15  F   UNL     1     -11.395  14.064  66.462  1.00  0.00    -0.306 F  
HETATM   16  N   UNL     1      -8.306  17.783  67.300  1.00  0.00    -0.217 NA 
BRANCH  11  17
HETATM   17  N   UNL     1     -10.521  12.858  68.743  1.00  0.00    -0.386 N  
HETATM   18  H   UNL     1     -11.459  12.875  69.145  1.00  0.00     0.000 HD 
HETATM   19  C   UNL     1      -9.913  11.625  68.636  1.00  0.00    -0.184 C  
HETATM   20  O   UNL     1      -8.796  11.377  68.205  1.00  0.00    -0.148 OA 
BRANCH  19  21
HETATM   21  C   UNL     1     -10.780  10.474  69.090  1.00  0.00    -0.266 C  
HETATM   22  C   UNL     1     -12.261  10.732  69.344  1.00  0.00    -0.242 C  
HETATM   23  C   UNL     1     -11.335  10.584  70.509  1.00  0.00    -0.400 C  
BRANCH  21  24
HETATM   24  C   UNL     1     -10.310   9.103  68.603  1.00  0.00    -0.233 A  
HETATM   25  C   UNL     1      -9.150   4.772  68.762  1.00  0.00    -0.112 C  
HETATM   26  C   UNL     1     -10.488   8.733  67.242  1.00  0.00    -0.353 A  
HETATM   27  C   UNL     1      -9.807   8.130  69.485  1.00  0.00    -0.181 A  
HETATM   28  C   UNL     1     -10.229   7.438  66.779  1.00  0.00    -0.313 A  
HETATM   29  C   UNL     1      -9.777   6.517  67.695  1.00  0.00    -0.123 A  
HETATM   30  C   UNL     1      -9.559   6.859  69.009  1.00  0.00    -0.136 A  
HETATM   31  F   UNL     1     -10.024   3.816  69.163  1.00  0.00    -0.226 F  
HETATM   32  O   UNL     1      -9.125   5.807  69.755  1.00  0.00    -0.133 OA 
HETATM   33  F   UNL     1      -7.923   4.203  68.698  1.00  0.00    -0.071 F  
HETATM   34  O   UNL     1      -9.520   5.206  67.446  1.00  0.00    -0.122 OA 
ENDBRANCH  21  24
ENDBRANCH  19  21
ENDBRANCH  11  17
BRANCH  16  35
HETATM   35  C   UNL     1      -8.608  18.698  66.205  1.00  0.00    -0.217 C  
BRANCH  35  36
HETATM   36  C   UNL     1      -9.623  19.801  66.549  1.00  0.00    -0.406 C  
HETATM   37  H   UNL     1     -10.953  20.922  65.587  1.00  0.00     0.000 HD 
HETATM   38  O   UNL     1     -10.326  20.240  65.375  1.00  0.00    -0.272 OA 
BRANCH  36  39
HETATM   39  C   UNL     1     -10.679  19.252  67.518  1.00  0.00    -0.463 C  
HETATM   40  O   UNL     1     -10.303  19.552  68.862  1.00  0.00    -0.565 OA 
HETATM   41  H   UNL     1     -10.958  19.212  69.462  1.00  0.00     0.000 HD 
ENDBRANCH  36  39
ENDBRANCH  35  36
ENDBRANCH  16  35
ENDBRANCH   2   7
TORSDOF 8
ENDMDL
MODEL       61
REMARK 921   NORMALIZED FREE ENERGY PREDICTED BY IDOCK:   -5.71 KCAL/MOL
REMARK 922        TOTAL FREE ENERGY PREDICTED BY IDOCK:   -9.29 KCAL/MOL
REMARK 923 INTER-LIGAND FREE ENERGY PREDICTED BY IDOCK:   -8.86 KCAL/MOL
REMARK 924 INTRA-LIGAND FREE ENERGY PREDICTED BY IDOCK:   -0.43 KCAL/MOL
REMARK 927      BINDING AFFINITY PREDICTED BY RF-SCORE:    0.00 PKD
ROOT
HETATM    1  C   UNL     1      -7.557   4.276  66.815  1.00  0.00    -0.085 C  
HETATM    2  C   UNL     1      -9.022   4.626  67.205  1.00  0.00    -0.118 C  
HETATM    3  C   UNL     1      -9.896   4.112  66.043  1.00  0.00    -0.206 C  
ENDROOT
BRANCH   2   4
HETATM    4  C   UNL     1      -9.347   3.849  68.515  1.00  0.00    -0.163 C  
HETATM    5  H   UNL     1      -9.347   1.968  69.198  1.00  0.00     0.000 HD 
HETATM    6  O   UNL     1      -9.150   2.442  68.399  1.00  0.00    -0.126 OA 
ENDBRANCH   2   4
BRANCH   2   7
HETATM    7  C   UNL     1      -9.177   6.154  67.362  1.00  0.00    -0.112 A  
HETATM    8  C   UNL     1      -9.679   7.038  66.419  1.00  0.00    -0.133 A  
HETATM    9  C   UNL     1      -9.581   8.353  66.907  1.00  0.00    -0.264 A  
HETATM   10  C   UNL     1      -9.906   9.604  66.344  1.00  0.00    -0.309 A  
HETATM   11  C   UNL     1      -9.678  10.780  67.061  1.00  0.00    -0.176 A  
HETATM   12  C   UNL     1      -9.111  10.682  68.334  1.00  0.00    -0.156 A  
HETATM   13  C   UNL     1      -9.029   8.285  68.182  1.00  0.00    -0.139 A  
HETATM   14  C   UNL     1      -8.773   9.458  68.917  1.00  0.00    -0.132 A  
HETATM   15  F   UNL     1      -8.886  11.809  69.036  1.00  0.00    -0.077 F  
HETATM   16  N   UNL     1      -8.839   6.935  68.469  1.00  0.00    -0.124 NA 
BRANCH  11  17
HETATM   17  N   UNL     1      -9.983  12.062  66.556  1.00  0.00    -0.201 N  
HETATM   18  H   UNL     1      -9.198  12.625  66.227  1.00  0.00     0.000 HD 
HETATM   19  C   UNL     1     -11.236  12.628  66.462  1.00  0.00    -0.296 C  
HETATM   20  O   UNL     1     -12.304  12.144  66.809  1.00  0.00    -0.429 OA 
BRANCH  19  21
HETATM   21  C   UNL     1     -11.243  13.997  65.823  1.00  0.00    -0.303 C  
HETATM   22  C   UNL     1     -12.258  14.283  64.722  1.00  0.00    -0.456 C  
HETATM   23  C   UNL     1     -10.829  14.041  64.353  1.00  0.00    -0.265 C  
BRANCH  21  24
HETATM   24  C   UNL     1     -10.766  15.122  66.741  1.00  0.00    -0.311 A  
HETATM   25  C   UNL     1      -9.774  19.280  68.106  1.00  0.00    -0.363 C  
HETATM   26  C   UNL     1     -10.799  14.951  68.152  1.00  0.00    -0.256 A  
HETATM   27  C   UNL     1     -10.398  16.386  66.244  1.00  0.00    -0.337 A  
HETATM   28  C   UNL     1     -10.531  16.000  69.039  1.00  0.00    -0.246 A  
HETATM   29  C   UNL     1     -10.218  17.224  68.496  1.00  0.00    -0.358 A  
HETATM   30  C   UNL     1     -10.139  17.406  67.136  1.00  0.00    -0.307 A  
HETATM   31  F   UNL     1     -10.719  20.250  68.175  1.00  0.00    -0.439 F  
HETATM   32  O   UNL     1      -9.828  18.688  66.800  1.00  0.00    -0.308 OA 
HETATM   33  F   UNL     1      -8.567  19.873  68.262  1.00  0.00    -0.356 F  
HETATM   34  O   UNL     1      -9.977  18.366  69.192  1.00  0.00    -0.322 OA 
ENDBRANCH  21  24
ENDBRANCH  19  21
ENDBRANCH  11  17
BRANCH  16  35
HETATM   35  C   UNL     1      -8.333   6.472  69.756  1.00  0.00    -0.127 C  
BRANCH  35  36
HETATM   36  C   UNL     1      -9.354   6.520  70.905  1.00  0.00    -0.161 C  
HETATM   37  H   UNL     1      -9.894   7.791  72.335  1.00  0.00     0.000 HD 
HETATM   38  O   UNL     1      -9.264   7.761  71.625  1.00  0.00    -0.132 OA 
BRANCH  36  39
HETATM   39  C   UNL     1     -10.779   6.440  70.339  1.00  0.00    -0.262 C  
HETATM   40  O   UNL     1     -11.718   6.323  71.409  1.00  0.00    -0.309 OA 
HETATM   41  H   UNL     1     -12.599   6.273  71.057  1.00  0.00     0.000 HD 
ENDBRANCH  36  39
ENDBRANCH  35  36
ENDBRANCH  16  35
ENDBRANCH   2   7
TORSDOF 8
ENDMDL
MODEL       62
REMARK 921   NORMALIZED FREE ENERGY PREDICTED BY IDOCK:   -5.70 KCAL/MOL
REMARK 922        TOTAL FREE ENERGY PREDICTED BY IDOCK:   -9.28 KCAL/MOL
REMARK 923 INTER-LIGAND FREE ENERGY PREDICTED BY IDOCK:   -8.11 KCAL/MOL
REMARK 924 INTRA-LIGAND FREE ENERGY PREDICTED BY IDOCK:   -1.17 KCAL/MOL
REMARK 927      BINDING AFFINITY PREDICTED BY RF-SCORE:    0.00 PKD
ROOT
HETATM    1  C   UNL     1      -8.841   6.633  72.409  1.00  0.00    -0.134 C  
HETATM    2  C   UNL     1      -8.856   5.903  71.035  1.00  0.00    -0.141 C  
HETATM    3  C   UNL     1      -7.486   5.203  70.921  1.00  0.00    -0.078 C  
ENDROOT
BRANCH   2   4
HETATM    4  C   UNL     1     -10.002   4.850  71.087  1.00  0.00    -0.208 C  
HETATM    5  H   UNL     1     -10.248   2.871  70.920  1.00  0.00     0.000 HD 
HETATM    6  O   UNL     1      -9.550   3.513  70.887  1.00  0.00    -0.156 OA 
ENDBRANCH   2   4
BRANCH   2   7
HETATM    7  C   UNL     1      -9.036   6.928  69.895  1.00  0.00    -0.144 A  
HETATM    8  C   UNL     1      -9.043   8.309  70.015  1.00  0.00    -0.150 A  
HETATM    9  C   UNL     1      -9.315   8.889  68.763  1.00  0.00    -0.137 A  
HETATM   10  C   UNL     1      -9.470  10.228  68.348  1.00  0.00    -0.149 A  
HETATM   11  C   UNL     1      -9.767  10.522  67.016  1.00  0.00    -0.177 A  
HETATM   12  C   UNL     1      -9.920   9.461  66.119  1.00  0.00    -0.281 A  
HETATM   13  C   UNL     1      -9.461   7.854  67.846  1.00  0.00    -0.145 A  
HETATM   14  C   UNL     1      -9.778   8.124  66.502  1.00  0.00    -0.309 A  
HETATM   15  F   UNL     1     -10.207   9.732  64.832  1.00  0.00    -0.366 F  
HETATM   16  N   UNL     1      -9.233   6.666  68.537  1.00  0.00    -0.128 NA 
BRANCH  11  17
HETATM   17  N   UNL     1      -9.932  11.839  66.536  1.00  0.00    -0.200 N  
HETATM   18  H   UNL     1      -9.183  12.213  65.952  1.00  0.00     0.000 HD 
HETATM   19  C   UNL     1     -11.006  12.670  66.778  1.00  0.00    -0.262 C  
HETATM   20  O   UNL     1     -11.996  12.435  67.457  1.00  0.00    -0.482 OA 
BRANCH  19  21
HETATM   21  C   UNL     1     -10.916  14.004  66.076  1.00  0.00    -0.298 C  
HETATM   22  C   UNL     1     -11.926  14.320  64.978  1.00  0.00    -0.412 C  
HETATM   23  C   UNL     1     -10.527  13.949  64.599  1.00  0.00    -0.419 C  
BRANCH  21  24
HETATM   24  C   UNL     1     -10.336  15.128  66.934  1.00  0.00    -0.272 A  
HETATM   25  C   UNL     1      -7.478  18.305  68.303  1.00  0.00    -0.279 C  
HETATM   26  C   UNL     1     -11.196  15.929  67.733  1.00  0.00    -0.258 A  
HETATM   27  C   UNL     1      -8.976  15.485  66.876  1.00  0.00    -0.272 A  
HETATM   28  C   UNL     1     -10.744  17.070  68.407  1.00  0.00    -0.361 A  
HETATM   29  C   UNL     1      -9.414  17.394  68.281  1.00  0.00    -0.290 A  
HETATM   30  C   UNL     1      -8.552  16.614  67.547  1.00  0.00    -0.189 A  
HETATM   31  F   UNL     1      -7.170  19.369  67.522  1.00  0.00    -0.227 F  
HETATM   32  O   UNL     1      -7.284  17.108  67.536  1.00  0.00    -0.151 OA 
HETATM   33  F   UNL     1      -6.611  18.297  69.344  1.00  0.00    -0.248 F  
HETATM   34  O   UNL     1      -8.806  18.484  68.817  1.00  0.00    -0.312 OA 
ENDBRANCH  21  24
ENDBRANCH  19  21
ENDBRANCH  11  17
BRANCH  16  35
HETATM   35  C   UNL     1      -9.237   5.365  67.880  1.00  0.00    -0.110 C  
BRANCH  35  36
HETATM   36  C   UNL     1      -7.928   5.004  67.156  1.00  0.00    -0.100 C  
HETATM   37  H   UNL     1      -6.630   3.499  67.135  1.00  0.00     0.000 HD 
HETATM   38  O   UNL     1      -7.439   3.722  67.582  1.00  0.00    -0.066 OA 
BRANCH  36  39
HETATM   39  C   UNL     1      -8.181   4.902  65.646  1.00  0.00    -0.115 C  
HETATM   40  O   UNL     1      -7.642   6.049  64.988  1.00  0.00    -0.080 OA 
HETATM   41  H   UNL     1      -7.799   5.985  64.053  1.00  0.00     0.000 HD 
ENDBRANCH  36  39
ENDBRANCH  35  36
ENDBRANCH  16  35
ENDBRANCH   2   7
TORSDOF 8
ENDMDL
MODEL       63
REMARK 921   NORMALIZED FREE ENERGY PREDICTED BY IDOCK:   -5.69 KCAL/MOL
REMARK 922        TOTAL FREE ENERGY PREDICTED BY IDOCK:   -9.27 KCAL/MOL
REMARK 923 INTER-LIGAND FREE ENERGY PREDICTED BY IDOCK:   -8.40 KCAL/MOL
REMARK 924 INTRA-LIGAND FREE ENERGY PREDICTED BY IDOCK:   -0.87 KCAL/MOL
REMARK 927      BINDING AFFINITY PREDICTED BY RF-SCORE:    0.00 PKD
ROOT
HETATM    1  C   UNL     1     -10.531   5.513  71.082  1.00  0.00    -0.304 C  
HETATM    2  C   UNL     1     -10.967   6.824  71.797  1.00  0.00    -0.266 C  
HETATM    3  C   UNL     1     -12.509   6.824  71.762  1.00  0.00    -0.394 C  
ENDROOT
BRANCH   2   4
HETATM    4  C   UNL     1     -10.456   6.738  73.266  1.00  0.00    -0.296 C  
HETATM    5  H   UNL     1     -10.455   5.446  74.794  1.00  0.00     0.000 HD 
HETATM    6  O   UNL     1     -10.766   5.499  73.899  1.00  0.00    -0.275 OA 
ENDBRANCH   2   4
BRANCH   2   7
HETATM    7  C   UNL     1     -10.409   8.049  71.041  1.00  0.00    -0.201 A  
HETATM    8  C   UNL     1     -11.144   9.017  70.374  1.00  0.00    -0.279 A  
HETATM    9  C   UNL     1     -10.270   9.921  69.745  1.00  0.00    -0.278 A  
HETATM   10  C   UNL     1     -10.493  11.045  68.922  1.00  0.00    -0.229 A  
HETATM   11  C   UNL     1      -9.415  11.763  68.404  1.00  0.00    -0.188 A  
HETATM   12  C   UNL     1      -8.121  11.332  68.708  1.00  0.00    -0.130 A  
HETATM   13  C   UNL     1      -8.972   9.522  70.041  1.00  0.00    -0.223 A  
HETATM   14  C   UNL     1      -7.868  10.219  69.515  1.00  0.00    -0.172 A  
HETATM   15  F   UNL     1      -7.072  12.016  68.214  1.00  0.00    -0.067 F  
HETATM   16  N   UNL     1      -9.071   8.413  70.878  1.00  0.00    -0.150 NA 
BRANCH  11  17
HETATM   17  N   UNL     1      -9.570  12.897  67.577  1.00  0.00    -0.195 N  
HETATM   18  H   UNL     1      -9.145  12.852  66.651  1.00  0.00     0.000 HD 
HETATM   19  C   UNL     1     -10.239  14.059  67.899  1.00  0.00    -0.240 C  
HETATM   20  O   UNL     1     -10.802  14.332  68.950  1.00  0.00    -0.245 OA 
BRANCH  19  21
HETATM   21  C   UNL     1     -10.279  15.071  66.778  1.00  0.00    -0.260 C  
HETATM   22  C   UNL     1     -11.369  14.944  65.720  1.00  0.00    -0.314 C  
HETATM   23  C   UNL     1      -9.972  14.526  65.384  1.00  0.00    -0.352 C  
BRANCH  21  24
HETATM   24  C   UNL     1      -9.727  16.446  67.153  1.00  0.00    -0.241 A  
HETATM   25  C   UNL     1      -6.806  19.544  68.571  1.00  0.00    -0.295 C  
HETATM   26  C   UNL     1     -10.286  17.619  66.577  1.00  0.00    -0.337 A  
HETATM   27  C   UNL     1      -8.591  16.597  67.970  1.00  0.00    -0.193 A  
HETATM   28  C   UNL     1      -9.718  18.885  66.756  1.00  0.00    -0.362 A  
HETATM   29  C   UNL     1      -8.584  18.966  67.531  1.00  0.00    -0.275 A  
HETATM   30  C   UNL     1      -8.046  17.854  68.133  1.00  0.00    -0.267 A  
HETATM   31  F   UNL     1      -5.631  19.759  67.931  1.00  0.00    -0.194 F  
HETATM   32  O   UNL     1      -6.923  18.141  68.845  1.00  0.00    -0.257 OA 
HETATM   33  F   UNL     1      -6.759  20.213  69.748  1.00  0.00    -0.364 F  
HETATM   34  O   UNL     1      -7.867  20.093  67.776  1.00  0.00    -0.292 OA 
ENDBRANCH  21  24
ENDBRANCH  19  21
ENDBRANCH  11  17
BRANCH  16  35
HETATM   35  C   UNL     1      -7.901   7.757  71.450  1.00  0.00    -0.090 C  
BRANCH  35  36
HETATM   36  C   UNL     1      -7.263   6.680  70.556  1.00  0.00    -0.073 C  
HETATM   37  H   UNL     1      -5.640   6.485  69.425  1.00  0.00     0.000 HD 
HETATM   38  O   UNL     1      -6.034   7.150  69.978  1.00  0.00    -0.023 OA 
BRANCH  36  39
HETATM   39  C   UNL     1      -6.913   5.446  71.398  1.00  0.00    -0.065 C  
HETATM   40  O   UNL     1      -5.991   4.620  70.685  1.00  0.00    -0.016 OA 
HETATM   41  H   UNL     1      -5.774   3.856  71.206  1.00  0.00     0.000 HD 
ENDBRANCH  36  39
ENDBRANCH  35  36
ENDBRANCH  16  35
ENDBRANCH   2   7
TORSDOF 8
ENDMDL
MODEL       64
REMARK 921   NORMALIZED FREE ENERGY PREDICTED BY IDOCK:   -5.65 KCAL/MOL
REMARK 922        TOTAL FREE ENERGY PREDICTED BY IDOCK:   -9.22 KCAL/MOL
REMARK 923 INTER-LIGAND FREE ENERGY PREDICTED BY IDOCK:   -9.09 KCAL/MOL
REMARK 924 INTRA-LIGAND FREE ENERGY PREDICTED BY IDOCK:   -0.13 KCAL/MOL
REMARK 927      BINDING AFFINITY PREDICTED BY RF-SCORE:    0.00 PKD
ROOT
HETATM    1  C   UNL     1     -10.688  17.178  68.785  1.00  0.00    -0.289 C  
HETATM    2  C   UNL     1      -9.758  16.692  67.637  1.00  0.00    -0.250 C  
HETATM    3  C   UNL     1     -10.272  17.389  66.361  1.00  0.00    -0.339 C  
ENDROOT
BRANCH   2   4
HETATM    4  C   UNL     1      -8.317  17.175  67.978  1.00  0.00    -0.218 C  
HETATM    5  H   UNL     1      -6.456  17.014  67.259  1.00  0.00     0.000 HD 
HETATM    6  O   UNL     1      -7.335  16.719  67.052  1.00  0.00    -0.163 OA 
ENDBRANCH   2   4
BRANCH   2   7
HETATM    7  C   UNL     1      -9.855  15.158  67.491  1.00  0.00    -0.220 A  
HETATM    8  C   UNL     1      -9.688  14.217  68.497  1.00  0.00    -0.225 A  
HETATM    9  C   UNL     1      -9.773  12.925  67.950  1.00  0.00    -0.218 A  
HETATM   10  C   UNL     1      -9.638  11.641  68.518  1.00  0.00    -0.181 A  
HETATM   11  C   UNL     1      -9.750  10.502  67.719  1.00  0.00    -0.160 A  
HETATM   12  C   UNL     1      -9.984  10.671  66.351  1.00  0.00    -0.222 A  
HETATM   13  C   UNL     1     -10.017  13.062  66.589  1.00  0.00    -0.250 A  
HETATM   14  C   UNL     1     -10.117  11.930  65.758  1.00  0.00    -0.272 A  
HETATM   15  F   UNL     1     -10.095   9.580  65.569  1.00  0.00    -0.372 F  
HETATM   16  N   UNL     1     -10.121  14.427  66.332  1.00  0.00    -0.276 NA 
BRANCH  11  17
HETATM   17  N   UNL     1      -9.628   9.190  68.224  1.00  0.00    -0.146 N  
HETATM   18  H   UNL     1      -8.910   8.600  67.803  1.00  0.00     0.000 HD 
HETATM   19  C   UNL     1     -10.382   8.628  69.232  1.00  0.00    -0.221 C  
HETATM   20  O   UNL     1     -11.297   9.143  69.859  1.00  0.00    -0.166 OA 
BRANCH  19  21
HETATM   21  C   UNL     1      -9.972   7.218  69.589  1.00  0.00    -0.176 C  
HETATM   22  C   UNL     1     -10.473   6.623  70.899  1.00  0.00    -0.249 C  
HETATM   23  C   UNL     1      -9.054   7.084  70.802  1.00  0.00    -0.154 C  
BRANCH  21  24
HETATM   24  C   UNL     1      -9.712   6.315  68.383  1.00  0.00    -0.130 A  
HETATM   25  C   UNL     1      -7.774   3.154  65.856  1.00  0.00    -0.081 C  
HETATM   26  C   UNL     1     -10.764   6.024  67.472  1.00  0.00    -0.383 A  
HETATM   27  C   UNL     1      -8.484   5.654  68.197  1.00  0.00    -0.098 A  
HETATM   28  C   UNL     1     -10.628   5.079  66.449  1.00  0.00    -0.317 A  
HETATM   29  C   UNL     1      -9.418   4.434  66.341  1.00  0.00    -0.176 A  
HETATM   30  C   UNL     1      -8.371   4.725  67.183  1.00  0.00    -0.106 A  
HETATM   31  F   UNL     1      -7.723   1.858  66.253  1.00  0.00    -0.065 F  
HETATM   32  O   UNL     1      -7.268   3.973  66.920  1.00  0.00    -0.066 OA 
HETATM   33  F   UNL     1      -6.957   3.285  64.784  1.00  0.00    -0.049 F  
HETATM   34  O   UNL     1      -9.115   3.455  65.448  1.00  0.00    -0.136 OA 
ENDBRANCH  21  24
ENDBRANCH  19  21
ENDBRANCH  11  17
BRANCH  16  35
HETATM   35  C   UNL     1     -10.441  14.954  65.010  1.00  0.00    -0.401 C  
BRANCH  35  36
HETATM   36  C   UNL     1     -11.946  15.057  64.705  1.00  0.00    -0.358 C  
HETATM   37  H   UNL     1     -13.149  16.226  63.640  1.00  0.00     0.000 HD 
HETATM   38  O   UNL     1     -12.220  16.162  63.828  1.00  0.00    -0.934 OA 
BRANCH  36  39
HETATM   39  C   UNL     1     -12.417  13.790  63.980  1.00  0.00    -0.224 C  
HETATM   40  O   UNL     1     -13.111  12.940  64.894  1.00  0.00    -0.799 OA 
HETATM   41  H   UNL     1     -13.403  12.155  64.445  1.00  0.00     0.000 HD 
ENDBRANCH  36  39
ENDBRANCH  35  36
ENDBRANCH  16  35
ENDBRANCH   2   7
TORSDOF 8
ENDMDL
MODEL       65
REMARK 921   NORMALIZED FREE ENERGY PREDICTED BY IDOCK:   -5.64 KCAL/MOL
REMARK 922        TOTAL FREE ENERGY PREDICTED BY IDOCK:   -9.20 KCAL/MOL
REMARK 923 INTER-LIGAND FREE ENERGY PREDICTED BY IDOCK:   -8.28 KCAL/MOL
REMARK 924 INTRA-LIGAND FREE ENERGY PREDICTED BY IDOCK:   -0.92 KCAL/MOL
REMARK 927      BINDING AFFINITY PREDICTED BY RF-SCORE:    0.00 PKD
ROOT
HETATM    1  C   UNL     1      -8.226   5.211  73.906  1.00  0.00    -0.108 C  
HETATM    2  C   UNL     1      -8.945   4.680  72.633  1.00  0.00    -0.133 C  
HETATM    3  C   UNL     1      -8.080   3.509  72.124  1.00  0.00    -0.071 C  
ENDROOT
BRANCH   2   4
HETATM    4  C   UNL     1     -10.347   4.167  73.078  1.00  0.00    -0.171 C  
HETATM    5  H   UNL     1     -12.192   4.880  73.385  1.00  0.00     0.000 HD 
HETATM    6  O   UNL     1     -11.337   5.192  73.114  1.00  0.00    -0.314 OA 
ENDBRANCH   2   4
BRANCH   2   7
HETATM    7  C   UNL     1      -9.027   5.794  71.568  1.00  0.00    -0.140 A  
HETATM    8  C   UNL     1      -8.637   7.117  71.721  1.00  0.00    -0.119 A  
HETATM    9  C   UNL     1      -8.945   7.836  70.552  1.00  0.00    -0.150 A  
HETATM   10  C   UNL     1      -8.796   9.194  70.203  1.00  0.00    -0.215 A  
HETATM   11  C   UNL     1      -9.218   9.651  68.954  1.00  0.00    -0.147 A  
HETATM   12  C   UNL     1      -9.800   8.734  68.073  1.00  0.00    -0.169 A  
HETATM   13  C   UNL     1      -9.515   6.944  69.651  1.00  0.00    -0.147 A  
HETATM   14  C   UNL     1      -9.965   7.384  68.392  1.00  0.00    -0.177 A  
HETATM   15  F   UNL     1     -10.211   9.162  66.864  1.00  0.00    -0.258 F  
HETATM   16  N   UNL     1      -9.508   5.692  70.261  1.00  0.00    -0.157 NA 
BRANCH  11  17
HETATM   17  N   UNL     1      -9.096  10.995  68.543  1.00  0.00    -0.168 N  
HETATM   18  H   UNL     1      -9.947  11.457  68.221  1.00  0.00     0.000 HD 
HETATM   19  C   UNL     1      -7.940  11.746  68.534  1.00  0.00    -0.145 C  
HETATM   20  O   UNL     1      -6.815  11.393  68.858  1.00  0.00    -0.074 OA 
BRANCH  19  21
HETATM   21  C   UNL     1      -8.143  13.176  68.091  1.00  0.00    -0.155 C  
HETATM   22  C   UNL     1      -6.918  14.064  67.905  1.00  0.00    -0.168 C  
HETATM   23  C   UNL     1      -7.773  14.245  69.119  1.00  0.00    -0.011 C  
BRANCH  21  24
HETATM   24  C   UNL     1      -9.391  13.398  67.236  1.00  0.00    -0.233 A  
HETATM   25  C   UNL     1     -12.250  12.967  63.805  1.00  0.00    -0.476 C  
HETATM   26  C   UNL     1     -10.597  13.845  67.841  1.00  0.00    -0.248 A  
HETATM   27  C   UNL     1      -9.430  13.062  65.871  1.00  0.00    -0.047 A  
HETATM   28  C   UNL     1     -11.807  13.908  67.140  1.00  0.00    -0.445 A  
HETATM   29  C   UNL     1     -11.793  13.527  65.819  1.00  0.00    -0.372 A  
HETATM   30  C   UNL     1     -10.632  13.130  65.198  1.00  0.00    -0.319 A  
HETATM   31  F   UNL     1     -12.816  11.774  63.496  1.00  0.00    -0.638 F  
HETATM   32  O   UNL     1     -10.830  12.784  63.897  1.00  0.00    -0.389 OA 
HETATM   33  F   UNL     1     -12.512  13.819  62.786  1.00  0.00    -0.331 F  
HETATM   34  O   UNL     1     -12.872  13.473  64.994  1.00  0.00    -0.684 OA 
ENDBRANCH  21  24
ENDBRANCH  19  21
ENDBRANCH  11  17
BRANCH  16  35
HETATM   35  C   UNL     1      -9.974   4.487  69.584  1.00  0.00    -0.181 C  
BRANCH  35  36
HETATM   36  C   UNL     1      -8.985   3.897  68.565  1.00  0.00    -0.121 C  
HETATM   37  H   UNL     1      -7.019   3.871  68.275  1.00  0.00     0.000 HD 
HETATM   38  O   UNL     1      -7.630   4.235  68.904  1.00  0.00    -0.055 OA 
BRANCH  36  39
HETATM   39  C   UNL     1      -9.075   2.365  68.581  1.00  0.00    -0.146 C  
HETATM   40  O   UNL     1      -9.645   1.902  67.356  1.00  0.00    -0.395 OA 
HETATM   41  H   UNL     1      -9.701   0.954  67.366  1.00  0.00     0.000 HD 
ENDBRANCH  36  39
ENDBRANCH  35  36
ENDBRANCH  16  35
ENDBRANCH   2   7
TORSDOF 8
ENDMDL
MODEL       66
REMARK 921   NORMALIZED FREE ENERGY PREDICTED BY IDOCK:   -5.63 KCAL/MOL
REMARK 922        TOTAL FREE ENERGY PREDICTED BY IDOCK:   -9.17 KCAL/MOL
REMARK 923 INTER-LIGAND FREE ENERGY PREDICTED BY IDOCK:   -9.26 KCAL/MOL
REMARK 924 INTRA-LIGAND FREE ENERGY PREDICTED BY IDOCK:    0.08 KCAL/MOL
REMARK 927      BINDING AFFINITY PREDICTED BY RF-SCORE:    0.00 PKD
ROOT
HETATM    1  C   UNL     1      -9.931   4.327  70.390  1.00  0.00    -0.213 C  
HETATM    2  C   UNL     1      -9.842   5.511  71.395  1.00  0.00    -0.218 C  
HETATM    3  C   UNL     1     -10.959   5.262  72.430  1.00  0.00    -0.273 C  
ENDROOT
BRANCH   2   4
HETATM    4  C   UNL     1      -8.444   5.432  72.075  1.00  0.00    -0.127 C  
HETATM    5  H   UNL     1      -7.111   4.051  72.642  1.00  0.00     0.000 HD 
HETATM    6  O   UNL     1      -7.965   4.099  72.228  1.00  0.00    -0.082 OA 
ENDBRANCH   2   4
BRANCH   2   7
HETATM    7  C   UNL     1     -10.076   6.847  70.659  1.00  0.00    -0.194 A  
HETATM    8  C   UNL     1      -9.757   7.134  69.340  1.00  0.00    -0.160 A  
HETATM    9  C   UNL     1     -10.049   8.482  69.067  1.00  0.00    -0.207 A  
HETATM   10  C   UNL     1      -9.882   9.278  67.915  1.00  0.00    -0.200 A  
HETATM   11  C   UNL     1     -10.247  10.625  67.931  1.00  0.00    -0.177 A  
HETATM   12  C   UNL     1     -10.764  11.160  69.115  1.00  0.00    -0.221 A  
HETATM   13  C   UNL     1     -10.578   9.038  70.227  1.00  0.00    -0.217 A  
HETATM   14  C   UNL     1     -10.936  10.398  70.274  1.00  0.00    -0.353 A  
HETATM   15  F   UNL     1     -11.119  12.458  69.143  1.00  0.00    -0.262 F  
HETATM   16  N   UNL     1     -10.640   8.017  71.173  1.00  0.00    -0.202 NA 
BRANCH  11  17
HETATM   17  N   UNL     1     -10.108  11.475  66.813  1.00  0.00    -0.210 N  
HETATM   18  H   UNL     1      -9.156  11.687  66.512  1.00  0.00     0.000 HD 
HETATM   19  C   UNL     1     -11.131  12.046  66.086  1.00  0.00    -0.322 C  
HETATM   20  O   UNL     1     -12.334  11.941  66.279  1.00  0.00    -0.270 OA 
BRANCH  19  21
HETATM   21  C   UNL     1     -10.661  12.864  64.907  1.00  0.00    -0.342 C  
HETATM   22  C   UNL     1     -10.790  12.269  63.509  1.00  0.00    -0.508 C  
HETATM   23  C   UNL     1      -9.445  12.312  64.163  1.00  0.00     0.223 C  
BRANCH  21  24
HETATM   24  C   UNL     1     -10.757  14.376  65.111  1.00  0.00    -0.413 A  
HETATM   25  C   UNL     1      -9.543  18.528  66.302  1.00  0.00    -0.273 C  
HETATM   26  C   UNL     1     -11.635  15.148  64.303  1.00  0.00    -0.192 A  
HETATM   27  C   UNL     1      -9.913  15.063  66.003  1.00  0.00    -0.334 A  
HETATM   28  C   UNL     1     -11.643  16.548  64.334  1.00  0.00     0.211 A  
HETATM   29  C   UNL     1     -10.767  17.167  65.195  1.00  0.00     0.004 A  
HETATM   30  C   UNL     1      -9.936  16.443  66.017  1.00  0.00    -0.345 A  
HETATM   31  F   UNL     1      -8.461  19.137  65.755  1.00  0.00    -0.253 F  
HETATM   32  O   UNL     1      -9.141  17.238  66.783  1.00  0.00    -0.235 OA 
HETATM   33  F   UNL     1      -9.944  19.277  67.356  1.00  0.00    -0.359 F  
HETATM   34  O   UNL     1     -10.597  18.508  65.328  1.00  0.00    -0.509 OA 
ENDBRANCH  21  24
ENDBRANCH  19  21
ENDBRANCH  11  17
BRANCH  16  35
HETATM   35  C   UNL     1     -11.206   8.213  72.502  1.00  0.00    -0.391 C  
BRANCH  35  36
HETATM   36  C   UNL     1     -12.737   8.365  72.535  1.00  0.00    -0.232 C  
HETATM   37  H   UNL     1     -14.081   9.769  72.126  1.00  0.00     0.000 HD 
HETATM   38  O   UNL     1     -13.136   9.676  72.105  1.00  0.00    -0.414 OA 
BRANCH  36  39
HETATM   39  C   UNL     1     -13.379   7.365  71.564  1.00  0.00    -0.372 C  
HETATM   40  O   UNL     1     -14.402   6.629  72.234  1.00  0.00    -0.614 OA 
HETATM   41  H   UNL     1     -14.800   6.010  71.632  1.00  0.00     0.000 HD 
ENDBRANCH  36  39
ENDBRANCH  35  36
ENDBRANCH  16  35
ENDBRANCH   2   7
TORSDOF 8
ENDMDL
MODEL       67
REMARK 921   NORMALIZED FREE ENERGY PREDICTED BY IDOCK:   -5.62 KCAL/MOL
REMARK 922        TOTAL FREE ENERGY PREDICTED BY IDOCK:   -9.17 KCAL/MOL
REMARK 923 INTER-LIGAND FREE ENERGY PREDICTED BY IDOCK:   -8.12 KCAL/MOL
REMARK 924 INTRA-LIGAND FREE ENERGY PREDICTED BY IDOCK:   -1.06 KCAL/MOL
REMARK 927      BINDING AFFINITY PREDICTED BY RF-SCORE:    0.00 PKD
ROOT
HETATM    1  C   UNL     1     -12.578  14.146  65.443  1.00  0.00    -0.485 C  
HETATM    2  C   UNL     1     -11.239  14.347  66.208  1.00  0.00    -0.338 C  
HETATM    3  C   UNL     1     -10.361  15.220  65.289  1.00  0.00    -0.430 C  
ENDROOT
BRANCH   2   4
HETATM    4  C   UNL     1     -11.572  15.108  67.525  1.00  0.00    -0.257 C  
HETATM    5  H   UNL     1     -11.086  16.813  68.453  1.00  0.00     0.000 HD 
HETATM    6  O   UNL     1     -10.882  16.349  67.650  1.00  0.00    -0.327 OA 
ENDBRANCH   2   4
BRANCH   2   7
HETATM    7  C   UNL     1     -10.564  12.981  66.461  1.00  0.00    -0.282 A  
HETATM    8  C   UNL     1     -10.865  11.780  65.836  1.00  0.00    -0.339 A  
HETATM    9  C   UNL     1     -10.088  10.751  66.397  1.00  0.00    -0.278 A  
HETATM   10  C   UNL     1     -10.033   9.362  66.158  1.00  0.00    -0.351 A  
HETATM   11  C   UNL     1      -9.164   8.555  66.894  1.00  0.00    -0.158 A  
HETATM   12  C   UNL     1      -8.370   9.156  67.875  1.00  0.00    -0.117 A  
HETATM   13  C   UNL     1      -9.277  11.323  67.371  1.00  0.00    -0.162 A  
HETATM   14  C   UNL     1      -8.407  10.528  68.139  1.00  0.00    -0.119 A  
HETATM   15  F   UNL     1      -7.527   8.388  68.593  1.00  0.00    -0.084 F  
HETATM   16  N   UNL     1      -9.537  12.691  67.361  1.00  0.00    -0.190 NA 
BRANCH  11  17
HETATM   17  N   UNL     1      -9.059   7.161  66.703  1.00  0.00    -0.144 N  
HETATM   18  H   UNL     1      -8.126   6.792  66.516  1.00  0.00     0.000 HD 
HETATM   19  C   UNL     1     -10.092   6.249  66.744  1.00  0.00    -0.180 C  
HETATM   20  O   UNL     1     -11.279   6.471  66.933  1.00  0.00    -0.387 OA 
BRANCH  19  21
HETATM   21  C   UNL     1      -9.650   4.816  66.556  1.00  0.00    -0.181 C  
HETATM   22  C   UNL     1      -8.800   4.469  65.339  1.00  0.00    -0.137 C  
HETATM   23  C   UNL     1     -10.248   4.093  65.350  1.00  0.00    -0.190 C  
BRANCH  21  24
HETATM   24  C   UNL     1      -9.486   4.033  67.859  1.00  0.00    -0.225 A  
HETATM   25  C   UNL     1      -9.844   3.030  72.218  1.00  0.00    -0.164 C  
HETATM   26  C   UNL     1      -9.286   2.627  67.822  1.00  0.00    -0.244 A  
HETATM   27  C   UNL     1      -9.645   4.639  69.119  1.00  0.00    -0.245 A  
HETATM   28  C   UNL     1      -9.293   1.840  68.980  1.00  0.00    -0.195 A  
HETATM   29  C   UNL     1      -9.494   2.481  70.180  1.00  0.00    -0.080 A  
HETATM   30  C   UNL     1      -9.650   3.845  70.247  1.00  0.00    -0.201 A  
HETATM   31  F   UNL     1     -11.051   2.869  72.814  1.00  0.00    -0.183 F  
HETATM   32  O   UNL     1      -9.848   4.284  71.520  1.00  0.00    -0.174 OA 
HETATM   33  F   UNL     1      -8.909   3.082  73.196  1.00  0.00    -0.078 F  
HETATM   34  O   UNL     1      -9.582   1.883  71.397  1.00  0.00    -0.122 OA 
ENDBRANCH  21  24
ENDBRANCH  19  21
ENDBRANCH  11  17
BRANCH  16  35
HETATM   35  C   UNL     1      -8.818  13.632  68.213  1.00  0.00    -0.179 C  
BRANCH  35  36
HETATM   36  C   UNL     1      -7.656  14.367  67.524  1.00  0.00    -0.193 C  
HETATM   37  H   UNL     1      -6.752  16.132  67.658  1.00  0.00     0.000 HD 
HETATM   38  O   UNL     1      -7.470  15.677  68.083  1.00  0.00    -0.118 OA 
BRANCH  36  39
HETATM   39  C   UNL     1      -6.347  13.599  67.752  1.00  0.00    -0.165 C  
HETATM   40  O   UNL     1      -6.135  12.679  66.681  1.00  0.00    -0.417 OA 
HETATM   41  H   UNL     1      -5.324  12.203  66.822  1.00  0.00     0.000 HD 
ENDBRANCH  36  39
ENDBRANCH  35  36
ENDBRANCH  16  35
ENDBRANCH   2   7
TORSDOF 8
ENDMDL
MODEL       68
REMARK 921   NORMALIZED FREE ENERGY PREDICTED BY IDOCK:   -5.61 KCAL/MOL
REMARK 922        TOTAL FREE ENERGY PREDICTED BY IDOCK:   -9.15 KCAL/MOL
REMARK 923 INTER-LIGAND FREE ENERGY PREDICTED BY IDOCK:   -9.15 KCAL/MOL
REMARK 924 INTRA-LIGAND FREE ENERGY PREDICTED BY IDOCK:    0.00 KCAL/MOL
REMARK 927      BINDING AFFINITY PREDICTED BY RF-SCORE:    0.00 PKD
ROOT
HETATM    1  C   UNL     1     -11.009  16.035  65.090  1.00  0.00    -0.360 C  
HETATM    2  C   UNL     1     -10.193  15.986  66.414  1.00  0.00    -0.315 C  
HETATM    3  C   UNL     1      -8.764  16.429  66.039  1.00  0.00    -0.274 C  
ENDROOT
BRANCH   2   4
HETATM    4  C   UNL     1     -10.842  17.011  67.390  1.00  0.00    -0.165 C  
HETATM    5  H   UNL     1     -10.877  18.987  67.707  1.00  0.00     0.000 HD 
HETATM    6  O   UNL     1     -10.481  18.362  67.112  1.00  0.00    -0.381 OA 
ENDBRANCH   2   4
BRANCH   2   7
HETATM    7  C   UNL     1     -10.183  14.549  66.976  1.00  0.00    -0.262 A  
HETATM    8  C   UNL     1      -9.283  14.022  67.890  1.00  0.00    -0.195 A  
HETATM    9  C   UNL     1      -9.558  12.658  68.089  1.00  0.00    -0.219 A  
HETATM   10  C   UNL     1      -8.932  11.664  68.871  1.00  0.00     0.074 A  
HETATM   11  C   UNL     1      -9.413  10.354  68.862  1.00  0.00    -0.186 A  
HETATM   12  C   UNL     1     -10.513  10.056  68.052  1.00  0.00    -0.218 A  
HETATM   13  C   UNL     1     -10.658  12.334  67.303  1.00  0.00    -0.224 A  
HETATM   14  C   UNL     1     -11.151  11.017  67.263  1.00  0.00    -0.359 A  
HETATM   15  F   UNL     1     -10.987   8.795  68.035  1.00  0.00    -0.220 F  
HETATM   16  N   UNL     1     -11.064  13.508  66.672  1.00  0.00    -0.295 NA 
BRANCH  11  17
HETATM   17  N   UNL     1      -8.835   9.316  69.622  1.00  0.00    -0.144 N  
HETATM   18  H   UNL     1      -7.994   8.881  69.241  1.00  0.00     0.000 HD 
HETATM   19  C   UNL     1      -9.293   8.831  70.828  1.00  0.00    -0.208 C  
HETATM   20  O   UNL     1     -10.282   9.190  71.452  1.00  0.00    -0.302 OA 
BRANCH  19  21
HETATM   21  C   UNL     1      -8.422   7.750  71.424  1.00  0.00    -0.125 C  
HETATM   22  C   UNL     1      -6.984   8.095  71.795  1.00  0.00    -0.076 C  
HETATM   23  C   UNL     1      -7.248   7.296  70.558  1.00  0.00    -0.066 C  
BRANCH  21  24
HETATM   24  C   UNL     1      -9.188   6.691  72.217  1.00  0.00    -0.139 A  
HETATM   25  C   UNL     1     -10.687   2.641  73.436  1.00  0.00    -0.180 C  
HETATM   26  C   UNL     1      -9.564   6.944  73.564  1.00  0.00    -0.222 A  
HETATM   27  C   UNL     1      -9.439   5.408  71.697  1.00  0.00    -0.182 A  
HETATM   28  C   UNL     1     -10.119   5.955  74.384  1.00  0.00    -0.302 A  
HETATM   29  C   UNL     1     -10.303   4.708  73.835  1.00  0.00    -0.228 A  
HETATM   30  C   UNL     1      -9.985   4.447  72.523  1.00  0.00    -0.169 A  
HETATM   31  F   UNL     1      -9.840   1.658  73.829  1.00  0.00    -0.078 F  
HETATM   32  O   UNL     1     -10.231   3.154  72.176  1.00  0.00    -0.154 OA 
HETATM   33  F   UNL     1     -11.908   2.082  73.259  1.00  0.00    -0.276 F  
HETATM   34  O   UNL     1     -10.779   3.614  74.486  1.00  0.00    -0.182 OA 
ENDBRANCH  21  24
ENDBRANCH  19  21
ENDBRANCH  11  17
BRANCH  16  35
HETATM   35  C   UNL     1     -12.239  13.570  65.811  1.00  0.00    -0.461 C  
BRANCH  35  36
HETATM   36  C   UNL     1     -12.324  12.454  64.756  1.00  0.00    -0.423 C  
HETATM   37  H   UNL     1     -13.742  11.485  63.756  1.00  0.00     0.000 HD 
HETATM   38  O   UNL     1     -13.689  12.174  64.408  1.00  0.00    -0.267 OA 
BRANCH  36  39
HETATM   39  C   UNL     1     -11.622  12.903  63.467  1.00  0.00    -0.468 C  
HETATM   40  O   UNL     1     -12.426  13.871  62.791  1.00  0.00    -0.901 OA 
HETATM   41  H   UNL     1     -11.991  14.149  61.993  1.00  0.00     0.000 HD 
ENDBRANCH  36  39
ENDBRANCH  35  36
ENDBRANCH  16  35
ENDBRANCH   2   7
TORSDOF 8
ENDMDL
MODEL       69
REMARK 921   NORMALIZED FREE ENERGY PREDICTED BY IDOCK:   -5.56 KCAL/MOL
REMARK 922        TOTAL FREE ENERGY PREDICTED BY IDOCK:   -9.08 KCAL/MOL
REMARK 923 INTER-LIGAND FREE ENERGY PREDICTED BY IDOCK:   -8.09 KCAL/MOL
REMARK 924 INTRA-LIGAND FREE ENERGY PREDICTED BY IDOCK:   -0.99 KCAL/MOL
REMARK 927      BINDING AFFINITY PREDICTED BY RF-SCORE:    0.00 PKD
ROOT
HETATM    1  C   UNL     1     -10.254   4.627  70.208  1.00  0.00    -0.205 C  
HETATM    2  C   UNL     1     -10.098   5.917  71.063  1.00  0.00    -0.252 C  
HETATM    3  C   UNL     1     -11.421   6.064  71.841  1.00  0.00    -0.328 C  
ENDROOT
BRANCH   2   4
HETATM    4  C   UNL     1      -8.914   5.677  72.045  1.00  0.00    -0.138 C  
HETATM    5  H   UNL     1      -8.090   4.178  73.084  1.00  0.00     0.000 HD 
HETATM    6  O   UNL     1      -8.812   4.325  72.486  1.00  0.00    -0.106 OA 
ENDBRANCH   2   4
BRANCH   2   7
HETATM    7  C   UNL     1      -9.874   7.137  70.143  1.00  0.00    -0.179 A  
HETATM    8  C   UNL     1     -10.690   8.252  70.031  1.00  0.00    -0.239 A  
HETATM    9  C   UNL     1     -10.190   9.103  69.030  1.00  0.00    -0.219 A  
HETATM   10  C   UNL     1     -10.653  10.326  68.501  1.00  0.00    -0.240 A  
HETATM   11  C   UNL     1      -9.954  10.957  67.471  1.00  0.00    -0.174 A  
HETATM   12  C   UNL     1      -8.802  10.341  66.974  1.00  0.00    -0.136 A  
HETATM   13  C   UNL     1      -9.033   8.520  68.525  1.00  0.00    -0.139 A  
HETATM   14  C   UNL     1      -8.321   9.128  67.474  1.00  0.00    -0.116 A  
HETATM   15  F   UNL     1      -8.119  10.940  65.981  1.00  0.00    -0.149 F  
HETATM   16  N   UNL     1      -8.821   7.350  69.251  1.00  0.00    -0.137 NA 
BRANCH  11  17
HETATM   17  N   UNL     1     -10.363  12.181  66.899  1.00  0.00    -0.211 N  
HETATM   18  H   UNL     1     -11.015  12.128  66.116  1.00  0.00     0.000 HD 
HETATM   19  C   UNL     1      -9.968  13.441  67.295  1.00  0.00    -0.232 C  
HETATM   20  O   UNL     1      -9.188  13.734  68.190  1.00  0.00    -0.188 OA 
BRANCH  19  21
HETATM   21  C   UNL     1     -10.626  14.559  66.521  1.00  0.00    -0.297 C  
HETATM   22  C   UNL     1     -12.102  14.430  66.166  1.00  0.00    -0.373 C  
HETATM   23  C   UNL     1     -11.074  14.207  65.103  1.00  0.00    -0.349 C  
BRANCH  21  24
HETATM   24  C   UNL     1     -10.010  15.938  66.761  1.00  0.00    -0.255 A  
HETATM   25  C   UNL     1      -7.444  19.556  66.084  1.00  0.00    -0.292 C  
HETATM   26  C   UNL     1     -10.710  16.904  67.533  1.00  0.00    -0.270 A  
HETATM   27  C   UNL     1      -8.811  16.337  66.143  1.00  0.00    -0.362 A  
HETATM   28  C   UNL     1     -10.272  18.229  67.648  1.00  0.00    -0.397 A  
HETATM   29  C   UNL     1      -9.116  18.573  66.988  1.00  0.00    -0.281 A  
HETATM   30  C   UNL     1      -8.398  17.648  66.268  1.00  0.00    -0.216 A  
HETATM   31  F   UNL     1      -7.569  20.318  64.969  1.00  0.00    -0.251 F  
HETATM   32  O   UNL     1      -7.294  18.187  65.683  1.00  0.00    -0.528 OA 
HETATM   33  F   UNL     1      -6.315  19.947  66.722  1.00  0.00    -0.181 F  
HETATM   34  O   UNL     1      -8.565  19.814  66.942  1.00  0.00    -0.302 OA 
ENDBRANCH  21  24
ENDBRANCH  19  21
ENDBRANCH  11  17
BRANCH  16  35
HETATM   35  C   UNL     1      -7.655   6.499  69.042  1.00  0.00    -0.100 C  
BRANCH  35  36
HETATM   36  C   UNL     1      -7.715   5.621  67.780  1.00  0.00    -0.096 C  
HETATM   37  H   UNL     1      -6.817   5.534  66.009  1.00  0.00     0.000 HD 
HETATM   38  O   UNL     1      -6.780   6.076  66.789  1.00  0.00    -0.054 OA 
BRANCH  36  39
HETATM   39  C   UNL     1      -7.321   4.180  68.131  1.00  0.00    -0.064 C  
HETATM   40  O   UNL     1      -6.427   4.181  69.245  1.00  0.00    -0.031 OA 
HETATM   41  H   UNL     1      -6.184   3.288  69.462  1.00  0.00     0.000 HD 
ENDBRANCH  36  39
ENDBRANCH  35  36
ENDBRANCH  16  35
ENDBRANCH   2   7
TORSDOF 8
ENDMDL
MODEL       70
REMARK 921   NORMALIZED FREE ENERGY PREDICTED BY IDOCK:   -5.55 KCAL/MOL
REMARK 922        TOTAL FREE ENERGY PREDICTED BY IDOCK:   -9.06 KCAL/MOL
REMARK 923 INTER-LIGAND FREE ENERGY PREDICTED BY IDOCK:   -7.85 KCAL/MOL
REMARK 924 INTRA-LIGAND FREE ENERGY PREDICTED BY IDOCK:   -1.21 KCAL/MOL
REMARK 927      BINDING AFFINITY PREDICTED BY RF-SCORE:    0.00 PKD
ROOT
HETATM    1  C   UNL     1     -10.432  19.556  65.802  1.00  0.00    -0.518 C  
HETATM    2  C   UNL     1      -9.168  19.500  66.708  1.00  0.00    -0.415 C  
HETATM    3  C   UNL     1      -8.041  20.164  65.892  1.00  0.00    -0.168 C  
ENDROOT
BRANCH   2   4
HETATM    4  C   UNL     1      -9.481  20.335  67.984  1.00  0.00    -0.213 C  
HETATM    5  H   UNL     1     -10.695  20.273  69.574  1.00  0.00     0.000 HD 
HETATM    6  O   UNL     1     -10.505  19.764  68.796  1.00  0.00    -0.346 OA 
ENDBRANCH   2   4
BRANCH   2   7
HETATM    7  C   UNL     1      -8.812  18.032  67.026  1.00  0.00    -0.254 A  
HETATM    8  C   UNL     1      -9.295  16.903  66.382  1.00  0.00    -0.303 A  
HETATM    9  C   UNL     1      -8.797  15.750  67.015  1.00  0.00    -0.241 A  
HETATM   10  C   UNL     1      -9.005  14.374  66.788  1.00  0.00    -0.256 A  
HETATM   11  C   UNL     1      -8.388  13.424  67.603  1.00  0.00    -0.179 A  
HETATM   12  C   UNL     1      -7.577  13.873  68.650  1.00  0.00    -0.130 A  
HETATM   13  C   UNL     1      -7.976  16.168  68.057  1.00  0.00    -0.145 A  
HETATM   14  C   UNL     1      -7.356  15.230  68.904  1.00  0.00    -0.146 A  
HETATM   15  F   UNL     1      -6.976  12.967  69.444  1.00  0.00    -0.097 F  
HETATM   16  N   UNL     1      -7.949  17.560  68.018  1.00  0.00    -0.227 NA 
BRANCH  11  17
HETATM   17  N   UNL     1      -8.552  12.034  67.428  1.00  0.00    -0.163 N  
HETATM   18  H   UNL     1      -7.770  11.527  67.014  1.00  0.00     0.000 HD 
HETATM   19  C   UNL     1      -9.667  11.293  67.761  1.00  0.00    -0.173 C  
HETATM   20  O   UNL     1     -10.714  11.695  68.248  1.00  0.00    -0.194 OA 
BRANCH  19  21
HETATM   21  C   UNL     1      -9.516   9.813  67.503  1.00  0.00    -0.170 C  
HETATM   22  C   UNL     1      -8.816   9.363  66.225  1.00  0.00    -0.172 C  
HETATM   23  C   UNL     1     -10.306   9.266  66.314  1.00  0.00    -0.192 C  
BRANCH  21  24
HETATM   24  C   UNL     1      -9.432   8.959  68.768  1.00  0.00    -0.144 A  
HETATM   25  C   UNL     1      -8.436   7.813  72.990  1.00  0.00    -0.156 C  
HETATM   26  C   UNL     1     -10.375   7.918  68.988  1.00  0.00    -0.223 A  
HETATM   27  C   UNL     1      -8.516   9.240  69.798  1.00  0.00    -0.152 A  
HETATM   28  C   UNL     1     -10.446   7.216  70.197  1.00  0.00    -0.231 A  
HETATM   29  C   UNL     1      -9.553   7.563  71.183  1.00  0.00    -0.158 A  
HETATM   30  C   UNL     1      -8.605   8.538  70.982  1.00  0.00    -0.158 A  
HETATM   31  F   UNL     1      -8.918   8.510  74.049  1.00  0.00    -0.230 F  
HETATM   32  O   UNL     1      -7.826   8.739  72.080  1.00  0.00    -0.302 OA 
HETATM   33  F   UNL     1      -7.482   6.972  73.455  1.00  0.00    -0.080 F  
HETATM   34  O   UNL     1      -9.501   7.032  72.433  1.00  0.00    -0.143 OA 
ENDBRANCH  21  24
ENDBRANCH  19  21
ENDBRANCH  11  17
BRANCH  16  35
HETATM   35  C   UNL     1      -7.131  18.354  68.927  1.00  0.00    -0.276 C  
BRANCH  35  36
HETATM   36  C   UNL     1      -5.698  18.624  68.437  1.00  0.00    -0.191 C  
HETATM   37  H   UNL     1      -4.654  18.399  66.762  1.00  0.00     0.000 HD 
HETATM   38  O   UNL     1      -5.539  18.232  67.064  1.00  0.00    -0.136 OA 
BRANCH  36  39
HETATM   39  C   UNL     1      -5.402  20.128  68.505  1.00  0.00    -0.211 C  
HETATM   40  O   UNL     1      -5.723  20.626  69.804  1.00  0.00    -0.348 OA 
HETATM   41  H   UNL     1      -5.539  21.558  69.845  1.00  0.00     0.000 HD 
ENDBRANCH  36  39
ENDBRANCH  35  36
ENDBRANCH  16  35
ENDBRANCH   2   7
TORSDOF 8
ENDMDL
MODEL       71
REMARK 921   NORMALIZED FREE ENERGY PREDICTED BY IDOCK:   -5.52 KCAL/MOL
REMARK 922        TOTAL FREE ENERGY PREDICTED BY IDOCK:   -9.02 KCAL/MOL
REMARK 923 INTER-LIGAND FREE ENERGY PREDICTED BY IDOCK:   -9.17 KCAL/MOL
REMARK 924 INTRA-LIGAND FREE ENERGY PREDICTED BY IDOCK:    0.15 KCAL/MOL
REMARK 927      BINDING AFFINITY PREDICTED BY RF-SCORE:    0.00 PKD
ROOT
HETATM    1  C   UNL     1      -8.488   5.353  74.099  1.00  0.00    -0.114 C  
HETATM    2  C   UNL     1      -7.402   6.112  73.284  1.00  0.00    -0.088 C  
HETATM    3  C   UNL     1      -6.716   7.061  74.287  1.00  0.00    -0.082 C  
ENDROOT
BRANCH   2   4
HETATM    4  C   UNL     1      -6.391   5.048  72.764  1.00  0.00    -0.042 C  
HETATM    5  H   UNL     1      -4.952   3.852  73.474  1.00  0.00     0.000 HD 
HETATM    6  O   UNL     1      -5.568   4.501  73.791  1.00  0.00    -0.008 OA 
ENDBRANCH   2   4
BRANCH   2   7
HETATM    7  C   UNL     1      -8.062   6.917  72.144  1.00  0.00    -0.098 A  
HETATM    8  C   UNL     1      -8.391   8.264  72.163  1.00  0.00    -0.232 A  
HETATM    9  C   UNL     1      -9.050   8.604  70.968  1.00  0.00    -0.248 A  
HETATM   10  C   UNL     1      -9.618   9.809  70.504  1.00  0.00    -0.166 A  
HETATM   11  C   UNL     1     -10.244   9.858  69.257  1.00  0.00    -0.209 A  
HETATM   12  C   UNL     1     -10.303   8.687  68.497  1.00  0.00    -0.196 A  
HETATM   13  C   UNL     1      -9.113   7.458  70.185  1.00  0.00    -0.148 A  
HETATM   14  C   UNL     1      -9.755   7.477  68.932  1.00  0.00    -0.151 A  
HETATM   15  F   UNL     1     -10.905   8.721  67.293  1.00  0.00    -0.354 F  
HETATM   16  N   UNL     1      -8.459   6.450  70.889  1.00  0.00    -0.130 NA 
BRANCH  11  17
HETATM   17  N   UNL     1     -10.829  11.031  68.734  1.00  0.00    -0.195 N  
HETATM   18  H   UNL     1     -11.832  11.147  68.876  1.00  0.00     0.000 HD 
HETATM   19  C   UNL     1     -10.177  12.036  68.051  1.00  0.00    -0.198 C  
HETATM   20  O   UNL     1      -8.991  12.095  67.758  1.00  0.00    -0.164 OA 
BRANCH  19  21
HETATM   21  C   UNL     1     -11.070  13.193  67.667  1.00  0.00    -0.295 C  
HETATM   22  C   UNL     1     -12.024  13.018  66.492  1.00  0.00    -0.457 C  
HETATM   23  C   UNL     1     -10.780  13.828  66.308  1.00  0.00    -0.285 C  
BRANCH  21  24
HETATM   24  C   UNL     1     -11.442  14.113  68.830  1.00  0.00    -0.327 A  
HETATM   25  C   UNL     1     -13.069  15.381  72.815  1.00  0.00    -0.466 C  
HETATM   26  C   UNL     1     -10.734  15.330  69.028  1.00  0.00    -0.244 A  
HETATM   27  C   UNL     1     -12.393  13.745  69.799  1.00  0.00    -0.311 A  
HETATM   28  C   UNL     1     -10.920  16.127  70.163  1.00  0.00    -0.359 A  
HETATM   29  C   UNL     1     -11.833  15.696  71.097  1.00  0.00    -0.408 A  
HETATM   30  C   UNL     1     -12.560  14.544  70.911  1.00  0.00    -0.344 A  
HETATM   31  F   UNL     1     -12.580  14.878  73.975  1.00  0.00    -0.607 F  
HETATM   32  O   UNL     1     -13.399  14.285  71.950  1.00  0.00    -0.338 OA 
HETATM   33  F   UNL     1     -14.204  16.058  73.109  1.00  0.00    -0.641 F  
HETATM   34  O   UNL     1     -12.112  16.306  72.278  1.00  0.00    -0.504 OA 
ENDBRANCH  21  24
ENDBRANCH  19  21
ENDBRANCH  11  17
BRANCH  16  35
HETATM   35  C   UNL     1      -8.268   5.110  70.345  1.00  0.00    -0.098 C  
BRANCH  35  36
HETATM   36  C   UNL     1      -9.559   4.286  70.192  1.00  0.00    -0.198 C  
HETATM   37  H   UNL     1     -11.517   4.619  70.176  1.00  0.00     0.000 HD 
HETATM   38  O   UNL     1     -10.720   5.128  70.270  1.00  0.00    -0.229 OA 
BRANCH  36  39
HETATM   39  C   UNL     1      -9.587   3.618  68.811  1.00  0.00    -0.089 C  
HETATM   40  O   UNL     1      -9.355   2.216  68.948  1.00  0.00    -0.143 OA 
HETATM   41  H   UNL     1      -9.373   1.803  68.092  1.00  0.00     0.000 HD 
ENDBRANCH  36  39
ENDBRANCH  35  36
ENDBRANCH  16  35
ENDBRANCH   2   7
TORSDOF 8
ENDMDL
MODEL       72
REMARK 921   NORMALIZED FREE ENERGY PREDICTED BY IDOCK:   -5.51 KCAL/MOL
REMARK 922        TOTAL FREE ENERGY PREDICTED BY IDOCK:   -9.01 KCAL/MOL
REMARK 923 INTER-LIGAND FREE ENERGY PREDICTED BY IDOCK:   -8.36 KCAL/MOL
REMARK 924 INTRA-LIGAND FREE ENERGY PREDICTED BY IDOCK:   -0.65 KCAL/MOL
REMARK 927      BINDING AFFINITY PREDICTED BY RF-SCORE:    0.00 PKD
ROOT
HETATM    1  C   UNL     1     -10.457  14.117  64.724  1.00  0.00    -0.432 C  
HETATM    2  C   UNL     1     -11.674  13.187  64.993  1.00  0.00    -0.369 C  
HETATM    3  C   UNL     1     -12.701  14.054  65.749  1.00  0.00    -0.487 C  
ENDROOT
BRANCH   2   4
HETATM    4  C   UNL     1     -12.240  12.757  63.607  1.00  0.00    -0.512 C  
HETATM    5  H   UNL     1     -13.857  11.858  62.845  1.00  0.00     0.000 HD 
HETATM    6  O   UNL     1     -13.512  12.120  63.690  1.00  0.00    -0.474 OA 
ENDBRANCH   2   4
BRANCH   2   7
HETATM    7  C   UNL     1     -11.239  11.985  65.860  1.00  0.00    -0.337 A  
HETATM    8  C   UNL     1     -10.617  10.827  65.419  1.00  0.00    -0.224 A  
HETATM    9  C   UNL     1     -10.458   9.939  66.497  1.00  0.00    -0.213 A  
HETATM   10  C   UNL     1      -9.930   8.634  66.585  1.00  0.00    -0.357 A  
HETATM   11  C   UNL     1      -9.916   7.961  67.808  1.00  0.00    -0.173 A  
HETATM   12  C   UNL     1     -10.450   8.606  68.928  1.00  0.00    -0.192 A  
HETATM   13  C   UNL     1     -10.970  10.561  67.630  1.00  0.00    -0.314 A  
HETATM   14  C   UNL     1     -10.985   9.896  68.871  1.00  0.00    -0.214 A  
HETATM   15  F   UNL     1     -10.443   7.968  70.113  1.00  0.00    -0.206 F  
HETATM   16  N   UNL     1     -11.393  11.829  67.239  1.00  0.00    -0.344 NA 
BRANCH  11  17
HETATM   17  N   UNL     1      -9.401   6.657  67.964  1.00  0.00    -0.115 N  
HETATM   18  H   UNL     1     -10.033   5.884  67.752  1.00  0.00     0.000 HD 
HETATM   19  C   UNL     1      -8.128   6.323  68.375  1.00  0.00    -0.112 C  
HETATM   20  O   UNL     1      -7.222   7.081  68.695  1.00  0.00    -0.088 OA 
BRANCH  19  21
HETATM   21  C   UNL     1      -7.859   4.837  68.389  1.00  0.00    -0.081 C  
HETATM   22  C   UNL     1      -6.708   4.297  67.548  1.00  0.00    -0.047 C  
HETATM   23  C   UNL     1      -8.113   4.108  67.070  1.00  0.00    -0.100 C  
BRANCH  21  24
HETATM   24  C   UNL     1      -8.258   4.138  69.689  1.00  0.00    -0.067 A  
HETATM   25  C   UNL     1     -10.760   2.990  73.232  1.00  0.00    -0.182 C  
HETATM   26  C   UNL     1      -7.665   2.894  70.037  1.00  0.00    -0.045 A  
HETATM   27  C   UNL     1      -9.290   4.624  70.512  1.00  0.00    -0.222 A  
HETATM   28  C   UNL     1      -8.108   2.133  71.126  1.00  0.00    -0.054 A  
HETATM   29  C   UNL     1      -9.148   2.639  71.870  1.00  0.00    -0.086 A  
HETATM   30  C   UNL     1      -9.712   3.858  71.579  1.00  0.00    -0.177 A  
HETATM   31  F   UNL     1     -11.972   2.401  73.086  1.00  0.00    -0.159 F  
HETATM   32  O   UNL     1     -10.731   4.175  72.423  1.00  0.00    -0.107 OA 
HETATM   33  F   UNL     1     -10.635   3.351  74.531  1.00  0.00    -0.212 F  
HETATM   34  O   UNL     1      -9.743   2.026  72.926  1.00  0.00    -0.081 OA 
ENDBRANCH  21  24
ENDBRANCH  19  21
ENDBRANCH  11  17
BRANCH  16  35
HETATM   35  C   UNL     1     -11.931  12.802  68.183  1.00  0.00    -0.246 C  
BRANCH  35  36
HETATM   36  C   UNL     1     -10.871  13.624  68.936  1.00  0.00    -0.235 C  
HETATM   37  H   UNL     1      -9.576  15.074  68.526  1.00  0.00     0.000 HD 
HETATM   38  O   UNL     1     -10.230  14.566  68.061  1.00  0.00    -0.227 OA 
BRANCH  36  39
HETATM   39  C   UNL     1     -11.542  14.441  70.049  1.00  0.00    -0.275 C  
HETATM   40  O   UNL     1     -12.737  15.045  69.552  1.00  0.00    -0.588 OA 
HETATM   41  H   UNL     1     -13.152  15.550  70.242  1.00  0.00     0.000 HD 
ENDBRANCH  36  39
ENDBRANCH  35  36
ENDBRANCH  16  35
ENDBRANCH   2   7
TORSDOF 8
ENDMDL
MODEL       73
REMARK 921   NORMALIZED FREE ENERGY PREDICTED BY IDOCK:   -5.48 KCAL/MOL
REMARK 922        TOTAL FREE ENERGY PREDICTED BY IDOCK:   -8.96 KCAL/MOL
REMARK 923 INTER-LIGAND FREE ENERGY PREDICTED BY IDOCK:   -8.05 KCAL/MOL
REMARK 924 INTRA-LIGAND FREE ENERGY PREDICTED BY IDOCK:   -0.90 KCAL/MOL
REMARK 927      BINDING AFFINITY PREDICTED BY RF-SCORE:    0.00 PKD
ROOT
HETATM    1  C   UNL     1      -9.620   4.330  69.393  1.00  0.00    -0.267 C  
HETATM    2  C   UNL     1      -9.028   4.707  68.005  1.00  0.00    -0.131 C  
HETATM    3  C   UNL     1      -7.528   4.355  68.082  1.00  0.00    -0.065 C  
ENDROOT
BRANCH   2   4
HETATM    4  C   UNL     1      -9.741   3.818  66.944  1.00  0.00    -0.113 C  
HETATM    5  H   UNL     1      -9.611   1.972  66.182  1.00  0.00     0.000 HD 
HETATM    6  O   UNL     1      -9.176   2.515  66.828  1.00  0.00    -0.137 OA 
ENDBRANCH   2   4
BRANCH   2   7
HETATM    7  C   UNL     1      -9.216   6.217  67.743  1.00  0.00    -0.115 A  
HETATM    8  C   UNL     1      -9.628   7.172  68.660  1.00  0.00    -0.140 A  
HETATM    9  C   UNL     1      -9.754   8.417  68.018  1.00  0.00    -0.184 A  
HETATM   10  C   UNL     1     -10.171   9.685  68.473  1.00  0.00    -0.216 A  
HETATM   11  C   UNL     1     -10.223  10.767  67.594  1.00  0.00    -0.189 A  
HETATM   12  C   UNL     1      -9.868  10.556  66.258  1.00  0.00    -0.217 A  
HETATM   13  C   UNL     1      -9.395   8.239  66.687  1.00  0.00    -0.192 A  
HETATM   14  C   UNL     1      -9.457   9.310  65.776  1.00  0.00    -0.329 A  
HETATM   15  F   UNL     1      -9.914  11.592  65.399  1.00  0.00    -0.236 F  
HETATM   16  N   UNL     1      -9.016   6.906  66.545  1.00  0.00    -0.145 NA 
BRANCH  11  17
HETATM   17  N   UNL     1     -10.628  12.061  67.986  1.00  0.00    -0.201 N  
HETATM   18  H   UNL     1     -11.632  12.230  68.045  1.00  0.00     0.000 HD 
HETATM   19  C   UNL     1      -9.800  13.118  68.298  1.00  0.00    -0.227 C  
HETATM   20  O   UNL     1      -8.577  13.143  68.279  1.00  0.00    -0.173 OA 
BRANCH  19  21
HETATM   21  C   UNL     1     -10.536  14.362  68.738  1.00  0.00    -0.244 C  
HETATM   22  C   UNL     1     -11.376  14.300  70.009  1.00  0.00    -0.224 C  
HETATM   23  C   UNL     1     -12.061  14.283  68.679  1.00  0.00    -0.295 C  
BRANCH  21  24
HETATM   24  C   UNL     1      -9.864  15.671  68.323  1.00  0.00    -0.209 A  
HETATM   25  C   UNL     1      -9.387  19.738  66.489  1.00  0.00    -0.394 C  
HETATM   26  C   UNL     1      -8.747  16.159  69.054  1.00  0.00    -0.254 A  
HETATM   27  C   UNL     1     -10.385  16.486  67.302  1.00  0.00    -0.296 A  
HETATM   28  C   UNL     1      -8.197  17.425  68.822  1.00  0.00    -0.226 A  
HETATM   29  C   UNL     1      -8.774  18.195  67.839  1.00  0.00    -0.261 A  
HETATM   30  C   UNL     1      -9.829  17.731  67.090  1.00  0.00    -0.311 A  
HETATM   31  F   UNL     1     -10.142  20.791  66.888  1.00  0.00    -0.574 F  
HETATM   32  O   UNL     1     -10.263  18.644  66.179  1.00  0.00    -0.404 OA 
HETATM   33  F   UNL     1      -8.738  20.105  65.359  1.00  0.00    -0.194 F  
HETATM   34  O   UNL     1      -8.413  19.462  67.505  1.00  0.00    -0.281 OA 
ENDBRANCH  21  24
ENDBRANCH  19  21
ENDBRANCH  11  17
BRANCH  16  35
HETATM   35  C   UNL     1      -8.511   6.364  65.289  1.00  0.00    -0.098 C  
BRANCH  35  36
HETATM   36  C   UNL     1      -7.103   6.847  64.898  1.00  0.00    -0.060 C  
HETATM   37  H   UNL     1      -5.272   6.085  64.780  1.00  0.00     0.000 HD 
HETATM   38  O   UNL     1      -6.141   5.787  65.021  1.00  0.00    -0.024 OA 
BRANCH  36  39
HETATM   39  C   UNL     1      -7.094   7.284  63.427  1.00  0.00    -0.066 C  
HETATM   40  O   UNL     1      -8.425   7.269  62.910  1.00  0.00    -0.361 OA 
HETATM   41  H   UNL     1      -8.419   7.540  61.999  1.00  0.00     0.000 HD 
ENDBRANCH  36  39
ENDBRANCH  35  36
ENDBRANCH  16  35
ENDBRANCH   2   7
TORSDOF 8
ENDMDL
MODEL       74
REMARK 921   NORMALIZED FREE ENERGY PREDICTED BY IDOCK:   -5.44 KCAL/MOL
REMARK 922        TOTAL FREE ENERGY PREDICTED BY IDOCK:   -8.89 KCAL/MOL
REMARK 923 INTER-LIGAND FREE ENERGY PREDICTED BY IDOCK:   -8.42 KCAL/MOL
REMARK 924 INTRA-LIGAND FREE ENERGY PREDICTED BY IDOCK:   -0.48 KCAL/MOL
REMARK 927      BINDING AFFINITY PREDICTED BY RF-SCORE:    0.00 PKD
ROOT
HETATM    1  C   UNL     1      -7.475  19.127  68.167  1.00  0.00    -0.316 C  
HETATM    2  C   UNL     1      -6.760  17.997  67.372  1.00  0.00    -0.194 C  
HETATM    3  C   UNL     1      -6.761  18.458  65.900  1.00  0.00    -0.312 C  
ENDROOT
BRANCH   2   4
HETATM    4  C   UNL     1      -5.302  17.907  67.913  1.00  0.00    -0.142 C  
HETATM    5  H   UNL     1      -4.319  18.065  69.649  1.00  0.00     0.000 HD 
HETATM    6  O   UNL     1      -5.208  18.120  69.319  1.00  0.00    -0.181 OA 
ENDBRANCH   2   4
BRANCH   2   7
HETATM    7  C   UNL     1      -7.537  16.671  67.523  1.00  0.00    -0.155 A  
HETATM    8  C   UNL     1      -6.997  15.416  67.758  1.00  0.00    -0.183 A  
HETATM    9  C   UNL     1      -8.022  14.454  67.751  1.00  0.00    -0.166 A  
HETATM   10  C   UNL     1      -8.012  13.051  67.898  1.00  0.00    -0.157 A  
HETATM   11  C   UNL     1      -9.202  12.327  67.823  1.00  0.00    -0.191 A  
HETATM   12  C   UNL     1     -10.391  13.024  67.586  1.00  0.00    -0.222 A  
HETATM   13  C   UNL     1      -9.220  15.122  67.528  1.00  0.00    -0.186 A  
HETATM   14  C   UNL     1     -10.432  14.412  67.431  1.00  0.00    -0.261 A  
HETATM   15  F   UNL     1     -11.546  12.337  67.513  1.00  0.00    -0.325 F  
HETATM   16  N   UNL     1      -8.918  16.479  67.447  1.00  0.00    -0.198 NA 
BRANCH  11  17
HETATM   17  N   UNL     1      -9.261  10.924  67.964  1.00  0.00    -0.152 N  
HETATM   18  H   UNL     1      -9.064  10.546  68.891  1.00  0.00     0.000 HD 
HETATM   19  C   UNL     1      -9.559  10.014  66.972  1.00  0.00    -0.172 C  
HETATM   20  O   UNL     1      -9.809  10.242  65.797  1.00  0.00    -0.224 OA 
BRANCH  19  21
HETATM   21  C   UNL     1      -9.600   8.581  67.449  1.00  0.00    -0.204 C  
HETATM   22  C   UNL     1      -8.561   7.604  66.910  1.00  0.00    -0.123 C  
HETATM   23  C   UNL     1      -9.962   7.542  66.389  1.00  0.00    -0.119 C  
BRANCH  21  24
HETATM   24  C   UNL     1     -10.165   8.403  68.858  1.00  0.00    -0.223 A  
HETATM   25  C   UNL     1     -13.097   8.587  72.250  1.00  0.00    -0.334 C  
HETATM   26  C   UNL     1      -9.644   7.392  69.711  1.00  0.00    -0.163 A  
HETATM   27  C   UNL     1     -11.278   9.134  69.313  1.00  0.00     0.108 A  
HETATM   28  C   UNL     1     -10.230   7.078  70.943  1.00  0.00    -0.210 A  
HETATM   29  C   UNL     1     -11.341   7.797  71.318  1.00  0.00    -0.264 A  
HETATM   30  C   UNL     1     -11.841   8.807  70.530  1.00  0.00    -0.030 A  
HETATM   31  F   UNL     1     -14.295   7.955  72.190  1.00  0.00    -0.427 F  
HETATM   32  O   UNL     1     -12.947   9.387  71.069  1.00  0.00    -0.269 OA 
HETATM   33  F   UNL     1     -13.121   9.406  73.328  1.00  0.00    -0.048 F  
HETATM   34  O   UNL     1     -12.071   7.603  72.447  1.00  0.00    -0.284 OA 
ENDBRANCH  21  24
ENDBRANCH  19  21
ENDBRANCH  11  17
BRANCH  16  35
HETATM   35  C   UNL     1      -9.944  17.502  67.282  1.00  0.00    -0.312 C  
BRANCH  35  36
HETATM   36  C   UNL     1     -10.062  18.073  65.858  1.00  0.00    -0.162 C  
HETATM   37  H   UNL     1     -10.904  17.553  64.135  1.00  0.00     0.000 HD 
HETATM   38  O   UNL     1     -10.831  17.201  65.014  1.00  0.00    -0.684 OA 
BRANCH  36  39
HETATM   39  C   UNL     1     -10.803  19.417  65.897  1.00  0.00    -0.306 C  
HETATM   40  O   UNL     1      -9.871  20.476  66.119  1.00  0.00    -0.627 OA 
HETATM   41  H   UNL     1     -10.330  21.308  66.143  1.00  0.00     0.000 HD 
ENDBRANCH  36  39
ENDBRANCH  35  36
ENDBRANCH  16  35
ENDBRANCH   2   7
TORSDOF 8
ENDMDL
MODEL       75
REMARK 921   NORMALIZED FREE ENERGY PREDICTED BY IDOCK:   -5.38 KCAL/MOL
REMARK 922        TOTAL FREE ENERGY PREDICTED BY IDOCK:   -8.81 KCAL/MOL
REMARK 923 INTER-LIGAND FREE ENERGY PREDICTED BY IDOCK:   -8.18 KCAL/MOL
REMARK 924 INTRA-LIGAND FREE ENERGY PREDICTED BY IDOCK:   -0.63 KCAL/MOL
REMARK 927      BINDING AFFINITY PREDICTED BY RF-SCORE:    0.00 PKD
ROOT
HETATM    1  C   UNL     1     -10.260  13.961  64.692  1.00  0.00    -0.278 C  
HETATM    2  C   UNL     1     -11.482  13.141  65.196  1.00  0.00    -0.327 C  
HETATM    3  C   UNL     1     -12.387  14.152  65.930  1.00  0.00    -0.486 C  
ENDROOT
BRANCH   2   4
HETATM    4  C   UNL     1     -12.206  12.575  63.939  1.00  0.00    -0.503 C  
HETATM    5  H   UNL     1     -12.804  13.190  62.131  1.00  0.00     0.000 HD 
HETATM    6  O   UNL     1     -12.364  13.536  62.898  1.00  0.00    -0.542 OA 
ENDBRANCH   2   4
BRANCH   2   7
HETATM    7  C   UNL     1     -11.012  12.035  66.165  1.00  0.00    -0.302 A  
HETATM    8  C   UNL     1     -10.766  10.707  65.850  1.00  0.00    -0.105 A  
HETATM    9  C   UNL     1     -10.434   9.999  67.019  1.00  0.00    -0.302 A  
HETATM   10  C   UNL     1     -10.137   8.642  67.258  1.00  0.00    -0.310 A  
HETATM   11  C   UNL     1      -9.860   8.199  68.552  1.00  0.00    -0.179 A  
HETATM   12  C   UNL     1      -9.899   9.128  69.595  1.00  0.00    -0.180 A  
HETATM   13  C   UNL     1     -10.454  10.904  68.074  1.00  0.00    -0.191 A  
HETATM   14  C   UNL     1     -10.195  10.479  69.391  1.00  0.00    -0.245 A  
HETATM   15  F   UNL     1      -9.633   8.714  70.849  1.00  0.00    -0.181 F  
HETATM   16  N   UNL     1     -10.753  12.152  67.532  1.00  0.00    -0.226 NA 
BRANCH  11  17
HETATM   17  N   UNL     1      -9.553   6.856  68.858  1.00  0.00    -0.139 N  
HETATM   18  H   UNL     1      -8.595   6.552  68.686  1.00  0.00     0.000 HD 
HETATM   19  C   UNL     1     -10.422   5.914  69.367  1.00  0.00    -0.275 C  
HETATM   20  O   UNL     1     -11.608   6.054  69.630  1.00  0.00    -0.321 OA 
BRANCH  19  21
HETATM   21  C   UNL     1      -9.779   4.575  69.643  1.00  0.00    -0.288 C  
HETATM   22  C   UNL     1     -10.015   3.918  70.998  1.00  0.00    -0.149 C  
HETATM   23  C   UNL     1      -8.698   4.571  70.723  1.00  0.00    -0.124 C  
BRANCH  21  24
HETATM   24  C   UNL     1      -9.559   3.715  68.398  1.00  0.00    -0.164 A  
HETATM   25  C   UNL     1      -8.823   2.685  64.093  1.00  0.00    -0.097 C  
HETATM   26  C   UNL     1      -9.046   2.395  68.527  1.00  0.00    -0.207 A  
HETATM   27  C   UNL     1      -9.736   4.224  67.098  1.00  0.00    -0.232 A  
HETATM   28  C   UNL     1      -8.673   1.626  67.419  1.00  0.00    -0.125 A  
HETATM   29  C   UNL     1      -8.829   2.191  66.175  1.00  0.00    -0.122 A  
HETATM   30  C   UNL     1      -9.361   3.450  66.020  1.00  0.00    -0.142 A  
HETATM   31  F   UNL     1      -7.701   3.086  63.448  1.00  0.00    -0.059 F  
HETATM   32  O   UNL     1      -9.422   3.831  64.715  1.00  0.00    -0.145 OA 
HETATM   33  F   UNL     1      -9.680   2.201  63.162  1.00  0.00    -0.090 F  
HETATM   34  O   UNL     1      -8.479   1.622  64.992  1.00  0.00    -0.083 OA 
ENDBRANCH  21  24
ENDBRANCH  19  21
ENDBRANCH  11  17
BRANCH  16  35
HETATM   35  C   UNL     1     -10.795  13.367  68.338  1.00  0.00    -0.264 C  
BRANCH  35  36
HETATM   36  C   UNL     1      -9.435  14.058  68.535  1.00  0.00    -0.191 C  
HETATM   37  H   UNL     1      -7.752  14.302  67.508  1.00  0.00     0.000 HD 
HETATM   38  O   UNL     1      -8.592  13.876  67.386  1.00  0.00    -0.178 OA 
BRANCH  36  39
HETATM   39  C   UNL     1      -9.640  15.570  68.699  1.00  0.00    -0.203 C  
HETATM   40  O   UNL     1      -9.490  16.217  67.435  1.00  0.00    -0.224 OA 
HETATM   41  H   UNL     1      -9.617  17.154  67.537  1.00  0.00     0.000 HD 
ENDBRANCH  36  39
ENDBRANCH  35  36
ENDBRANCH  16  35
ENDBRANCH   2   7
TORSDOF 8
ENDMDL
MODEL       76
REMARK 921   NORMALIZED FREE ENERGY PREDICTED BY IDOCK:   -5.35 KCAL/MOL
REMARK 922        TOTAL FREE ENERGY PREDICTED BY IDOCK:   -8.76 KCAL/MOL
REMARK 923 INTER-LIGAND FREE ENERGY PREDICTED BY IDOCK:   -7.52 KCAL/MOL
REMARK 924 INTRA-LIGAND FREE ENERGY PREDICTED BY IDOCK:   -1.25 KCAL/MOL
REMARK 927      BINDING AFFINITY PREDICTED BY RF-SCORE:    0.00 PKD
ROOT
HETATM    1  C   UNL     1      -8.100   4.397  66.449  1.00  0.00    -0.102 C  
HETATM    2  C   UNL     1      -9.337   5.101  67.077  1.00  0.00    -0.127 C  
HETATM    3  C   UNL     1     -10.523   4.762  66.151  1.00  0.00    -0.332 C  
ENDROOT
BRANCH   2   4
HETATM    4  C   UNL     1      -9.552   4.478  68.488  1.00  0.00    -0.149 C  
HETATM    5  H   UNL     1     -10.460   4.922  70.216  1.00  0.00     0.000 HD 
HETATM    6  O   UNL     1     -10.328   5.302  69.355  1.00  0.00    -0.247 OA 
ENDBRANCH   2   4
BRANCH   2   7
HETATM    7  C   UNL     1      -9.108   6.627  67.125  1.00  0.00    -0.128 A  
HETATM    8  C   UNL     1      -9.990   7.611  66.704  1.00  0.00    -0.284 A  
HETATM    9  C   UNL     1      -9.385   8.873  66.837  1.00  0.00    -0.213 A  
HETATM   10  C   UNL     1      -9.823  10.177  66.521  1.00  0.00    -0.268 A  
HETATM   11  C   UNL     1      -8.987  11.272  66.742  1.00  0.00    -0.171 A  
HETATM   12  C   UNL     1      -7.712  11.041  67.265  1.00  0.00    -0.118 A  
HETATM   13  C   UNL     1      -8.116   8.675  67.368  1.00  0.00    -0.102 A  
HETATM   14  C   UNL     1      -7.248   9.761  67.582  1.00  0.00    -0.089 A  
HETATM   15  F   UNL     1      -6.896  12.090  67.483  1.00  0.00    -0.084 F  
HETATM   16  N   UNL     1      -7.981   7.306  67.591  1.00  0.00    -0.113 NA 
BRANCH  11  17
HETATM   17  N   UNL     1      -9.365  12.601  66.451  1.00  0.00    -0.321 N  
HETATM   18  H   UNL     1      -9.146  12.947  65.516  1.00  0.00     0.000 HD 
HETATM   19  C   UNL     1     -10.001  13.477  67.305  1.00  0.00    -0.236 C  
HETATM   20  O   UNL     1     -10.338  13.280  68.464  1.00  0.00    -0.245 OA 
BRANCH  19  21
HETATM   21  C   UNL     1     -10.323  14.814  66.680  1.00  0.00    -0.273 C  
HETATM   22  C   UNL     1     -11.612  14.951  65.877  1.00  0.00    -0.228 C  
HETATM   23  C   UNL     1     -10.308  14.850  65.152  1.00  0.00    -0.431 C  
BRANCH  21  24
HETATM   24  C   UNL     1      -9.756  16.015  67.437  1.00  0.00    -0.232 A  
HETATM   25  C   UNL     1      -6.721  18.910  69.030  1.00  0.00    -0.296 C  
HETATM   26  C   UNL     1     -10.582  17.139  67.707  1.00  0.00    -0.360 A  
HETATM   27  C   UNL     1      -8.395  16.105  67.780  1.00  0.00    -0.162 A  
HETATM   28  C   UNL     1     -10.076  18.327  68.248  1.00  0.00    -0.406 A  
HETATM   29  C   UNL     1      -8.730  18.372  68.526  1.00  0.00    -0.315 A  
HETATM   30  C   UNL     1      -7.916  17.285  68.311  1.00  0.00    -0.244 A  
HETATM   31  F   UNL     1      -5.941  19.650  68.203  1.00  0.00    -0.217 F  
HETATM   32  O   UNL     1      -6.618  17.534  68.638  1.00  0.00    -0.189 OA 
HETATM   33  F   UNL     1      -6.227  19.042  70.283  1.00  0.00    -0.261 F  
HETATM   34  O   UNL     1      -8.051  19.447  69.004  1.00  0.00    -0.347 OA 
ENDBRANCH  21  24
ENDBRANCH  19  21
ENDBRANCH  11  17
BRANCH  16  35
HETATM   35  C   UNL     1      -6.793   6.726  68.207  1.00  0.00    -0.077 C  
BRANCH  35  36
HETATM   36  C   UNL     1      -6.853   6.610  69.740  1.00  0.00    -0.055 C  
HETATM   37  H   UNL     1      -6.769   5.170  71.106  1.00  0.00     0.000 HD 
HETATM   38  O   UNL     1      -6.731   5.241  70.160  1.00  0.00    -0.041 OA 
BRANCH  36  39
HETATM   39  C   UNL     1      -5.677   7.372  70.366  1.00  0.00    -0.024 C  
HETATM   40  O   UNL     1      -5.459   6.913  71.700  1.00  0.00    -0.034 OA 
HETATM   41  H   UNL     1      -4.730   7.384  72.087  1.00  0.00     0.000 HD 
ENDBRANCH  36  39
ENDBRANCH  35  36
ENDBRANCH  16  35
ENDBRANCH   2   7
TORSDOF 8
ENDMDL
MODEL       77
REMARK 921   NORMALIZED FREE ENERGY PREDICTED BY IDOCK:   -5.34 KCAL/MOL
REMARK 922        TOTAL FREE ENERGY PREDICTED BY IDOCK:   -8.76 KCAL/MOL
REMARK 923 INTER-LIGAND FREE ENERGY PREDICTED BY IDOCK:   -8.52 KCAL/MOL
REMARK 924 INTRA-LIGAND FREE ENERGY PREDICTED BY IDOCK:   -0.24 KCAL/MOL
REMARK 927      BINDING AFFINITY PREDICTED BY RF-SCORE:    0.00 PKD
ROOT
HETATM    1  C   UNL     1     -10.562  19.123  65.686  1.00  0.00    -0.303 C  
HETATM    2  C   UNL     1      -9.352  19.282  66.651  1.00  0.00    -0.387 C  
HETATM    3  C   UNL     1      -8.261  20.004  65.834  1.00  0.00    -0.206 C  
ENDROOT
BRANCH   2   4
HETATM    4  C   UNL     1      -9.824  20.174  67.837  1.00  0.00    -0.389 C  
HETATM    5  H   UNL     1     -10.562  19.968  69.686  1.00  0.00     0.000 HD 
HETATM    6  O   UNL     1     -10.274  19.424  68.962  1.00  0.00    -0.390 OA 
ENDBRANCH   2   4
BRANCH   2   7
HETATM    7  C   UNL     1      -8.854  17.894  67.108  1.00  0.00    -0.247 A  
HETATM    8  C   UNL     1      -9.294  16.662  66.645  1.00  0.00    -0.272 A  
HETATM    9  C   UNL     1      -8.657  15.635  67.364  1.00  0.00    -0.192 A  
HETATM   10  C   UNL     1      -8.771  14.230  67.319  1.00  0.00    -0.230 A  
HETATM   11  C   UNL     1      -8.018  13.435  68.184  1.00  0.00    -0.150 A  
HETATM   12  C   UNL     1      -7.167  14.066  69.097  1.00  0.00    -0.059 A  
HETATM   13  C   UNL     1      -7.794  16.235  68.274  1.00  0.00    -0.164 A  
HETATM   14  C   UNL     1      -7.037  15.456  69.169  1.00  0.00    -0.161 A  
HETATM   15  F   UNL     1      -6.435  13.310  69.937  1.00  0.00    -0.127 F  
HETATM   16  N   UNL     1      -7.882  17.610  68.069  1.00  0.00    -0.228 NA 
BRANCH  11  17
HETATM   17  N   UNL     1      -8.083  12.025  68.188  1.00  0.00    -0.151 N  
HETATM   18  H   UNL     1      -7.300  11.530  68.616  1.00  0.00     0.000 HD 
HETATM   19  C   UNL     1      -9.100  11.252  67.671  1.00  0.00    -0.149 C  
HETATM   20  O   UNL     1     -10.116  11.631  67.105  1.00  0.00    -0.201 OA 
BRANCH  19  21
HETATM   21  C   UNL     1      -8.907   9.768  67.881  1.00  0.00    -0.122 C  
HETATM   22  C   UNL     1      -7.591   9.135  67.443  1.00  0.00    -0.085 C  
HETATM   23  C   UNL     1      -8.815   8.928  66.608  1.00  0.00    -0.150 C  
BRANCH  21  24
HETATM   24  C   UNL     1      -9.679   9.195  69.070  1.00  0.00    -0.166 A  
HETATM   25  C   UNL     1     -13.120   8.381  71.831  1.00  0.00    -0.358 C  
HETATM   26  C   UNL     1      -9.240   7.993  69.689  1.00  0.00    -0.152 A  
HETATM   27  C   UNL     1     -10.892   9.753  69.511  1.00  0.00    -0.264 A  
HETATM   28  C   UNL     1      -9.995   7.338  70.669  1.00  0.00    -0.187 A  
HETATM   29  C   UNL     1     -11.193   7.908  71.031  1.00  0.00    -0.269 A  
HETATM   30  C   UNL     1     -11.621   9.091  70.477  1.00  0.00    -0.175 A  
HETATM   31  F   UNL     1     -14.253   7.775  71.397  1.00  0.00    -0.426 F  
HETATM   32  O   UNL     1     -12.833   9.482  70.958  1.00  0.00    -0.298 OA 
HETATM   33  F   UNL     1     -13.366   8.865  73.072  1.00  0.00    -0.445 F  
HETATM   34  O   UNL     1     -12.081   7.396  71.923  1.00  0.00    -0.290 OA 
ENDBRANCH  21  24
ENDBRANCH  19  21
ENDBRANCH  11  17
BRANCH  16  35
HETATM   35  C   UNL     1      -7.063  18.567  68.805  1.00  0.00    -0.291 C  
BRANCH  35  36
HETATM   36  C   UNL     1      -5.625  18.722  68.280  1.00  0.00    -0.190 C  
HETATM   37  H   UNL     1      -4.479  17.905  66.878  1.00  0.00     0.000 HD 
HETATM   38  O   UNL     1      -5.367  17.809  67.202  1.00  0.00    -0.124 OA 
BRANCH  36  39
HETATM   39  C   UNL     1      -5.428  20.137  67.719  1.00  0.00    -0.188 C  
HETATM   40  O   UNL     1      -6.156  21.077  68.510  1.00  0.00    -0.334 OA 
HETATM   41  H   UNL     1      -6.033  21.952  68.162  1.00  0.00     0.000 HD 
ENDBRANCH  36  39
ENDBRANCH  35  36
ENDBRANCH  16  35
ENDBRANCH   2   7
TORSDOF 8
ENDMDL
MODEL       78
REMARK 921   NORMALIZED FREE ENERGY PREDICTED BY IDOCK:   -5.34 KCAL/MOL
REMARK 922        TOTAL FREE ENERGY PREDICTED BY IDOCK:   -8.76 KCAL/MOL
REMARK 923 INTER-LIGAND FREE ENERGY PREDICTED BY IDOCK:   -8.11 KCAL/MOL
REMARK 924 INTRA-LIGAND FREE ENERGY PREDICTED BY IDOCK:   -0.64 KCAL/MOL
REMARK 927      BINDING AFFINITY PREDICTED BY RF-SCORE:    0.00 PKD
ROOT
HETATM    1  C   UNL     1      -8.480  19.159  68.900  1.00  0.00    -0.318 C  
HETATM    2  C   UNL     1      -7.306  18.438  68.178  1.00  0.00    -0.271 C  
HETATM    3  C   UNL     1      -7.094  19.206  66.858  1.00  0.00    -0.215 C  
ENDROOT
BRANCH   2   4
HETATM    4  C   UNL     1      -6.053  18.572  69.093  1.00  0.00    -0.240 C  
HETATM    5  H   UNL     1      -5.171  19.936  70.262  1.00  0.00     0.000 HD 
HETATM    6  O   UNL     1      -5.935  19.854  69.704  1.00  0.00    -0.276 OA 
ENDBRANCH   2   4
BRANCH   2   7
HETATM    7  C   UNL     1      -7.684  16.968  67.893  1.00  0.00    -0.175 A  
HETATM    8  C   UNL     1      -6.879  15.854  68.080  1.00  0.00    -0.129 A  
HETATM    9  C   UNL     1      -7.554  14.706  67.629  1.00  0.00    -0.198 A  
HETATM   10  C   UNL     1      -7.178  13.348  67.556  1.00  0.00    -0.163 A  
HETATM   11  C   UNL     1      -8.058  12.401  67.030  1.00  0.00    -0.124 A  
HETATM   12  C   UNL     1      -9.304  12.836  66.568  1.00  0.00    -0.221 A  
HETATM   13  C   UNL     1      -8.804  15.107  67.173  1.00  0.00    -0.216 A  
HETATM   14  C   UNL     1      -9.702  14.175  66.621  1.00  0.00    -0.297 A  
HETATM   15  F   UNL     1     -10.162  11.932  66.058  1.00  0.00    -0.230 F  
HETATM   16  N   UNL     1      -8.892  16.481  67.391  1.00  0.00    -0.189 NA 
BRANCH  11  17
HETATM   17  N   UNL     1      -7.745  11.029  66.932  1.00  0.00    -0.133 N  
HETATM   18  H   UNL     1      -7.784  10.485  67.794  1.00  0.00     0.000 HD 
HETATM   19  C   UNL     1      -7.390  10.351  65.785  1.00  0.00    -0.147 C  
HETATM   20  O   UNL     1      -7.265  10.804  64.656  1.00  0.00     0.109 OA 
BRANCH  19  21
HETATM   21  C   UNL     1      -7.170   8.871  65.993  1.00  0.00    -0.089 C  
HETATM   22  C   UNL     1      -5.743   8.334  65.961  1.00  0.00    -0.043 C  
HETATM   23  C   UNL     1      -6.636   8.106  64.783  1.00  0.00    -0.059 C  
BRANCH  21  24
HETATM   24  C   UNL     1      -8.227   8.195  66.866  1.00  0.00    -0.111 A  
HETATM   25  C   UNL     1     -10.329   6.797  70.576  1.00  0.00    -0.201 C  
HETATM   26  C   UNL     1      -9.542   7.997  66.364  1.00  0.00    -0.267 A  
HETATM   27  C   UNL     1      -7.982   7.859  68.210  1.00  0.00    -0.122 A  
HETATM   28  C   UNL     1     -10.589   7.535  67.171  1.00  0.00    -0.415 A  
HETATM   29  C   UNL     1     -10.300   7.262  68.488  1.00  0.00    -0.189 A  
HETATM   30  C   UNL     1      -9.028   7.407  68.988  1.00  0.00    -0.131 A  
HETATM   31  F   UNL     1     -10.787   7.671  71.506  1.00  0.00    -0.227 F  
HETATM   32  O   UNL     1      -8.951   7.098  70.311  1.00  0.00    -0.150 OA 
HETATM   33  F   UNL     1     -10.405   5.555  71.110  1.00  0.00    -0.246 F  
HETATM   34  O   UNL     1     -11.190   6.856  69.430  1.00  0.00    -0.228 OA 
ENDBRANCH  21  24
ENDBRANCH  19  21
ENDBRANCH  11  17
BRANCH  16  35
HETATM   35  C   UNL     1     -10.098  17.245  67.094  1.00  0.00    -0.297 C  
BRANCH  35  36
HETATM   36  C   UNL     1     -10.084  17.970  65.737  1.00  0.00    -0.030 C  
HETATM   37  H   UNL     1     -10.810  17.677  63.911  1.00  0.00     0.000 HD 
HETATM   38  O   UNL     1     -10.819  17.230  64.749  1.00  0.00    -0.863 OA 
BRANCH  36  39
HETATM   39  C   UNL     1     -10.772  19.335  65.870  1.00  0.00    -0.372 C  
HETATM   40  O   UNL     1      -9.790  20.354  66.061  1.00  0.00    -0.637 OA 
HETATM   41  H   UNL     1     -10.217  21.199  66.143  1.00  0.00     0.000 HD 
ENDBRANCH  36  39
ENDBRANCH  35  36
ENDBRANCH  16  35
ENDBRANCH   2   7
TORSDOF 8
ENDMDL
MODEL       79
REMARK 921   NORMALIZED FREE ENERGY PREDICTED BY IDOCK:   -5.33 KCAL/MOL
REMARK 922        TOTAL FREE ENERGY PREDICTED BY IDOCK:   -8.75 KCAL/MOL
REMARK 923 INTER-LIGAND FREE ENERGY PREDICTED BY IDOCK:   -7.41 KCAL/MOL
REMARK 924 INTRA-LIGAND FREE ENERGY PREDICTED BY IDOCK:   -1.34 KCAL/MOL
REMARK 927      BINDING AFFINITY PREDICTED BY RF-SCORE:    0.00 PKD
ROOT
HETATM    1  C   UNL     1     -10.986   5.723  67.395  1.00  0.00    -0.164 C  
HETATM    2  C   UNL     1     -10.249   6.007  68.735  1.00  0.00    -0.236 C  
HETATM    3  C   UNL     1     -11.359   6.246  69.778  1.00  0.00    -0.506 C  
ENDROOT
BRANCH   2   4
HETATM    4  C   UNL     1      -9.434   4.728  69.090  1.00  0.00    -0.149 C  
HETATM    5  H   UNL     1      -9.183   2.859  68.421  1.00  0.00     0.000 HD 
HETATM    6  O   UNL     1      -9.680   3.638  68.205  1.00  0.00    -0.137 OA 
ENDBRANCH   2   4
BRANCH   2   7
HETATM    7  C   UNL     1      -9.360   7.262  68.594  1.00  0.00    -0.138 A  
HETATM    8  C   UNL     1      -9.547   8.485  69.221  1.00  0.00    -0.170 A  
HETATM    9  C   UNL     1      -8.575   9.396  68.773  1.00  0.00    -0.127 A  
HETATM   10  C   UNL     1      -8.343  10.758  69.059  1.00  0.00    -0.138 A  
HETATM   11  C   UNL     1      -7.294  11.439  68.440  1.00  0.00    -0.095 A  
HETATM   12  C   UNL     1      -6.497  10.742  67.527  1.00  0.00    -0.058 A  
HETATM   13  C   UNL     1      -7.758   8.726  67.870  1.00  0.00    -0.102 A  
HETATM   14  C   UNL     1      -6.705   9.395  67.219  1.00  0.00    -0.075 A  
HETATM   15  F   UNL     1      -5.481  11.388  66.923  1.00  0.00    -0.060 F  
HETATM   16  N   UNL     1      -8.213   7.411  67.811  1.00  0.00    -0.118 NA 
BRANCH  11  17
HETATM   17  N   UNL     1      -7.008  12.799  68.684  1.00  0.00    -0.097 N  
HETATM   18  H   UNL     1      -6.331  13.002  69.420  1.00  0.00     0.000 HD 
HETATM   19  C   UNL     1      -7.551  13.881  68.024  1.00  0.00    -0.144 C  
HETATM   20  O   UNL     1      -8.384  13.870  67.128  1.00  0.00    -0.196 OA 
BRANCH  19  21
HETATM   21  C   UNL     1      -7.000  15.212  68.476  1.00  0.00    -0.105 C  
HETATM   22  C   UNL     1      -5.503  15.465  68.343  1.00  0.00    -0.107 C  
HETATM   23  C   UNL     1      -6.076  15.167  69.692  1.00  0.00    -0.127 C  
BRANCH  21  24
HETATM   24  C   UNL     1      -7.989  16.373  68.363  1.00  0.00    -0.178 A  
HETATM   25  C   UNL     1     -10.063  19.958  66.636  1.00  0.00    -0.475 C  
HETATM   26  C   UNL     1      -9.225  16.324  69.063  1.00  0.00    -0.253 A  
HETATM   27  C   UNL     1      -7.774  17.454  67.488  1.00  0.00    -0.205 A  
HETATM   28  C   UNL     1     -10.233  17.276  68.869  1.00  0.00    -0.349 A  
HETATM   29  C   UNL     1      -9.983  18.287  67.970  1.00  0.00    -0.347 A  
HETATM   30  C   UNL     1      -8.781  18.381  67.310  1.00  0.00    -0.259 A  
HETATM   31  F   UNL     1     -10.705  19.902  65.443  1.00  0.00    -0.584 F  
HETATM   32  O   UNL     1      -8.736  19.442  66.459  1.00  0.00    -0.319 OA 
HETATM   33  F   UNL     1      -9.976  21.261  66.992  1.00  0.00    -0.463 F  
HETATM   34  O   UNL     1     -10.853  19.268  67.614  1.00  0.00    -0.458 OA 
ENDBRANCH  21  24
ENDBRANCH  19  21
ENDBRANCH  11  17
BRANCH  16  35
HETATM   35  C   UNL     1      -7.553   6.388  67.009  1.00  0.00    -0.095 C  
BRANCH  35  36
HETATM   36  C   UNL     1      -7.904   6.417  65.511  1.00  0.00    -0.103 C  
HETATM   37  H   UNL     1      -7.008   6.899  63.804  1.00  0.00     0.000 HD 
HETATM   38  O   UNL     1      -6.791   6.880  64.729  1.00  0.00    -0.044 OA 
BRANCH  36  39
HETATM   39  C   UNL     1      -8.226   4.998  65.025  1.00  0.00    -0.133 C  
HETATM   40  O   UNL     1      -7.772   4.043  65.985  1.00  0.00    -0.088 OA 
HETATM   41  H   UNL     1      -7.972   3.164  65.684  1.00  0.00     0.000 HD 
ENDBRANCH  36  39
ENDBRANCH  35  36
ENDBRANCH  16  35
ENDBRANCH   2   7
TORSDOF 8
ENDMDL
MODEL       80
REMARK 921   NORMALIZED FREE ENERGY PREDICTED BY IDOCK:   -5.33 KCAL/MOL
REMARK 922        TOTAL FREE ENERGY PREDICTED BY IDOCK:   -8.74 KCAL/MOL
REMARK 923 INTER-LIGAND FREE ENERGY PREDICTED BY IDOCK:   -7.76 KCAL/MOL
REMARK 924 INTRA-LIGAND FREE ENERGY PREDICTED BY IDOCK:   -0.98 KCAL/MOL
REMARK 927      BINDING AFFINITY PREDICTED BY RF-SCORE:    0.00 PKD
ROOT
HETATM    1  C   UNL     1     -11.137   6.442  67.248  1.00  0.00    -0.416 C  
HETATM    2  C   UNL     1     -10.215   6.254  68.486  1.00  0.00    -0.205 C  
HETATM    3  C   UNL     1     -11.149   5.846  69.643  1.00  0.00    -0.414 C  
ENDROOT
BRANCH   2   4
HETATM    4  C   UNL     1      -9.227   5.097  68.151  1.00  0.00    -0.116 C  
HETATM    5  H   UNL     1      -9.168   3.097  68.195  1.00  0.00     0.000 HD 
HETATM    6  O   UNL     1      -9.769   3.802  68.400  1.00  0.00    -0.131 OA 
ENDBRANCH   2   4
BRANCH   2   7
HETATM    7  C   UNL     1      -9.494   7.579  68.815  1.00  0.00    -0.148 A  
HETATM    8  C   UNL     1      -9.816   8.839  68.335  1.00  0.00    -0.189 A  
HETATM    9  C   UNL     1      -8.876   9.775  68.801  1.00  0.00    -0.129 A  
HETATM   10  C   UNL     1      -8.721  11.159  68.581  1.00  0.00    -0.153 A  
HETATM   11  C   UNL     1      -7.658  11.850  69.165  1.00  0.00     0.117 A  
HETATM   12  C   UNL     1      -6.753  11.134  69.953  1.00  0.00    -0.097 A  
HETATM   13  C   UNL     1      -7.966   9.091  69.600  1.00  0.00    -0.093 A  
HETATM   14  C   UNL     1      -6.876   9.762  70.185  1.00  0.00    -0.109 A  
HETATM   15  F   UNL     1      -5.723  11.790  70.522  1.00  0.00    -0.115 F  
HETATM   16  N   UNL     1      -8.387   7.763  69.646  1.00  0.00    -0.127 NA 
BRANCH  11  17
HETATM   17  N   UNL     1      -7.449  13.234  68.987  1.00  0.00    -0.303 N  
HETATM   18  H   UNL     1      -8.012  13.863  69.560  1.00  0.00     0.000 HD 
HETATM   19  C   UNL     1      -6.557  13.822  68.114  1.00  0.00    -0.126 C  
HETATM   20  O   UNL     1      -5.802  13.265  67.329  1.00  0.00    -0.349 OA 
BRANCH  19  21
HETATM   21  C   UNL     1      -6.524  15.330  68.196  1.00  0.00    -0.133 C  
HETATM   22  C   UNL     1      -5.171  16.031  68.184  1.00  0.00    -0.114 C  
HETATM   23  C   UNL     1      -5.918  15.909  69.474  1.00  0.00    -0.145 C  
BRANCH  21  24
HETATM   24  C   UNL     1      -7.753  16.019  67.603  1.00  0.00    -0.165 A  
HETATM   25  C   UNL     1     -10.491  19.340  66.336  1.00  0.00    -0.474 C  
HETATM   26  C   UNL     1      -8.536  15.353  66.621  1.00  0.00    -0.318 A  
HETATM   27  C   UNL     1      -8.081  17.352  67.908  1.00  0.00    -0.220 A  
HETATM   28  C   UNL     1      -9.570  15.995  65.928  1.00  0.00    -0.370 A  
HETATM   29  C   UNL     1      -9.818  17.311  66.239  1.00  0.00    -0.285 A  
HETATM   30  C   UNL     1      -9.102  17.966  67.213  1.00  0.00    -0.251 A  
HETATM   31  F   UNL     1     -10.105  20.275  65.433  1.00  0.00    -0.481 F  
HETATM   32  O   UNL     1      -9.492  19.261  67.362  1.00  0.00    -0.299 OA 
HETATM   33  F   UNL     1     -11.650  19.764  66.892  1.00  0.00    -0.272 F  
HETATM   34  O   UNL     1     -10.741  18.109  65.642  1.00  0.00    -0.538 OA 
ENDBRANCH  21  24
ENDBRANCH  19  21
ENDBRANCH  11  17
BRANCH  16  35
HETATM   35  C   UNL     1      -7.708   6.754  70.449  1.00  0.00    -0.100 C  
BRANCH  35  36
HETATM   36  C   UNL     1      -8.447   6.350  71.737  1.00  0.00    -0.124 C  
HETATM   37  H   UNL     1      -9.023   4.673  72.633  1.00  0.00     0.000 HD 
HETATM   38  O   UNL     1      -8.566   4.922  71.838  1.00  0.00    -0.124 OA 
BRANCH  36  39
HETATM   39  C   UNL     1      -7.648   6.815  72.962  1.00  0.00    -0.086 C  
HETATM   40  O   UNL     1      -8.411   7.768  73.703  1.00  0.00    -0.161 OA 
HETATM   41  H   UNL     1      -7.916   8.056  74.462  1.00  0.00     0.000 HD 
ENDBRANCH  36  39
ENDBRANCH  35  36
ENDBRANCH  16  35
ENDBRANCH   2   7
TORSDOF 8
ENDMDL
MODEL       81
REMARK 921   NORMALIZED FREE ENERGY PREDICTED BY IDOCK:   -5.30 KCAL/MOL
REMARK 922        TOTAL FREE ENERGY PREDICTED BY IDOCK:   -8.70 KCAL/MOL
REMARK 923 INTER-LIGAND FREE ENERGY PREDICTED BY IDOCK:   -8.53 KCAL/MOL
REMARK 924 INTRA-LIGAND FREE ENERGY PREDICTED BY IDOCK:   -0.16 KCAL/MOL
REMARK 927      BINDING AFFINITY PREDICTED BY RF-SCORE:    0.00 PKD
ROOT
HETATM    1  C   UNL     1     -10.713  16.925  67.510  1.00  0.00    -0.270 C  
HETATM    2  C   UNL     1     -10.097  15.700  66.776  1.00  0.00    -0.277 C  
HETATM    3  C   UNL     1     -10.868  15.582  65.445  1.00  0.00    -0.402 C  
ENDROOT
BRANCH   2   4
HETATM    4  C   UNL     1      -8.599  16.031  66.509  1.00  0.00    -0.309 C  
HETATM    5  H   UNL     1      -7.366  17.607  66.547  1.00  0.00     0.000 HD 
HETATM    6  O   UNL     1      -8.280  17.405  66.709  1.00  0.00    -0.220 OA 
ENDBRANCH   2   4
BRANCH   2   7
HETATM    7  C   UNL     1     -10.286  14.425  67.625  1.00  0.00    -0.237 A  
HETATM    8  C   UNL     1      -9.564  13.245  67.520  1.00  0.00    -0.218 A  
HETATM    9  C   UNL     1     -10.089  12.292  68.412  1.00  0.00    -0.215 A  
HETATM   10  C   UNL     1      -9.756  10.947  68.671  1.00  0.00    -0.188 A  
HETATM   11  C   UNL     1     -10.475  10.213  69.615  1.00  0.00    -0.252 A  
HETATM   12  C   UNL     1     -11.534  10.840  70.279  1.00  0.00    -0.319 A  
HETATM   13  C   UNL     1     -11.139  12.894  69.096  1.00  0.00    -0.190 A  
HETATM   14  C   UNL     1     -11.891  12.169  70.040  1.00  0.00    -0.383 A  
HETATM   15  F   UNL     1     -12.235  10.142  71.192  1.00  0.00    -0.356 F  
HETATM   16  N   UNL     1     -11.213  14.211  68.647  1.00  0.00    -0.252 NA 
BRANCH  11  17
HETATM   17  N   UNL     1     -10.191   8.865  69.923  1.00  0.00    -0.194 N  
HETATM   18  H   UNL     1     -10.694   8.156  69.389  1.00  0.00     0.000 HD 
HETATM   19  C   UNL     1      -9.302   8.412  70.874  1.00  0.00    -0.166 C  
HETATM   20  O   UNL     1      -8.613   9.080  71.633  1.00  0.00    -0.333 OA 
BRANCH  19  21
HETATM   21  C   UNL     1      -9.177   6.908  70.928  1.00  0.00    -0.157 C  
HETATM   22  C   UNL     1     -10.089   6.134  71.873  1.00  0.00    -0.216 C  
HETATM   23  C   UNL     1      -8.654   6.335  72.244  1.00  0.00    -0.118 C  
BRANCH  21  24
HETATM   24  C   UNL     1      -8.701   6.270  69.623  1.00  0.00    -0.136 A  
HETATM   25  C   UNL     1      -8.727   3.622  66.000  1.00  0.00    -0.120 C  
HETATM   26  C   UNL     1      -7.790   6.965  68.782  1.00  0.00    -0.118 A  
HETATM   27  C   UNL     1      -9.226   5.052  69.153  1.00  0.00    -0.154 A  
HETATM   28  C   UNL     1      -7.449   6.504  67.505  1.00  0.00    -0.096 A  
HETATM   29  C   UNL     1      -8.025   5.329  67.082  1.00  0.00    -0.101 A  
HETATM   30  C   UNL     1      -8.878   4.616  67.891  1.00  0.00    -0.106 A  
HETATM   31  F   UNL     1      -9.702   3.711  65.061  1.00  0.00    -0.151 F  
HETATM   32  O   UNL     1      -9.349   3.491  67.286  1.00  0.00    -0.181 OA 
HETATM   33  F   UNL     1      -8.017   2.498  65.746  1.00  0.00    -0.078 F  
HETATM   34  O   UNL     1      -7.856   4.754  65.863  1.00  0.00    -0.093 OA 
ENDBRANCH  21  24
ENDBRANCH  19  21
ENDBRANCH  11  17
BRANCH  16  35
HETATM   35  C   UNL     1     -12.163  15.173  69.193  1.00  0.00    -0.150 C  
BRANCH  35  36
HETATM   36  C   UNL     1     -12.195  15.246  70.730  1.00  0.00    -0.360 C  
HETATM   37  H   UNL     1     -11.595  16.498  72.151  1.00  0.00     0.000 HD 
HETATM   38  O   UNL     1     -11.575  16.453  71.202  1.00  0.00    -0.400 OA 
BRANCH  36  39
HETATM   39  C   UNL     1     -13.650  15.275  71.217  1.00  0.00    -0.507 C  
HETATM   40  O   UNL     1     -13.694  15.704  72.579  1.00  0.00    -0.511 OA 
HETATM   41  H   UNL     1     -14.595  15.722  72.881  1.00  0.00     0.000 HD 
ENDBRANCH  36  39
ENDBRANCH  35  36
ENDBRANCH  16  35
ENDBRANCH   2   7
TORSDOF 8
ENDMDL
MODEL       82
REMARK 921   NORMALIZED FREE ENERGY PREDICTED BY IDOCK:   -5.29 KCAL/MOL
REMARK 922        TOTAL FREE ENERGY PREDICTED BY IDOCK:   -8.68 KCAL/MOL
REMARK 923 INTER-LIGAND FREE ENERGY PREDICTED BY IDOCK:   -7.84 KCAL/MOL
REMARK 924 INTRA-LIGAND FREE ENERGY PREDICTED BY IDOCK:   -0.83 KCAL/MOL
REMARK 927      BINDING AFFINITY PREDICTED BY RF-SCORE:    0.00 PKD
ROOT
HETATM    1  C   UNL     1     -13.533  15.133  70.240  1.00  0.00     0.166 C  
HETATM    2  C   UNL     1     -12.600  14.214  71.081  1.00  0.00    -0.439 C  
HETATM    3  C   UNL     1     -11.434  15.113  71.540  1.00  0.00    -0.422 C  
ENDROOT
BRANCH   2   4
HETATM    4  C   UNL     1     -13.424  13.723  72.307  1.00  0.00    -0.541 C  
HETATM    5  H   UNL     1     -14.531  14.485  73.790  1.00  0.00     0.000 HD 
HETATM    6  O   UNL     1     -14.028  14.784  73.043  1.00  0.00    -0.459 OA 
ENDBRANCH   2   4
BRANCH   2   7
HETATM    7  C   UNL     1     -12.076  13.053  70.208  1.00  0.00    -0.314 A  
HETATM    8  C   UNL     1     -11.794  11.762  70.630  1.00  0.00    -0.185 A  
HETATM    9  C   UNL     1     -11.261  11.024  69.558  1.00  0.00    -0.343 A  
HETATM   10  C   UNL     1     -10.781   9.701  69.459  1.00  0.00    -0.252 A  
HETATM   11  C   UNL     1     -10.275   9.225  68.249  1.00  0.00    -0.201 A  
HETATM   12  C   UNL     1     -10.245  10.093  67.153  1.00  0.00    -0.225 A  
HETATM   13  C   UNL     1     -11.230  11.861  68.448  1.00  0.00    -0.258 A  
HETATM   14  C   UNL     1     -10.709  11.409  67.222  1.00  0.00    -0.283 A  
HETATM   15  F   UNL     1      -9.760   9.645  65.979  1.00  0.00    -0.238 F  
HETATM   16  N   UNL     1     -11.782  13.077  68.844  1.00  0.00    -0.309 NA 
BRANCH  11  17
HETATM   17  N   UNL     1      -9.782   7.913  68.082  1.00  0.00    -0.155 N  
HETATM   18  H   UNL     1      -8.835   7.732  68.414  1.00  0.00     0.000 HD 
HETATM   19  C   UNL     1     -10.456   6.851  67.516  1.00  0.00    -0.247 C  
HETATM   20  O   UNL     1     -11.583   6.847  67.042  1.00  0.00     0.072 OA 
BRANCH  19  21
HETATM   21  C   UNL     1      -9.679   5.556  67.533  1.00  0.00    -0.140 C  
HETATM   22  C   UNL     1      -8.810   5.211  66.329  1.00  0.00    -0.124 C  
HETATM   23  C   UNL     1     -10.118   4.509  66.510  1.00  0.00    -0.257 C  
BRANCH  21  24
HETATM   24  C   UNL     1      -9.283   5.079  68.931  1.00  0.00    -0.155 A  
HETATM   25  C   UNL     1      -6.718   4.355  72.541  1.00  0.00    -0.046 C  
HETATM   26  C   UNL     1     -10.279   4.897  69.929  1.00  0.00    -0.299 A  
HETATM   27  C   UNL     1      -7.938   4.920  69.312  1.00  0.00    -0.075 A  
HETATM   28  C   UNL     1      -9.959   4.622  71.263  1.00  0.00    -0.268 A  
HETATM   29  C   UNL     1      -8.626   4.519  71.586  1.00  0.00    -0.115 A  
HETATM   30  C   UNL     1      -7.644   4.650  70.632  1.00  0.00    -0.054 A  
HETATM   31  F   UNL     1      -6.168   5.379  73.238  1.00  0.00    -0.046 F  
HETATM   32  O   UNL     1      -6.394   4.527  71.154  1.00  0.00    -0.018 OA 
HETATM   33  F   UNL     1      -6.148   3.208  72.980  1.00  0.00    -0.007 F  
HETATM   34  O   UNL     1      -8.123   4.307  72.830  1.00  0.00    -0.088 OA 
ENDBRANCH  21  24
ENDBRANCH  19  21
ENDBRANCH  11  17
BRANCH  16  35
HETATM   35  C   UNL     1     -11.975  14.188  67.919  1.00  0.00    -0.343 C  
BRANCH  35  36
HETATM   36  C   UNL     1     -10.741  15.086  67.721  1.00  0.00    -0.278 C  
HETATM   37  H   UNL     1      -9.605  15.706  66.214  1.00  0.00     0.000 HD 
HETATM   38  O   UNL     1     -10.367  15.152  66.336  1.00  0.00    -0.269 OA 
BRANCH  36  39
HETATM   39  C   UNL     1     -11.067  16.519  68.161  1.00  0.00    -0.303 C  
HETATM   40  O   UNL     1     -10.290  17.446  67.401  1.00  0.00    -0.323 OA 
HETATM   41  H   UNL     1     -10.492  18.333  67.673  1.00  0.00     0.000 HD 
ENDBRANCH  36  39
ENDBRANCH  35  36
ENDBRANCH  16  35
ENDBRANCH   2   7
TORSDOF 8
ENDMDL
MODEL       83
REMARK 921   NORMALIZED FREE ENERGY PREDICTED BY IDOCK:   -5.27 KCAL/MOL
REMARK 922        TOTAL FREE ENERGY PREDICTED BY IDOCK:   -8.65 KCAL/MOL
REMARK 923 INTER-LIGAND FREE ENERGY PREDICTED BY IDOCK:   -8.05 KCAL/MOL
REMARK 924 INTRA-LIGAND FREE ENERGY PREDICTED BY IDOCK:   -0.60 KCAL/MOL
REMARK 927      BINDING AFFINITY PREDICTED BY RF-SCORE:    0.00 PKD
ROOT
HETATM    1  C   UNL     1      -8.271  17.365  66.809  1.00  0.00    -0.279 C  
HETATM    2  C   UNL     1      -9.700  16.950  67.264  1.00  0.00    -0.251 C  
HETATM    3  C   UNL     1     -10.044  17.875  68.449  1.00  0.00    -0.385 C  
ENDROOT
BRANCH   2   4
HETATM    4  C   UNL     1     -10.659  17.219  66.068  1.00  0.00    -0.217 C  
HETATM    5  H   UNL     1     -11.107  18.692  64.788  1.00  0.00     0.000 HD 
HETATM    6  O   UNL     1     -10.523  18.528  65.518  1.00  0.00    -0.597 OA 
ENDBRANCH   2   4
BRANCH   2   7
HETATM    7  C   UNL     1      -9.703  15.473  67.712  1.00  0.00    -0.211 A  
HETATM    8  C   UNL     1      -8.616  14.612  67.737  1.00  0.00    -0.175 A  
HETATM    9  C   UNL     1      -9.041  13.330  68.129  1.00  0.00    -0.207 A  
HETATM   10  C   UNL     1      -8.358  12.104  68.276  1.00  0.00    -0.172 A  
HETATM   11  C   UNL     1      -9.048  10.956  68.666  1.00  0.00    -0.175 A  
HETATM   12  C   UNL     1     -10.425  11.052  68.891  1.00  0.00    -0.204 A  
HETATM   13  C   UNL     1     -10.408  13.398  68.372  1.00  0.00    -0.251 A  
HETATM   14  C   UNL     1     -11.129  12.250  68.749  1.00  0.00    -0.295 A  
HETATM   15  F   UNL     1     -11.102   9.951  69.268  1.00  0.00    -0.230 F  
HETATM   16  N   UNL     1     -10.789  14.722  68.168  1.00  0.00    -0.248 NA 
BRANCH  11  17
HETATM   17  N   UNL     1      -8.425   9.701  68.833  1.00  0.00    -0.121 N  
HETATM   18  H   UNL     1      -8.622   8.992  68.127  1.00  0.00     0.000 HD 
HETATM   19  C   UNL     1      -7.574   9.339  69.856  1.00  0.00    -0.093 C  
HETATM   20  O   UNL     1      -7.216  10.019  70.807  1.00  0.00    -0.328 OA 
BRANCH  19  21
HETATM   21  C   UNL     1      -7.021   7.939  69.725  1.00  0.00    -0.050 C  
HETATM   22  C   UNL     1      -5.512   7.759  69.608  1.00  0.00    -0.023 C  
HETATM   23  C   UNL     1      -6.363   7.611  68.386  1.00  0.00    -0.041 C  
BRANCH  21  24
HETATM   24  C   UNL     1      -7.876   6.862  70.393  1.00  0.00    -0.109 A  
HETATM   25  C   UNL     1     -11.006   5.042  73.044  1.00  0.00    -0.295 C  
HETATM   26  C   UNL     1      -8.064   5.606  69.754  1.00  0.00    -0.102 A  
HETATM   27  C   UNL     1      -8.591   7.106  71.580  1.00  0.00    -0.115 A  
HETATM   28  C   UNL     1      -8.963   4.648  70.237  1.00  0.00    -0.144 A  
HETATM   29  C   UNL     1      -9.666   4.958  71.378  1.00  0.00    -0.175 A  
HETATM   30  C   UNL     1      -9.473   6.149  72.038  1.00  0.00    -0.152 A  
HETATM   31  F   UNL     1     -12.320   5.341  72.901  1.00  0.00    -0.314 F  
HETATM   32  O   UNL     1     -10.269   6.269  73.135  1.00  0.00    -0.182 OA 
HETATM   33  F   UNL     1     -10.865   4.365  74.208  1.00  0.00    -0.290 F  
HETATM   34  O   UNL     1     -10.613   4.181  71.965  1.00  0.00    -0.064 OA 
ENDBRANCH  21  24
ENDBRANCH  19  21
ENDBRANCH  11  17
BRANCH  16  35
HETATM   35  C   UNL     1     -12.152  15.190  68.394  1.00  0.00    -0.074 C  
BRANCH  35  36
HETATM   36  C   UNL     1     -12.522  15.406  69.872  1.00  0.00    -0.240 C  
HETATM   37  H   UNL     1     -13.186  14.314  71.393  1.00  0.00     0.000 HD 
HETATM   38  O   UNL     1     -12.956  14.180  70.481  1.00  0.00    -0.304 OA 
BRANCH  36  39
HETATM   39  C   UNL     1     -11.287  15.876  70.653  1.00  0.00    -0.397 C  
HETATM   40  O   UNL     1     -11.035  14.984  71.740  1.00  0.00    -0.547 OA 
HETATM   41  H   UNL     1     -10.271  15.274  72.223  1.00  0.00     0.000 HD 
ENDBRANCH  36  39
ENDBRANCH  35  36
ENDBRANCH  16  35
ENDBRANCH   2   7
TORSDOF 8
ENDMDL
MODEL       84
REMARK 921   NORMALIZED FREE ENERGY PREDICTED BY IDOCK:   -5.18 KCAL/MOL
REMARK 922        TOTAL FREE ENERGY PREDICTED BY IDOCK:   -8.52 KCAL/MOL
REMARK 923 INTER-LIGAND FREE ENERGY PREDICTED BY IDOCK:   -8.00 KCAL/MOL
REMARK 924 INTRA-LIGAND FREE ENERGY PREDICTED BY IDOCK:   -0.53 KCAL/MOL
REMARK 927      BINDING AFFINITY PREDICTED BY RF-SCORE:    0.00 PKD
ROOT
HETATM    1  C   UNL     1      -9.271   4.786  65.051  1.00  0.00    -0.136 C  
HETATM    2  C   UNL     1      -8.721   4.557  66.487  1.00  0.00    -0.112 C  
HETATM    3  C   UNL     1      -9.419   3.282  67.003  1.00  0.00    -0.161 C  
ENDROOT
BRANCH   2   4
HETATM    4  C   UNL     1      -7.187   4.322  66.359  1.00  0.00    -0.075 C  
HETATM    5  H   UNL     1      -5.478   5.350  66.533  1.00  0.00     0.000 HD 
HETATM    6  O   UNL     1      -6.413   5.493  66.611  1.00  0.00    -0.047 OA 
ENDBRANCH   2   4
BRANCH   2   7
HETATM    7  C   UNL     1      -9.067   5.764  67.385  1.00  0.00    -0.110 A  
HETATM    8  C   UNL     1      -9.603   6.976  66.975  1.00  0.00    -0.199 A  
HETATM    9  C   UNL     1      -9.698   7.845  68.076  1.00  0.00    -0.182 A  
HETATM   10  C   UNL     1     -10.129   9.182  68.198  1.00  0.00    -0.225 A  
HETATM   11  C   UNL     1     -10.095   9.822  69.438  1.00  0.00    -0.209 A  
HETATM   12  C   UNL     1      -9.613   9.111  70.541  1.00  0.00    -0.243 A  
HETATM   13  C   UNL     1      -9.235   7.158  69.192  1.00  0.00    -0.139 A  
HETATM   14  C   UNL     1      -9.174   7.787  70.450  1.00  0.00    -0.156 A  
HETATM   15  F   UNL     1      -9.575   9.717  71.742  1.00  0.00    -0.117 F  
HETATM   16  N   UNL     1      -8.906   5.872  68.768  1.00  0.00    -0.112 NA 
BRANCH  11  17
HETATM   17  N   UNL     1     -10.513  11.156  69.628  1.00  0.00    -0.451 N  
HETATM   18  H   UNL     1      -9.923  11.744  70.218  1.00  0.00     0.000 HD 
HETATM   19  C   UNL     1     -11.641  11.745  69.096  1.00  0.00    -0.310 C  
HETATM   20  O   UNL     1     -12.489  11.227  68.383  1.00  0.00    -0.403 OA 
BRANCH  19  21
HETATM   21  C   UNL     1     -11.786  13.209  69.438  1.00  0.00    -0.383 C  
HETATM   22  C   UNL     1     -11.693  13.629  70.900  1.00  0.00     0.103 C  
HETATM   23  C   UNL     1     -13.034  13.580  70.238  1.00  0.00     0.131 C  
BRANCH  21  24
HETATM   24  C   UNL     1     -11.328  14.161  68.333  1.00  0.00    -0.315 A  
HETATM   25  C   UNL     1      -9.873  17.935  66.391  1.00  0.00    -0.337 C  
HETATM   26  C   UNL     1     -10.770  13.641  67.133  1.00  0.00    -0.279 A  
HETATM   27  C   UNL     1     -11.327  15.557  68.503  1.00  0.00    -0.356 A  
HETATM   28  C   UNL     1     -10.186  14.463  66.162  1.00  0.00    -0.317 A  
HETATM   29  C   UNL     1     -10.177  15.817  66.402  1.00  0.00    -0.293 A  
HETATM   30  C   UNL     1     -10.746  16.349  67.535  1.00  0.00    -0.298 A  
HETATM   31  F   UNL     1      -8.686  18.498  66.730  1.00  0.00    -0.247 F  
HETATM   32  O   UNL     1     -10.623  17.703  67.591  1.00  0.00    -0.369 OA 
HETATM   33  F   UNL     1     -10.545  18.828  65.626  1.00  0.00    -0.479 F  
HETATM   34  O   UNL     1      -9.615  16.763  65.605  1.00  0.00    -0.527 OA 
ENDBRANCH  21  24
ENDBRANCH  19  21
ENDBRANCH  11  17
BRANCH  16  35
HETATM   35  C   UNL     1      -8.442   4.839  69.686  1.00  0.00    -0.082 C  
BRANCH  35  36
HETATM   36  C   UNL     1      -9.551   3.934  70.252  1.00  0.00    -0.201 C  
HETATM   37  H   UNL     1      -9.814   2.002  70.635  1.00  0.00     0.000 HD 
HETATM   38  O   UNL     1      -9.129   2.561  70.287  1.00  0.00    -0.088 OA 
BRANCH  36  39
HETATM   39  C   UNL     1      -9.863   4.338  71.699  1.00  0.00    -0.187 C  
HETATM   40  O   UNL     1      -9.180   3.467  72.602  1.00  0.00    -0.091 OA 
HETATM   41  H   UNL     1      -9.374   3.718  73.498  1.00  0.00     0.000 HD 
ENDBRANCH  36  39
ENDBRANCH  35  36
ENDBRANCH  16  35
ENDBRANCH   2   7
TORSDOF 8
ENDMDL
MODEL       85
REMARK 921   NORMALIZED FREE ENERGY PREDICTED BY IDOCK:   -5.18 KCAL/MOL
REMARK 922        TOTAL FREE ENERGY PREDICTED BY IDOCK:   -8.51 KCAL/MOL
REMARK 923 INTER-LIGAND FREE ENERGY PREDICTED BY IDOCK:   -8.19 KCAL/MOL
REMARK 924 INTRA-LIGAND FREE ENERGY PREDICTED BY IDOCK:   -0.32 KCAL/MOL
REMARK 927      BINDING AFFINITY PREDICTED BY RF-SCORE:    0.00 PKD
ROOT
HETATM    1  C   UNL     1      -8.388  19.594  68.534  1.00  0.00    -0.329 C  
HETATM    2  C   UNL     1      -7.488  18.400  68.104  1.00  0.00    -0.279 C  
HETATM    3  C   UNL     1      -7.112  18.670  66.633  1.00  0.00    -0.235 C  
ENDROOT
BRANCH   2   4
HETATM    4  C   UNL     1      -6.219  18.434  69.005  1.00  0.00    -0.233 C  
HETATM    5  H   UNL     1      -4.505  19.454  69.168  1.00  0.00     0.000 HD 
HETATM    6  O   UNL     1      -5.278  19.433  68.618  1.00  0.00    -0.188 OA 
ENDBRANCH   2   4
BRANCH   2   7
HETATM    7  C   UNL     1      -8.273  17.076  68.226  1.00  0.00    -0.227 A  
HETATM    8  C   UNL     1      -7.796  15.872  68.723  1.00  0.00    -0.185 A  
HETATM    9  C   UNL     1      -8.787  14.884  68.593  1.00  0.00    -0.179 A  
HETATM   10  C   UNL     1      -8.805  13.507  68.900  1.00  0.00     0.223 A  
HETATM   11  C   UNL     1      -9.943  12.742  68.640  1.00  0.00    -0.091 A  
HETATM   12  C   UNL     1     -11.048  13.371  68.058  1.00  0.00    -0.255 A  
HETATM   13  C   UNL     1      -9.905  15.485  68.026  1.00  0.00    -0.212 A  
HETATM   14  C   UNL     1     -11.058  14.731  67.737  1.00  0.00    -0.306 A  
HETATM   15  F   UNL     1     -12.152  12.644  67.802  1.00  0.00    -0.397 F  
HETATM   16  N   UNL     1      -9.598  16.834  67.859  1.00  0.00    -0.233 NA 
BRANCH  11  17
HETATM   17  N   UNL     1     -10.026  11.363  68.925  1.00  0.00    -0.352 N  
HETATM   18  H   UNL     1     -10.115  11.101  69.908  1.00  0.00     0.000 HD 
HETATM   19  C   UNL     1     -10.000  10.334  68.008  1.00  0.00    -0.153 C  
HETATM   20  O   UNL     1      -9.884  10.418  66.793  1.00  0.00    -0.181 OA 
BRANCH  19  21
HETATM   21  C   UNL     1     -10.167   8.964  68.621  1.00  0.00    -0.221 C  
HETATM   22  C   UNL     1     -11.078   8.813  69.833  1.00  0.00    -0.129 C  
HETATM   23  C   UNL     1      -9.595   8.795  70.027  1.00  0.00    -0.177 C  
BRANCH  21  24
HETATM   24  C   UNL     1     -10.005   7.809  67.632  1.00  0.00    -0.230 A  
HETATM   25  C   UNL     1      -7.970   4.872  64.917  1.00  0.00    -0.096 C  
HETATM   26  C   UNL     1     -10.990   6.787  67.565  1.00  0.00    -0.375 A  
HETATM   27  C   UNL     1      -8.844   7.651  66.853  1.00  0.00    -0.142 A  
HETATM   28  C   UNL     1     -10.814   5.627  66.801  1.00  0.00    -0.296 A  
HETATM   29  C   UNL     1      -9.641   5.508  66.093  1.00  0.00    -0.139 A  
HETATM   30  C   UNL     1      -8.690   6.500  66.108  1.00  0.00    -0.147 A  
HETATM   31  F   UNL     1      -7.051   3.991  65.384  1.00  0.00    -0.057 F  
HETATM   32  O   UNL     1      -7.600   6.187  65.355  1.00  0.00    -0.080 OA 
HETATM   33  F   UNL     1      -7.921   4.836  63.565  1.00  0.00    -0.073 F  
HETATM   34  O   UNL     1      -9.272   4.440  65.339  1.00  0.00    -0.137 OA 
ENDBRANCH  21  24
ENDBRANCH  19  21
ENDBRANCH  11  17
BRANCH  16  35
HETATM   35  C   UNL     1     -10.563  17.799  67.346  1.00  0.00    -0.335 C  
BRANCH  35  36
HETATM   36  C   UNL     1     -10.360  18.193  65.873  1.00  0.00    -0.277 C  
HETATM   37  H   UNL     1     -10.977  17.569  64.090  1.00  0.00     0.000 HD 
HETATM   38  O   UNL     1     -11.103  17.326  65.000  1.00  0.00    -0.614 OA 
BRANCH  36  39
HETATM   39  C   UNL     1     -10.887  19.615  65.638  1.00  0.00    -0.257 C  
HETATM   40  O   UNL     1      -9.795  20.534  65.594  1.00  0.00    -0.597 OA 
HETATM   41  H   UNL     1     -10.122  21.414  65.448  1.00  0.00     0.000 HD 
ENDBRANCH  36  39
ENDBRANCH  35  36
ENDBRANCH  16  35
ENDBRANCH   2   7
TORSDOF 8
ENDMDL
MODEL       86
REMARK 921   NORMALIZED FREE ENERGY PREDICTED BY IDOCK:   -5.12 KCAL/MOL
REMARK 922        TOTAL FREE ENERGY PREDICTED BY IDOCK:   -8.43 KCAL/MOL
REMARK 923 INTER-LIGAND FREE ENERGY PREDICTED BY IDOCK:   -8.15 KCAL/MOL
REMARK 924 INTRA-LIGAND FREE ENERGY PREDICTED BY IDOCK:   -0.28 KCAL/MOL
REMARK 927      BINDING AFFINITY PREDICTED BY RF-SCORE:    0.00 PKD
ROOT
HETATM    1  C   UNL     1      -5.373  18.817  67.390  1.00  0.00    -0.154 C  
HETATM    2  C   UNL     1      -6.711  18.733  68.180  1.00  0.00    -0.239 C  
HETATM    3  C   UNL     1      -6.363  19.125  69.631  1.00  0.00    -0.290 C  
ENDROOT
BRANCH   2   4
HETATM    4  C   UNL     1      -7.681  19.778  67.552  1.00  0.00    -0.278 C  
HETATM    5  H   UNL     1      -9.522  20.505  67.850  1.00  0.00     0.000 HD 
HETATM    6  O   UNL     1      -8.930  19.868  68.233  1.00  0.00    -0.311 OA 
ENDBRANCH   2   4
BRANCH   2   7
HETATM    7  C   UNL     1      -7.267  17.294  68.128  1.00  0.00    -0.196 A  
HETATM    8  C   UNL     1      -7.027  16.279  69.042  1.00  0.00    -0.188 A  
HETATM    9  C   UNL     1      -7.644  15.095  68.603  1.00  0.00    -0.127 A  
HETATM   10  C   UNL     1      -7.677  13.787  69.129  1.00  0.00     0.145 A  
HETATM   11  C   UNL     1      -8.364  12.774  68.458  1.00  0.00    -0.054 A  
HETATM   12  C   UNL     1      -8.998  13.088  67.252  1.00  0.00    -0.212 A  
HETATM   13  C   UNL     1      -8.295  15.381  67.408  1.00  0.00    -0.183 A  
HETATM   14  C   UNL     1      -8.978  14.373  66.703  1.00  0.00    -0.232 A  
HETATM   15  F   UNL     1      -9.665  12.120  66.594  1.00  0.00    -0.200 F  
HETATM   16  N   UNL     1      -8.104  16.738  67.158  1.00  0.00    -0.173 NA 
BRANCH  11  17
HETATM   17  N   UNL     1      -8.438  11.447  68.932  1.00  0.00    -0.344 N  
HETATM   18  H   UNL     1      -9.196  11.231  69.579  1.00  0.00     0.000 HD 
HETATM   19  C   UNL     1      -7.586  10.413  68.606  1.00  0.00    -0.092 C  
HETATM   20  O   UNL     1      -6.610  10.451  67.870  1.00  0.00    -0.061 OA 
BRANCH  19  21
HETATM   21  C   UNL     1      -7.961   9.091  69.233  1.00  0.00    -0.096 C  
HETATM   22  C   UNL     1      -8.239   9.048  70.731  1.00  0.00    -0.213 C  
HETATM   23  C   UNL     1      -6.942   8.513  70.214  1.00  0.00    -0.040 C  
BRANCH  21  24
HETATM   24  C   UNL     1      -8.681   8.129  68.288  1.00  0.00    -0.133 A  
HETATM   25  C   UNL     1      -9.489   4.406  65.917  1.00  0.00    -0.174 C  
HETATM   26  C   UNL     1     -10.084   8.242  68.092  1.00  0.00    -0.238 A  
HETATM   27  C   UNL     1      -8.020   7.043  67.684  1.00  0.00    -0.114 A  
HETATM   28  C   UNL     1     -10.817   7.292  67.371  1.00  0.00    -0.317 A  
HETATM   29  C   UNL     1     -10.125   6.230  66.838  1.00  0.00    -0.183 A  
HETATM   30  C   UNL     1      -8.762   6.118  66.978  1.00  0.00    -0.107 A  
HETATM   31  F   UNL     1      -9.644   3.200  66.517  1.00  0.00    -0.181 F  
HETATM   32  O   UNL     1      -8.269   4.994  66.390  1.00  0.00    -0.107 OA 
HETATM   33  F   UNL     1      -9.376   4.188  64.585  1.00  0.00    -0.135 F  
HETATM   34  O   UNL     1     -10.668   5.189  66.154  1.00  0.00    -0.296 OA 
ENDBRANCH  21  24
ENDBRANCH  19  21
ENDBRANCH  11  17
BRANCH  16  35
HETATM   35  C   UNL     1      -8.703  17.416  66.015  1.00  0.00    -0.062 C  
BRANCH  35  36
HETATM   36  C   UNL     1     -10.232  17.564  66.082  1.00  0.00    -0.335 C  
HETATM   37  H   UNL     1     -11.609  18.859  65.468  1.00  0.00     0.000 HD 
HETATM   38  O   UNL     1     -10.664  18.768  65.426  1.00  0.00    -0.556 OA 
BRANCH  36  39
HETATM   39  C   UNL     1     -10.900  16.395  65.345  1.00  0.00    -0.239 C  
HETATM   40  O   UNL     1     -11.235  16.791  64.014  1.00  0.00    -1.438 OA 
HETATM   41  H   UNL     1     -11.648  16.066  63.558  1.00  0.00     0.000 HD 
ENDBRANCH  36  39
ENDBRANCH  35  36
ENDBRANCH  16  35
ENDBRANCH   2   7
TORSDOF 8
ENDMDL
MODEL       87
REMARK 921   NORMALIZED FREE ENERGY PREDICTED BY IDOCK:   -5.11 KCAL/MOL
REMARK 922        TOTAL FREE ENERGY PREDICTED BY IDOCK:   -8.42 KCAL/MOL
REMARK 923 INTER-LIGAND FREE ENERGY PREDICTED BY IDOCK:   -8.02 KCAL/MOL
REMARK 924 INTRA-LIGAND FREE ENERGY PREDICTED BY IDOCK:   -0.40 KCAL/MOL
REMARK 927      BINDING AFFINITY PREDICTED BY RF-SCORE:    0.00 PKD
ROOT
HETATM    1  C   UNL     1      -5.742  16.983  67.698  1.00  0.00    -0.150 C  
HETATM    2  C   UNL     1      -7.242  17.083  67.296  1.00  0.00    -0.190 C  
HETATM    3  C   UNL     1      -7.880  18.058  68.306  1.00  0.00    -0.292 C  
ENDROOT
BRANCH   2   4
HETATM    4  C   UNL     1      -7.293  17.679  65.858  1.00  0.00    -0.178 C  
HETATM    5  H   UNL     1      -7.296  19.467  64.960  1.00  0.00     0.000 HD 
HETATM    6  O   UNL     1      -7.266  19.104  65.837  1.00  0.00    -0.263 OA 
ENDBRANCH   2   4
BRANCH   2   7
HETATM    7  C   UNL     1      -7.908  15.693  67.391  1.00  0.00    -0.182 A  
HETATM    8  C   UNL     1      -7.264  14.465  67.402  1.00  0.00    -0.148 A  
HETATM    9  C   UNL     1      -8.220  13.433  67.417  1.00  0.00    -0.188 A  
HETATM   10  C   UNL     1      -8.104  12.028  67.394  1.00  0.00    -0.168 A  
HETATM   11  C   UNL     1      -9.247  11.227  67.393  1.00  0.00    -0.162 A  
HETATM   12  C   UNL     1     -10.497  11.853  67.401  1.00  0.00    -0.217 A  
HETATM   13  C   UNL     1      -9.476  14.028  67.437  1.00  0.00    -0.225 A  
HETATM   14  C   UNL     1     -10.644  13.242  67.418  1.00  0.00    -0.250 A  
HETATM   15  F   UNL     1     -11.607  11.091  67.400  1.00  0.00    -0.363 F  
HETATM   16  N   UNL     1      -9.271  15.405  67.477  1.00  0.00    -0.197 NA 
BRANCH  11  17
HETATM   17  N   UNL     1      -9.200   9.817  67.373  1.00  0.00    -0.134 N  
HETATM   18  H   UNL     1      -9.607   9.354  66.560  1.00  0.00     0.000 HD 
HETATM   19  C   UNL     1      -8.657   9.002  68.345  1.00  0.00    -0.130 C  
HETATM   20  O   UNL     1      -8.137   9.339  69.399  1.00  0.00    -0.098 OA 
BRANCH  19  21
HETATM   21  C   UNL     1      -8.709   7.531  68.007  1.00  0.00    -0.121 C  
HETATM   22  C   UNL     1      -7.610   6.946  67.126  1.00  0.00    -0.107 C  
HETATM   23  C   UNL     1      -8.962   7.198  66.537  1.00  0.00    -0.172 C  
BRANCH  21  24
HETATM   24  C   UNL     1      -9.385   6.665  69.070  1.00  0.00    -0.133 A  
HETATM   25  C   UNL     1      -9.800   3.867  72.553  1.00  0.00    -0.155 C  
HETATM   26  C   UNL     1     -10.713   6.958  69.486  1.00  0.00    -0.276 A  
HETATM   27  C   UNL     1      -8.697   5.644  69.750  1.00  0.00    -0.125 A  
HETATM   28  C   UNL     1     -11.320   6.305  70.565  1.00  0.00    -0.428 A  
HETATM   29  C   UNL     1     -10.583   5.345  71.219  1.00  0.00    -0.206 A  
HETATM   30  C   UNL     1      -9.313   5.014  70.812  1.00  0.00    -0.154 A  
HETATM   31  F   UNL     1      -9.318   4.183  73.781  1.00  0.00    -0.097 F  
HETATM   32  O   UNL     1      -8.750   4.052  71.593  1.00  0.00    -0.102 OA 
HETATM   33  F   UNL     1     -10.142   2.557  72.573  1.00  0.00    -0.185 F  
HETATM   34  O   UNL     1     -10.982   4.644  72.313  1.00  0.00    -0.088 OA 
ENDBRANCH  21  24
ENDBRANCH  19  21
ENDBRANCH  11  17
BRANCH  16  35
HETATM   35  C   UNL     1     -10.370  16.359  67.572  1.00  0.00    -0.288 C  
BRANCH  35  36
HETATM   36  C   UNL     1     -10.904  16.865  66.221  1.00  0.00     0.026 C  
HETATM   37  H   UNL     1     -10.740  18.495  65.097  1.00  0.00     0.000 HD 
HETATM   38  O   UNL     1     -10.410  18.183  65.932  1.00  0.00    -0.540 OA 
BRANCH  36  39
HETATM   39  C   UNL     1     -10.412  15.950  65.092  1.00  0.00    -0.335 C  
HETATM   40  O   UNL     1     -10.957  16.384  63.846  1.00  0.00    -0.999 OA 
HETATM   41  H   UNL     1     -10.651  15.817  63.147  1.00  0.00     0.000 HD 
ENDBRANCH  36  39
ENDBRANCH  35  36
ENDBRANCH  16  35
ENDBRANCH   2   7
TORSDOF 8
ENDMDL
MODEL       88
REMARK 921   NORMALIZED FREE ENERGY PREDICTED BY IDOCK:   -5.06 KCAL/MOL
REMARK 922        TOTAL FREE ENERGY PREDICTED BY IDOCK:   -8.34 KCAL/MOL
REMARK 923 INTER-LIGAND FREE ENERGY PREDICTED BY IDOCK:   -7.58 KCAL/MOL
REMARK 924 INTRA-LIGAND FREE ENERGY PREDICTED BY IDOCK:   -0.77 KCAL/MOL
REMARK 927      BINDING AFFINITY PREDICTED BY RF-SCORE:    0.00 PKD
ROOT
HETATM    1  C   UNL     1      -5.483  18.772  67.302  1.00  0.00    -0.142 C  
HETATM    2  C   UNL     1      -6.547  18.489  68.401  1.00  0.00    -0.235 C  
HETATM    3  C   UNL     1      -5.808  18.645  69.745  1.00  0.00    -0.261 C  
ENDROOT
BRANCH   2   4
HETATM    4  C   UNL     1      -7.653  19.576  68.259  1.00  0.00    -0.311 C  
HETATM    5  H   UNL     1      -9.333  20.156  69.180  1.00  0.00     0.000 HD 
HETATM    6  O   UNL     1      -8.658  19.493  69.266  1.00  0.00    -0.221 OA 
ENDBRANCH   2   4
BRANCH   2   7
HETATM    7  C   UNL     1      -7.096  17.054  68.249  1.00  0.00    -0.190 A  
HETATM    8  C   UNL     1      -6.736  15.945  69.000  1.00  0.00    -0.151 A  
HETATM    9  C   UNL     1      -7.396  14.807  68.504  1.00  0.00    -0.118 A  
HETATM   10  C   UNL     1      -7.354  13.446  68.872  1.00  0.00    -0.033 A  
HETATM   11  C   UNL     1      -8.114  12.505  68.177  1.00  0.00    -0.167 A  
HETATM   12  C   UNL     1      -8.897  12.943  67.105  1.00  0.00    -0.210 A  
HETATM   13  C   UNL     1      -8.194  15.216  67.442  1.00  0.00    -0.193 A  
HETATM   14  C   UNL     1      -8.955  14.283  66.713  1.00  0.00    -0.249 A  
HETATM   15  F   UNL     1      -9.635  12.045  66.426  1.00  0.00    -0.205 F  
HETATM   16  N   UNL     1      -8.044  16.597  67.332  1.00  0.00    -0.162 NA 
BRANCH  11  17
HETATM   17  N   UNL     1      -8.119  11.130  68.496  1.00  0.00    -0.139 N  
HETATM   18  H   UNL     1      -8.822  10.816  69.165  1.00  0.00     0.000 HD 
HETATM   19  C   UNL     1      -7.267  10.170  67.993  1.00  0.00    -0.085 C  
HETATM   20  O   UNL     1      -6.348  10.325  67.200  1.00  0.00    -0.064 OA 
BRANCH  19  21
HETATM   21  C   UNL     1      -7.561   8.773  68.486  1.00  0.00    -0.098 C  
HETATM   22  C   UNL     1      -6.548   7.670  68.199  1.00  0.00    -0.054 C  
HETATM   23  C   UNL     1      -7.811   7.728  67.399  1.00  0.00    -0.118 C  
BRANCH  21  24
HETATM   24  C   UNL     1      -8.419   8.719  69.750  1.00  0.00    -0.129 A  
HETATM   25  C   UNL     1     -11.797   7.583  72.476  1.00  0.00    -0.221 C  
HETATM   26  C   UNL     1      -7.834   8.984  71.018  1.00  0.00    -0.174 A  
HETATM   27  C   UNL     1      -9.761   8.298  69.724  1.00  0.00    -0.180 A  
HETATM   28  C   UNL     1      -8.529   8.791  72.218  1.00  0.00    -0.034 A  
HETATM   29  C   UNL     1      -9.825   8.338  72.132  1.00  0.00    -0.272 A  
HETATM   30  C   UNL     1     -10.428   8.112  70.917  1.00  0.00    -0.202 A  
HETATM   31  F   UNL     1     -12.028   6.292  72.823  1.00  0.00    -0.225 F  
HETATM   32  O   UNL     1     -11.704   7.658  71.046  1.00  0.00    -0.284 OA 
HETATM   33  F   UNL     1     -12.865   8.312  72.879  1.00  0.00    -0.252 F  
HETATM   34  O   UNL     1     -10.637   8.045  73.182  1.00  0.00    -0.334 OA 
ENDBRANCH  21  24
ENDBRANCH  19  21
ENDBRANCH  11  17
BRANCH  16  35
HETATM   35  C   UNL     1      -8.787  17.391  66.360  1.00  0.00    -0.242 C  
BRANCH  35  36
HETATM   36  C   UNL     1     -10.268  17.619  66.711  1.00  0.00    -0.335 C  
HETATM   37  H   UNL     1     -11.588  19.101  66.606  1.00  0.00     0.000 HD 
HETATM   38  O   UNL     1     -10.674  18.959  66.389  1.00  0.00    -0.392 OA 
BRANCH  36  39
HETATM   39  C   UNL     1     -11.150  16.678  65.880  1.00  0.00     0.210 C  
HETATM   40  O   UNL     1     -11.175  17.115  64.520  1.00  0.00    -1.104 OA 
HETATM   41  H   UNL     1     -11.721  16.531  64.006  1.00  0.00     0.000 HD 
ENDBRANCH  36  39
ENDBRANCH  35  36
ENDBRANCH  16  35
ENDBRANCH   2   7
TORSDOF 8
ENDMDL
MODEL       89
REMARK 921   NORMALIZED FREE ENERGY PREDICTED BY IDOCK:   -4.99 KCAL/MOL
REMARK 922        TOTAL FREE ENERGY PREDICTED BY IDOCK:   -8.24 KCAL/MOL
REMARK 923 INTER-LIGAND FREE ENERGY PREDICTED BY IDOCK:   -7.93 KCAL/MOL
REMARK 924 INTRA-LIGAND FREE ENERGY PREDICTED BY IDOCK:   -0.30 KCAL/MOL
REMARK 927      BINDING AFFINITY PREDICTED BY RF-SCORE:    0.00 PKD
ROOT
HETATM    1  C   UNL     1      -9.360   5.016  73.815  1.00  0.00    -0.128 C  
HETATM    2  C   UNL     1      -8.381   6.112  73.305  1.00  0.00    -0.117 C  
HETATM    3  C   UNL     1      -8.391   7.213  74.384  1.00  0.00    -0.210 C  
ENDROOT
BRANCH   2   4
HETATM    4  C   UNL     1      -6.971   5.459  73.208  1.00  0.00    -0.081 C  
HETATM    5  H   UNL     1      -5.549   4.738  74.419  1.00  0.00     0.000 HD 
HETATM    6  O   UNL     1      -6.409   5.136  74.478  1.00  0.00    -0.061 OA 
ENDBRANCH   2   4
BRANCH   2   7
HETATM    7  C   UNL     1      -8.874   6.674  71.955  1.00  0.00    -0.132 A  
HETATM    8  C   UNL     1      -8.991   8.011  71.607  1.00  0.00    -0.192 A  
HETATM    9  C   UNL     1      -9.552   8.116  70.321  1.00  0.00    -0.171 A  
HETATM   10  C   UNL     1      -9.912   9.224  69.527  1.00  0.00    -0.194 A  
HETATM   11  C   UNL     1     -10.485   9.032  68.269  1.00  0.00    -0.200 A  
HETATM   12  C   UNL     1     -10.702   7.722  67.830  1.00  0.00    -0.127 A  
HETATM   13  C   UNL     1      -9.768   6.824  69.854  1.00  0.00    -0.158 A  
HETATM   14  C   UNL     1     -10.361   6.605  68.596  1.00  0.00    -0.208 A  
HETATM   15  F   UNL     1     -11.253   7.524  66.617  1.00  0.00    -0.270 F  
HETATM   16  N   UNL     1      -9.299   5.955  70.836  1.00  0.00    -0.159 NA 
BRANCH  11  17
HETATM   17  N   UNL     1     -10.865  10.097  67.424  1.00  0.00    -0.280 N  
HETATM   18  H   UNL     1     -11.755  10.551  67.630  1.00  0.00     0.000 HD 
HETATM   19  C   UNL     1     -10.152  10.584  66.349  1.00  0.00    -0.228 C  
HETATM   20  O   UNL     1      -9.080  10.183  65.919  1.00  0.00    -0.147 OA 
BRANCH  19  21
HETATM   21  C   UNL     1     -10.797  11.772  65.675  1.00  0.00    -0.342 C  
HETATM   22  C   UNL     1     -11.717  11.524  64.485  1.00  0.00    -0.089 C  
HETATM   23  C   UNL     1     -10.337  12.050  64.245  1.00  0.00    -0.357 C  
BRANCH  21  24
HETATM   24  C   UNL     1     -11.040  12.964  66.601  1.00  0.00    -0.316 A  
HETATM   25  C   UNL     1     -12.139  15.230  70.315  1.00  0.00    -0.350 C  
HETATM   26  C   UNL     1     -10.366  14.194  66.368  1.00  0.00    -0.287 A  
HETATM   27  C   UNL     1     -11.827  12.860  67.762  1.00  0.00    -0.391 A  
HETATM   28  C   UNL     1     -10.423  15.261  67.271  1.00  0.00    -0.275 A  
HETATM   29  C   UNL     1     -11.175  15.087  68.410  1.00  0.00    -0.293 A  
HETATM   30  C   UNL     1     -11.869  13.923  68.640  1.00  0.00    -0.372 A  
HETATM   31  F   UNL     1     -11.469  15.053  71.480  1.00  0.00    -0.358 F  
HETATM   32  O   UNL     1     -12.541  13.943  69.824  1.00  0.00    -0.262 OA 
HETATM   33  F   UNL     1     -13.249  15.955  70.588  1.00  0.00    -0.486 F  
HETATM   34  O   UNL     1     -11.309  15.985  69.420  1.00  0.00    -0.326 OA 
ENDBRANCH  21  24
ENDBRANCH  19  21
ENDBRANCH  11  17
BRANCH  16  35
HETATM   35  C   UNL     1      -9.301   4.506  70.666  1.00  0.00    -0.155 C  
BRANCH  35  36
HETATM   36  C   UNL     1      -8.204   3.965  69.734  1.00  0.00    -0.053 C  
HETATM   37  H   UNL     1      -8.080   3.205  67.902  1.00  0.00     0.000 HD 
HETATM   38  O   UNL     1      -8.757   3.540  68.478  1.00  0.00    -0.088 OA 
BRANCH  36  39
HETATM   39  C   UNL     1      -7.194   5.076  69.419  1.00  0.00    -0.056 C  
HETATM   40  O   UNL     1      -5.866   4.557  69.491  1.00  0.00    -0.016 OA 
HETATM   41  H   UNL     1      -5.241   5.246  69.296  1.00  0.00     0.000 HD 
ENDBRANCH  36  39
ENDBRANCH  35  36
ENDBRANCH  16  35
ENDBRANCH   2   7
TORSDOF 8
ENDMDL
MODEL       90
REMARK 921   NORMALIZED FREE ENERGY PREDICTED BY IDOCK:   -4.95 KCAL/MOL
REMARK 922        TOTAL FREE ENERGY PREDICTED BY IDOCK:   -8.19 KCAL/MOL
REMARK 923 INTER-LIGAND FREE ENERGY PREDICTED BY IDOCK:   -7.50 KCAL/MOL
REMARK 924 INTRA-LIGAND FREE ENERGY PREDICTED BY IDOCK:   -0.69 KCAL/MOL
REMARK 927      BINDING AFFINITY PREDICTED BY RF-SCORE:    0.00 PKD
ROOT
HETATM    1  C   UNL     1      -7.190   3.588  70.736  1.00  0.00    -0.033 C  
HETATM    2  C   UNL     1      -7.302   3.658  69.186  1.00  0.00    -0.050 C  
HETATM    3  C   UNL     1      -5.860   3.526  68.658  1.00  0.00    -0.023 C  
ENDROOT
BRANCH   2   4
HETATM    4  C   UNL     1      -8.161   2.441  68.733  1.00  0.00    -0.055 C  
HETATM    5  H   UNL     1      -9.979   1.667  69.054  1.00  0.00     0.000 HD 
HETATM    6  O   UNL     1      -9.455   2.409  69.331  1.00  0.00    -0.125 OA 
ENDBRANCH   2   4
BRANCH   2   7
HETATM    7  C   UNL     1      -7.912   5.012  68.761  1.00  0.00    -0.081 A  
HETATM    8  C   UNL     1      -8.462   5.972  69.597  1.00  0.00    -0.126 A  
HETATM    9  C   UNL     1      -8.983   7.025  68.825  1.00  0.00    -0.131 A  
HETATM   10  C   UNL     1      -9.670   8.208  69.168  1.00  0.00    -0.163 A  
HETATM   11  C   UNL     1     -10.103   9.085  68.173  1.00  0.00    -0.191 A  
HETATM   12  C   UNL     1      -9.850   8.753  66.838  1.00  0.00    -0.229 A  
HETATM   13  C   UNL     1      -8.735   6.727  67.490  1.00  0.00    -0.119 A  
HETATM   14  C   UNL     1      -9.177   7.586  66.467  1.00  0.00    -0.217 A  
HETATM   15  F   UNL     1     -10.262   9.592  65.869  1.00  0.00    -0.358 F  
HETATM   16  N   UNL     1      -8.032   5.524  67.468  1.00  0.00    -0.101 NA 
BRANCH  11  17
HETATM   17  N   UNL     1     -10.792  10.285  68.449  1.00  0.00    -0.229 N  
HETATM   18  H   UNL     1     -11.779  10.202  68.697  1.00  0.00     0.000 HD 
HETATM   19  C   UNL     1     -10.265  11.558  68.418  1.00  0.00    -0.205 C  
HETATM   20  O   UNL     1      -9.122  11.888  68.133  1.00  0.00    -0.178 OA 
BRANCH  19  21
HETATM   21  C   UNL     1     -11.244  12.636  68.819  1.00  0.00    -0.325 C  
HETATM   22  C   UNL     1     -11.662  12.734  70.282  1.00  0.00    -0.188 C  
HETATM   23  C   UNL     1     -12.612  12.144  69.289  1.00  0.00     0.513 C  
BRANCH  21  24
HETATM   24  C   UNL     1     -11.188  13.892  67.949  1.00  0.00    -0.302 A  
HETATM   25  C   UNL     1     -10.292  18.122  66.751  1.00  0.00    -0.365 C  
HETATM   26  C   UNL     1     -11.228  13.778  66.533  1.00  0.00    -0.319 A  
HETATM   27  C   UNL     1     -10.978  15.171  68.497  1.00  0.00    -0.263 A  
HETATM   28  C   UNL     1     -11.016  14.874  65.688  1.00  0.00    -0.347 A  
HETATM   29  C   UNL     1     -10.774  16.092  66.280  1.00  0.00    -0.234 A  
HETATM   30  C   UNL     1     -10.771  16.237  67.647  1.00  0.00    -0.311 A  
HETATM   31  F   UNL     1      -9.022  18.594  66.704  1.00  0.00    -0.268 F  
HETATM   32  O   UNL     1     -10.502  17.514  68.033  1.00  0.00    -0.356 OA 
HETATM   33  F   UNL     1     -11.127  19.182  66.633  1.00  0.00    -0.439 F  
HETATM   34  O   UNL     1     -10.499  17.252  65.629  1.00  0.00    -0.561 OA 
ENDBRANCH  21  24
ENDBRANCH  19  21
ENDBRANCH  11  17
BRANCH  16  35
HETATM   35  C   UNL     1      -7.539   4.927  66.232  1.00  0.00    -0.087 C  
BRANCH  35  36
HETATM   36  C   UNL     1      -8.634   4.393  65.293  1.00  0.00    -0.124 C  
HETATM   37  H   UNL     1      -8.833   2.945  63.947  1.00  0.00     0.000 HD 
HETATM   38  O   UNL     1      -8.157   3.274  64.527  1.00  0.00    -0.085 OA 
BRANCH  36  39
HETATM   39  C   UNL     1      -9.826   3.889  66.117  1.00  0.00    -0.115 C  
HETATM   40  O   UNL     1     -11.006   4.604  65.748  1.00  0.00    -0.710 OA 
HETATM   41  H   UNL     1     -11.744   4.292  66.258  1.00  0.00     0.000 HD 
ENDBRANCH  36  39
ENDBRANCH  35  36
ENDBRANCH  16  35
ENDBRANCH   2   7
TORSDOF 8
ENDMDL
MODEL       91
REMARK 921   NORMALIZED FREE ENERGY PREDICTED BY IDOCK:   -4.92 KCAL/MOL
REMARK 922        TOTAL FREE ENERGY PREDICTED BY IDOCK:   -8.14 KCAL/MOL
REMARK 923 INTER-LIGAND FREE ENERGY PREDICTED BY IDOCK:   -7.86 KCAL/MOL
REMARK 924 INTRA-LIGAND FREE ENERGY PREDICTED BY IDOCK:   -0.29 KCAL/MOL
REMARK 927      BINDING AFFINITY PREDICTED BY RF-SCORE:    0.00 PKD
ROOT
HETATM    1  C   UNL     1      -5.724  16.776  67.743  1.00  0.00    -0.150 C  
HETATM    2  C   UNL     1      -7.216  17.021  67.379  1.00  0.00    -0.181 C  
HETATM    3  C   UNL     1      -7.675  18.191  68.273  1.00  0.00    -0.291 C  
ENDROOT
BRANCH   2   4
HETATM    4  C   UNL     1      -7.261  17.433  65.878  1.00  0.00    -0.112 C  
HETATM    5  H   UNL     1      -7.155  19.089  64.759  1.00  0.00     0.000 HD 
HETATM    6  O   UNL     1      -7.128  18.838  65.674  1.00  0.00    -0.406 OA 
ENDBRANCH   2   4
BRANCH   2   7
HETATM    7  C   UNL     1      -8.048  15.755  67.677  1.00  0.00    -0.147 A  
HETATM    8  C   UNL     1      -7.571  14.458  67.788  1.00  0.00    -0.175 A  
HETATM    9  C   UNL     1      -8.648  13.576  67.984  1.00  0.00    -0.177 A  
HETATM   10  C   UNL     1      -8.719  12.173  68.117  1.00  0.00    -0.185 A  
HETATM   11  C   UNL     1      -9.952  11.543  68.282  1.00  0.00    -0.202 A  
HETATM   12  C   UNL     1     -11.106  12.332  68.298  1.00  0.00    -0.240 A  
HETATM   13  C   UNL     1      -9.811  14.337  68.016  1.00  0.00    -0.224 A  
HETATM   14  C   UNL     1     -11.069  13.723  68.163  1.00  0.00    -0.282 A  
HETATM   15  F   UNL     1     -12.303  11.736  68.457  1.00  0.00    -0.318 F  
HETATM   16  N   UNL     1      -9.426  15.669  67.883  1.00  0.00    -0.204 NA 
BRANCH  11  17
HETATM   17  N   UNL     1     -10.091  10.145  68.422  1.00  0.00    -0.158 N  
HETATM   18  H   UNL     1     -10.695   9.673  67.749  1.00  0.00     0.000 HD 
HETATM   19  C   UNL     1      -9.491   9.355  69.380  1.00  0.00    -0.173 C  
HETATM   20  O   UNL     1      -8.751   9.710  70.286  1.00  0.00    -0.218 OA 
BRANCH  19  21
HETATM   21  C   UNL     1      -9.791   7.882  69.233  1.00  0.00    -0.177 C  
HETATM   22  C   UNL     1     -11.122   7.353  69.756  1.00  0.00    -0.169 C  
HETATM   23  C   UNL     1      -9.873   7.091  70.538  1.00  0.00    -0.184 C  
BRANCH  21  24
HETATM   24  C   UNL     1      -9.120   7.221  68.029  1.00  0.00    -0.133 A  
HETATM   25  C   UNL     1      -8.623   4.576  64.438  1.00  0.00    -0.138 C  
HETATM   26  C   UNL     1      -8.042   7.872  67.370  1.00  0.00    -0.123 A  
HETATM   27  C   UNL     1      -9.610   6.029  67.463  1.00  0.00    -0.116 A  
HETATM   28  C   UNL     1      -7.500   7.394  66.171  1.00  0.00    -0.083 A  
HETATM   29  C   UNL     1      -8.046   6.248  65.642  1.00  0.00    -0.129 A  
HETATM   30  C   UNL     1      -9.063   5.577  66.280  1.00  0.00    -0.146 A  
HETATM   31  F   UNL     1      -9.409   4.710  63.342  1.00  0.00    -0.149 F  
HETATM   32  O   UNL     1      -9.470   4.476  65.592  1.00  0.00    -0.151 OA 
HETATM   33  F   UNL     1      -7.933   3.419  64.307  1.00  0.00    -0.081 F  
HETATM   34  O   UNL     1      -7.689   5.664  64.468  1.00  0.00    -0.083 OA 
ENDBRANCH  21  24
ENDBRANCH  19  21
ENDBRANCH  11  17
BRANCH  16  35
HETATM   35  C   UNL     1     -10.381  16.770  67.939  1.00  0.00    -0.319 C  
BRANCH  35  36
HETATM   36  C   UNL     1     -10.950  17.199  66.575  1.00  0.00     0.202 C  
HETATM   37  H   UNL     1     -10.758  18.729  65.322  1.00  0.00     0.000 HD 
HETATM   38  O   UNL     1     -10.406  18.464  66.164  1.00  0.00    -0.406 OA 
BRANCH  36  39
HETATM   39  C   UNL     1     -10.554  16.177  65.502  1.00  0.00    -0.377 C  
HETATM   40  O   UNL     1     -11.203  16.493  64.270  1.00  0.00    -1.251 OA 
HETATM   41  H   UNL     1     -10.957  15.860  63.606  1.00  0.00     0.000 HD 
ENDBRANCH  36  39
ENDBRANCH  35  36
ENDBRANCH  16  35
ENDBRANCH   2   7
TORSDOF 8
ENDMDL
MODEL       92
REMARK 921   NORMALIZED FREE ENERGY PREDICTED BY IDOCK:   -4.88 KCAL/MOL
REMARK 922        TOTAL FREE ENERGY PREDICTED BY IDOCK:   -8.07 KCAL/MOL
REMARK 923 INTER-LIGAND FREE ENERGY PREDICTED BY IDOCK:   -7.22 KCAL/MOL
REMARK 924 INTRA-LIGAND FREE ENERGY PREDICTED BY IDOCK:   -0.85 KCAL/MOL
REMARK 927      BINDING AFFINITY PREDICTED BY RF-SCORE:    0.00 PKD
ROOT
HETATM    1  C   UNL     1      -9.863  17.625  68.929  1.00  0.00    -0.293 C  
HETATM    2  C   UNL     1      -9.560  17.144  67.480  1.00  0.00    -0.254 C  
HETATM    3  C   UNL     1     -10.660  17.767  66.597  1.00  0.00    -0.224 C  
ENDROOT
BRANCH   2   4
HETATM    4  C   UNL     1      -8.163  17.712  67.091  1.00  0.00    -0.214 C  
HETATM    5  H   UNL     1      -7.217  18.432  65.481  1.00  0.00     0.000 HD 
HETATM    6  O   UNL     1      -8.068  18.086  65.719  1.00  0.00    -0.525 OA 
ENDBRANCH   2   4
BRANCH   2   7
HETATM    7  C   UNL     1      -9.620  15.603  67.412  1.00  0.00    -0.217 A  
HETATM    8  C   UNL     1      -8.672  14.761  66.849  1.00  0.00    -0.264 A  
HETATM    9  C   UNL     1      -9.127  13.432  66.912  1.00  0.00    -0.237 A  
HETATM   10  C   UNL     1      -8.578  12.215  66.456  1.00  0.00    -0.070 A  
HETATM   11  C   UNL     1      -9.273  11.019  66.636  1.00  0.00    -0.167 A  
HETATM   12  C   UNL     1     -10.522  11.063  67.262  1.00  0.00    -0.231 A  
HETATM   13  C   UNL     1     -10.367  13.444  67.542  1.00  0.00    -0.226 A  
HETATM   14  C   UNL     1     -11.095  12.253  67.719  1.00  0.00    -0.304 A  
HETATM   15  F   UNL     1     -11.203   9.915  67.442  1.00  0.00    -0.346 F  
HETATM   16  N   UNL     1     -10.630  14.767  67.891  1.00  0.00    -0.246 NA 
BRANCH  11  17
HETATM   17  N   UNL     1      -8.779   9.769  66.207  1.00  0.00    -0.137 N  
HETATM   18  H   UNL     1      -9.231   9.350  65.393  1.00  0.00     0.000 HD 
HETATM   19  C   UNL     1      -7.745   9.057  66.777  1.00  0.00    -0.093 C  
HETATM   20  O   UNL     1      -7.080   9.359  67.758  1.00  0.00    -0.080 OA 
BRANCH  19  21
HETATM   21  C   UNL     1      -7.411   7.775  66.052  1.00  0.00    -0.078 C  
HETATM   22  C   UNL     1      -6.440   7.832  64.878  1.00  0.00    -0.044 C  
HETATM   23  C   UNL     1      -7.904   7.685  64.608  1.00  0.00    -0.126 C  
BRANCH  21  24
HETATM   24  C   UNL     1      -7.494   6.520  66.922  1.00  0.00    -0.084 A  
HETATM   25  C   UNL     1      -9.212   2.814  68.778  1.00  0.00    -0.169 C  
HETATM   26  C   UNL     1      -6.305   5.845  67.310  1.00  0.00    -0.042 A  
HETATM   27  C   UNL     1      -8.723   5.929  67.264  1.00  0.00    -0.108 A  
HETATM   28  C   UNL     1      -6.327   4.608  67.965  1.00  0.00    -0.037 A  
HETATM   29  C   UNL     1      -7.557   4.058  68.236  1.00  0.00    -0.066 A  
HETATM   30  C   UNL     1      -8.723   4.708  67.907  1.00  0.00    -0.104 A  
HETATM   31  F   UNL     1      -9.598   1.755  68.024  1.00  0.00    -0.217 F  
HETATM   32  O   UNL     1      -9.830   3.995  68.249  1.00  0.00    -0.104 OA 
HETATM   33  F   UNL     1      -9.672   2.611  70.035  1.00  0.00    -0.208 F  
HETATM   34  O   UNL     1      -7.778   2.849  68.816  1.00  0.00    -0.048 OA 
ENDBRANCH  21  24
ENDBRANCH  19  21
ENDBRANCH  11  17
BRANCH  16  35
HETATM   35  C   UNL     1     -11.822  15.159  68.634  1.00  0.00    -0.302 C  
BRANCH  35  36
HETATM   36  C   UNL     1     -11.748  14.911  70.150  1.00  0.00    -0.294 C  
HETATM   37  H   UNL     1     -12.140  15.914  71.821  1.00  0.00     0.000 HD 
HETATM   38  O   UNL     1     -12.186  16.066  70.884  1.00  0.00    -0.392 OA 
BRANCH  36  39
HETATM   39  C   UNL     1     -12.687  13.760  70.535  1.00  0.00    -0.222 C  
HETATM   40  O   UNL     1     -11.920  12.623  70.932  1.00  0.00    -0.448 OA 
HETATM   41  H   UNL     1     -12.502  11.911  71.171  1.00  0.00     0.000 HD 
ENDBRANCH  36  39
ENDBRANCH  35  36
ENDBRANCH  16  35
ENDBRANCH   2   7
TORSDOF 8
ENDMDL
MODEL       93
REMARK 921   NORMALIZED FREE ENERGY PREDICTED BY IDOCK:   -4.82 KCAL/MOL
REMARK 922        TOTAL FREE ENERGY PREDICTED BY IDOCK:   -7.99 KCAL/MOL
REMARK 923 INTER-LIGAND FREE ENERGY PREDICTED BY IDOCK:   -8.22 KCAL/MOL
REMARK 924 INTRA-LIGAND FREE ENERGY PREDICTED BY IDOCK:    0.22 KCAL/MOL
REMARK 927      BINDING AFFINITY PREDICTED BY RF-SCORE:    0.00 PKD
ROOT
HETATM    1  C   UNL     1     -10.389  19.631  69.219  1.00  0.00    -0.062 C  
HETATM    2  C   UNL     1      -9.532  18.816  68.208  1.00  0.00    -0.389 C  
HETATM    3  C   UNL     1      -9.932  19.333  66.811  1.00  0.00    -0.446 C  
ENDROOT
BRANCH   2   4
HETATM    4  C   UNL     1      -8.038  19.145  68.502  1.00  0.00    -0.359 C  
HETATM    5  H   UNL     1      -6.540  18.482  69.652  1.00  0.00     0.000 HD 
HETATM    6  O   UNL     1      -7.451  18.282  69.473  1.00  0.00     0.040 OA 
ENDBRANCH   2   4
BRANCH   2   7
HETATM    7  C   UNL     1      -9.850  17.311  68.339  1.00  0.00    -0.309 A  
HETATM    8  C   UNL     1     -10.743  16.726  69.224  1.00  0.00    -0.324 A  
HETATM    9  C   UNL     1     -10.690  15.327  69.090  1.00  0.00    -0.251 A  
HETATM   10  C   UNL     1     -11.351  14.281  69.766  1.00  0.00    -0.279 A  
HETATM   11  C   UNL     1     -11.085  12.951  69.437  1.00  0.00    -0.068 A  
HETATM   12  C   UNL     1     -10.142  12.689  68.438  1.00  0.00    -0.222 A  
HETATM   13  C   UNL     1      -9.766  15.037  68.093  1.00  0.00    -0.215 A  
HETATM   14  C   UNL     1      -9.466  13.704  67.756  1.00  0.00    -0.221 A  
HETATM   15  F   UNL     1      -9.876  11.410  68.111  1.00  0.00    -0.167 F  
HETATM   16  N   UNL     1      -9.302  16.257  67.605  1.00  0.00    -0.217 NA 
BRANCH  11  17
HETATM   17  N   UNL     1     -11.714  11.859  70.072  1.00  0.00    -0.462 N  
HETATM   18  H   UNL     1     -12.719  11.935  70.229  1.00  0.00     0.000 HD 
HETATM   19  C   UNL     1     -11.103  10.699  70.500  1.00  0.00    -0.094 C  
HETATM   20  O   UNL     1      -9.918  10.407  70.429  1.00  0.00     0.071 OA 
BRANCH  19  21
HETATM   21  C   UNL     1     -12.057   9.690  71.094  1.00  0.00    -0.448 C  
HETATM   22  C   UNL     1     -13.544   9.819  70.781  1.00  0.00     0.013 C  
HETATM   23  C   UNL     1     -13.042  10.238  72.126  1.00  0.00    -0.444 C  
BRANCH  21  24
HETATM   24  C   UNL     1     -11.440   8.314  71.345  1.00  0.00    -0.314 A  
HETATM   25  C   UNL     1      -9.197   4.515  70.525  1.00  0.00    -0.124 C  
HETATM   26  C   UNL     1     -11.105   7.915  72.668  1.00  0.00    -0.447 A  
HETATM   27  C   UNL     1     -11.076   7.456  70.291  1.00  0.00    -0.278 A  
HETATM   28  C   UNL     1     -10.392   6.741  72.937  1.00  0.00    -0.245 A  
HETATM   29  C   UNL     1     -10.026   5.963  71.864  1.00  0.00    -0.171 A  
HETATM   30  C   UNL     1     -10.372   6.304  70.578  1.00  0.00    -0.204 A  
HETATM   31  F   UNL     1      -7.888   4.525  70.169  1.00  0.00    -0.057 F  
HETATM   32  O   UNL     1      -9.908   5.413  69.661  1.00  0.00    -0.160 OA 
HETATM   33  F   UNL     1      -9.666   3.261  70.325  1.00  0.00    -0.242 F  
HETATM   34  O   UNL     1      -9.292   4.821  71.923  1.00  0.00    -0.134 OA 
ENDBRANCH  21  24
ENDBRANCH  19  21
ENDBRANCH  11  17
BRANCH  16  35
HETATM   35  C   UNL     1      -8.360  16.350  66.495  1.00  0.00    -0.302 C  
BRANCH  35  36
HETATM   36  C   UNL     1      -6.891  16.539  66.911  1.00  0.00    -0.213 C  
HETATM   37  H   UNL     1      -5.276  15.406  67.151  1.00  0.00     0.000 HD 
HETATM   38  O   UNL     1      -6.184  15.289  66.893  1.00  0.00    -0.118 OA 
BRANCH  36  39
HETATM   39  C   UNL     1      -6.182  17.462  65.910  1.00  0.00     0.022 C  
HETATM   40  O   UNL     1      -7.152  18.173  65.139  1.00  0.00    -0.375 OA 
HETATM   41  H   UNL     1      -6.713  18.744  64.520  1.00  0.00     0.000 HD 
ENDBRANCH  36  39
ENDBRANCH  35  36
ENDBRANCH  16  35
ENDBRANCH   2   7
TORSDOF 8
ENDMDL
MODEL       94
REMARK 921   NORMALIZED FREE ENERGY PREDICTED BY IDOCK:   -4.77 KCAL/MOL
REMARK 922        TOTAL FREE ENERGY PREDICTED BY IDOCK:   -7.92 KCAL/MOL
REMARK 923 INTER-LIGAND FREE ENERGY PREDICTED BY IDOCK:   -7.99 KCAL/MOL
REMARK 924 INTRA-LIGAND FREE ENERGY PREDICTED BY IDOCK:    0.08 KCAL/MOL
REMARK 927      BINDING AFFINITY PREDICTED BY RF-SCORE:    0.00 PKD
ROOT
HETATM    1  C   UNL     1     -10.590  19.333  65.630  1.00  0.00    -0.338 C  
HETATM    2  C   UNL     1      -9.380  19.305  66.606  1.00  0.00    -0.387 C  
HETATM    3  C   UNL     1      -8.216  19.972  65.846  1.00  0.00    -0.206 C  
ENDROOT
BRANCH   2   4
HETATM    4  C   UNL     1      -9.775  20.153  67.851  1.00  0.00    -0.366 C  
HETATM    5  H   UNL     1     -10.981  20.034  69.444  1.00  0.00     0.000 HD 
HETATM    6  O   UNL     1     -10.740  19.517  68.685  1.00  0.00    -0.079 OA 
ENDBRANCH   2   4
BRANCH   2   7
HETATM    7  C   UNL     1      -9.025  17.846  66.966  1.00  0.00    -0.250 A  
HETATM    8  C   UNL     1      -9.575  16.699  66.414  1.00  0.00    -0.308 A  
HETATM    9  C   UNL     1      -9.050  15.567  67.061  1.00  0.00    -0.250 A  
HETATM   10  C   UNL     1      -9.298  14.186  66.916  1.00  0.00    -0.274 A  
HETATM   11  C   UNL     1      -8.635  13.262  67.725  1.00  0.00    -0.184 A  
HETATM   12  C   UNL     1      -7.739  13.742  68.685  1.00  0.00    -0.120 A  
HETATM   13  C   UNL     1      -8.143  16.014  68.016  1.00  0.00    -0.145 A  
HETATM   14  C   UNL     1      -7.476  15.103  68.857  1.00  0.00    -0.143 A  
HETATM   15  F   UNL     1      -7.093  12.861  69.472  1.00  0.00    -0.037 F  
HETATM   16  N   UNL     1      -8.096  17.402  67.909  1.00  0.00    -0.215 NA 
BRANCH  11  17
HETATM   17  N   UNL     1      -8.837  11.869  67.629  1.00  0.00    -0.162 N  
HETATM   18  H   UNL     1      -8.006  11.292  67.494  1.00  0.00     0.000 HD 
HETATM   19  C   UNL     1     -10.046  11.210  67.699  1.00  0.00    -0.179 C  
HETATM   20  O   UNL     1     -11.158  11.699  67.839  1.00  0.00    -0.214 OA 
BRANCH  19  21
HETATM   21  C   UNL     1      -9.928   9.706  67.619  1.00  0.00    -0.218 C  
HETATM   22  C   UNL     1      -8.819   9.106  66.762  1.00  0.00    -0.143 C  
HETATM   23  C   UNL     1     -10.225   9.092  66.252  1.00  0.00    -0.237 C  
BRANCH  21  24
HETATM   24  C   UNL     1     -10.423   8.969  68.864  1.00  0.00    -0.231 A  
HETATM   25  C   UNL     1     -10.480   6.008  72.234  1.00  0.00    -0.205 C  
HETATM   26  C   UNL     1     -11.309   9.617  69.768  1.00  0.00    -0.159 A  
HETATM   27  C   UNL     1      -9.939   7.697  69.220  1.00  0.00    -0.180 A  
HETATM   28  C   UNL     1     -11.662   9.054  71.000  1.00  0.00    -0.353 A  
HETATM   29  C   UNL     1     -11.126   7.827  71.313  1.00  0.00    -0.246 A  
HETATM   30  C   UNL     1     -10.299   7.162  70.440  1.00  0.00    -0.203 A  
HETATM   31  F   UNL     1      -9.501   5.979  73.172  1.00  0.00    -0.143 F  
HETATM   32  O   UNL     1      -9.865   5.972  70.938  1.00  0.00    -0.178 OA 
HETATM   33  F   UNL     1     -11.227   4.890  72.390  1.00  0.00    -0.255 F  
HETATM   34  O   UNL     1     -11.312   7.151  72.477  1.00  0.00    -0.271 OA 
ENDBRANCH  21  24
ENDBRANCH  19  21
ENDBRANCH  11  17
BRANCH  16  35
HETATM   35  C   UNL     1      -7.197  18.220  68.715  1.00  0.00    -0.279 C  
BRANCH  35  36
HETATM   36  C   UNL     1      -6.017  18.835  67.942  1.00  0.00    -0.194 C  
HETATM   37  H   UNL     1      -4.455  19.999  68.333  1.00  0.00     0.000 HD 
HETATM   38  O   UNL     1      -5.184  19.619  68.810  1.00  0.00    -0.189 OA 
BRANCH  36  39
HETATM   39  C   UNL     1      -5.133  17.718  67.370  1.00  0.00    -0.131 C  
HETATM   40  O   UNL     1      -5.882  16.939  66.437  1.00  0.00    -0.320 OA 
HETATM   41  H   UNL     1      -5.334  16.248  66.083  1.00  0.00     0.000 HD 
ENDBRANCH  36  39
ENDBRANCH  35  36
ENDBRANCH  16  35
ENDBRANCH   2   7
TORSDOF 8
ENDMDL
MODEL       95
REMARK 921   NORMALIZED FREE ENERGY PREDICTED BY IDOCK:   -4.62 KCAL/MOL
REMARK 922        TOTAL FREE ENERGY PREDICTED BY IDOCK:   -7.70 KCAL/MOL
REMARK 923 INTER-LIGAND FREE ENERGY PREDICTED BY IDOCK:   -6.94 KCAL/MOL
REMARK 924 INTRA-LIGAND FREE ENERGY PREDICTED BY IDOCK:   -0.77 KCAL/MOL
REMARK 927      BINDING AFFINITY PREDICTED BY RF-SCORE:    0.00 PKD
ROOT
HETATM    1  C   UNL     1      -7.707   5.813  70.965  1.00  0.00    -0.101 C  
HETATM    2  C   UNL     1      -7.525   5.335  69.496  1.00  0.00    -0.065 C  
HETATM    3  C   UNL     1      -6.032   4.972  69.357  1.00  0.00    -0.017 C  
ENDROOT
BRANCH   2   4
HETATM    4  C   UNL     1      -8.412   4.068  69.312  1.00  0.00    -0.076 C  
HETATM    5  H   UNL     1      -8.200   2.113  68.936  1.00  0.00     0.000 HD 
HETATM    6  O   UNL     1      -7.659   2.886  69.047  1.00  0.00    -0.048 OA 
ENDBRANCH   2   4
BRANCH   2   7
HETATM    7  C   UNL     1      -7.898   6.472  68.520  1.00  0.00    -0.106 A  
HETATM    8  C   UNL     1      -8.258   7.768  68.857  1.00  0.00    -0.127 A  
HETATM    9  C   UNL     1      -8.602   8.478  67.693  1.00  0.00    -0.133 A  
HETATM   10  C   UNL     1      -9.067   9.793  67.482  1.00  0.00    -0.142 A  
HETATM   11  C   UNL     1      -9.358  10.238  66.192  1.00  0.00    -0.170 A  
HETATM   12  C   UNL     1      -9.192   9.348  65.128  1.00  0.00    -0.225 A  
HETATM   13  C   UNL     1      -8.434   7.618  66.613  1.00  0.00    -0.130 A  
HETATM   14  C   UNL     1      -8.738   8.038  65.305  1.00  0.00    -0.062 A  
HETATM   15  F   UNL     1      -9.469   9.766  63.878  1.00  0.00    -0.310 F  
HETATM   16  N   UNL     1      -7.951   6.416  67.126  1.00  0.00    -0.111 NA 
BRANCH  11  17
HETATM   17  N   UNL     1      -9.824  11.541  65.914  1.00  0.00    -0.223 N  
HETATM   18  H   UNL     1      -9.232  12.125  65.323  1.00  0.00     0.000 HD 
HETATM   19  C   UNL     1     -11.002  12.102  66.360  1.00  0.00    -0.288 C  
HETATM   20  O   UNL     1     -11.846  11.593  67.085  1.00  0.00    -0.608 OA 
BRANCH  19  21
HETATM   21  C   UNL     1     -11.249  13.499  65.843  1.00  0.00    -0.310 C  
HETATM   22  C   UNL     1     -12.674  13.904  65.486  1.00  0.00    -0.536 C  
HETATM   23  C   UNL     1     -11.707  13.594  64.388  1.00  0.00    -0.444 C  
BRANCH  21  24
HETATM   24  C   UNL     1     -10.258  14.544  66.357  1.00  0.00    -0.293 A  
HETATM   25  C   UNL     1      -7.259  16.500  69.061  1.00  0.00    -0.219 C  
HETATM   26  C   UNL     1      -9.616  15.425  65.445  1.00  0.00    -0.161 A  
HETATM   27  C   UNL     1      -9.859  14.594  67.705  1.00  0.00    -0.216 A  
HETATM   28  C   UNL     1      -8.584  16.286  65.836  1.00  0.00    -0.064 A  
HETATM   29  C   UNL     1      -8.208  16.262  67.159  1.00  0.00    -0.189 A  
HETATM   30  C   UNL     1      -8.839  15.449  68.070  1.00  0.00    -0.165 A  
HETATM   31  F   UNL     1      -6.077  15.907  69.360  1.00  0.00    -0.115 F  
HETATM   32  O   UNL     1      -8.314  15.563  69.320  1.00  0.00    -0.227 OA 
HETATM   33  F   UNL     1      -7.407  17.559  69.893  1.00  0.00     0.127 F  
HETATM   34  O   UNL     1      -7.199  16.985  67.712  1.00  0.00    -0.147 OA 
ENDBRANCH  21  24
ENDBRANCH  19  21
ENDBRANCH  11  17
BRANCH  16  35
HETATM   35  C   UNL     1      -7.592   5.288  66.273  1.00  0.00    -0.088 C  
BRANCH  35  36
HETATM   36  C   UNL     1      -8.626   4.946  65.187  1.00  0.00    -0.144 C  
HETATM   37  H   UNL     1      -8.773   3.708  63.640  1.00  0.00     0.000 HD 
HETATM   38  O   UNL     1      -8.134   3.919  64.311  1.00  0.00    -0.088 OA 
BRANCH  36  39
HETATM   39  C   UNL     1      -9.902   4.398  65.839  1.00  0.00    -0.228 C  
HETATM   40  O   UNL     1     -10.781   3.894  64.832  1.00  0.00    -0.489 OA 
HETATM   41  H   UNL     1     -11.571   3.555  65.236  1.00  0.00     0.000 HD 
ENDBRANCH  36  39
ENDBRANCH  35  36
ENDBRANCH  16  35
ENDBRANCH   2   7
TORSDOF 8
ENDMDL
MODEL       96
REMARK 921   NORMALIZED FREE ENERGY PREDICTED BY IDOCK:   -4.60 KCAL/MOL
REMARK 922        TOTAL FREE ENERGY PREDICTED BY IDOCK:   -7.67 KCAL/MOL
REMARK 923 INTER-LIGAND FREE ENERGY PREDICTED BY IDOCK:   -8.59 KCAL/MOL
REMARK 924 INTRA-LIGAND FREE ENERGY PREDICTED BY IDOCK:    0.92 KCAL/MOL
REMARK 927      BINDING AFFINITY PREDICTED BY RF-SCORE:    0.00 PKD
ROOT
HETATM    1  C   UNL     1      -7.310  20.290  70.286  1.00  0.00     0.677 C  
HETATM    2  C   UNL     1      -6.493  19.641  69.132  1.00  0.00    -0.361 C  
HETATM    3  C   UNL     1      -6.215  20.778  68.128  1.00  0.00    -0.370 C  
ENDROOT
BRANCH   2   4
HETATM    4  C   UNL     1      -5.160  19.123  69.749  1.00  0.00    -0.191 C  
HETATM    5  H   UNL     1      -4.527  17.709  71.016  1.00  0.00     0.000 HD 
HETATM    6  O   UNL     1      -5.340  18.025  70.641  1.00  0.00    -0.250 OA 
ENDBRANCH   2   4
BRANCH   2   7
HETATM    7  C   UNL     1      -7.319  18.520  68.465  1.00  0.00    -0.295 A  
HETATM    8  C   UNL     1      -7.706  17.320  69.043  1.00  0.00    -0.166 A  
HETATM    9  C   UNL     1      -8.374  16.533  68.089  1.00  0.00    -0.186 A  
HETATM   10  C   UNL     1      -8.927  15.236  68.143  1.00  0.00    -0.173 A  
HETATM   11  C   UNL     1      -9.526  14.679  67.013  1.00  0.00    -0.241 A  
HETATM   12  C   UNL     1      -9.549  15.429  65.834  1.00  0.00    -0.351 A  
HETATM   13  C   UNL     1      -8.423  17.261  66.906  1.00  0.00    -0.226 A  
HETATM   14  C   UNL     1      -9.006  16.714  65.748  1.00  0.00     0.029 A  
HETATM   15  F   UNL     1     -10.125  14.902  64.736  1.00  0.00    -0.390 F  
HETATM   16  N   UNL     1      -7.825  18.493  67.165  1.00  0.00    -0.227 NA 
BRANCH  11  17
HETATM   17  N   UNL     1     -10.099  13.389  67.001  1.00  0.00    -0.244 N  
HETATM   18  H   UNL     1     -10.830  13.216  66.311  1.00  0.00     0.000 HD 
HETATM   19  C   UNL     1      -9.768  12.339  67.831  1.00  0.00    -0.202 C  
HETATM   20  O   UNL     1      -8.941  12.329  68.732  1.00  0.00    -0.028 OA 
BRANCH  19  21
HETATM   21  C   UNL     1     -10.521  11.064  67.534  1.00  0.00    -0.244 C  
HETATM   22  C   UNL     1     -10.112  10.242  66.317  1.00  0.00    -0.300 C  
HETATM   23  C   UNL     1     -11.355  11.072  66.254  1.00  0.00     0.134 C  
BRANCH  21  24
HETATM   24  C   UNL     1     -11.101  10.374  68.769  1.00  0.00    -0.298 A  
HETATM   25  C   UNL     1     -11.326   7.654  72.331  1.00  0.00    -0.329 C  
HETATM   26  C   UNL     1     -12.134  11.003  69.515  1.00  0.00    -0.400 A  
HETATM   27  C   UNL     1     -10.565   9.175  69.275  1.00  0.00    -0.229 A  
HETATM   28  C   UNL     1     -12.586  10.498  70.740  1.00  0.00    -0.474 A  
HETATM   29  C   UNL     1     -11.997   9.345  71.205  1.00  0.00    -0.353 A  
HETATM   30  C   UNL     1     -11.024   8.695  70.484  1.00  0.00    -0.238 A  
HETATM   31  F   UNL     1     -10.466   7.773  73.372  1.00  0.00    -0.367 F  
HETATM   32  O   UNL     1     -10.562   7.583  71.118  1.00  0.00    -0.220 OA 
HETATM   33  F   UNL     1     -11.999   6.489  72.487  1.00  0.00    -0.296 F  
HETATM   34  O   UNL     1     -12.267   8.736  72.389  1.00  0.00    -0.370 OA 
ENDBRANCH  21  24
ENDBRANCH  19  21
ENDBRANCH  11  17
BRANCH  16  35
HETATM   35  C   UNL     1      -7.751  19.553  66.166  1.00  0.00    -0.313 C  
BRANCH  35  36
HETATM   36  C   UNL     1      -6.420  19.626  65.400  1.00  0.00    -0.268 C  
HETATM   37  H   UNL     1      -5.431  18.529  64.070  1.00  0.00     0.000 HD 
HETATM   38  O   UNL     1      -6.254  18.485  64.543  1.00  0.00    -0.347 OA 
BRANCH  36  39
HETATM   39  C   UNL     1      -6.409  20.865  64.494  1.00  0.00    -0.264 C  
HETATM   40  O   UNL     1      -6.101  20.480  63.153  1.00  0.00    -0.222 OA 
HETATM   41  H   UNL     1      -6.095  21.247  62.593  1.00  0.00     0.000 HD 
ENDBRANCH  36  39
ENDBRANCH  35  36
ENDBRANCH  16  35
ENDBRANCH   2   7
TORSDOF 8
ENDMDL
MODEL       97
REMARK 921   NORMALIZED FREE ENERGY PREDICTED BY IDOCK:   -4.59 KCAL/MOL
REMARK 922        TOTAL FREE ENERGY PREDICTED BY IDOCK:   -7.65 KCAL/MOL
REMARK 923 INTER-LIGAND FREE ENERGY PREDICTED BY IDOCK:   -7.18 KCAL/MOL
REMARK 924 INTRA-LIGAND FREE ENERGY PREDICTED BY IDOCK:   -0.48 KCAL/MOL
REMARK 927      BINDING AFFINITY PREDICTED BY RF-SCORE:    0.00 PKD
ROOT
HETATM    1  C   UNL     1     -10.829  15.839  70.397  1.00  0.00    -0.345 C  
HETATM    2  C   UNL     1     -12.011  15.125  69.680  1.00  0.00    -0.359 C  
HETATM    3  C   UNL     1     -13.261  15.438  70.526  1.00  0.00    -0.254 C  
ENDROOT
BRANCH   2   4
HETATM    4  C   UNL     1     -12.139  15.760  68.264  1.00  0.00     0.229 C  
HETATM    5  H   UNL     1     -11.394  17.297  67.220  1.00  0.00     0.000 HD 
HETATM    6  O   UNL     1     -11.316  16.910  68.084  1.00  0.00    -0.217 OA 
ENDBRANCH   2   4
BRANCH   2   7
HETATM    7  C   UNL     1     -11.758  13.603  69.631  1.00  0.00    -0.320 A  
HETATM    8  C   UNL     1     -11.996  12.691  70.649  1.00  0.00    -0.196 A  
HETATM    9  C   UNL     1     -11.561  11.415  70.248  1.00  0.00    -0.334 A  
HETATM   10  C   UNL     1     -11.535  10.168  70.905  1.00  0.00    -0.444 A  
HETATM   11  C   UNL     1     -11.015   9.043  70.263  1.00  0.00    -0.244 A  
HETATM   12  C   UNL     1     -10.511   9.192  68.967  1.00  0.00    -0.221 A  
HETATM   13  C   UNL     1     -11.064  11.531  68.954  1.00  0.00    -0.232 A  
HETATM   14  C   UNL     1     -10.517  10.416  68.292  1.00  0.00    -0.221 A  
HETATM   15  F   UNL     1     -10.005   8.115  68.336  1.00  0.00    -0.171 F  
HETATM   16  N   UNL     1     -11.241  12.858  68.570  1.00  0.00    -0.256 NA 
BRANCH  11  17
HETATM   17  N   UNL     1     -10.963   7.768  70.863  1.00  0.00    -0.246 N  
HETATM   18  H   UNL     1     -11.508   7.028  70.420  1.00  0.00     0.000 HD 
HETATM   19  C   UNL     1     -10.247   7.422  71.990  1.00  0.00    -0.191 C  
HETATM   20  O   UNL     1      -9.547   8.147  72.683  1.00  0.00    -0.229 OA 
BRANCH  19  21
HETATM   21  C   UNL     1     -10.349   5.960  72.355  1.00  0.00    -0.230 C  
HETATM   22  C   UNL     1     -11.643   5.452  72.979  1.00  0.00    -0.268 C  
HETATM   23  C   UNL     1     -10.444   5.656  73.849  1.00  0.00    -0.302 C  
BRANCH  21  24
HETATM   24  C   UNL     1      -9.501   5.034  71.482  1.00  0.00    -0.203 A  
HETATM   25  C   UNL     1      -5.882   2.850  69.975  1.00  0.00    -0.018 C  
HETATM   26  C   UNL     1     -10.115   3.967  70.772  1.00  0.00     0.021 A  
HETATM   27  C   UNL     1      -8.097   5.124  71.444  1.00  0.00    -0.114 A  
HETATM   28  C   UNL     1      -9.371   2.994  70.093  1.00  0.00    -0.229 A  
HETATM   29  C   UNL     1      -8.001   3.110  70.125  1.00  0.00    -0.042 A  
HETATM   30  C   UNL     1      -7.383   4.155  70.770  1.00  0.00    -0.041 A  
HETATM   31  F   UNL     1      -5.203   1.975  70.756  1.00  0.00    -0.003 F  
HETATM   32  O   UNL     1      -6.026   4.083  70.695  1.00  0.00    -0.016 OA 
HETATM   33  F   UNL     1      -5.132   3.080  68.871  1.00  0.00    -0.009 F  
HETATM   34  O   UNL     1      -7.116   2.240  69.570  1.00  0.00    -0.036 OA 
ENDBRANCH  21  24
ENDBRANCH  19  21
ENDBRANCH  11  17
BRANCH  16  35
HETATM   35  C   UNL     1     -10.893  13.341  67.239  1.00  0.00    -0.264 C  
BRANCH  35  36
HETATM   36  C   UNL     1     -11.842  12.883  66.118  1.00  0.00    -0.429 C  
HETATM   37  H   UNL     1     -13.689  13.284  65.504  1.00  0.00     0.000 HD 
HETATM   38  O   UNL     1     -13.103  13.567  66.196  1.00  0.00    -0.094 OA 
BRANCH  36  39
HETATM   39  C   UNL     1     -11.236  13.227  64.751  1.00  0.00    -0.331 C  
HETATM   40  O   UNL     1     -10.965  12.026  64.026  1.00  0.00    -0.317 OA 
HETATM   41  H   UNL     1     -10.590  12.240  63.180  1.00  0.00     0.000 HD 
ENDBRANCH  36  39
ENDBRANCH  35  36
ENDBRANCH  16  35
ENDBRANCH   2   7
TORSDOF 8
ENDMDL
MODEL       98
REMARK 921   NORMALIZED FREE ENERGY PREDICTED BY IDOCK:   -4.55 KCAL/MOL
REMARK 922        TOTAL FREE ENERGY PREDICTED BY IDOCK:   -7.60 KCAL/MOL
REMARK 923 INTER-LIGAND FREE ENERGY PREDICTED BY IDOCK:   -7.09 KCAL/MOL
REMARK 924 INTRA-LIGAND FREE ENERGY PREDICTED BY IDOCK:   -0.51 KCAL/MOL
REMARK 927      BINDING AFFINITY PREDICTED BY RF-SCORE:    0.00 PKD
ROOT
HETATM    1  C   UNL     1     -14.092  15.692  70.710  1.00  0.00     0.500 C  
HETATM    2  C   UNL     1     -12.905  14.864  71.280  1.00  0.00    -0.419 C  
HETATM    3  C   UNL     1     -11.988  15.882  71.986  1.00  0.00    -0.602 C  
ENDROOT
BRANCH   2   4
HETATM    4  C   UNL     1     -13.500  13.861  72.313  1.00  0.00    -0.526 C  
HETATM    5  H   UNL     1     -13.409  13.474  74.274  1.00  0.00     0.000 HD 
HETATM    6  O   UNL     1     -13.045  14.086  73.645  1.00  0.00    -0.256 OA 
ENDBRANCH   2   4
BRANCH   2   7
HETATM    7  C   UNL     1     -12.150  14.162  70.131  1.00  0.00    -0.346 A  
HETATM    8  C   UNL     1     -11.791  12.823  70.071  1.00  0.00    -0.352 A  
HETATM    9  C   UNL     1     -11.046  12.589  68.902  1.00  0.00    -0.309 A  
HETATM   10  C   UNL     1     -10.420  11.434  68.388  1.00  0.00    -0.221 A  
HETATM   11  C   UNL     1      -9.710  11.493  67.188  1.00  0.00    -0.183 A  
HETATM   12  C   UNL     1      -9.626  12.721  66.525  1.00  0.00    -0.257 A  
HETATM   13  C   UNL     1     -10.957  13.793  68.214  1.00  0.00    -0.250 A  
HETATM   14  C   UNL     1     -10.231  13.883  67.011  1.00  0.00    -0.254 A  
HETATM   15  F   UNL     1      -8.945  12.790  65.366  1.00  0.00     0.209 F  
HETATM   16  N   UNL     1     -11.681  14.732  68.946  1.00  0.00    -0.300 NA 
BRANCH  11  17
HETATM   17  N   UNL     1      -9.063  10.375  66.620  1.00  0.00    -0.150 N  
HETATM   18  H   UNL     1      -8.243  10.019  67.111  1.00  0.00     0.000 HD 
HETATM   19  C   UNL     1      -9.431   9.716  65.466  1.00  0.00    -0.266 C  
HETATM   20  O   UNL     1     -10.362   9.980  64.718  1.00  0.00    -0.132 OA 
BRANCH  19  21
HETATM   21  C   UNL     1      -8.571   8.516  65.146  1.00  0.00    -0.179 C  
HETATM   22  C   UNL     1      -7.097   8.740  64.828  1.00  0.00    -0.077 C  
HETATM   23  C   UNL     1      -8.047   8.442  63.712  1.00  0.00    -0.142 C  
BRANCH  21  24
HETATM   24  C   UNL     1      -9.025   7.220  65.817  1.00  0.00    -0.052 A  
HETATM   25  C   UNL     1      -8.852   2.995  67.318  1.00  0.00    -0.139 C  
HETATM   26  C   UNL     1     -10.040   7.252  66.811  1.00  0.00    -0.291 A  
HETATM   27  C   UNL     1      -8.388   5.989  65.572  1.00  0.00    -0.146 A  
HETATM   28  C   UNL     1     -10.379   6.126  67.571  1.00  0.00    -0.259 A  
HETATM   29  C   UNL     1      -9.694   4.961  67.316  1.00  0.00    -0.170 A  
HETATM   30  C   UNL     1      -8.736   4.893  66.333  1.00  0.00    -0.113 A  
HETATM   31  F   UNL     1      -7.932   2.602  68.233  1.00  0.00    -0.057 F  
HETATM   32  O   UNL     1      -8.169   3.659  66.245  1.00  0.00    -0.099 OA 
HETATM   33  F   UNL     1      -9.444   1.879  66.829  1.00  0.00    -0.095 F  
HETATM   34  O   UNL     1      -9.848   3.786  67.981  1.00  0.00    -0.100 OA 
ENDBRANCH  21  24
ENDBRANCH  19  21
ENDBRANCH  11  17
BRANCH  16  35
HETATM   35  C   UNL     1     -11.866  16.105  68.493  1.00  0.00    -0.037 C  
BRANCH  35  36
HETATM   36  C   UNL     1     -10.567  16.848  68.138  1.00  0.00    -0.360 C  
HETATM   37  H   UNL     1     -10.038  18.651  67.491  1.00  0.00     0.000 HD 
HETATM   38  O   UNL     1     -10.840  18.192  67.711  1.00  0.00    -0.385 OA 
BRANCH  36  39
HETATM   39  C   UNL     1      -9.671  16.951  69.380  1.00  0.00    -0.012 C  
HETATM   40  O   UNL     1      -8.849  15.788  69.480  1.00  0.00    -0.258 OA 
HETATM   41  H   UNL     1      -8.294  15.853  70.249  1.00  0.00     0.000 HD 
ENDBRANCH  36  39
ENDBRANCH  35  36
ENDBRANCH  16  35
ENDBRANCH   2   7
TORSDOF 8
ENDMDL
MODEL       99
REMARK 921   NORMALIZED FREE ENERGY PREDICTED BY IDOCK:   -4.55 KCAL/MOL
REMARK 922        TOTAL FREE ENERGY PREDICTED BY IDOCK:   -7.59 KCAL/MOL
REMARK 923 INTER-LIGAND FREE ENERGY PREDICTED BY IDOCK:   -6.99 KCAL/MOL
REMARK 924 INTRA-LIGAND FREE ENERGY PREDICTED BY IDOCK:   -0.60 KCAL/MOL
REMARK 927      BINDING AFFINITY PREDICTED BY RF-SCORE:    0.00 PKD
ROOT
HETATM    1  C   UNL     1     -10.389  18.219  65.945  1.00  0.00    -0.297 C  
HETATM    2  C   UNL     1      -9.300  18.397  67.042  1.00  0.00    -0.281 C  
HETATM    3  C   UNL     1      -8.203  19.272  66.402  1.00  0.00    -0.329 C  
ENDROOT
BRANCH   2   4
HETATM    4  C   UNL     1      -9.967  19.145  68.233  1.00  0.00    -0.403 C  
HETATM    5  H   UNL     1     -10.211  21.017  68.900  1.00  0.00     0.000 HD 
HETATM    6  O   UNL     1      -9.804  20.560  68.174  1.00  0.00    -0.260 OA 
ENDBRANCH   2   4
BRANCH   2   7
HETATM    7  C   UNL     1      -8.727  17.021  67.445  1.00  0.00    -0.202 A  
HETATM    8  C   UNL     1      -9.414  15.817  67.486  1.00  0.00    -0.218 A  
HETATM    9  C   UNL     1      -8.567  14.809  67.981  1.00  0.00    -0.166 A  
HETATM   10  C   UNL     1      -8.774  13.441  68.254  1.00  0.00    -0.172 A  
HETATM   11  C   UNL     1      -7.740  12.662  68.774  1.00  0.00     0.007 A  
HETATM   12  C   UNL     1      -6.509  13.276  69.028  1.00  0.00    -0.102 A  
HETATM   13  C   UNL     1      -7.329  15.390  68.232  1.00  0.00    -0.112 A  
HETATM   14  C   UNL     1      -6.275  14.630  68.773  1.00  0.00    -0.087 A  
HETATM   15  F   UNL     1      -5.503  12.535  69.529  1.00  0.00    -0.071 F  
HETATM   16  N   UNL     1      -7.424  16.726  67.848  1.00  0.00    -0.157 NA 
BRANCH  11  17
HETATM   17  N   UNL     1      -7.881  11.289  69.066  1.00  0.00    -0.283 N  
HETATM   18  H   UNL     1      -7.864  11.025  70.052  1.00  0.00     0.000 HD 
HETATM   19  C   UNL     1      -8.039  10.269  68.152  1.00  0.00    -0.110 C  
HETATM   20  O   UNL     1      -8.069  10.356  66.932  1.00  0.00    -0.115 OA 
BRANCH  19  21
HETATM   21  C   UNL     1      -8.221   8.908  68.780  1.00  0.00    -0.115 C  
HETATM   22  C   UNL     1      -8.403   8.820  70.290  1.00  0.00    -0.139 C  
HETATM   23  C   UNL     1      -7.086   8.443  69.691  1.00  0.00    -0.052 C  
BRANCH  21  24
HETATM   24  C   UNL     1      -8.880   7.876  67.864  1.00  0.00    -0.123 A  
HETATM   25  C   UNL     1      -9.373   4.131  65.441  1.00  0.00    -0.163 C  
HETATM   26  C   UNL     1     -10.297   7.799  67.785  1.00  0.00    -0.284 A  
HETATM   27  C   UNL     1      -8.132   6.906  67.172  1.00  0.00    -0.117 A  
HETATM   28  C   UNL     1     -10.953   6.773  67.094  1.00  0.00    -0.458 A  
HETATM   29  C   UNL     1     -10.170   5.829  66.471  1.00  0.00    -0.189 A  
HETATM   30  C   UNL     1      -8.798   5.903  66.498  1.00  0.00    -0.128 A  
HETATM   31  F   UNL     1      -9.310   2.903  66.011  1.00  0.00    -0.155 F  
HETATM   32  O   UNL     1      -8.208   4.872  65.834  1.00  0.00    -0.110 OA 
HETATM   33  F   UNL     1      -9.344   3.961  64.098  1.00  0.00    -0.124 F  
HETATM   34  O   UNL     1     -10.622   4.738  65.798  1.00  0.00    -0.286 OA 
ENDBRANCH  21  24
ENDBRANCH  19  21
ENDBRANCH  11  17
BRANCH  16  35
HETATM   35  C   UNL     1      -6.289  17.640  67.907  1.00  0.00    -0.167 C  
BRANCH  35  36
HETATM   36  C   UNL     1      -6.223  18.506  69.177  1.00  0.00    -0.245 C  
HETATM   37  H   UNL     1      -5.633  18.300  71.063  1.00  0.00     0.000 HD 
HETATM   38  O   UNL     1      -5.673  17.765  70.278  1.00  0.00    -0.247 OA 
BRANCH  36  39
HETATM   39  C   UNL     1      -5.293  19.703  68.941  1.00  0.00    -0.194 C  
HETATM   40  O   UNL     1      -6.023  20.920  69.098  1.00  0.00    -0.338 OA 
HETATM   41  H   UNL     1      -5.447  21.662  68.952  1.00  0.00     0.000 HD 
ENDBRANCH  36  39
ENDBRANCH  35  36
ENDBRANCH  16  35
ENDBRANCH   2   7
TORSDOF 8
ENDMDL
MODEL      100
REMARK 921   NORMALIZED FREE ENERGY PREDICTED BY IDOCK:   -4.55 KCAL/MOL
REMARK 922        TOTAL FREE ENERGY PREDICTED BY IDOCK:   -7.59 KCAL/MOL
REMARK 923 INTER-LIGAND FREE ENERGY PREDICTED BY IDOCK:   -6.28 KCAL/MOL
REMARK 924 INTRA-LIGAND FREE ENERGY PREDICTED BY IDOCK:   -1.31 KCAL/MOL
REMARK 927      BINDING AFFINITY PREDICTED BY RF-SCORE:    0.00 PKD
ROOT
HETATM    1  C   UNL     1      -9.579   3.939  69.765  1.00  0.00    -0.271 C  
HETATM    2  C   UNL     1      -8.601   3.999  68.557  1.00  0.00    -0.115 C  
HETATM    3  C   UNL     1      -7.364   3.181  68.982  1.00  0.00    -0.048 C  
ENDROOT
BRANCH   2   4
HETATM    4  C   UNL     1      -9.316   3.317  67.353  1.00  0.00    -0.201 C  
HETATM    5  H   UNL     1      -9.274   1.586  66.350  1.00  0.00     0.000 HD 
HETATM    6  O   UNL     1      -8.838   2.001  67.084  1.00  0.00    -0.116 OA 
ENDBRANCH   2   4
BRANCH   2   7
HETATM    7  C   UNL     1      -8.207   5.463  68.267  1.00  0.00    -0.095 A  
HETATM    8  C   UNL     1      -8.838   6.601  68.747  1.00  0.00    -0.126 A  
HETATM    9  C   UNL     1      -8.233   7.743  68.193  1.00  0.00    -0.124 A  
HETATM   10  C   UNL     1      -8.508   9.121  68.316  1.00  0.00    -0.125 A  
HETATM   11  C   UNL     1      -7.742  10.057  67.620  1.00  0.00    -0.091 A  
HETATM   12  C   UNL     1      -6.715   9.593  66.793  1.00  0.00    -0.075 A  
HETATM   13  C   UNL     1      -7.196   7.311  67.373  1.00  0.00    -0.090 A  
HETATM   14  C   UNL     1      -6.422   8.234  66.646  1.00  0.00    -0.056 A  
HETATM   15  F   UNL     1      -5.969  10.486  66.115  1.00  0.00    -0.063 F  
HETATM   16  N   UNL     1      -7.156   5.922  67.471  1.00  0.00    -0.073 NA 
BRANCH  11  17
HETATM   17  N   UNL     1      -7.964  11.448  67.701  1.00  0.00    -0.119 N  
HETATM   18  H   UNL     1      -8.582  11.857  67.000  1.00  0.00     0.000 HD 
HETATM   19  C   UNL     1      -7.428  12.309  68.636  1.00  0.00    -0.100 C  
HETATM   20  O   UNL     1      -6.658  12.040  69.547  1.00  0.00    -0.116 OA 
BRANCH  19  21
HETATM   21  C   UNL     1      -7.901  13.737  68.494  1.00  0.00    -0.132 C  
HETATM   22  C   UNL     1      -6.859  14.846  68.411  1.00  0.00    -0.110 C  
HETATM   23  C   UNL     1      -7.616  14.649  69.686  1.00  0.00     0.015 C  
BRANCH  21  24
HETATM   24  C   UNL     1      -9.243  13.886  67.775  1.00  0.00    -0.197 A  
HETATM   25  C   UNL     1     -12.176  14.147  64.390  1.00  0.00    -0.439 C  
HETATM   26  C   UNL     1     -10.450  13.553  68.447  1.00  0.00    -0.252 A  
HETATM   27  C   UNL     1      -9.326  14.235  66.415  1.00  0.00    -0.270 A  
HETATM   28  C   UNL     1     -11.686  13.513  67.791  1.00  0.00    -0.394 A  
HETATM   29  C   UNL     1     -11.700  13.824  66.451  1.00  0.00    -0.379 A  
HETATM   30  C   UNL     1     -10.553  14.189  65.786  1.00  0.00    -0.300 A  
HETATM   31  F   UNL     1     -12.349  13.124  63.518  1.00  0.00    -0.511 F  
HETATM   32  O   UNL     1     -10.775  14.445  64.469  1.00  0.00    -0.371 OA 
HETATM   33  F   UNL     1     -12.820  15.227  63.887  1.00  0.00    -0.244 F  
HETATM   34  O   UNL     1     -12.788  13.792  65.638  1.00  0.00    -0.521 OA 
ENDBRANCH  21  24
ENDBRANCH  19  21
ENDBRANCH  11  17
BRANCH  16  35
HETATM   35  C   UNL     1      -6.146   5.118  66.793  1.00  0.00    -0.030 C  
BRANCH  35  36
HETATM   36  C   UNL     1      -6.542   4.636  65.387  1.00  0.00    -0.044 C  
HETATM   37  H   UNL     1      -6.060   5.052  63.504  1.00  0.00     0.000 HD 
HETATM   38  O   UNL     1      -5.815   5.349  64.373  1.00  0.00    -0.020 OA 
BRANCH  36  39
HETATM   39  C   UNL     1      -6.186   3.152  65.226  1.00  0.00    -0.027 C  
HETATM   40  O   UNL     1      -7.279   2.455  64.629  1.00  0.00    -0.052 OA 
HETATM   41  H   UNL     1      -7.058   1.536  64.529  1.00  0.00     0.000 HD 
ENDBRANCH  36  39
ENDBRANCH  35  36
ENDBRANCH  16  35
ENDBRANCH   2   7
TORSDOF 8
ENDMDL
MODEL      101
REMARK 921   NORMALIZED FREE ENERGY PREDICTED BY IDOCK:   -4.47 KCAL/MOL
REMARK 922        TOTAL FREE ENERGY PREDICTED BY IDOCK:   -7.48 KCAL/MOL
REMARK 923 INTER-LIGAND FREE ENERGY PREDICTED BY IDOCK:   -7.19 KCAL/MOL
REMARK 924 INTRA-LIGAND FREE ENERGY PREDICTED BY IDOCK:   -0.28 KCAL/MOL
REMARK 927      BINDING AFFINITY PREDICTED BY RF-SCORE:    0.00 PKD
ROOT
HETATM    1  C   UNL     1      -9.865   6.174  71.384  1.00  0.00    -0.200 C  
HETATM    2  C   UNL     1     -10.741   7.082  70.474  1.00  0.00    -0.262 C  
HETATM    3  C   UNL     1     -11.402   6.135  69.452  1.00  0.00    -0.401 C  
ENDROOT
BRANCH   2   4
HETATM    4  C   UNL     1     -11.820   7.739  71.385  1.00  0.00    -0.297 C  
HETATM    5  H   UNL     1     -12.105   8.184  73.315  1.00  0.00     0.000 HD 
HETATM    6  O   UNL     1     -11.447   7.784  72.760  1.00  0.00    -0.374 OA 
ENDBRANCH   2   4
BRANCH   2   7
HETATM    7  C   UNL     1      -9.854   8.121  69.754  1.00  0.00    -0.187 A  
HETATM    8  C   UNL     1      -9.828   9.489  69.982  1.00  0.00    -0.269 A  
HETATM    9  C   UNL     1      -8.949  10.101  69.070  1.00  0.00    -0.168 A  
HETATM   10  C   UNL     1      -8.592  11.447  68.850  1.00  0.00    -0.020 A  
HETATM   11  C   UNL     1      -7.691  11.780  67.838  1.00  0.00    -0.125 A  
HETATM   12  C   UNL     1      -7.169  10.751  67.048  1.00  0.00    -0.109 A  
HETATM   13  C   UNL     1      -8.404   9.097  68.277  1.00  0.00    -0.120 A  
HETATM   14  C   UNL     1      -7.507   9.409  67.239  1.00  0.00    -0.091 A  
HETATM   15  F   UNL     1      -6.298  11.059  66.068  1.00  0.00    -0.119 F  
HETATM   16  N   UNL     1      -8.922   7.889  68.741  1.00  0.00    -0.141 NA 
BRANCH  11  17
HETATM   17  N   UNL     1      -7.291  13.106  67.567  1.00  0.00    -0.178 N  
HETATM   18  H   UNL     1      -7.335  13.410  66.594  1.00  0.00     0.000 HD 
HETATM   19  C   UNL     1      -6.849  14.032  68.488  1.00  0.00    -0.104 C  
HETATM   20  O   UNL     1      -6.704  13.878  69.692  1.00  0.00    -0.110 OA 
BRANCH  19  21
HETATM   21  C   UNL     1      -6.548  15.388  67.895  1.00  0.00    -0.169 C  
HETATM   22  C   UNL     1      -5.177  15.624  67.272  1.00  0.00     0.184 C  
HETATM   23  C   UNL     1      -5.477  16.203  68.618  1.00  0.00    -0.105 C  
BRANCH  21  24
HETATM   24  C   UNL     1      -7.775  16.125  67.357  1.00  0.00    -0.187 A  
HETATM   25  C   UNL     1     -10.404  19.551  66.137  1.00  0.00    -0.520 C  
HETATM   26  C   UNL     1      -8.661  15.470  66.460  1.00  0.00    -0.340 A  
HETATM   27  C   UNL     1      -8.005  17.487  67.627  1.00  0.00    -0.207 A  
HETATM   28  C   UNL     1      -9.703  16.144  65.811  1.00  0.00    -0.325 A  
HETATM   29  C   UNL     1      -9.855  17.484  66.082  1.00  0.00    -0.242 A  
HETATM   30  C   UNL     1      -9.037  18.132  66.976  1.00  0.00    -0.263 A  
HETATM   31  F   UNL     1     -10.030  20.425  65.171  1.00  0.00    -0.290 F  
HETATM   32  O   UNL     1      -9.341  19.453  67.096  1.00  0.00    -0.305 OA 
HETATM   33  F   UNL     1     -11.496  20.064  66.752  1.00  0.00    -0.252 F  
HETATM   34  O   UNL     1     -10.771  18.311  65.515  1.00  0.00    -0.596 OA 
ENDBRANCH  21  24
ENDBRANCH  19  21
ENDBRANCH  11  17
BRANCH  16  35
HETATM   35  C   UNL     1      -8.521   6.601  68.187  1.00  0.00    -0.116 C  
BRANCH  35  36
HETATM   36  C   UNL     1      -7.113   6.134  68.594  1.00  0.00    -0.082 C  
HETATM   37  H   UNL     1      -6.309   4.699  69.709  1.00  0.00     0.000 HD 
HETATM   38  O   UNL     1      -7.179   4.987  69.457  1.00  0.00    -0.054 OA 
BRANCH  36  39
HETATM   39  C   UNL     1      -6.328   5.705  67.347  1.00  0.00    -0.042 C  
HETATM   40  O   UNL     1      -5.155   4.989  67.738  1.00  0.00    -0.003 OA 
HETATM   41  H   UNL     1      -4.669   4.724  66.965  1.00  0.00     0.000 HD 
ENDBRANCH  36  39
ENDBRANCH  35  36
ENDBRANCH  16  35
ENDBRANCH   2   7
TORSDOF 8
ENDMDL
MODEL      102
REMARK 921   NORMALIZED FREE ENERGY PREDICTED BY IDOCK:   -4.44 KCAL/MOL
REMARK 922        TOTAL FREE ENERGY PREDICTED BY IDOCK:   -7.43 KCAL/MOL
REMARK 923 INTER-LIGAND FREE ENERGY PREDICTED BY IDOCK:   -6.91 KCAL/MOL
REMARK 924 INTRA-LIGAND FREE ENERGY PREDICTED BY IDOCK:   -0.52 KCAL/MOL
REMARK 927      BINDING AFFINITY PREDICTED BY RF-SCORE:    0.00 PKD
ROOT
HETATM    1  C   UNL     1      -9.584   2.503  71.397  1.00  0.00    -0.225 C  
HETATM    2  C   UNL     1      -8.285   3.045  70.734  1.00  0.00    -0.073 C  
HETATM    3  C   UNL     1      -7.168   2.841  71.777  1.00  0.00    -0.039 C  
ENDROOT
BRANCH   2   4
HETATM    4  C   UNL     1      -8.016   2.173  69.472  1.00  0.00    -0.041 C  
HETATM    5  H   UNL     1      -9.012   0.960  68.230  1.00  0.00     0.000 HD 
HETATM    6  O   UNL     1      -9.175   1.491  69.000  1.00  0.00    -0.099 OA 
ENDBRANCH   2   4
BRANCH   2   7
HETATM    7  C   UNL     1      -8.447   4.544  70.402  1.00  0.00    -0.078 A  
HETATM    8  C   UNL     1      -8.816   5.088  69.180  1.00  0.00    -0.114 A  
HETATM    9  C   UNL     1      -8.772   6.491  69.257  1.00  0.00    -0.130 A  
HETATM   10  C   UNL     1      -9.012   7.504  68.306  1.00  0.00    -0.130 A  
HETATM   11  C   UNL     1      -8.869   8.847  68.657  1.00  0.00    -0.137 A  
HETATM   12  C   UNL     1      -8.472   9.155  69.962  1.00  0.00    -0.157 A  
HETATM   13  C   UNL     1      -8.390   6.827  70.551  1.00  0.00    -0.129 A  
HETATM   14  C   UNL     1      -8.222   8.173  70.925  1.00  0.00    -0.110 A  
HETATM   15  F   UNL     1      -8.331  10.447  70.313  1.00  0.00    -0.094 F  
HETATM   16  N   UNL     1      -8.249   5.632  71.254  1.00  0.00    -0.123 NA 
BRANCH  11  17
HETATM   17  N   UNL     1      -9.096   9.908  67.755  1.00  0.00    -0.131 N  
HETATM   18  H   UNL     1      -8.273  10.322  67.315  1.00  0.00     0.000 HD 
HETATM   19  C   UNL     1     -10.320  10.441  67.408  1.00  0.00    -0.228 C  
HETATM   20  O   UNL     1     -11.423  10.113  67.823  1.00  0.00    -0.287 OA 
BRANCH  19  21
HETATM   21  C   UNL     1     -10.239  11.535  66.370  1.00  0.00    -0.261 C  
HETATM   22  C   UNL     1     -10.981  11.346  65.052  1.00  0.00    -0.271 C  
HETATM   23  C   UNL     1      -9.496  11.172  65.085  1.00  0.00    -0.257 C  
BRANCH  21  24
HETATM   24  C   UNL     1     -10.040  12.936  66.948  1.00  0.00    -0.241 A  
HETATM   25  C   UNL     1      -8.900  17.273  67.124  1.00  0.00    -0.226 C  
HETATM   26  C   UNL     1     -10.834  13.373  68.043  1.00  0.00    -0.264 A  
HETATM   27  C   UNL     1      -9.171  13.871  66.356  1.00  0.00    -0.174 A  
HETATM   28  C   UNL     1     -10.811  14.694  68.504  1.00  0.00    -0.256 A  
HETATM   29  C   UNL     1      -9.972  15.574  67.861  1.00  0.00    -0.218 A  
HETATM   30  C   UNL     1      -9.164  15.169  66.825  1.00  0.00    -0.254 A  
HETATM   31  F   UNL     1      -9.472  18.192  66.309  1.00  0.00    -0.286 F  
HETATM   32  O   UNL     1      -8.420  16.188  66.317  1.00  0.00    -0.310 OA 
HETATM   33  F   UNL     1      -7.841  17.864  67.728  1.00  0.00    -0.208 F  
HETATM   34  O   UNL     1      -9.850  16.900  68.132  1.00  0.00    -0.248 OA 
ENDBRANCH  21  24
ENDBRANCH  19  21
ENDBRANCH  11  17
BRANCH  16  35
HETATM   35  C   UNL     1      -7.918   5.593  72.674  1.00  0.00    -0.102 C  
BRANCH  35  36
HETATM   36  C   UNL     1      -9.127   5.671  73.621  1.00  0.00    -0.127 C  
HETATM   37  H   UNL     1      -9.933   6.996  74.864  1.00  0.00     0.000 HD 
HETATM   38  O   UNL     1      -9.186   6.947  74.278  1.00  0.00    -0.194 OA 
BRANCH  36  39
HETATM   39  C   UNL     1     -10.426   5.527  72.817  1.00  0.00    -0.212 C  
HETATM   40  O   UNL     1     -11.291   6.629  73.094  1.00  0.00    -0.472 OA 
HETATM   41  H   UNL     1     -12.095   6.539  72.596  1.00  0.00     0.000 HD 
ENDBRANCH  36  39
ENDBRANCH  35  36
ENDBRANCH  16  35
ENDBRANCH   2   7
TORSDOF 8
ENDMDL
MODEL      103
REMARK 921   NORMALIZED FREE ENERGY PREDICTED BY IDOCK:   -4.43 KCAL/MOL
REMARK 922        TOTAL FREE ENERGY PREDICTED BY IDOCK:   -7.42 KCAL/MOL
REMARK 923 INTER-LIGAND FREE ENERGY PREDICTED BY IDOCK:   -7.06 KCAL/MOL
REMARK 924 INTRA-LIGAND FREE ENERGY PREDICTED BY IDOCK:   -0.35 KCAL/MOL
REMARK 927      BINDING AFFINITY PREDICTED BY RF-SCORE:    0.00 PKD
ROOT
HETATM    1  C   UNL     1      -7.733   3.833  70.720  1.00  0.00    -0.047 C  
HETATM    2  C   UNL     1      -8.612   4.960  71.335  1.00  0.00    -0.132 C  
HETATM    3  C   UNL     1     -10.061   4.436  71.276  1.00  0.00    -0.202 C  
ENDROOT
BRANCH   2   4
HETATM    4  C   UNL     1      -8.158   5.141  72.814  1.00  0.00    -0.109 C  
HETATM    5  H   UNL     1      -8.956   5.166  74.649  1.00  0.00     0.000 HD 
HETATM    6  O   UNL     1      -9.232   5.056  73.747  1.00  0.00    -0.122 OA 
ENDBRANCH   2   4
BRANCH   2   7
HETATM    7  C   UNL     1      -8.470   6.253  70.504  1.00  0.00    -0.138 A  
HETATM    8  C   UNL     1      -8.463   7.553  70.988  1.00  0.00    -0.117 A  
HETATM    9  C   UNL     1      -8.396   8.455  69.911  1.00  0.00    -0.124 A  
HETATM   10  C   UNL     1      -8.400   9.864  69.849  1.00  0.00    -0.200 A  
HETATM   11  C   UNL     1      -8.346  10.514  68.615  1.00  0.00    -0.132 A  
HETATM   12  C   UNL     1      -8.304   9.736  67.455  1.00  0.00    -0.114 A  
HETATM   13  C   UNL     1      -8.340   7.707  68.741  1.00  0.00    -0.129 A  
HETATM   14  C   UNL     1      -8.304   8.339  67.484  1.00  0.00    -0.130 A  
HETATM   15  F   UNL     1      -8.252  10.351  66.258  1.00  0.00    -0.126 F  
HETATM   16  N   UNL     1      -8.330   6.366  69.119  1.00  0.00    -0.121 NA 
BRANCH  11  17
HETATM   17  N   UNL     1      -8.345  11.919  68.484  1.00  0.00    -0.248 N  
HETATM   18  H   UNL     1      -9.255  12.374  68.401  1.00  0.00     0.000 HD 
HETATM   19  C   UNL     1      -7.236  12.738  68.456  1.00  0.00    -0.114 C  
HETATM   20  O   UNL     1      -6.060  12.407  68.521  1.00  0.00    -0.053 OA 
BRANCH  19  21
HETATM   21  C   UNL     1      -7.564  14.209  68.362  1.00  0.00    -0.130 C  
HETATM   22  C   UNL     1      -6.417  15.206  68.237  1.00  0.00    -0.117 C  
HETATM   23  C   UNL     1      -7.120  15.062  69.550  1.00  0.00    -0.192 C  
BRANCH  21  24
HETATM   24  C   UNL     1      -8.920  14.512  67.723  1.00  0.00    -0.190 A  
HETATM   25  C   UNL     1     -12.256  14.402  64.724  1.00  0.00    -0.446 C  
HETATM   26  C   UNL     1     -10.017  14.905  68.536  1.00  0.00    -0.223 A  
HETATM   27  C   UNL     1      -9.162  14.301  66.353  1.00  0.00    -0.226 A  
HETATM   28  C   UNL     1     -11.315  15.035  68.029  1.00  0.00    -0.339 A  
HETATM   29  C   UNL     1     -11.500  14.776  66.691  1.00  0.00    -0.335 A  
HETATM   30  C   UNL     1     -10.449  14.433  65.874  1.00  0.00    -0.308 A  
HETATM   31  F   UNL     1     -12.879  13.244  64.396  1.00  0.00    -0.328 F  
HETATM   32  O   UNL     1     -10.840  14.208  64.590  1.00  0.00    -0.403 OA 
HETATM   33  F   UNL     1     -12.649  15.344  63.835  1.00  0.00    -0.407 F  
HETATM   34  O   UNL     1     -12.689  14.801  66.033  1.00  0.00     0.003 OA 
ENDBRANCH  21  24
ENDBRANCH  19  21
ENDBRANCH  11  17
BRANCH  16  35
HETATM   35  C   UNL     1      -8.210   5.280  68.153  1.00  0.00    -0.098 C  
BRANCH  35  36
HETATM   36  C   UNL     1      -9.548   4.752  67.607  1.00  0.00    -0.155 C  
HETATM   37  H   UNL     1     -10.516   3.019  67.524  1.00  0.00     0.000 HD 
HETATM   38  O   UNL     1      -9.690   3.345  67.861  1.00  0.00    -0.152 OA 
BRANCH  36  39
HETATM   39  C   UNL     1     -10.712   5.451  68.320  1.00  0.00     0.003 C  
HETATM   40  O   UNL     1     -11.292   6.429  67.455  1.00  0.00    -0.662 OA 
HETATM   41  H   UNL     1     -12.013   6.861  67.897  1.00  0.00     0.000 HD 
ENDBRANCH  36  39
ENDBRANCH  35  36
ENDBRANCH  16  35
ENDBRANCH   2   7
TORSDOF 8
ENDMDL
MODEL      104
REMARK 921   NORMALIZED FREE ENERGY PREDICTED BY IDOCK:   -4.41 KCAL/MOL
REMARK 922        TOTAL FREE ENERGY PREDICTED BY IDOCK:   -7.40 KCAL/MOL
REMARK 923 INTER-LIGAND FREE ENERGY PREDICTED BY IDOCK:   -6.57 KCAL/MOL
REMARK 924 INTRA-LIGAND FREE ENERGY PREDICTED BY IDOCK:   -0.83 KCAL/MOL
REMARK 927      BINDING AFFINITY PREDICTED BY RF-SCORE:    0.00 PKD
ROOT
HETATM    1  C   UNL     1     -10.432  15.111  65.213  1.00  0.00    -0.434 C  
HETATM    2  C   UNL     1     -11.237  14.267  66.242  1.00  0.00    -0.337 C  
HETATM    3  C   UNL     1     -11.851  15.283  67.225  1.00  0.00     0.025 C  
ENDROOT
BRANCH   2   4
HETATM    4  C   UNL     1     -12.358  13.528  65.452  1.00  0.00    -0.478 C  
HETATM    5  H   UNL     1     -12.724  12.876  63.596  1.00  0.00     0.000 HD 
HETATM    6  O   UNL     1     -12.041  13.327  64.077  1.00  0.00    -0.418 OA 
ENDBRANCH   2   4
BRANCH   2   7
HETATM    7  C   UNL     1     -10.292  13.298  66.985  1.00  0.00    -0.246 A  
HETATM    8  C   UNL     1     -10.552  11.976  67.315  1.00  0.00    -0.252 A  
HETATM    9  C   UNL     1      -9.478  11.457  68.059  1.00  0.00    -0.181 A  
HETATM   10  C   UNL     1      -9.257  10.201  68.662  1.00  0.00    -0.157 A  
HETATM   11  C   UNL     1      -8.083   9.961  69.377  1.00  0.00    -0.139 A  
HETATM   12  C   UNL     1      -7.149  10.995  69.490  1.00  0.00    -0.113 A  
HETATM   13  C   UNL     1      -8.526  12.463  68.177  1.00  0.00    -0.180 A  
HETATM   14  C   UNL     1      -7.343  12.251  68.909  1.00  0.00    -0.041 A  
HETATM   15  F   UNL     1      -6.012  10.776  70.177  1.00  0.00    -0.055 F  
HETATM   16  N   UNL     1      -9.010  13.563  67.471  1.00  0.00    -0.199 NA 
BRANCH  11  17
HETATM   17  N   UNL     1      -7.799   8.727  70.001  1.00  0.00    -0.089 N  
HETATM   18  H   UNL     1      -7.242   8.059  69.468  1.00  0.00     0.000 HD 
HETATM   19  C   UNL     1      -8.202   8.335  71.260  1.00  0.00    -0.125 C  
HETATM   20  O   UNL     1      -8.884   8.964  72.057  1.00  0.00    -0.367 OA 
BRANCH  19  21
HETATM   21  C   UNL     1      -7.690   6.974  71.670  1.00  0.00    -0.093 C  
HETATM   22  C   UNL     1      -7.248   6.766  73.114  1.00  0.00    -0.076 C  
HETATM   23  C   UNL     1      -6.211   6.910  72.045  1.00  0.00    -0.041 C  
BRANCH  21  24
HETATM   24  C   UNL     1      -8.284   5.813  70.872  1.00  0.00    -0.121 A  
HETATM   25  C   UNL     1      -8.670   2.697  67.667  1.00  0.00    -0.114 C  
HETATM   26  C   UNL     1      -9.168   4.896  71.502  1.00  0.00    -0.185 A  
HETATM   27  C   UNL     1      -7.894   5.542  69.548  1.00  0.00    -0.087 A  
HETATM   28  C   UNL     1      -9.610   3.728  70.869  1.00  0.00    -0.256 A  
HETATM   29  C   UNL     1      -9.163   3.493  69.590  1.00  0.00    -0.153 A  
HETATM   30  C   UNL     1      -8.340   4.384  68.943  1.00  0.00    -0.079 A  
HETATM   31  F   UNL     1      -7.737   1.726  67.503  1.00  0.00    -0.056 F  
HETATM   32  O   UNL     1      -8.002   3.966  67.693  1.00  0.00    -0.088 OA 
HETATM   33  F   UNL     1      -9.490   2.662  66.590  1.00  0.00    -0.148 F  
HETATM   34  O   UNL     1      -9.441   2.397  68.838  1.00  0.00    -0.158 OA 
ENDBRANCH  21  24
ENDBRANCH  19  21
ENDBRANCH  11  17
BRANCH  16  35
HETATM   35  C   UNL     1      -8.245  14.794  67.318  1.00  0.00    -0.213 C  
BRANCH  35  36
HETATM   36  C   UNL     1      -8.490  15.847  68.413  1.00  0.00    -0.176 C  
HETATM   37  H   UNL     1      -7.512  16.597  69.971  1.00  0.00     0.000 HD 
HETATM   38  O   UNL     1      -7.360  15.947  69.295  1.00  0.00    -0.198 OA 
BRANCH  36  39
HETATM   39  C   UNL     1      -8.676  17.229  67.773  1.00  0.00    -0.226 C  
HETATM   40  O   UNL     1      -9.841  17.857  68.310  1.00  0.00    -0.310 OA 
HETATM   41  H   UNL     1      -9.956  18.713  67.913  1.00  0.00     0.000 HD 
ENDBRANCH  36  39
ENDBRANCH  35  36
ENDBRANCH  16  35
ENDBRANCH   2   7
TORSDOF 8
ENDMDL
MODEL      105
REMARK 921   NORMALIZED FREE ENERGY PREDICTED BY IDOCK:   -4.27 KCAL/MOL
REMARK 922        TOTAL FREE ENERGY PREDICTED BY IDOCK:   -7.18 KCAL/MOL
REMARK 923 INTER-LIGAND FREE ENERGY PREDICTED BY IDOCK:   -7.21 KCAL/MOL
REMARK 924 INTRA-LIGAND FREE ENERGY PREDICTED BY IDOCK:    0.03 KCAL/MOL
REMARK 927      BINDING AFFINITY PREDICTED BY RF-SCORE:    0.00 PKD
ROOT
HETATM    1  C   UNL     1      -5.372  18.102  67.889  1.00  0.00    -0.152 C  
HETATM    2  C   UNL     1      -6.913  18.289  67.789  1.00  0.00    -0.212 C  
HETATM    3  C   UNL     1      -7.307  19.156  69.002  1.00  0.00    -0.360 C  
ENDROOT
BRANCH   2   4
HETATM    4  C   UNL     1      -7.198  19.051  66.461  1.00  0.00    -0.228 C  
HETATM    5  H   UNL     1      -6.933  18.813  64.492  1.00  0.00     0.000 HD 
HETATM    6  O   UNL     1      -6.759  18.348  65.301  1.00  0.00    -0.490 OA 
ENDBRANCH   2   4
BRANCH   2   7
HETATM    7  C   UNL     1      -7.618  16.917  67.853  1.00  0.00    -0.171 A  
HETATM    8  C   UNL     1      -7.017  15.671  67.749  1.00  0.00    -0.179 A  
HETATM    9  C   UNL     1      -8.004  14.670  67.775  1.00  0.00    -0.166 A  
HETATM   10  C   UNL     1      -7.937  13.265  67.665  1.00  0.00    -0.176 A  
HETATM   11  C   UNL     1      -9.104  12.500  67.701  1.00  0.00    -0.187 A  
HETATM   12  C   UNL     1     -10.328  13.161  67.834  1.00  0.00    -0.231 A  
HETATM   13  C   UNL     1      -9.235  15.299  67.918  1.00  0.00    -0.184 A  
HETATM   14  C   UNL     1     -10.427  14.551  67.939  1.00  0.00    -0.242 A  
HETATM   15  F   UNL     1     -11.461  12.435  67.870  1.00  0.00    -0.279 F  
HETATM   16  N   UNL     1      -8.981  16.665  68.021  1.00  0.00    -0.207 NA 
BRANCH  11  17
HETATM   17  N   UNL     1      -9.106  11.093  67.599  1.00  0.00    -0.145 N  
HETATM   18  H   UNL     1      -8.668  10.691  66.770  1.00  0.00     0.000 HD 
HETATM   19  C   UNL     1      -9.642  10.207  68.510  1.00  0.00    -0.154 C  
HETATM   20  O   UNL     1     -10.223  10.467  69.554  1.00  0.00    -0.227 OA 
BRANCH  19  21
HETATM   21  C   UNL     1      -9.436   8.755  68.145  1.00  0.00    -0.152 C  
HETATM   22  C   UNL     1      -9.639   8.332  66.695  1.00  0.00    -0.299 C  
HETATM   23  C   UNL     1     -10.690   8.000  67.706  1.00  0.00    -0.174 C  
BRANCH  21  24
HETATM   24  C   UNL     1      -8.423   8.024  69.025  1.00  0.00    -0.130 A  
HETATM   25  C   UNL     1      -6.785   5.770  72.543  1.00  0.00    -0.069 C  
HETATM   26  C   UNL     1      -7.280   7.415  68.439  1.00  0.00    -0.093 A  
HETATM   27  C   UNL     1      -8.637   7.824  70.401  1.00  0.00    -0.137 A  
HETATM   28  C   UNL     1      -6.410   6.597  69.169  1.00  0.00    -0.035 A  
HETATM   29  C   UNL     1      -6.693   6.403  70.501  1.00  0.00    -0.053 A  
HETATM   30  C   UNL     1      -7.769   7.013  71.103  1.00  0.00    -0.091 A  
HETATM   31  F   UNL     1      -7.278   4.560  72.904  1.00  0.00    -0.067 F  
HETATM   32  O   UNL     1      -7.882   6.687  72.419  1.00  0.00    -0.098 OA 
HETATM   33  F   UNL     1      -5.976   6.197  73.542  1.00  0.00    -0.054 F  
HETATM   34  O   UNL     1      -5.997   5.608  71.355  1.00  0.00    -0.027 OA 
ENDBRANCH  21  24
ENDBRANCH  19  21
ENDBRANCH  11  17
BRANCH  16  35
HETATM   35  C   UNL     1     -10.038  17.644  68.248  1.00  0.00    -0.362 C  
BRANCH  35  36
HETATM   36  C   UNL     1     -10.764  18.116  66.977  1.00  0.00    -0.253 C  
HETATM   37  H   UNL     1     -11.311  19.841  66.154  1.00  0.00     0.000 HD 
HETATM   38  O   UNL     1     -10.862  19.549  66.939  1.00  0.00    -0.476 OA 
BRANCH  36  39
HETATM   39  C   UNL     1      -9.966  17.695  65.736  1.00  0.00    -0.013 C  
HETATM   40  O   UNL     1     -10.580  16.556  65.130  1.00  0.00    -0.632 OA 
HETATM   41  H   UNL     1     -10.086  16.296  64.361  1.00  0.00     0.000 HD 
ENDBRANCH  36  39
ENDBRANCH  35  36
ENDBRANCH  16  35
ENDBRANCH   2   7
TORSDOF 8
ENDMDL
MODEL      106
REMARK 921   NORMALIZED FREE ENERGY PREDICTED BY IDOCK:   -4.21 KCAL/MOL
REMARK 922        TOTAL FREE ENERGY PREDICTED BY IDOCK:   -7.10 KCAL/MOL
REMARK 923 INTER-LIGAND FREE ENERGY PREDICTED BY IDOCK:   -6.57 KCAL/MOL
REMARK 924 INTRA-LIGAND FREE ENERGY PREDICTED BY IDOCK:   -0.53 KCAL/MOL
REMARK 927      BINDING AFFINITY PREDICTED BY RF-SCORE:    0.00 PKD
ROOT
HETATM    1  C   UNL     1      -7.376   2.589  70.576  1.00  0.00    -0.033 C  
HETATM    2  C   UNL     1      -8.651   3.389  70.971  1.00  0.00    -0.112 C  
HETATM    3  C   UNL     1      -9.717   3.015  69.922  1.00  0.00    -0.004 C  
ENDROOT
BRANCH   2   4
HETATM    4  C   UNL     1      -9.082   2.897  72.384  1.00  0.00    -0.094 C  
HETATM    5  H   UNL     1     -10.733   2.782  73.509  1.00  0.00     0.000 HD 
HETATM    6  O   UNL     1     -10.470   3.082  72.647  1.00  0.00    -0.155 OA 
ENDBRANCH   2   4
BRANCH   2   7
HETATM    7  C   UNL     1      -8.358   4.904  70.929  1.00  0.00    -0.107 A  
HETATM    8  C   UNL     1      -8.976   5.845  70.119  1.00  0.00    -0.148 A  
HETATM    9  C   UNL     1      -8.377   7.102  70.316  1.00  0.00    -0.136 A  
HETATM   10  C   UNL     1      -8.596   8.364  69.726  1.00  0.00    -0.132 A  
HETATM   11  C   UNL     1      -7.822   9.462  70.104  1.00  0.00    -0.142 A  
HETATM   12  C   UNL     1      -6.824   9.272  71.065  1.00  0.00    -0.089 A  
HETATM   13  C   UNL     1      -7.386   6.945  71.278  1.00  0.00    -0.081 A  
HETATM   14  C   UNL     1      -6.580   8.033  71.663  1.00  0.00    -0.053 A  
HETATM   15  F   UNL     1      -6.070  10.323  71.438  1.00  0.00    -0.033 F  
HETATM   16  N   UNL     1      -7.422   5.613  71.683  1.00  0.00    -0.091 NA 
BRANCH  11  17
HETATM   17  N   UNL     1      -7.991  10.750  69.555  1.00  0.00    -0.363 N  
HETATM   18  H   UNL     1      -8.270  11.492  70.198  1.00  0.00     0.000 HD 
HETATM   19  C   UNL     1      -7.817  11.106  68.234  1.00  0.00    -0.123 C  
HETATM   20  O   UNL     1      -7.504  10.383  67.299  1.00  0.00    -0.093 OA 
BRANCH  19  21
HETATM   21  C   UNL     1      -8.018  12.579  67.966  1.00  0.00    -0.153 C  
HETATM   22  C   UNL     1      -6.794  13.444  67.687  1.00  0.00    -0.172 C  
HETATM   23  C   UNL     1      -7.457  13.526  69.026  1.00  0.00     0.046 C  
BRANCH  21  24
HETATM   24  C   UNL     1      -9.365  12.924  67.330  1.00  0.00    -0.194 A  
HETATM   25  C   UNL     1     -12.302  14.355  64.254  1.00  0.00    -0.373 C  
HETATM   26  C   UNL     1     -10.548  12.273  67.773  1.00  0.00    -0.241 A  
HETATM   27  C   UNL     1      -9.469  13.789  66.225  1.00  0.00    -0.221 A  
HETATM   28  C   UNL     1     -11.777  12.428  67.120  1.00  0.00    -0.415 A  
HETATM   29  C   UNL     1     -11.809  13.253  66.021  1.00  0.00    -0.395 A  
HETATM   30  C   UNL     1     -10.689  13.926  65.595  1.00  0.00    -0.290 A  
HETATM   31  F   UNL     1     -12.402  13.765  63.037  1.00  0.00    -0.516 F  
HETATM   32  O   UNL     1     -10.924  14.681  64.488  1.00  0.00    -0.339 OA 
HETATM   33  F   UNL     1     -13.017  15.504  64.211  1.00  0.00    -0.151 F  
HETATM   34  O   UNL     1     -12.891  13.487  65.233  1.00  0.00    -0.660 OA 
ENDBRANCH  21  24
ENDBRANCH  19  21
ENDBRANCH  11  17
BRANCH  16  35
HETATM   35  C   UNL     1      -6.560   5.091  72.738  1.00  0.00    -0.060 C  
BRANCH  35  36
HETATM   36  C   UNL     1      -6.931   5.548  74.159  1.00  0.00    -0.081 C  
HETATM   37  H   UNL     1      -6.488   7.053  75.379  1.00  0.00     0.000 HD 
HETATM   38  O   UNL     1      -6.260   6.771  74.501  1.00  0.00    -0.074 OA 
BRANCH  36  39
HETATM   39  C   UNL     1      -8.437   5.833  74.237  1.00  0.00    -0.112 C  
HETATM   40  O   UNL     1      -8.668   7.238  74.136  1.00  0.00    -0.181 OA 
HETATM   41  H   UNL     1      -9.601   7.414  74.184  1.00  0.00     0.000 HD 
ENDBRANCH  36  39
ENDBRANCH  35  36
ENDBRANCH  16  35
ENDBRANCH   2   7
TORSDOF 8
ENDMDL
MODEL      107
REMARK 921   NORMALIZED FREE ENERGY PREDICTED BY IDOCK:   -4.21 KCAL/MOL
REMARK 922        TOTAL FREE ENERGY PREDICTED BY IDOCK:   -7.09 KCAL/MOL
REMARK 923 INTER-LIGAND FREE ENERGY PREDICTED BY IDOCK:   -6.93 KCAL/MOL
REMARK 924 INTRA-LIGAND FREE ENERGY PREDICTED BY IDOCK:   -0.16 KCAL/MOL
REMARK 927      BINDING AFFINITY PREDICTED BY RF-SCORE:    0.00 PKD
ROOT
HETATM    1  C   UNL     1      -7.450  20.298  69.138  1.00  0.00     0.162 C  
HETATM    2  C   UNL     1      -6.199  19.382  69.263  1.00  0.00    -0.324 C  
HETATM    3  C   UNL     1      -5.174  19.937  68.253  1.00  0.00    -0.203 C  
ENDROOT
BRANCH   2   4
HETATM    4  C   UNL     1      -5.664  19.532  70.718  1.00  0.00    -0.215 C  
HETATM    5  H   UNL     1      -6.011  20.634  72.353  1.00  0.00     0.000 HD 
HETATM    6  O   UNL     1      -6.337  20.543  71.465  1.00  0.00    -0.631 OA 
ENDBRANCH   2   4
BRANCH   2   7
HETATM    7  C   UNL     1      -6.572  17.926  68.911  1.00  0.00    -0.241 A  
HETATM    8  C   UNL     1      -6.020  16.775  69.452  1.00  0.00    -0.202 A  
HETATM    9  C   UNL     1      -6.566  15.647  68.815  1.00  0.00    -0.110 A  
HETATM   10  C   UNL     1      -6.325  14.264  68.955  1.00  0.00    -0.096 A  
HETATM   11  C   UNL     1      -7.010  13.346  68.159  1.00  0.00    -0.116 A  
HETATM   12  C   UNL     1      -7.921  13.832  67.216  1.00  0.00    -0.119 A  
HETATM   13  C   UNL     1      -7.487  16.101  67.877  1.00  0.00    -0.128 A  
HETATM   14  C   UNL     1      -8.176  15.196  67.049  1.00  0.00    -0.262 A  
HETATM   15  F   UNL     1      -8.588  12.956  66.441  1.00  0.00    -0.112 F  
HETATM   16  N   UNL     1      -7.521  17.490  67.985  1.00  0.00    -0.208 NA 
BRANCH  11  17
HETATM   17  N   UNL     1      -6.817  11.951  68.251  1.00  0.00    -0.062 N  
HETATM   18  H   UNL     1      -5.900  11.594  67.983  1.00  0.00     0.000 HD 
HETATM   19  C   UNL     1      -7.747  11.022  68.669  1.00  0.00    -0.132 C  
HETATM   20  O   UNL     1      -8.902  11.224  69.016  1.00  0.00    -0.094 OA 
BRANCH  19  21
HETATM   21  C   UNL     1      -7.221   9.607  68.713  1.00  0.00    -0.072 C  
HETATM   22  C   UNL     1      -5.767   9.358  68.328  1.00  0.00    -0.037 C  
HETATM   23  C   UNL     1      -6.850   8.997  67.361  1.00  0.00    -0.077 C  
BRANCH  21  24
HETATM   24  C   UNL     1      -7.908   8.712  69.744  1.00  0.00    -0.093 A  
HETATM   25  C   UNL     1      -9.341   4.960  71.744  1.00  0.00    -0.143 C  
HETATM   26  C   UNL     1      -8.109   9.181  71.071  1.00  0.00    -0.179 A  
HETATM   27  C   UNL     1      -8.252   7.377  69.463  1.00  0.00    -0.131 A  
HETATM   28  C   UNL     1      -8.582   8.352  72.094  1.00  0.00    -0.257 A  
HETATM   29  C   UNL     1      -8.862   7.045  71.771  1.00  0.00    -0.126 A  
HETATM   30  C   UNL     1      -8.715   6.576  70.486  1.00  0.00    -0.144 A  
HETATM   31  F   UNL     1      -8.476   4.012  72.182  1.00  0.00    -0.095 F  
HETATM   32  O   UNL     1      -9.032   5.257  70.375  1.00  0.00    -0.123 OA 
HETATM   33  F   UNL     1     -10.587   4.433  71.801  1.00  0.00    -0.228 F  
HETATM   34  O   UNL     1      -9.279   6.083  72.634  1.00  0.00    -0.144 OA 
ENDBRANCH  21  24
ENDBRANCH  19  21
ENDBRANCH  11  17
BRANCH  16  35
HETATM   35  C   UNL     1      -8.429  18.314  67.196  1.00  0.00    -0.250 C  
BRANCH  35  36
HETATM   36  C   UNL     1      -9.912  18.197  67.587  1.00  0.00    -0.337 C  
HETATM   37  H   UNL     1     -10.971  17.801  69.221  1.00  0.00     0.000 HD 
HETATM   38  O   UNL     1     -10.055  17.874  68.980  1.00  0.00    -0.359 OA 
BRANCH  36  39
HETATM   39  C   UNL     1     -10.615  19.543  67.370  1.00  0.00    -0.485 C  
HETATM   40  O   UNL     1      -9.842  20.355  66.485  1.00  0.00    -0.558 OA 
HETATM   41  H   UNL     1     -10.278  21.188  66.351  1.00  0.00     0.000 HD 
ENDBRANCH  36  39
ENDBRANCH  35  36
ENDBRANCH  16  35
ENDBRANCH   2   7
TORSDOF 8
ENDMDL
MODEL      108
REMARK 921   NORMALIZED FREE ENERGY PREDICTED BY IDOCK:   -4.19 KCAL/MOL
REMARK 922        TOTAL FREE ENERGY PREDICTED BY IDOCK:   -7.07 KCAL/MOL
REMARK 923 INTER-LIGAND FREE ENERGY PREDICTED BY IDOCK:   -6.79 KCAL/MOL
REMARK 924 INTRA-LIGAND FREE ENERGY PREDICTED BY IDOCK:   -0.28 KCAL/MOL
REMARK 927      BINDING AFFINITY PREDICTED BY RF-SCORE:    0.00 PKD
ROOT
HETATM    1  C   UNL     1      -9.107  17.406  66.506  1.00  0.00    -0.288 C  
HETATM    2  C   UNL     1     -10.150  16.253  66.464  1.00  0.00    -0.301 C  
HETATM    3  C   UNL     1     -11.214  16.616  67.520  1.00  0.00     0.051 C  
ENDROOT
BRANCH   2   4
HETATM    4  C   UNL     1     -10.777  16.254  65.038  1.00  0.00    -0.298 C  
HETATM    5  H   UNL     1     -11.755  17.500  63.814  1.00  0.00     0.000 HD 
HETATM    6  O   UNL     1     -11.373  17.499  64.684  1.00  0.00    -0.810 OA 
ENDBRANCH   2   4
BRANCH   2   7
HETATM    7  C   UNL     1      -9.472  14.913  66.818  1.00  0.00    -0.252 A  
HETATM    8  C   UNL     1      -9.754  13.670  66.270  1.00  0.00    -0.295 A  
HETATM    9  C   UNL     1      -8.981  12.687  66.912  1.00  0.00    -0.213 A  
HETATM   10  C   UNL     1      -8.913  11.285  66.767  1.00  0.00    -0.173 A  
HETATM   11  C   UNL     1      -8.052  10.536  67.569  1.00  0.00    -0.107 A  
HETATM   12  C   UNL     1      -7.279  11.206  68.522  1.00  0.00    -0.088 A  
HETATM   13  C   UNL     1      -8.191  13.328  67.859  1.00  0.00    -0.163 A  
HETATM   14  C   UNL     1      -7.329  12.592  68.693  1.00  0.00    -0.101 A  
HETATM   15  F   UNL     1      -6.444  10.494  69.303  1.00  0.00    -0.043 F  
HETATM   16  N   UNL     1      -8.459  14.691  67.753  1.00  0.00    -0.164 NA 
BRANCH  11  17
HETATM   17  N   UNL     1      -7.934   9.133  67.473  1.00  0.00    -0.100 N  
HETATM   18  H   UNL     1      -6.993   8.756  67.363  1.00  0.00     0.000 HD 
HETATM   19  C   UNL     1      -8.967   8.220  67.514  1.00  0.00    -0.134 C  
HETATM   20  O   UNL     1     -10.164   8.449  67.623  1.00  0.00    -0.204 OA 
BRANCH  19  21
HETATM   21  C   UNL     1      -8.515   6.781  67.443  1.00  0.00    -0.121 C  
HETATM   22  C   UNL     1      -7.268   6.448  66.631  1.00  0.00    -0.077 C  
HETATM   23  C   UNL     1      -8.615   6.124  66.067  1.00  0.00    -0.145 C  
BRANCH  21  24
HETATM   24  C   UNL     1      -8.880   5.945  68.670  1.00  0.00    -0.111 A  
HETATM   25  C   UNL     1     -10.325   4.990  72.809  1.00  0.00    -0.195 C  
HETATM   26  C   UNL     1      -9.216   4.572  68.521  1.00  0.00    -0.181 A  
HETATM   27  C   UNL     1      -9.014   6.516  69.949  1.00  0.00    -0.143 A  
HETATM   28  C   UNL     1      -9.715   3.805  69.580  1.00  0.00    -0.177 A  
HETATM   29  C   UNL     1      -9.863   4.427  70.797  1.00  0.00    -0.203 A  
HETATM   30  C   UNL     1      -9.508   5.743  70.979  1.00  0.00    -0.165 A  
HETATM   31  F   UNL     1     -11.588   5.283  73.207  1.00  0.00    -0.345 F  
HETATM   32  O   UNL     1      -9.741   6.174  72.248  1.00  0.00    -0.157 OA 
HETATM   33  F   UNL     1      -9.620   4.640  73.911  1.00  0.00    -0.120 F  
HETATM   34  O   UNL     1     -10.375   3.863  71.923  1.00  0.00    -0.121 OA 
ENDBRANCH  21  24
ENDBRANCH  19  21
ENDBRANCH  11  17
BRANCH  16  35
HETATM   35  C   UNL     1      -7.761  15.691  68.553  1.00  0.00    -0.131 C  
BRANCH  35  36
HETATM   36  C   UNL     1      -6.229  15.672  68.415  1.00  0.00    -0.102 C  
HETATM   37  H   UNL     1      -4.889  15.427  66.968  1.00  0.00     0.000 HD 
HETATM   38  O   UNL     1      -5.836  15.439  67.053  1.00  0.00    -0.232 OA 
BRANCH  36  39
HETATM   39  C   UNL     1      -5.655  17.038  68.813  1.00  0.00    -0.139 C  
HETATM   40  O   UNL     1      -6.636  17.783  69.536  1.00  0.00    -0.235 OA 
HETATM   41  H   UNL     1      -6.280  18.628  69.783  1.00  0.00     0.000 HD 
ENDBRANCH  36  39
ENDBRANCH  35  36
ENDBRANCH  16  35
ENDBRANCH   2   7
TORSDOF 8
ENDMDL
MODEL      109
REMARK 921   NORMALIZED FREE ENERGY PREDICTED BY IDOCK:   -4.14 KCAL/MOL
REMARK 922        TOTAL FREE ENERGY PREDICTED BY IDOCK:   -7.00 KCAL/MOL
REMARK 923 INTER-LIGAND FREE ENERGY PREDICTED BY IDOCK:   -6.41 KCAL/MOL
REMARK 924 INTRA-LIGAND FREE ENERGY PREDICTED BY IDOCK:   -0.58 KCAL/MOL
REMARK 927      BINDING AFFINITY PREDICTED BY RF-SCORE:    0.00 PKD
ROOT
HETATM    1  C   UNL     1      -7.372   4.542  70.783  1.00  0.00    -0.052 C  
HETATM    2  C   UNL     1      -7.258   4.626  69.234  1.00  0.00    -0.052 C  
HETATM    3  C   UNL     1      -5.762   4.427  68.916  1.00  0.00    -0.017 C  
ENDROOT
BRANCH   2   4
HETATM    4  C   UNL     1      -8.099   3.453  68.647  1.00  0.00    -0.061 C  
HETATM    5  H   UNL     1      -7.888   1.933  67.363  1.00  0.00     0.000 HD 
HETATM    6  O   UNL     1      -7.375   2.648  67.720  1.00  0.00    -0.052 OA 
ENDBRANCH   2   4
BRANCH   2   7
HETATM    7  C   UNL     1      -7.736   6.009  68.742  1.00  0.00    -0.095 A  
HETATM    8  C   UNL     1      -7.960   7.134  69.522  1.00  0.00    -0.128 A  
HETATM    9  C   UNL     1      -8.466   8.170  68.718  1.00  0.00    -0.126 A  
HETATM   10  C   UNL     1      -8.889   9.483  69.012  1.00  0.00    -0.143 A  
HETATM   11  C   UNL     1      -9.380  10.308  68.000  1.00  0.00    -0.138 A  
HETATM   12  C   UNL     1      -9.453   9.795  66.701  1.00  0.00    -0.171 A  
HETATM   13  C   UNL     1      -8.538   7.691  67.415  1.00  0.00    -0.125 A  
HETATM   14  C   UNL     1      -9.047   8.497  66.380  1.00  0.00    -0.229 A  
HETATM   15  F   UNL     1      -9.925  10.581  65.715  1.00  0.00    -0.254 F  
HETATM   16  N   UNL     1      -8.038   6.391  67.434  1.00  0.00    -0.115 NA 
BRANCH  11  17
HETATM   17  N   UNL     1      -9.817  11.631  68.227  1.00  0.00    -0.194 N  
HETATM   18  H   UNL     1     -10.822  11.771  68.331  1.00  0.00     0.000 HD 
HETATM   19  C   UNL     1      -9.019  12.751  68.322  1.00  0.00    -0.175 C  
HETATM   20  O   UNL     1      -7.803  12.815  68.213  1.00  0.00    -0.129 OA 
BRANCH  19  21
HETATM   21  C   UNL     1      -9.781  14.020  68.628  1.00  0.00    -0.179 C  
HETATM   22  C   UNL     1     -10.751  14.023  69.803  1.00  0.00     0.160 C  
HETATM   23  C   UNL     1     -11.292  13.952  68.411  1.00  0.00    -0.316 C  
BRANCH  21  24
HETATM   24  C   UNL     1      -9.051  15.302  68.229  1.00  0.00    -0.181 A  
HETATM   25  C   UNL     1      -8.304  19.249  66.228  1.00  0.00    -0.319 C  
HETATM   26  C   UNL     1      -8.044  15.840  69.076  1.00  0.00    -0.224 A  
HETATM   27  C   UNL     1      -9.421  16.050  67.096  1.00  0.00    -0.225 A  
HETATM   28  C   UNL     1      -7.461  17.092  68.844  1.00  0.00    -0.237 A  
HETATM   29  C   UNL     1      -7.892  17.796  67.744  1.00  0.00    -0.216 A  
HETATM   30  C   UNL     1      -8.835  17.281  66.886  1.00  0.00    -0.240 A  
HETATM   31  F   UNL     1      -9.102  20.322  66.452  1.00  0.00    -0.382 F  
HETATM   32  O   UNL     1      -9.133  18.135  65.869  1.00  0.00    -0.509 OA 
HETATM   33  F   UNL     1      -7.502  19.547  65.179  1.00  0.00    -0.178 F  
HETATM   34  O   UNL     1      -7.482  19.041  67.386  1.00  0.00    -0.228 OA 
ENDBRANCH  21  24
ENDBRANCH  19  21
ENDBRANCH  11  17
BRANCH  16  35
HETATM   35  C   UNL     1      -7.898   5.588  66.225  1.00  0.00    -0.100 C  
BRANCH  35  36
HETATM   36  C   UNL     1      -9.173   5.479  65.371  1.00  0.00     0.003 C  
HETATM   37  H   UNL     1      -9.666   4.883  63.541  1.00  0.00     0.000 HD 
HETATM   38  O   UNL     1      -8.878   4.950  64.068  1.00  0.00    -0.141 OA 
BRANCH  36  39
HETATM   39  C   UNL     1     -10.159   4.506  66.032  1.00  0.00    -0.259 C  
HETATM   40  O   UNL     1      -9.977   3.196  65.495  1.00  0.00    -0.386 OA 
HETATM   41  H   UNL     1     -10.588   2.594  65.904  1.00  0.00     0.000 HD 
ENDBRANCH  36  39
ENDBRANCH  35  36
ENDBRANCH  16  35
ENDBRANCH   2   7
TORSDOF 8
ENDMDL
MODEL      110
REMARK 921   NORMALIZED FREE ENERGY PREDICTED BY IDOCK:   -4.10 KCAL/MOL
REMARK 922        TOTAL FREE ENERGY PREDICTED BY IDOCK:   -6.94 KCAL/MOL
REMARK 923 INTER-LIGAND FREE ENERGY PREDICTED BY IDOCK:   -7.15 KCAL/MOL
REMARK 924 INTRA-LIGAND FREE ENERGY PREDICTED BY IDOCK:    0.21 KCAL/MOL
REMARK 927      BINDING AFFINITY PREDICTED BY RF-SCORE:    0.00 PKD
ROOT
HETATM    1  C   UNL     1      -9.837   5.084  70.796  1.00  0.00    -0.279 C  
HETATM    2  C   UNL     1     -10.369   6.493  71.187  1.00  0.00    -0.237 C  
HETATM    3  C   UNL     1     -11.852   6.509  70.766  1.00  0.00    -0.394 C  
ENDROOT
BRANCH   2   4
HETATM    4  C   UNL     1     -10.240   6.619  72.733  1.00  0.00    -0.187 C  
HETATM    5  H   UNL     1     -10.901   7.787  74.217  1.00  0.00     0.000 HD 
HETATM    6  O   UNL     1     -10.979   7.711  73.274  1.00  0.00    -0.400 OA 
ENDBRANCH   2   4
BRANCH   2   7
HETATM    7  C   UNL     1      -9.580   7.583  70.430  1.00  0.00    -0.168 A  
HETATM    8  C   UNL     1      -9.475   8.922  70.778  1.00  0.00    -0.280 A  
HETATM    9  C   UNL     1      -8.739   9.607  69.795  1.00  0.00    -0.221 A  
HETATM   10  C   UNL     1      -8.382  10.963  69.645  1.00  0.00     0.301 A  
HETATM   11  C   UNL     1      -7.648  11.380  68.534  1.00  0.00    -0.129 A  
HETATM   12  C   UNL     1      -7.295  10.425  67.575  1.00  0.00    -0.092 A  
HETATM   13  C   UNL     1      -8.362   8.677  68.832  1.00  0.00    -0.124 A  
HETATM   14  C   UNL     1      -7.639   9.076  67.692  1.00  0.00    -0.093 A  
HETATM   15  F   UNL     1      -6.587  10.815  66.498  1.00  0.00    -0.084 F  
HETATM   16  N   UNL     1      -8.834   7.438  69.259  1.00  0.00    -0.137 NA 
BRANCH  11  17
HETATM   17  N   UNL     1      -7.258  12.720  68.326  1.00  0.00    -0.104 N  
HETATM   18  H   UNL     1      -7.372  13.091  67.383  1.00  0.00     0.000 HD 
HETATM   19  C   UNL     1      -6.738  13.577  69.273  1.00  0.00    -0.080 C  
HETATM   20  O   UNL     1      -6.504  13.339  70.450  1.00  0.00     0.042 OA 
BRANCH  19  21
HETATM   21  C   UNL     1      -6.471  14.970  68.755  1.00  0.00    -0.082 C  
HETATM   22  C   UNL     1      -5.264  15.193  67.850  1.00  0.00    -0.106 C  
HETATM   23  C   UNL     1      -5.198  15.636  69.277  1.00  0.00    -0.100 C  
BRANCH  21  24
HETATM   24  C   UNL     1      -7.723  15.832  68.594  1.00  0.00    -0.153 A  
HETATM   25  C   UNL     1     -10.251  19.521  68.221  1.00  0.00    -0.443 C  
HETATM   26  C   UNL     1      -8.879  15.296  67.964  1.00  0.00    -0.169 A  
HETATM   27  C   UNL     1      -7.741  17.195  68.945  1.00  0.00    -0.230 A  
HETATM   28  C   UNL     1      -9.990  16.085  67.644  1.00  0.00    -0.239 A  
HETATM   29  C   UNL     1      -9.935  17.419  67.973  1.00  0.00    -0.302 A  
HETATM   30  C   UNL     1      -8.846  17.955  68.619  1.00  0.00    -0.261 A  
HETATM   31  F   UNL     1     -10.075  20.404  67.208  1.00  0.00    -0.529 F  
HETATM   32  O   UNL     1      -8.980  19.290  68.846  1.00  0.00    -0.358 OA 
HETATM   33  F   UNL     1     -11.079  20.096  69.126  1.00  0.00     0.186 F  
HETATM   34  O   UNL     1     -10.889  18.347  67.700  1.00  0.00    -0.406 OA 
ENDBRANCH  21  24
ENDBRANCH  19  21
ENDBRANCH  11  17
BRANCH  16  35
HETATM   35  C   UNL     1      -8.570   6.205  68.528  1.00  0.00    -0.113 C  
BRANCH  35  36
HETATM   36  C   UNL     1      -9.241   6.117  67.146  1.00  0.00    -0.118 C  
HETATM   37  H   UNL     1      -8.905   5.218  65.406  1.00  0.00     0.000 HD 
HETATM   38  O   UNL     1      -8.491   5.272  66.260  1.00  0.00    -0.113 OA 
BRANCH  36  39
HETATM   39  C   UNL     1     -10.634   5.488  67.284  1.00  0.00    -0.219 C  
HETATM   40  O   UNL     1     -11.636   6.468  67.011  1.00  0.00    -0.729 OA 
HETATM   41  H   UNL     1     -12.498   6.078  67.097  1.00  0.00     0.000 HD 
ENDBRANCH  36  39
ENDBRANCH  35  36
ENDBRANCH  16  35
ENDBRANCH   2   7
TORSDOF 8
ENDMDL
MODEL      111
REMARK 921   NORMALIZED FREE ENERGY PREDICTED BY IDOCK:   -4.09 KCAL/MOL
REMARK 922        TOTAL FREE ENERGY PREDICTED BY IDOCK:   -6.92 KCAL/MOL
REMARK 923 INTER-LIGAND FREE ENERGY PREDICTED BY IDOCK:   -6.89 KCAL/MOL
REMARK 924 INTRA-LIGAND FREE ENERGY PREDICTED BY IDOCK:   -0.03 KCAL/MOL
REMARK 927      BINDING AFFINITY PREDICTED BY RF-SCORE:    0.00 PKD
ROOT
HETATM    1  C   UNL     1     -11.159  15.324  65.698  1.00  0.00    -0.308 C  
HETATM    2  C   UNL     1     -10.090  15.342  66.829  1.00  0.00    -0.266 C  
HETATM    3  C   UNL     1      -8.749  15.643  66.129  1.00  0.00    -0.241 C  
ENDROOT
BRANCH   2   4
HETATM    4  C   UNL     1     -10.468  16.499  67.800  1.00  0.00    -0.308 C  
HETATM    5  H   UNL     1      -9.985  17.163  69.625  1.00  0.00     0.000 HD 
HETATM    6  O   UNL     1      -9.755  16.457  69.033  1.00  0.00    -0.244 OA 
ENDBRANCH   2   4
BRANCH   2   7
HETATM    7  C   UNL     1     -10.038  13.967  67.529  1.00  0.00    -0.237 A  
HETATM    8  C   UNL     1     -11.086  13.323  68.169  1.00  0.00    -0.286 A  
HETATM    9  C   UNL     1     -10.620  12.130  68.750  1.00  0.00    -0.230 A  
HETATM   10  C   UNL     1     -11.253  11.141  69.532  1.00  0.00    -0.341 A  
HETATM   11  C   UNL     1     -10.528  10.048  70.006  1.00  0.00    -0.287 A  
HETATM   12  C   UNL     1      -9.166   9.970  69.700  1.00  0.00    -0.215 A  
HETATM   13  C   UNL     1      -9.267  12.020  68.450  1.00  0.00    -0.160 A  
HETATM   14  C   UNL     1      -8.510  10.936  68.932  1.00  0.00    -0.142 A  
HETATM   15  F   UNL     1      -8.455   8.919  70.152  1.00  0.00    -0.110 F  
HETATM   16  N   UNL     1      -8.938  13.118  67.658  1.00  0.00    -0.181 NA 
BRANCH  11  17
HETATM   17  N   UNL     1     -11.102   9.025  70.791  1.00  0.00    -0.257 N  
HETATM   18  H   UNL     1     -11.431   9.287  71.720  1.00  0.00     0.000 HD 
HETATM   19  C   UNL     1     -11.261   7.705  70.425  1.00  0.00    -0.244 C  
HETATM   20  O   UNL     1     -10.927   7.174  69.375  1.00  0.00    -0.225 OA 
BRANCH  19  21
HETATM   21  C   UNL     1     -11.963   6.863  71.463  1.00  0.00    -0.386 C  
HETATM   22  C   UNL     1     -13.483   6.756  71.410  1.00  0.00    -0.123 C  
HETATM   23  C   UNL     1     -12.848   7.628  72.446  1.00  0.00     0.046 C  
BRANCH  21  24
HETATM   24  C   UNL     1     -11.128   5.699  71.999  1.00  0.00    -0.291 A  
HETATM   25  C   UNL     1      -7.501   3.366  73.236  1.00  0.00    -0.056 C  
HETATM   26  C   UNL     1     -11.714   4.750  72.880  1.00  0.00    -0.128 A  
HETATM   27  C   UNL     1      -9.749   5.591  71.744  1.00  0.00    -0.202 A  
HETATM   28  C   UNL     1     -10.959   3.764  73.526  1.00  0.00    -0.339 A  
HETATM   29  C   UNL     1      -9.608   3.733  73.271  1.00  0.00    -0.112 A  
HETATM   30  C   UNL     1      -9.023   4.613  72.392  1.00  0.00    -0.125 A  
HETATM   31  F   UNL     1      -6.673   3.805  74.217  1.00  0.00    -0.038 F  
HETATM   32  O   UNL     1      -7.679   4.427  72.287  1.00  0.00    -0.082 OA 
HETATM   33  F   UNL     1      -6.887   2.330  72.617  1.00  0.00    -0.020 F  
HETATM   34  O   UNL     1      -8.710   2.886  73.840  1.00  0.00    -0.075 OA 
ENDBRANCH  21  24
ENDBRANCH  19  21
ENDBRANCH  11  17
BRANCH  16  35
HETATM   35  C   UNL     1      -7.606  13.305  67.094  1.00  0.00     0.030 C  
BRANCH  35  36
HETATM   36  C   UNL     1      -6.499  13.570  68.129  1.00  0.00    -0.123 C  
HETATM   37  H   UNL     1      -4.517  13.709  68.153  1.00  0.00     0.000 HD 
HETATM   38  O   UNL     1      -5.201  13.546  67.514  1.00  0.00    -0.310 OA 
BRANCH  36  39
HETATM   39  C   UNL     1      -6.677  14.968  68.735  1.00  0.00    -0.099 C  
HETATM   40  O   UNL     1      -6.571  14.896  70.157  1.00  0.00    -0.174 OA 
HETATM   41  H   UNL     1      -6.681  15.762  70.532  1.00  0.00     0.000 HD 
ENDBRANCH  36  39
ENDBRANCH  35  36
ENDBRANCH  16  35
ENDBRANCH   2   7
TORSDOF 8
ENDMDL
MODEL      112
REMARK 921   NORMALIZED FREE ENERGY PREDICTED BY IDOCK:   -4.08 KCAL/MOL
REMARK 922        TOTAL FREE ENERGY PREDICTED BY IDOCK:   -6.91 KCAL/MOL
REMARK 923 INTER-LIGAND FREE ENERGY PREDICTED BY IDOCK:   -6.21 KCAL/MOL
REMARK 924 INTRA-LIGAND FREE ENERGY PREDICTED BY IDOCK:   -0.70 KCAL/MOL
REMARK 927      BINDING AFFINITY PREDICTED BY RF-SCORE:    0.00 PKD
ROOT
HETATM    1  C   UNL     1     -10.895  16.837  65.311  1.00  0.00    -0.148 C  
HETATM    2  C   UNL     1      -9.894  16.909  66.500  1.00  0.00    -0.307 C  
HETATM    3  C   UNL     1      -8.663  17.666  65.961  1.00  0.00    -0.051 C  
ENDROOT
BRANCH   2   4
HETATM    4  C   UNL     1     -10.584  17.728  67.631  1.00  0.00    -0.379 C  
HETATM    5  H   UNL     1     -11.239  19.589  67.968  1.00  0.00     0.000 HD 
HETATM    6  O   UNL     1     -10.819  19.090  67.279  1.00  0.00    -0.472 OA 
ENDBRANCH   2   4
BRANCH   2   7
HETATM    7  C   UNL     1      -9.501  15.485  66.947  1.00  0.00    -0.228 A  
HETATM    8  C   UNL     1     -10.263  14.334  66.813  1.00  0.00    -0.272 A  
HETATM    9  C   UNL     1      -9.593  13.254  67.415  1.00  0.00    -0.223 A  
HETATM   10  C   UNL     1      -9.939  11.898  67.591  1.00  0.00    -0.197 A  
HETATM   11  C   UNL     1      -9.075  11.032  68.262  1.00  0.00    -0.158 A  
HETATM   12  C   UNL     1      -7.875  11.546  68.763  1.00  0.00    -0.117 A  
HETATM   13  C   UNL     1      -8.388  13.735  67.913  1.00  0.00    -0.172 A  
HETATM   14  C   UNL     1      -7.507  12.886  68.609  1.00  0.00    -0.092 A  
HETATM   15  F   UNL     1      -7.032  10.721  69.412  1.00  0.00    -0.068 F  
HETATM   16  N   UNL     1      -8.319  15.084  67.572  1.00  0.00    -0.164 NA 
BRANCH  11  17
HETATM   17  N   UNL     1      -9.360   9.666  68.469  1.00  0.00    -0.137 N  
HETATM   18  H   UNL     1      -9.854   9.424  69.328  1.00  0.00     0.000 HD 
HETATM   19  C   UNL     1      -9.037   8.625  67.624  1.00  0.00    -0.134 C  
HETATM   20  O   UNL     1      -8.437   8.684  66.560  1.00  0.00    -0.109 OA 
BRANCH  19  21
HETATM   21  C   UNL     1      -9.530   7.278  68.097  1.00  0.00    -0.134 C  
HETATM   22  C   UNL     1     -10.598   7.233  69.184  1.00  0.00    -0.219 C  
HETATM   23  C   UNL     1      -9.180   6.916  69.540  1.00  0.00    -0.148 C  
BRANCH  21  24
HETATM   24  C   UNL     1      -9.462   6.176  67.039  1.00  0.00    -0.141 A  
HETATM   25  C   UNL     1      -7.813   2.746  64.663  1.00  0.00    -0.078 C  
HETATM   26  C   UNL     1     -10.660   5.622  66.512  1.00  0.00    -0.320 A  
HETATM   27  C   UNL     1      -8.243   5.596  66.644  1.00  0.00    -0.105 A  
HETATM   28  C   UNL     1     -10.659   4.506  65.668  1.00  0.00    -0.231 A  
HETATM   29  C   UNL     1      -9.440   3.955  65.348  1.00  0.00    -0.170 A  
HETATM   30  C   UNL     1      -8.264   4.496  65.812  1.00  0.00    -0.110 A  
HETATM   31  F   UNL     1      -7.493   1.565  65.247  1.00  0.00    -0.052 F  
HETATM   32  O   UNL     1      -7.172   3.801  65.394  1.00  0.00    -0.065 OA 
HETATM   33  F   UNL     1      -7.316   2.727  63.404  1.00  0.00    -0.047 F  
HETATM   34  O   UNL     1      -9.242   2.846  64.588  1.00  0.00    -0.134 OA 
ENDBRANCH  21  24
ENDBRANCH  19  21
ENDBRANCH  11  17
BRANCH  16  35
HETATM   35  C   UNL     1      -7.156  15.910  67.875  1.00  0.00    -0.132 C  
BRANCH  35  36
HETATM   36  C   UNL     1      -7.200  16.609  69.245  1.00  0.00    -0.200 C  
HETATM   37  H   UNL     1      -6.427  16.339  71.055  1.00  0.00     0.000 HD 
HETATM   38  O   UNL     1      -6.399  15.907  70.209  1.00  0.00    -0.085 OA 
BRANCH  36  39
HETATM   39  C   UNL     1      -6.614  18.022  69.126  1.00  0.00    -0.253 C  
HETATM   40  O   UNL     1      -5.776  18.103  67.972  1.00  0.00    -0.158 OA 
HETATM   41  H   UNL     1      -5.414  18.978  67.899  1.00  0.00     0.000 HD 
ENDBRANCH  36  39
ENDBRANCH  35  36
ENDBRANCH  16  35
ENDBRANCH   2   7
TORSDOF 8
ENDMDL
MODEL      113
REMARK 921   NORMALIZED FREE ENERGY PREDICTED BY IDOCK:   -4.05 KCAL/MOL
REMARK 922        TOTAL FREE ENERGY PREDICTED BY IDOCK:   -6.86 KCAL/MOL
REMARK 923 INTER-LIGAND FREE ENERGY PREDICTED BY IDOCK:   -6.66 KCAL/MOL
REMARK 924 INTRA-LIGAND FREE ENERGY PREDICTED BY IDOCK:   -0.19 KCAL/MOL
REMARK 927      BINDING AFFINITY PREDICTED BY RF-SCORE:    0.00 PKD
ROOT
HETATM    1  C   UNL     1     -10.036  18.388  68.622  1.00  0.00    -0.407 C  
HETATM    2  C   UNL     1      -9.581  17.697  67.305  1.00  0.00    -0.271 C  
HETATM    3  C   UNL     1     -10.534  18.217  66.210  1.00  0.00    -0.397 C  
ENDROOT
BRANCH   2   4
HETATM    4  C   UNL     1      -8.122  18.163  67.022  1.00  0.00    -0.226 C  
HETATM    5  H   UNL     1      -6.516  18.805  68.029  1.00  0.00     0.000 HD 
HETATM    6  O   UNL     1      -7.406  18.521  68.202  1.00  0.00    -0.247 OA 
ENDBRANCH   2   4
BRANCH   2   7
HETATM    7  C   UNL     1      -9.702  16.164  67.443  1.00  0.00    -0.233 A  
HETATM    8  C   UNL     1      -8.862  15.212  66.885  1.00  0.00    -0.284 A  
HETATM    9  C   UNL     1      -9.352  13.926  67.173  1.00  0.00    -0.244 A  
HETATM   10  C   UNL     1      -8.906  12.636  66.817  1.00  0.00    -0.168 A  
HETATM   11  C   UNL     1      -9.614  11.507  67.231  1.00  0.00    -0.172 A  
HETATM   12  C   UNL     1     -10.774  11.691  67.989  1.00  0.00    -0.208 A  
HETATM   13  C   UNL     1     -10.502  14.078  67.938  1.00  0.00    -0.241 A  
HETATM   14  C   UNL     1     -11.244  12.956  68.353  1.00  0.00    -0.305 A  
HETATM   15  F   UNL     1     -11.467  10.610  68.395  1.00  0.00    -0.308 F  
HETATM   16  N   UNL     1     -10.674  15.445  68.143  1.00  0.00    -0.263 NA 
BRANCH  11  17
HETATM   17  N   UNL     1      -9.221  10.190  66.910  1.00  0.00    -0.145 N  
HETATM   18  H   UNL     1      -9.940   9.468  66.969  1.00  0.00     0.000 HD 
HETATM   19  C   UNL     1      -7.962   9.783  66.525  1.00  0.00    -0.112 C  
HETATM   20  O   UNL     1      -6.957  10.470  66.406  1.00  0.00    -0.108 OA 
BRANCH  19  21
HETATM   21  C   UNL     1      -7.869   8.312  66.194  1.00  0.00    -0.098 C  
HETATM   22  C   UNL     1      -7.799   7.898  64.728  1.00  0.00    -0.125 C  
HETATM   23  C   UNL     1      -9.082   7.719  65.477  1.00  0.00     0.094 C  
BRANCH  21  24
HETATM   24  C   UNL     1      -7.180   7.468  67.266  1.00  0.00    -0.086 A  
HETATM   25  C   UNL     1      -6.685   5.009  70.986  1.00  0.00    -0.042 C  
HETATM   26  C   UNL     1      -5.991   6.754  66.953  1.00  0.00    -0.018 A  
HETATM   27  C   UNL     1      -7.745   7.271  68.539  1.00  0.00    -0.120 A  
HETATM   28  C   UNL     1      -5.411   5.841  67.841  1.00  0.00    -0.008 A  
HETATM   29  C   UNL     1      -6.031   5.658  69.055  1.00  0.00    -0.024 A  
HETATM   30  C   UNL     1      -7.159   6.366  69.399  1.00  0.00    -0.073 A  
HETATM   31  F   UNL     1      -7.365   3.850  71.169  1.00  0.00    -0.037 F  
HETATM   32  O   UNL     1      -7.624   6.035  70.634  1.00  0.00    -0.088 OA 
HETATM   33  F   UNL     1      -6.110   5.337  72.168  1.00  0.00    -0.025 F  
HETATM   34  O   UNL     1      -5.647   4.784  70.022  1.00  0.00    -0.011 OA 
ENDBRANCH  21  24
ENDBRANCH  19  21
ENDBRANCH  11  17
BRANCH  16  35
HETATM   35  C   UNL     1     -11.751  15.986  68.964  1.00  0.00    -0.318 C  
BRANCH  35  36
HETATM   36  C   UNL     1     -11.751  15.505  70.426  1.00  0.00    -0.339 C  
HETATM   37  H   UNL     1     -11.327  16.254  72.217  1.00  0.00     0.000 HD 
HETATM   38  O   UNL     1     -11.327  16.551  71.314  1.00  0.00    -0.288 OA 
BRANCH  36  39
HETATM   39  C   UNL     1     -13.175  15.117  70.845  1.00  0.00    -0.433 C  
HETATM   40  O   UNL     1     -13.650  16.026  71.839  1.00  0.00    -0.282 OA 
HETATM   41  H   UNL     1     -14.533  15.786  72.098  1.00  0.00     0.000 HD 
ENDBRANCH  36  39
ENDBRANCH  35  36
ENDBRANCH  16  35
ENDBRANCH   2   7
TORSDOF 8
ENDMDL
MODEL      114
REMARK 921   NORMALIZED FREE ENERGY PREDICTED BY IDOCK:   -3.99 KCAL/MOL
REMARK 922        TOTAL FREE ENERGY PREDICTED BY IDOCK:   -6.78 KCAL/MOL
REMARK 923 INTER-LIGAND FREE ENERGY PREDICTED BY IDOCK:   -5.67 KCAL/MOL
REMARK 924 INTRA-LIGAND FREE ENERGY PREDICTED BY IDOCK:   -1.11 KCAL/MOL
REMARK 927      BINDING AFFINITY PREDICTED BY RF-SCORE:    0.00 PKD
ROOT
HETATM    1  C   UNL     1     -10.276   5.092  66.963  1.00  0.00    -0.265 C  
HETATM    2  C   UNL     1      -9.192   4.925  68.066  1.00  0.00    -0.147 C  
HETATM    3  C   UNL     1      -9.875   4.139  69.204  1.00  0.00    -0.121 C  
ENDROOT
BRANCH   2   4
HETATM    4  C   UNL     1      -8.033   4.090  67.448  1.00  0.00    -0.091 C  
HETATM    5  H   UNL     1      -7.721   2.268  66.679  1.00  0.00     0.000 HD 
HETATM    6  O   UNL     1      -8.429   2.777  67.057  1.00  0.00    -0.089 OA 
ENDBRANCH   2   4
BRANCH   2   7
HETATM    7  C   UNL     1      -8.730   6.310  68.568  1.00  0.00    -0.112 A  
HETATM    8  C   UNL     1      -9.113   7.544  68.063  1.00  0.00    -0.131 A  
HETATM    9  C   UNL     1      -8.413   8.563  68.733  1.00  0.00    -0.123 A  
HETATM   10  C   UNL     1      -8.400   9.966  68.584  1.00  0.00    -0.110 A  
HETATM   11  C   UNL     1      -7.574  10.752  69.388  1.00  0.00    -0.112 A  
HETATM   12  C   UNL     1      -6.757  10.113  70.326  1.00  0.00    -0.143 A  
HETATM   13  C   UNL     1      -7.600   7.957  69.684  1.00  0.00    -0.098 A  
HETATM   14  C   UNL     1      -6.744   8.726  70.494  1.00  0.00    -0.044 A  
HETATM   15  F   UNL     1      -5.955  10.861  71.108  1.00  0.00    -0.074 F  
HETATM   16  N   UNL     1      -7.844   6.587  69.610  1.00  0.00    -0.109 NA 
BRANCH  11  17
HETATM   17  N   UNL     1      -7.515  12.158  69.291  1.00  0.00    -0.332 N  
HETATM   18  H   UNL     1      -8.263  12.682  69.746  1.00  0.00     0.000 HD 
HETATM   19  C   UNL     1      -6.547  12.894  68.642  1.00  0.00    -0.091 C  
HETATM   20  O   UNL     1      -5.579  12.476  68.022  1.00  0.00    -0.065 OA 
BRANCH  19  21
HETATM   21  C   UNL     1      -6.730  14.388  68.763  1.00  0.00    -0.093 C  
HETATM   22  C   UNL     1      -5.490  15.267  68.887  1.00  0.00    -0.098 C  
HETATM   23  C   UNL     1      -6.319  14.997  70.103  1.00  0.00    -0.150 C  
BRANCH  21  24
HETATM   24  C   UNL     1      -7.989  14.925  68.082  1.00  0.00    -0.130 A  
HETATM   25  C   UNL     1     -11.394  15.177  65.171  1.00  0.00    -0.357 C  
HETATM   26  C   UNL     1      -8.896  15.745  68.808  1.00  0.00    -0.207 A  
HETATM   27  C   UNL     1      -8.354  14.540  66.779  1.00  0.00    -0.041 A  
HETATM   28  C   UNL     1     -10.138  16.127  68.290  1.00  0.00    -0.232 A  
HETATM   29  C   UNL     1     -10.459  15.687  67.027  1.00  0.00    -0.303 A  
HETATM   30  C   UNL     1      -9.584  14.927  66.287  1.00  0.00    -0.307 A  
HETATM   31  F   UNL     1     -12.321  14.192  65.073  1.00  0.00    -0.382 F  
HETATM   32  O   UNL     1     -10.091  14.584  65.072  1.00  0.00    -0.393 OA 
HETATM   33  F   UNL     1     -11.571  16.011  64.118  1.00  0.00    -0.473 F  
HETATM   34  O   UNL     1     -11.632  15.912  66.380  1.00  0.00     0.226 OA 
ENDBRANCH  21  24
ENDBRANCH  19  21
ENDBRANCH  11  17
BRANCH  16  35
HETATM   35  C   UNL     1      -7.212   5.629  70.510  1.00  0.00    -0.074 C  
BRANCH  35  36
HETATM   36  C   UNL     1      -7.987   5.359  71.811  1.00  0.00    -0.113 C  
HETATM   37  H   UNL     1      -8.225   3.857  73.091  1.00  0.00     0.000 HD 
HETATM   38  O   UNL     1      -7.747   4.025  72.287  1.00  0.00    -0.075 OA 
BRANCH  36  39
HETATM   39  C   UNL     1      -7.505   6.314  72.911  1.00  0.00    -0.096 C  
HETATM   40  O   UNL     1      -8.511   7.293  73.174  1.00  0.00    -0.116 OA 
HETATM   41  H   UNL     1      -8.212   7.885  73.856  1.00  0.00     0.000 HD 
ENDBRANCH  36  39
ENDBRANCH  35  36
ENDBRANCH  16  35
ENDBRANCH   2   7
TORSDOF 8
ENDMDL
MODEL      115
REMARK 921   NORMALIZED FREE ENERGY PREDICTED BY IDOCK:   -3.97 KCAL/MOL
REMARK 922        TOTAL FREE ENERGY PREDICTED BY IDOCK:   -6.74 KCAL/MOL
REMARK 923 INTER-LIGAND FREE ENERGY PREDICTED BY IDOCK:   -6.10 KCAL/MOL
REMARK 924 INTRA-LIGAND FREE ENERGY PREDICTED BY IDOCK:   -0.64 KCAL/MOL
REMARK 927      BINDING AFFINITY PREDICTED BY RF-SCORE:    0.00 PKD
ROOT
HETATM    1  C   UNL     1     -12.659  15.595  69.040  1.00  0.00     0.422 C  
HETATM    2  C   UNL     1     -12.055  14.610  70.082  1.00  0.00    -0.385 C  
HETATM    3  C   UNL     1     -11.288  15.490  71.090  1.00  0.00    -0.442 C  
ENDROOT
BRANCH   2   4
HETATM    4  C   UNL     1     -13.248  13.894  70.782  1.00  0.00    -0.067 C  
HETATM    5  H   UNL     1     -14.253  13.966  72.511  1.00  0.00     0.000 HD 
HETATM    6  O   UNL     1     -13.525  14.403  72.084  1.00  0.00    -0.348 OA 
ENDBRANCH   2   4
BRANCH   2   7
HETATM    7  C   UNL     1     -11.093  13.626  69.382  1.00  0.00    -0.141 A  
HETATM    8  C   UNL     1     -11.292  12.266  69.195  1.00  0.00    -0.330 A  
HETATM    9  C   UNL     1     -10.154  11.704  68.590  1.00  0.00    -0.206 A  
HETATM   10  C   UNL     1      -9.825  10.382  68.223  1.00  0.00    -0.169 A  
HETATM   11  C   UNL     1      -8.587  10.098  67.646  1.00  0.00    -0.118 A  
HETATM   12  C   UNL     1      -7.685  11.150  67.458  1.00  0.00    -0.116 A  
HETATM   13  C   UNL     1      -9.242  12.731  68.379  1.00  0.00    -0.136 A  
HETATM   14  C   UNL     1      -7.979  12.468  67.815  1.00  0.00    -0.163 A  
HETATM   15  F   UNL     1      -6.486  10.889  66.902  1.00  0.00    -0.068 F  
HETATM   16  N   UNL     1      -9.849  13.907  68.815  1.00  0.00    -0.167 NA 
BRANCH  11  17
HETATM   17  N   UNL     1      -8.198   8.799  67.256  1.00  0.00    -0.104 N  
HETATM   18  H   UNL     1      -7.208   8.568  67.347  1.00  0.00     0.000 HD 
HETATM   19  C   UNL     1      -9.024   7.811  66.764  1.00  0.00    -0.139 C  
HETATM   20  O   UNL     1     -10.228   7.875  66.559  1.00  0.00    -0.251 OA 
BRANCH  19  21
HETATM   21  C   UNL     1      -8.317   6.504  66.488  1.00  0.00    -0.116 C  
HETATM   22  C   UNL     1      -7.038   6.528  65.659  1.00  0.00    -0.061 C  
HETATM   23  C   UNL     1      -8.308   6.053  65.029  1.00  0.00    -0.121 C  
BRANCH  21  24
HETATM   24  C   UNL     1      -8.512   5.443  67.571  1.00  0.00    -0.106 A  
HETATM   25  C   UNL     1      -9.338   3.689  71.618  1.00  0.00    -0.133 C  
HETATM   26  C   UNL     1      -8.900   4.124  67.212  1.00  0.00    -0.126 A  
HETATM   27  C   UNL     1      -8.437   5.753  68.942  1.00  0.00    -0.104 A  
HETATM   28  C   UNL     1      -9.251   3.161  68.166  1.00  0.00    -0.248 A  
HETATM   29  C   UNL     1      -9.198   3.533  69.489  1.00  0.00    -0.154 A  
HETATM   30  C   UNL     1      -8.788   4.790  69.865  1.00  0.00    -0.090 A  
HETATM   31  F   UNL     1     -10.518   3.891  72.253  1.00  0.00    -0.244 F  
HETATM   32  O   UNL     1      -8.817   4.964  71.215  1.00  0.00    -0.127 OA 
HETATM   33  F   UNL     1      -8.483   3.135  72.510  1.00  0.00    -0.074 F  
HETATM   34  O   UNL     1      -9.548   2.757  70.548  1.00  0.00    -0.149 OA 
ENDBRANCH  21  24
ENDBRANCH  19  21
ENDBRANCH  11  17
BRANCH  16  35
HETATM   35  C   UNL     1      -9.211  15.212  68.690  1.00  0.00    -0.196 C  
BRANCH  35  36
HETATM   36  C   UNL     1      -9.829  16.133  67.623  1.00  0.00    -0.236 C  
HETATM   37  H   UNL     1      -9.776  18.059  67.140  1.00  0.00     0.000 HD 
HETATM   38  O   UNL     1      -9.394  17.490  67.798  1.00  0.00    -0.251 OA 
BRANCH  36  39
HETATM   39  C   UNL     1      -9.366  15.695  66.227  1.00  0.00    -0.323 C  
HETATM   40  O   UNL     1     -10.284  14.743  65.690  1.00  0.00    -0.313 OA 
HETATM   41  H   UNL     1      -9.997  14.472  64.826  1.00  0.00     0.000 HD 
ENDBRANCH  36  39
ENDBRANCH  35  36
ENDBRANCH  16  35
ENDBRANCH   2   7
TORSDOF 8
ENDMDL
MODEL      116
REMARK 921   NORMALIZED FREE ENERGY PREDICTED BY IDOCK:   -3.92 KCAL/MOL
REMARK 922        TOTAL FREE ENERGY PREDICTED BY IDOCK:   -6.67 KCAL/MOL
REMARK 923 INTER-LIGAND FREE ENERGY PREDICTED BY IDOCK:   -6.23 KCAL/MOL
REMARK 924 INTRA-LIGAND FREE ENERGY PREDICTED BY IDOCK:   -0.43 KCAL/MOL
REMARK 927      BINDING AFFINITY PREDICTED BY RF-SCORE:    0.00 PKD
ROOT
HETATM    1  C   UNL     1      -7.162   3.027  70.155  1.00  0.00    -0.040 C  
HETATM    2  C   UNL     1      -8.561   3.671  70.377  1.00  0.00    -0.109 C  
HETATM    3  C   UNL     1      -9.553   2.794  69.587  1.00  0.00    -0.061 C  
ENDROOT
BRANCH   2   4
HETATM    4  C   UNL     1      -8.864   3.595  71.903  1.00  0.00    -0.096 C  
HETATM    5  H   UNL     1     -10.391   3.902  73.160  1.00  0.00     0.000 HD 
HETATM    6  O   UNL     1     -10.206   3.949  72.229  1.00  0.00    -0.178 OA 
ENDBRANCH   2   4
BRANCH   2   7
HETATM    7  C   UNL     1      -8.568   5.117  69.837  1.00  0.00    -0.100 A  
HETATM    8  C   UNL     1      -9.644   5.784  69.269  1.00  0.00    -0.176 A  
HETATM    9  C   UNL     1      -9.230   7.053  68.828  1.00  0.00    -0.132 A  
HETATM   10  C   UNL     1      -9.905   8.096  68.159  1.00  0.00    -0.194 A  
HETATM   11  C   UNL     1      -9.228   9.266  67.814  1.00  0.00    -0.129 A  
HETATM   12  C   UNL     1      -7.870   9.367  68.134  1.00  0.00    -0.087 A  
HETATM   13  C   UNL     1      -7.883   7.187  69.144  1.00  0.00    -0.118 A  
HETATM   14  C   UNL     1      -7.173   8.350  68.790  1.00  0.00    -0.079 A  
HETATM   15  F   UNL     1      -7.205  10.491  67.806  1.00  0.00    -0.081 F  
HETATM   16  N   UNL     1      -7.506   6.022  69.809  1.00  0.00    -0.078 NA 
BRANCH  11  17
HETATM   17  N   UNL     1      -9.845  10.346  67.148  1.00  0.00    -0.175 N  
HETATM   18  H   UNL     1     -10.150  11.129  67.726  1.00  0.00     0.000 HD 
HETATM   19  C   UNL     1     -10.075  10.447  65.792  1.00  0.00    -0.262 C  
HETATM   20  O   UNL     1      -9.809   9.627  64.924  1.00  0.00    -0.232 OA 
BRANCH  19  21
HETATM   21  C   UNL     1     -10.705  11.755  65.374  1.00  0.00    -0.333 C  
HETATM   22  C   UNL     1     -12.014  11.717  64.593  1.00  0.00    -0.163 C  
HETATM   23  C   UNL     1     -10.740  12.021  63.870  1.00  0.00    -0.450 C  
BRANCH  21  24
HETATM   24  C   UNL     1     -10.400  12.926  66.308  1.00  0.00    -0.278 A  
HETATM   25  C   UNL     1     -11.070  16.086  69.423  1.00  0.00    -0.331 C  
HETATM   26  C   UNL     1      -9.063  13.177  66.720  1.00  0.00    -0.214 A  
HETATM   27  C   UNL     1     -11.419  13.709  66.881  1.00  0.00    -0.369 A  
HETATM   28  C   UNL     1      -8.747  14.128  67.697  1.00  0.00    -0.187 A  
HETATM   29  C   UNL     1      -9.788  14.835  68.252  1.00  0.00    -0.222 A  
HETATM   30  C   UNL     1     -11.087  14.640  67.843  1.00  0.00    -0.291 A  
HETATM   31  F   UNL     1     -11.429  15.770  70.691  1.00  0.00    -0.272 F  
HETATM   32  O   UNL     1     -11.968  15.425  68.520  1.00  0.00    -0.316 OA 
HETATM   33  F   UNL     1     -11.218  17.424  69.278  1.00  0.00     0.034 F  
HETATM   34  O   UNL     1      -9.685  15.758  69.244  1.00  0.00    -0.229 OA 
ENDBRANCH  21  24
ENDBRANCH  19  21
ENDBRANCH  11  17
BRANCH  16  35
HETATM   35  C   UNL     1      -6.167   5.829  70.354  1.00  0.00    -0.031 C  
BRANCH  35  36
HETATM   36  C   UNL     1      -5.963   6.382  71.775  1.00  0.00    -0.037 C  
HETATM   37  H   UNL     1      -5.145   7.983  72.622  1.00  0.00     0.000 HD 
HETATM   38  O   UNL     1      -5.271   7.641  71.744  1.00  0.00    -0.034 OA 
BRANCH  36  39
HETATM   39  C   UNL     1      -7.326   6.642  72.431  1.00  0.00    -0.089 C  
HETATM   40  O   UNL     1      -7.492   8.042  72.662  1.00  0.00    -0.098 OA 
HETATM   41  H   UNL     1      -8.335   8.202  73.069  1.00  0.00     0.000 HD 
ENDBRANCH  36  39
ENDBRANCH  35  36
ENDBRANCH  16  35
ENDBRANCH   2   7
TORSDOF 8
ENDMDL
MODEL      117
REMARK 921   NORMALIZED FREE ENERGY PREDICTED BY IDOCK:   -3.88 KCAL/MOL
REMARK 922        TOTAL FREE ENERGY PREDICTED BY IDOCK:   -6.62 KCAL/MOL
REMARK 923 INTER-LIGAND FREE ENERGY PREDICTED BY IDOCK:   -5.97 KCAL/MOL
REMARK 924 INTRA-LIGAND FREE ENERGY PREDICTED BY IDOCK:   -0.65 KCAL/MOL
REMARK 927      BINDING AFFINITY PREDICTED BY RF-SCORE:    0.00 PKD
ROOT
HETATM    1  C   UNL     1      -8.394  19.474  69.035  1.00  0.00    -0.222 C  
HETATM    2  C   UNL     1      -9.394  18.846  68.022  1.00  0.00    -0.349 C  
HETATM    3  C   UNL     1     -10.782  18.956  68.684  1.00  0.00     0.276 C  
ENDROOT
BRANCH   2   4
HETATM    4  C   UNL     1      -9.338  19.709  66.727  1.00  0.00    -0.364 C  
HETATM    5  H   UNL     1      -8.786  21.546  66.154  1.00  0.00     0.000 HD 
HETATM    6  O   UNL     1      -8.820  21.019  66.944  1.00  0.00    -0.006 OA 
ENDBRANCH   2   4
BRANCH   2   7
HETATM    7  C   UNL     1      -9.031  17.366  67.770  1.00  0.00    -0.236 A  
HETATM    8  C   UNL     1      -9.915  16.325  67.530  1.00  0.00    -0.248 A  
HETATM    9  C   UNL     1      -9.203  15.117  67.432  1.00  0.00    -0.199 A  
HETATM   10  C   UNL     1      -9.616  13.782  67.237  1.00  0.00    -0.237 A  
HETATM   11  C   UNL     1      -8.675  12.752  67.202  1.00  0.00    -0.202 A  
HETATM   12  C   UNL     1      -7.327  13.077  67.379  1.00  0.00    -0.116 A  
HETATM   13  C   UNL     1      -7.854  15.412  67.592  1.00  0.00    -0.157 A  
HETATM   14  C   UNL     1      -6.888  14.389  67.580  1.00  0.00    -0.162 A  
HETATM   15  F   UNL     1      -6.409  12.093  67.347  1.00  0.00    -0.083 F  
HETATM   16  N   UNL     1      -7.758  16.794  67.743  1.00  0.00    -0.166 NA 
BRANCH  11  17
HETATM   17  N   UNL     1      -9.021  11.398  67.009  1.00  0.00    -0.162 N  
HETATM   18  H   UNL     1      -9.101  11.077  66.044  1.00  0.00     0.000 HD 
HETATM   19  C   UNL     1      -9.262  10.466  67.996  1.00  0.00    -0.140 C  
HETATM   20  O   UNL     1      -9.240  10.635  69.207  1.00  0.00    -0.178 OA 
BRANCH  19  21
HETATM   21  C   UNL     1      -9.556   9.081  67.470  1.00  0.00    -0.182 C  
HETATM   22  C   UNL     1      -9.500   8.845  65.965  1.00  0.00    -0.320 C  
HETATM   23  C   UNL     1     -10.831   8.946  66.639  1.00  0.00     0.188 C  
BRANCH  21  24
HETATM   24  C   UNL     1      -9.203   7.952  68.439  1.00  0.00    -0.134 A  
HETATM   25  C   UNL     1      -9.688   4.215  70.874  1.00  0.00    -0.189 C  
HETATM   26  C   UNL     1      -7.842   7.601  68.656  1.00  0.00    -0.121 A  
HETATM   27  C   UNL     1     -10.189   7.155  69.048  1.00  0.00    -0.191 A  
HETATM   28  C   UNL     1      -7.470   6.476  69.401  1.00  0.00    -0.094 A  
HETATM   29  C   UNL     1      -8.478   5.711  69.938  1.00  0.00    -0.121 A  
HETATM   30  C   UNL     1      -9.801   6.051  69.778  1.00  0.00    -0.165 A  
HETATM   31  F   UNL     1      -9.933   3.014  70.293  1.00  0.00    -0.188 F  
HETATM   32  O   UNL     1     -10.642   5.163  70.374  1.00  0.00    -0.249 OA 
HETATM   33  F   UNL     1      -9.880   4.071  72.207  1.00  0.00    -0.180 F  
HETATM   34  O   UNL     1      -8.315   4.562  70.645  1.00  0.00    -0.073 OA 
ENDBRANCH  21  24
ENDBRANCH  19  21
ENDBRANCH  11  17
BRANCH  16  35
HETATM   35  C   UNL     1      -6.478  17.480  67.870  1.00  0.00    -0.162 C  
BRANCH  35  36
HETATM   36  C   UNL     1      -5.800  17.835  66.536  1.00  0.00    -0.182 C  
HETATM   37  H   UNL     1      -6.329  18.048  64.633  1.00  0.00     0.000 HD 
HETATM   38  O   UNL     1      -6.748  17.830  65.457  1.00  0.00    -0.313 OA 
BRANCH  36  39
HETATM   39  C   UNL     1      -5.219  19.253  66.608  1.00  0.00    -0.162 C  
HETATM   40  O   UNL     1      -6.139  20.118  67.276  1.00  0.00    -0.177 OA 
HETATM   41  H   UNL     1      -5.779  20.996  67.321  1.00  0.00     0.000 HD 
ENDBRANCH  36  39
ENDBRANCH  35  36
ENDBRANCH  16  35
ENDBRANCH   2   7
TORSDOF 8
ENDMDL
MODEL      118
REMARK 921   NORMALIZED FREE ENERGY PREDICTED BY IDOCK:   -3.72 KCAL/MOL
REMARK 922        TOTAL FREE ENERGY PREDICTED BY IDOCK:   -6.38 KCAL/MOL
REMARK 923 INTER-LIGAND FREE ENERGY PREDICTED BY IDOCK:   -6.27 KCAL/MOL
REMARK 924 INTRA-LIGAND FREE ENERGY PREDICTED BY IDOCK:   -0.10 KCAL/MOL
REMARK 927      BINDING AFFINITY PREDICTED BY RF-SCORE:    0.00 PKD
ROOT
HETATM    1  C   UNL     1     -10.318  19.219  66.114  1.00  0.00    -0.578 C  
HETATM    2  C   UNL     1      -8.944  18.975  66.801  1.00  0.00    -0.328 C  
HETATM    3  C   UNL     1      -7.898  19.652  65.892  1.00  0.00    -0.295 C  
ENDROOT
BRANCH   2   4
HETATM    4  C   UNL     1      -8.994  19.679  68.189  1.00  0.00    -0.324 C  
HETATM    5  H   UNL     1     -10.300  20.025  69.665  1.00  0.00     0.000 HD 
HETATM    6  O   UNL     1     -10.270  19.597  68.818  1.00  0.00    -0.437 OA 
ENDBRANCH   2   4
BRANCH   2   7
HETATM    7  C   UNL     1      -8.668  17.460  66.908  1.00  0.00    -0.246 A  
HETATM    8  C   UNL     1      -9.612  16.453  67.037  1.00  0.00    -0.244 A  
HETATM    9  C   UNL     1      -8.962  15.215  67.186  1.00  0.00    -0.231 A  
HETATM   10  C   UNL     1      -9.443  13.905  67.387  1.00  0.00    -0.226 A  
HETATM   11  C   UNL     1      -8.551  12.840  67.527  1.00  0.00    -0.187 A  
HETATM   12  C   UNL     1      -7.181  13.111  67.478  1.00  0.00    -0.151 A  
HETATM   13  C   UNL     1      -7.593  15.452  67.128  1.00  0.00    -0.203 A  
HETATM   14  C   UNL     1      -6.673  14.398  67.285  1.00  0.00     0.195 A  
HETATM   15  F   UNL     1      -6.310  12.093  67.612  1.00  0.00    -0.063 F  
HETATM   16  N   UNL     1      -7.428  16.817  66.903  1.00  0.00    -0.196 NA 
BRANCH  11  17
HETATM   17  N   UNL     1      -8.968  11.507  67.729  1.00  0.00    -0.155 N  
HETATM   18  H   UNL     1      -9.591  11.109  67.026  1.00  0.00     0.000 HD 
HETATM   19  C   UNL     1      -8.615  10.690  68.782  1.00  0.00    -0.150 C  
HETATM   20  O   UNL     1      -7.900  10.964  69.736  1.00  0.00     0.005 OA 
BRANCH  19  21
HETATM   21  C   UNL     1      -9.179   9.292  68.686  1.00  0.00    -0.135 C  
HETATM   22  C   UNL     1     -10.674   9.092  68.908  1.00  0.00    -0.149 C  
HETATM   23  C   UNL     1      -9.717   8.706  69.991  1.00  0.00    -0.176 C  
BRANCH  21  24
HETATM   24  C   UNL     1      -8.411   8.367  67.742  1.00  0.00    -0.130 A  
HETATM   25  C   UNL     1      -7.663   5.519  64.356  1.00  0.00    -0.095 C  
HETATM   26  C   UNL     1      -7.015   8.550  67.548  1.00  0.00    -0.079 A  
HETATM   27  C   UNL     1      -9.060   7.399  66.954  1.00  0.00    -0.164 A  
HETATM   28  C   UNL     1      -6.295   7.843  66.577  1.00  0.00    -0.050 A  
HETATM   29  C   UNL     1      -6.990   6.940  65.808  1.00  0.00    -0.064 A  
HETATM   30  C   UNL     1      -8.332   6.714  66.002  1.00  0.00    -0.134 A  
HETATM   31  F   UNL     1      -7.913   5.863  63.069  1.00  0.00    -0.082 F  
HETATM   32  O   UNL     1      -8.836   5.794  65.135  1.00  0.00    -0.120 OA 
HETATM   33  F   UNL     1      -7.427   4.186  64.385  1.00  0.00    -0.066 F  
HETATM   34  O   UNL     1      -6.477   6.201  64.789  1.00  0.00    -0.036 OA 
ENDBRANCH  21  24
ENDBRANCH  19  21
ENDBRANCH  11  17
BRANCH  16  35
HETATM   35  C   UNL     1      -6.117  17.428  66.718  1.00  0.00    -0.190 C  
BRANCH  35  36
HETATM   36  C   UNL     1      -5.415  17.854  68.020  1.00  0.00    -0.147 C  
HETATM   37  H   UNL     1      -4.918  19.548  68.932  1.00  0.00     0.000 HD 
HETATM   38  O   UNL     1      -5.352  19.285  68.128  1.00  0.00    -0.183 OA 
BRANCH  36  39
HETATM   39  C   UNL     1      -6.216  17.353  69.229  1.00  0.00    -0.238 C  
HETATM   40  O   UNL     1      -5.370  17.295  70.378  1.00  0.00    -0.225 OA 
HETATM   41  H   UNL     1      -5.866  16.985  71.127  1.00  0.00     0.000 HD 
ENDBRANCH  36  39
ENDBRANCH  35  36
ENDBRANCH  16  35
ENDBRANCH   2   7
TORSDOF 8
ENDMDL
MODEL      119
REMARK 921   NORMALIZED FREE ENERGY PREDICTED BY IDOCK:   -3.69 KCAL/MOL
REMARK 922        TOTAL FREE ENERGY PREDICTED BY IDOCK:   -6.33 KCAL/MOL
REMARK 923 INTER-LIGAND FREE ENERGY PREDICTED BY IDOCK:   -5.44 KCAL/MOL
REMARK 924 INTRA-LIGAND FREE ENERGY PREDICTED BY IDOCK:   -0.89 KCAL/MOL
REMARK 927      BINDING AFFINITY PREDICTED BY RF-SCORE:    0.00 PKD
ROOT
HETATM    1  C   UNL     1      -9.663  15.302  64.924  1.00  0.00     0.360 C  
HETATM    2  C   UNL     1     -10.755  14.707  65.859  1.00  0.00    -0.312 C  
HETATM    3  C   UNL     1     -10.984  15.765  66.958  1.00  0.00    -0.221 C  
ENDROOT
BRANCH   2   4
HETATM    4  C   UNL     1     -12.042  14.524  65.002  1.00  0.00    -0.389 C  
HETATM    5  H   UNL     1     -13.139  15.551  63.680  1.00  0.00     0.000 HD 
HETATM    6  O   UNL     1     -12.355  15.662  64.203  1.00  0.00    -0.572 OA 
ENDBRANCH   2   4
BRANCH   2   7
HETATM    7  C   UNL     1     -10.256  13.384  66.479  1.00  0.00    -0.282 A  
HETATM    8  C   UNL     1     -10.422  12.109  65.957  1.00  0.00    -0.281 A  
HETATM    9  C   UNL     1      -9.899  11.162  66.854  1.00  0.00    -0.223 A  
HETATM   10  C   UNL     1      -9.848   9.752  66.827  1.00  0.00    -0.265 A  
HETATM   11  C   UNL     1      -9.276   9.048  67.888  1.00  0.00    -0.141 A  
HETATM   12  C   UNL     1      -8.775   9.773  68.973  1.00  0.00    -0.148 A  
HETATM   13  C   UNL     1      -9.381  11.857  67.941  1.00  0.00    -0.187 A  
HETATM   14  C   UNL     1      -8.816  11.169  69.031  1.00  0.00    -0.025 A  
HETATM   15  F   UNL     1      -8.221   9.105  70.003  1.00  0.00    -0.096 F  
HETATM   16  N   UNL     1      -9.555  13.213  67.674  1.00  0.00    -0.204 NA 
BRANCH  11  17
HETATM   17  N   UNL     1      -9.192   7.640  67.922  1.00  0.00    -0.137 N  
HETATM   18  H   UNL     1     -10.063   7.131  68.075  1.00  0.00     0.000 HD 
HETATM   19  C   UNL     1      -8.049   6.885  67.768  1.00  0.00    -0.114 C  
HETATM   20  O   UNL     1      -6.906   7.284  67.592  1.00  0.00    -0.068 OA 
BRANCH  19  21
HETATM   21  C   UNL     1      -8.292   5.394  67.797  1.00  0.00    -0.099 C  
HETATM   22  C   UNL     1      -7.669   4.532  66.705  1.00  0.00    -0.090 C  
HETATM   23  C   UNL     1      -9.132   4.839  66.647  1.00  0.00    -0.117 C  
BRANCH  21  24
HETATM   24  C   UNL     1      -8.516   4.821  69.197  1.00  0.00    -0.087 A  
HETATM   25  C   UNL     1      -8.177   4.388  73.650  1.00  0.00    -0.097 C  
HETATM   26  C   UNL     1      -9.687   4.067  69.477  1.00  0.00    -0.227 A  
HETATM   27  C   UNL     1      -7.652   5.112  70.269  1.00  0.00    -0.071 A  
HETATM   28  C   UNL     1     -10.022   3.660  70.774  1.00  0.00    -0.021 A  
HETATM   29  C   UNL     1      -9.162   4.008  71.789  1.00  0.00    -0.128 A  
HETATM   30  C   UNL     1      -8.001   4.702  71.539  1.00  0.00    -0.100 A  
HETATM   31  F   UNL     1      -8.577   5.372  74.493  1.00  0.00    -0.110 F  
HETATM   32  O   UNL     1      -7.295   4.959  72.673  1.00  0.00    -0.084 OA 
HETATM   33  F   UNL     1      -7.486   3.480  74.380  1.00  0.00    -0.050 F  
HETATM   34  O   UNL     1      -9.342   3.747  73.110  1.00  0.00    -0.101 OA 
ENDBRANCH  21  24
ENDBRANCH  19  21
ENDBRANCH  11  17
BRANCH  16  35
HETATM   35  C   UNL     1      -9.070  14.256  68.569  1.00  0.00    -0.191 C  
BRANCH  35  36
HETATM   36  C   UNL     1      -7.593  14.639  68.373  1.00  0.00    -0.119 C  
HETATM   37  H   UNL     1      -6.154  14.303  67.044  1.00  0.00     0.000 HD 
HETATM   38  O   UNL     1      -7.067  14.067  67.165  1.00  0.00    -0.106 OA 
BRANCH  36  39
HETATM   39  C   UNL     1      -7.465  16.162  68.234  1.00  0.00    -0.145 C  
HETATM   40  O   UNL     1      -6.988  16.490  66.929  1.00  0.00    -0.194 OA 
HETATM   41  H   UNL     1      -6.909  17.433  66.843  1.00  0.00     0.000 HD 
ENDBRANCH  36  39
ENDBRANCH  35  36
ENDBRANCH  16  35
ENDBRANCH   2   7
TORSDOF 8
ENDMDL
MODEL      120
REMARK 921   NORMALIZED FREE ENERGY PREDICTED BY IDOCK:   -3.61 KCAL/MOL
REMARK 922        TOTAL FREE ENERGY PREDICTED BY IDOCK:   -6.22 KCAL/MOL
REMARK 923 INTER-LIGAND FREE ENERGY PREDICTED BY IDOCK:   -6.99 KCAL/MOL
REMARK 924 INTRA-LIGAND FREE ENERGY PREDICTED BY IDOCK:    0.77 KCAL/MOL
REMARK 927      BINDING AFFINITY PREDICTED BY RF-SCORE:    0.00 PKD
ROOT
HETATM    1  C   UNL     1     -12.593  14.194  65.330  1.00  0.00    -0.460 C  
HETATM    2  C   UNL     1     -11.293  14.216  66.183  1.00  0.00    -0.337 C  
HETATM    3  C   UNL     1     -10.137  14.387  65.176  1.00  0.00    -0.359 C  
ENDROOT
BRANCH   2   4
HETATM    4  C   UNL     1     -11.381  15.454  67.124  1.00  0.00    -0.203 C  
HETATM    5  H   UNL     1     -10.284  17.046  67.638  1.00  0.00     0.000 HD 
HETATM    6  O   UNL     1     -10.229  16.291  67.064  1.00  0.00    -0.269 OA 
ENDBRANCH   2   4
BRANCH   2   7
HETATM    7  C   UNL     1     -11.144  12.887  66.955  1.00  0.00    -0.275 A  
HETATM    8  C   UNL     1     -10.414  11.777  66.561  1.00  0.00    -0.265 A  
HETATM    9  C   UNL     1     -10.594  10.740  67.494  1.00  0.00    -0.280 A  
HETATM   10  C   UNL     1     -10.116   9.414  67.547  1.00  0.00    -0.268 A  
HETATM   11  C   UNL     1     -10.480   8.577  68.603  1.00  0.00    -0.169 A  
HETATM   12  C   UNL     1     -11.334   9.081  69.587  1.00  0.00     0.121 A  
HETATM   13  C   UNL     1     -11.432  11.219  68.494  1.00  0.00    -0.306 A  
HETATM   14  C   UNL     1     -11.828  10.388  69.559  1.00  0.00    -0.218 A  
HETATM   15  F   UNL     1     -11.692   8.283  70.611  1.00  0.00    -0.288 F  
HETATM   16  N   UNL     1     -11.716  12.547  68.183  1.00  0.00    -0.336 NA 
BRANCH  11  17
HETATM   17  N   UNL     1     -10.035   7.242  68.716  1.00  0.00    -0.162 N  
HETATM   18  H   UNL     1     -10.287   6.745  69.571  1.00  0.00     0.000 HD 
HETATM   19  C   UNL     1      -9.295   6.544  67.785  1.00  0.00    -0.118 C  
HETATM   20  O   UNL     1      -8.875   6.946  66.709  1.00  0.00    -0.117 OA 
BRANCH  19  21
HETATM   21  C   UNL     1      -9.023   5.109  68.172  1.00  0.00    -0.118 C  
HETATM   22  C   UNL     1      -8.188   4.247  67.233  1.00  0.00    -0.100 C  
HETATM   23  C   UNL     1      -9.670   4.050  67.281  1.00  0.00    -0.199 C  
BRANCH  21  24
HETATM   24  C   UNL     1      -8.988   4.861  69.680  1.00  0.00    -0.137 A  
HETATM   25  C   UNL     1      -7.316   4.488  73.828  1.00  0.00    -0.077 C  
HETATM   26  C   UNL     1     -10.168   5.025  70.455  1.00  0.00    -0.316 A  
HETATM   27  C   UNL     1      -7.790   4.585  70.364  1.00  0.00    -0.053 A  
HETATM   28  C   UNL     1     -10.158   4.971  71.854  1.00  0.00    -0.257 A  
HETATM   29  C   UNL     1      -8.950   4.740  72.470  1.00  0.00    -0.125 A  
HETATM   30  C   UNL     1      -7.801   4.537  71.742  1.00  0.00    -0.096 A  
HETATM   31  F   UNL     1      -6.727   5.536  74.454  1.00  0.00    -0.071 F  
HETATM   32  O   UNL     1      -6.713   4.336  72.535  1.00  0.00    -0.041 OA 
HETATM   33  F   UNL     1      -7.058   3.377  74.558  1.00  0.00    -0.044 F  
HETATM   34  O   UNL     1      -8.734   4.703  73.811  1.00  0.00    -0.106 OA 
ENDBRANCH  21  24
ENDBRANCH  19  21
ENDBRANCH  11  17
BRANCH  16  35
HETATM   35  C   UNL     1     -12.521  13.400  69.049  1.00  0.00     0.244 C  
BRANCH  35  36
HETATM   36  C   UNL     1     -11.848  13.791  70.376  1.00  0.00    -0.253 C  
HETATM   37  H   UNL     1     -11.300  15.458  71.307  1.00  0.00     0.000 HD 
HETATM   38  O   UNL     1     -11.717  15.217  70.488  1.00  0.00    -0.260 OA 
BRANCH  36  39
HETATM   39  C   UNL     1     -12.718  13.333  71.554  1.00  0.00    -0.281 C  
HETATM   40  O   UNL     1     -12.869  11.913  71.520  1.00  0.00    -0.385 OA 
HETATM   41  H   UNL     1     -13.408  11.630  72.250  1.00  0.00     0.000 HD 
ENDBRANCH  36  39
ENDBRANCH  35  36
ENDBRANCH  16  35
ENDBRANCH   2   7
TORSDOF 8
ENDMDL
MODEL      121
REMARK 921   NORMALIZED FREE ENERGY PREDICTED BY IDOCK:   -3.57 KCAL/MOL
REMARK 922        TOTAL FREE ENERGY PREDICTED BY IDOCK:   -6.16 KCAL/MOL
REMARK 923 INTER-LIGAND FREE ENERGY PREDICTED BY IDOCK:   -6.26 KCAL/MOL
REMARK 924 INTRA-LIGAND FREE ENERGY PREDICTED BY IDOCK:    0.10 KCAL/MOL
REMARK 927      BINDING AFFINITY PREDICTED BY RF-SCORE:    0.00 PKD
ROOT
HETATM    1  C   UNL     1     -11.553  16.174  67.924  1.00  0.00    -0.000 C  
HETATM    2  C   UNL     1     -11.053  15.164  68.996  1.00  0.00    -0.260 C  
HETATM    3  C   UNL     1     -10.301  16.007  70.045  1.00  0.00    -0.204 C  
ENDROOT
BRANCH   2   4
HETATM    4  C   UNL     1     -12.314  14.505  69.630  1.00  0.00    -0.241 C  
HETATM    5  H   UNL     1     -13.618  14.846  71.109  1.00  0.00     0.000 HD 
HETATM    6  O   UNL     1     -12.849  15.247  70.723  1.00  0.00    -0.393 OA 
ENDBRANCH   2   4
BRANCH   2   7
HETATM    7  C   UNL     1     -10.103  14.134  68.348  1.00  0.00    -0.238 A  
HETATM    8  C   UNL     1     -10.466  12.959  67.706  1.00  0.00    -0.225 A  
HETATM    9  C   UNL     1      -9.310  12.255  67.325  1.00  0.00    -0.185 A  
HETATM   10  C   UNL     1      -9.121  11.010  66.689  1.00  0.00    -0.177 A  
HETATM   11  C   UNL     1      -7.832  10.532  66.447  1.00  0.00    -0.138 A  
HETATM   12  C   UNL     1      -6.746  11.309  66.863  1.00  0.00    -0.135 A  
HETATM   13  C   UNL     1      -8.212  13.012  67.716  1.00  0.00    -0.168 A  
HETATM   14  C   UNL     1      -6.902  12.543  67.499  1.00  0.00    -0.150 A  
HETATM   15  F   UNL     1      -5.498  10.859  66.635  1.00  0.00    -0.045 F  
HETATM   16  N   UNL     1      -8.708  14.181  68.288  1.00  0.00    -0.176 NA 
BRANCH  11  17
HETATM   17  N   UNL     1      -7.574   9.298  65.814  1.00  0.00    -0.097 N  
HETATM   18  H   UNL     1      -6.633   9.158  65.446  1.00  0.00     0.000 HD 
HETATM   19  C   UNL     1      -8.468   8.262  65.645  1.00  0.00    -0.158 C  
HETATM   20  O   UNL     1      -9.641   8.223  65.989  1.00  0.00    -0.180 OA 
BRANCH  19  21
HETATM   21  C   UNL     1      -7.875   7.045  64.977  1.00  0.00    -0.125 C  
HETATM   22  C   UNL     1      -6.602   7.212  64.154  1.00  0.00    -0.043 C  
HETATM   23  C   UNL     1      -7.910   7.046  63.449  1.00  0.00    -0.107 C  
BRANCH  21  24
HETATM   24  C   UNL     1      -8.153   5.729  65.704  1.00  0.00    -0.119 A  
HETATM   25  C   UNL     1      -8.776   2.877  69.112  1.00  0.00    -0.083 C  
HETATM   26  C   UNL     1      -8.881   4.697  65.053  1.00  0.00    -0.150 A  
HETATM   27  C   UNL     1      -7.815   5.539  67.057  1.00  0.00    -0.101 A  
HETATM   28  C   UNL     1      -9.304   3.543  65.723  1.00  0.00    -0.157 A  
HETATM   29  C   UNL     1      -8.981   3.430  67.055  1.00  0.00    -0.156 A  
HETATM   30  C   UNL     1      -8.243   4.395  67.699  1.00  0.00    -0.099 A  
HETATM   31  F   UNL     1      -9.777   3.051  70.011  1.00  0.00    -0.234 F  
HETATM   32  O   UNL     1      -8.039   4.104  69.012  1.00  0.00    -0.070 OA 
HETATM   33  F   UNL     1      -7.954   1.916  69.596  1.00  0.00    -0.042 F  
HETATM   34  O   UNL     1      -9.345   2.413  67.879  1.00  0.00    -0.193 OA 
ENDBRANCH  21  24
ENDBRANCH  19  21
ENDBRANCH  11  17
BRANCH  16  35
HETATM   35  C   UNL     1      -7.840  15.253  68.760  1.00  0.00    -0.154 C  
BRANCH  35  36
HETATM   36  C   UNL     1      -7.275  16.159  67.652  1.00  0.00    -0.146 C  
HETATM   37  H   UNL     1      -5.649  16.243  66.513  1.00  0.00     0.000 HD 
HETATM   38  O   UNL     1      -5.998  15.683  67.197  1.00  0.00    -0.328 OA 
BRANCH  36  39
HETATM   39  C   UNL     1      -8.213  16.142  66.438  1.00  0.00    -0.301 C  
HETATM   40  O   UNL     1      -8.048  17.343  65.683  1.00  0.00    -0.485 OA 
HETATM   41  H   UNL     1      -8.628  17.331  64.931  1.00  0.00     0.000 HD 
ENDBRANCH  36  39
ENDBRANCH  35  36
ENDBRANCH  16  35
ENDBRANCH   2   7
TORSDOF 8
ENDMDL
MODEL      122
REMARK 921   NORMALIZED FREE ENERGY PREDICTED BY IDOCK:   -3.57 KCAL/MOL
REMARK 922        TOTAL FREE ENERGY PREDICTED BY IDOCK:   -6.16 KCAL/MOL
REMARK 923 INTER-LIGAND FREE ENERGY PREDICTED BY IDOCK:   -7.68 KCAL/MOL
REMARK 924 INTRA-LIGAND FREE ENERGY PREDICTED BY IDOCK:    1.52 KCAL/MOL
REMARK 927      BINDING AFFINITY PREDICTED BY RF-SCORE:    0.00 PKD
ROOT
HETATM    1  C   UNL     1     -10.774  16.574  65.397  1.00  0.00    -0.273 C  
HETATM    2  C   UNL     1     -10.091  16.541  66.794  1.00  0.00    -0.290 C  
HETATM    3  C   UNL     1      -8.584  16.730  66.525  1.00  0.00    -0.312 C  
ENDROOT
BRANCH   2   4
HETATM    4  C   UNL     1     -10.653  17.744  67.608  1.00  0.00    -0.379 C  
HETATM    5  H   UNL     1     -10.024  19.488  68.362  1.00  0.00     0.000 HD 
HETATM    6  O   UNL     1      -9.681  18.754  67.866  1.00  0.00    -0.307 OA 
ENDBRANCH   2   4
BRANCH   2   7
HETATM    7  C   UNL     1     -10.352  15.182  67.478  1.00  0.00    -0.242 A  
HETATM    8  C   UNL     1     -10.066  13.926  66.963  1.00  0.00    -0.256 A  
HETATM    9  C   UNL     1     -10.526  12.938  67.851  1.00  0.00    -0.231 A  
HETATM   10  C   UNL     1     -10.523  11.529  67.791  1.00  0.00    -0.216 A  
HETATM   11  C   UNL     1     -11.080  10.779  68.828  1.00  0.00    -0.259 A  
HETATM   12  C   UNL     1     -11.648  11.459  69.909  1.00  0.00    -0.323 A  
HETATM   13  C   UNL     1     -11.088  13.587  68.945  1.00  0.00    -0.267 A  
HETATM   14  C   UNL     1     -11.672  12.854  69.994  1.00  0.00    -0.284 A  
HETATM   15  F   UNL     1     -12.189  10.747  70.916  1.00  0.00    -0.358 F  
HETATM   16  N   UNL     1     -10.925  14.954  68.731  1.00  0.00    -0.243 NA 
BRANCH  11  17
HETATM   17  N   UNL     1     -11.107   9.368  68.831  1.00  0.00    -0.448 N  
HETATM   18  H   UNL     1     -12.005   8.925  68.636  1.00  0.00     0.000 HD 
HETATM   19  C   UNL     1     -10.038   8.530  69.069  1.00  0.00    -0.199 C  
HETATM   20  O   UNL     1      -8.887   8.842  69.337  1.00  0.00    -0.138 OA 
BRANCH  19  21
HETATM   21  C   UNL     1     -10.374   7.062  68.945  1.00  0.00    -0.198 C  
HETATM   22  C   UNL     1     -11.083   6.580  67.685  1.00  0.00    -0.380 C  
HETATM   23  C   UNL     1     -11.863   6.721  68.954  1.00  0.00     0.622 C  
BRANCH  21  24
HETATM   24  C   UNL     1      -9.416   6.133  69.692  1.00  0.00    -0.162 A  
HETATM   25  C   UNL     1      -6.440   2.842  70.361  1.00  0.00    -0.028 C  
HETATM   26  C   UNL     1      -8.834   6.550  70.920  1.00  0.00    -0.147 A  
HETATM   27  C   UNL     1      -8.988   4.908  69.148  1.00  0.00    -0.132 A  
HETATM   28  C   UNL     1      -7.831   5.814  71.561  1.00  0.00    -0.112 A  
HETATM   29  C   UNL     1      -7.423   4.646  70.961  1.00  0.00    -0.067 A  
HETATM   30  C   UNL     1      -7.997   4.199  69.794  1.00  0.00    -0.055 A  
HETATM   31  F   UNL     1      -5.227   2.846  69.755  1.00  0.00    -0.009 F  
HETATM   32  O   UNL     1      -7.448   3.033  69.358  1.00  0.00    -0.045 OA 
HETATM   33  F   UNL     1      -6.613   1.622  70.921  1.00  0.00    -0.022 F  
HETATM   34  O   UNL     1      -6.433   3.827  71.404  1.00  0.00    -0.017 OA 
ENDBRANCH  21  24
ENDBRANCH  19  21
ENDBRANCH  11  17
BRANCH  16  35
HETATM   35  C   UNL     1     -11.337  15.955  69.708  1.00  0.00    -0.347 C  
BRANCH  35  36
HETATM   36  C   UNL     1     -11.972  15.383  70.988  1.00  0.00    -0.359 C  
HETATM   37  H   UNL     1     -12.135  15.898  72.900  1.00  0.00     0.000 HD 
HETATM   38  O   UNL     1     -11.744  16.251  72.109  1.00  0.00    -0.495 OA 
BRANCH  36  39
HETATM   39  C   UNL     1     -13.493  15.278  70.811  1.00  0.00    -0.307 C  
HETATM   40  O   UNL     1     -14.013  14.279  71.689  1.00  0.00    -0.393 OA 
HETATM   41  H   UNL     1     -14.955  14.215  71.580  1.00  0.00     0.000 HD 
ENDBRANCH  36  39
ENDBRANCH  35  36
ENDBRANCH  16  35
ENDBRANCH   2   7
TORSDOF 8
ENDMDL
MODEL      123
REMARK 921   NORMALIZED FREE ENERGY PREDICTED BY IDOCK:   -3.57 KCAL/MOL
REMARK 922        TOTAL FREE ENERGY PREDICTED BY IDOCK:   -6.16 KCAL/MOL
REMARK 923 INTER-LIGAND FREE ENERGY PREDICTED BY IDOCK:   -6.48 KCAL/MOL
REMARK 924 INTRA-LIGAND FREE ENERGY PREDICTED BY IDOCK:    0.32 KCAL/MOL
REMARK 927      BINDING AFFINITY PREDICTED BY RF-SCORE:    0.00 PKD
ROOT
HETATM    1  C   UNL     1     -11.455  15.994  70.435  1.00  0.00    -0.392 C  
HETATM    2  C   UNL     1     -10.731  15.976  69.058  1.00  0.00    -0.274 C  
HETATM    3  C   UNL     1     -11.835  16.193  68.004  1.00  0.00     0.223 C  
ENDROOT
BRANCH   2   4
HETATM    4  C   UNL     1      -9.729  17.168  69.050  1.00  0.00    -0.212 C  
HETATM    5  H   UNL     1      -9.680  19.100  68.532  1.00  0.00     0.000 HD 
HETATM    6  O   UNL     1     -10.290  18.373  68.537  1.00  0.00    -0.365 OA 
ENDBRANCH   2   4
BRANCH   2   7
HETATM    7  C   UNL     1     -10.039  14.612  68.843  1.00  0.00    -0.234 A  
HETATM    8  C   UNL     1     -10.662  13.389  68.641  1.00  0.00    -0.275 A  
HETATM    9  C   UNL     1      -9.692  12.374  68.568  1.00  0.00    -0.140 A  
HETATM   10  C   UNL     1      -9.789  10.975  68.414  1.00  0.00    -0.186 A  
HETATM   11  C   UNL     1      -8.637  10.188  68.397  1.00  0.00    -0.119 A  
HETATM   12  C   UNL     1      -7.398  10.818  68.551  1.00  0.00    -0.096 A  
HETATM   13  C   UNL     1      -8.446  12.975  68.706  1.00  0.00     0.150 A  
HETATM   14  C   UNL     1      -7.271  12.201  68.710  1.00  0.00    -0.103 A  
HETATM   15  F   UNL     1      -6.279  10.070  68.536  1.00  0.00    -0.045 F  
HETATM   16  N   UNL     1      -8.669  14.346  68.817  1.00  0.00    -0.163 NA 
BRANCH  11  17
HETATM   17  N   UNL     1      -8.664   8.785  68.245  1.00  0.00    -0.134 N  
HETATM   18  H   UNL     1      -8.502   8.228  69.084  1.00  0.00     0.000 HD 
HETATM   19  C   UNL     1      -8.888   8.093  67.074  1.00  0.00    -0.132 C  
HETATM   20  O   UNL     1      -9.086   8.555  65.958  1.00  0.00    -0.175 OA 
BRANCH  19  21
HETATM   21  C   UNL     1      -8.912   6.593  67.245  1.00  0.00    -0.115 C  
HETATM   22  C   UNL     1      -7.797   5.769  66.611  1.00  0.00    -0.101 C  
HETATM   23  C   UNL     1      -9.148   5.786  65.969  1.00  0.00    -0.163 C  
BRANCH  21  24
HETATM   24  C   UNL     1      -9.582   6.118  68.534  1.00  0.00    -0.127 A  
HETATM   25  C   UNL     1      -9.977   4.525  72.710  1.00  0.00    -0.160 C  
HETATM   26  C   UNL     1     -10.886   6.576  68.868  1.00  0.00    -0.354 A  
HETATM   27  C   UNL     1      -8.906   5.324  69.478  1.00  0.00    -0.121 A  
HETATM   28  C   UNL     1     -11.479   6.306  70.107  1.00  0.00    -0.452 A  
HETATM   29  C   UNL     1     -10.754   5.559  71.006  1.00  0.00    -0.205 A  
HETATM   30  C   UNL     1      -9.508   5.070  70.693  1.00  0.00    -0.169 A  
HETATM   31  F   UNL     1      -9.446   5.178  73.774  1.00  0.00    -0.130 F  
HETATM   32  O   UNL     1      -8.952   4.368  71.718  1.00  0.00    -0.119 OA 
HETATM   33  F   UNL     1     -10.360   3.297  73.134  1.00  0.00    -0.182 F  
HETATM   34  O   UNL     1     -11.140   5.239  72.269  1.00  0.00    -0.221 OA 
ENDBRANCH  21  24
ENDBRANCH  19  21
ENDBRANCH  11  17
BRANCH  16  35
HETATM   35  C   UNL     1      -7.580  15.311  68.912  1.00  0.00    -0.152 C  
BRANCH  35  36
HETATM   36  C   UNL     1      -6.845  15.587  67.589  1.00  0.00    -0.181 C  
HETATM   37  H   UNL     1      -5.776  14.563  66.264  1.00  0.00     0.000 HD 
HETATM   38  O   UNL     1      -6.230  14.392  67.081  1.00  0.00    -0.206 OA 
BRANCH  36  39
HETATM   39  C   UNL     1      -7.848  16.055  66.525  1.00  0.00    -0.191 C  
HETATM   40  O   UNL     1      -8.664  14.957  66.115  1.00  0.00    -0.456 OA 
HETATM   41  H   UNL     1      -9.285  15.248  65.457  1.00  0.00     0.000 HD 
ENDBRANCH  36  39
ENDBRANCH  35  36
ENDBRANCH  16  35
ENDBRANCH   2   7
TORSDOF 8
ENDMDL
MODEL      124
REMARK 921   NORMALIZED FREE ENERGY PREDICTED BY IDOCK:   -3.53 KCAL/MOL
REMARK 922        TOTAL FREE ENERGY PREDICTED BY IDOCK:   -6.10 KCAL/MOL
REMARK 923 INTER-LIGAND FREE ENERGY PREDICTED BY IDOCK:   -6.20 KCAL/MOL
REMARK 924 INTRA-LIGAND FREE ENERGY PREDICTED BY IDOCK:    0.10 KCAL/MOL
REMARK 927      BINDING AFFINITY PREDICTED BY RF-SCORE:    0.00 PKD
ROOT
HETATM    1  C   UNL     1      -7.697  19.369  64.975  1.00  0.00     1.113 C  
HETATM    2  C   UNL     1      -6.598  18.784  65.907  1.00  0.00    -0.282 C  
HETATM    3  C   UNL     1      -5.378  18.524  65.001  1.00  0.00    -0.212 C  
ENDROOT
BRANCH   2   4
HETATM    4  C   UNL     1      -6.265  19.876  66.967  1.00  0.00    -0.182 C  
HETATM    5  H   UNL     1      -6.848  21.723  67.471  1.00  0.00     0.000 HD 
HETATM    6  O   UNL     1      -7.050  21.058  66.825  1.00  0.00    -0.262 OA 
ENDBRANCH   2   4
BRANCH   2   7
HETATM    7  C   UNL     1      -7.090  17.466  66.542  1.00  0.00    -0.265 A  
HETATM    8  C   UNL     1      -6.302  16.460  67.081  1.00  0.00    -0.215 A  
HETATM    9  C   UNL     1      -7.118  15.388  67.485  1.00  0.00    -0.221 A  
HETATM   10  C   UNL     1      -6.825  14.128  68.047  1.00  0.00    -0.149 A  
HETATM   11  C   UNL     1      -7.853  13.230  68.335  1.00  0.00    -0.137 A  
HETATM   12  C   UNL     1      -9.167  13.606  68.039  1.00  0.00    -0.197 A  
HETATM   13  C   UNL     1      -8.435  15.740  67.213  1.00  0.00    -0.189 A  
HETATM   14  C   UNL     1      -9.488  14.845  67.478  1.00  0.00    -0.200 A  
HETATM   15  F   UNL     1     -10.168  12.748  68.313  1.00  0.00    -0.216 F  
HETATM   16  N   UNL     1      -8.409  17.031  66.690  1.00  0.00    -0.227 NA 
BRANCH  11  17
HETATM   17  N   UNL     1      -7.628  11.956  68.899  1.00  0.00    -0.271 N  
HETATM   18  H   UNL     1      -8.268  11.211  68.622  1.00  0.00     0.000 HD 
HETATM   19  C   UNL     1      -6.628  11.619  69.786  1.00  0.00    -0.071 C  
HETATM   20  O   UNL     1      -5.770  12.350  70.260  1.00  0.00    -0.139 OA 
BRANCH  19  21
HETATM   21  C   UNL     1      -6.614  10.157  70.166  1.00  0.00    -0.128 C  
HETATM   22  C   UNL     1      -5.737   9.714  71.330  1.00  0.00    -0.067 C  
HETATM   23  C   UNL     1      -5.293   9.426  69.931  1.00  0.00    -0.032 C  
BRANCH  21  24
HETATM   24  C   UNL     1      -7.915   9.415  69.856  1.00  0.00    -0.132 A  
HETATM   25  C   UNL     1     -10.756   6.621  67.793  1.00  0.00    -0.283 C  
HETATM   26  C   UNL     1      -8.885   9.225  70.878  1.00  0.00    -0.252 A  
HETATM   27  C   UNL     1      -8.146   8.800  68.612  1.00  0.00    -0.116 A  
HETATM   28  C   UNL     1     -10.013   8.416  70.697  1.00  0.00    -0.212 A  
HETATM   29  C   UNL     1     -10.165   7.807  69.473  1.00  0.00    -0.207 A  
HETATM   30  C   UNL     1      -9.263   8.006  68.455  1.00  0.00    -0.135 A  
HETATM   31  F   UNL     1     -10.522   5.287  67.730  1.00  0.00    -0.223 F  
HETATM   32  O   UNL     1      -9.584   7.309  67.332  1.00  0.00    -0.134 OA 
HETATM   33  F   UNL     1     -11.779   6.897  66.950  1.00  0.00    -0.242 F  
HETATM   34  O   UNL     1     -11.163   6.952  69.128  1.00  0.00    -0.193 OA 
ENDBRANCH  21  24
ENDBRANCH  19  21
ENDBRANCH  11  17
BRANCH  16  35
HETATM   35  C   UNL     1      -9.623  17.762  66.346  1.00  0.00    -0.283 C  
BRANCH  35  36
HETATM   36  C   UNL     1      -9.952  18.942  67.276  1.00  0.00    -0.334 C  
HETATM   37  H   UNL     1     -11.487  20.156  67.619  1.00  0.00     0.000 HD 
HETATM   38  O   UNL     1     -11.284  19.427  67.044  1.00  0.00    -0.322 OA 
BRANCH  36  39
HETATM   39  C   UNL     1      -9.896  18.482  68.739  1.00  0.00    -0.376 C  
HETATM   40  O   UNL     1      -9.727  19.613  69.594  1.00  0.00    -0.204 OA 
HETATM   41  H   UNL     1      -9.693  19.328  70.500  1.00  0.00     0.000 HD 
ENDBRANCH  36  39
ENDBRANCH  35  36
ENDBRANCH  16  35
ENDBRANCH   2   7
TORSDOF 8
ENDMDL
MODEL      125
REMARK 921   NORMALIZED FREE ENERGY PREDICTED BY IDOCK:   -3.51 KCAL/MOL
REMARK 922        TOTAL FREE ENERGY PREDICTED BY IDOCK:   -6.06 KCAL/MOL
REMARK 923 INTER-LIGAND FREE ENERGY PREDICTED BY IDOCK:   -6.28 KCAL/MOL
REMARK 924 INTRA-LIGAND FREE ENERGY PREDICTED BY IDOCK:    0.22 KCAL/MOL
REMARK 927      BINDING AFFINITY PREDICTED BY RF-SCORE:    0.00 PKD
ROOT
HETATM    1  C   UNL     1     -10.350  20.122  68.750  1.00  0.00    -0.249 C  
HETATM    2  C   UNL     1      -9.917  19.481  67.400  1.00  0.00    -0.498 C  
HETATM    3  C   UNL     1     -11.177  19.489  66.512  1.00  0.00     0.059 C  
ENDROOT
BRANCH   2   4
HETATM    4  C   UNL     1      -8.815  20.397  66.789  1.00  0.00    -0.207 C  
HETATM    5  H   UNL     1      -7.622  20.466  65.184  1.00  0.00     0.000 HD 
HETATM    6  O   UNL     1      -8.293  19.907  65.556  1.00  0.00    -0.294 OA 
ENDBRANCH   2   4
BRANCH   2   7
HETATM    7  C   UNL     1      -9.430  18.035  67.634  1.00  0.00    -0.264 A  
HETATM    8  C   UNL     1     -10.031  16.873  67.173  1.00  0.00    -0.276 A  
HETATM    9  C   UNL     1      -9.333  15.755  67.664  1.00  0.00    -0.216 A  
HETATM   10  C   UNL     1      -9.544  14.367  67.531  1.00  0.00    -0.215 A  
HETATM   11  C   UNL     1      -8.687  13.461  68.158  1.00  0.00    -0.179 A  
HETATM   12  C   UNL     1      -7.634  13.966  68.926  1.00  0.00    -0.060 A  
HETATM   13  C   UNL     1      -8.269  16.228  68.424  1.00  0.00    -0.185 A  
HETATM   14  C   UNL     1      -7.402  15.335  69.081  1.00  0.00    -0.172 A  
HETATM   15  F   UNL     1      -6.800  13.102  69.537  1.00  0.00    -0.103 F  
HETATM   16  N   UNL     1      -8.307  17.619  68.352  1.00  0.00    -0.283 NA 
BRANCH  11  17
HETATM   17  N   UNL     1      -8.842  12.062  68.063  1.00  0.00    -0.173 N  
HETATM   18  H   UNL     1      -8.561  11.512  68.875  1.00  0.00     0.000 HD 
HETATM   19  C   UNL     1      -9.336  11.365  66.981  1.00  0.00    -0.174 C  
HETATM   20  O   UNL     1      -9.712  11.816  65.908  1.00  0.00    -0.227 OA 
BRANCH  19  21
HETATM   21  C   UNL     1      -9.432   9.874  67.206  1.00  0.00    -0.181 C  
HETATM   22  C   UNL     1     -10.775   9.285  67.622  1.00  0.00    -0.276 C  
HETATM   23  C   UNL     1      -9.696   9.439  68.647  1.00  0.00    -0.160 C  
BRANCH  21  24
HETATM   24  C   UNL     1      -8.455   9.048  66.370  1.00  0.00    -0.126 A  
HETATM   25  C   UNL     1      -6.982   5.832  63.609  1.00  0.00    -0.046 C  
HETATM   26  C   UNL     1      -7.244   9.631  65.908  1.00  0.00    -0.099 A  
HETATM   27  C   UNL     1      -8.762   7.746  65.932  1.00  0.00    -0.175 A  
HETATM   28  C   UNL     1      -6.394   8.978  65.008  1.00  0.00    -0.065 A  
HETATM   29  C   UNL     1      -6.767   7.725  64.582  1.00  0.00    -0.047 A  
HETATM   30  C   UNL     1      -7.912   7.121  65.044  1.00  0.00    -0.129 A  
HETATM   31  F   UNL     1      -7.443   5.719  62.339  1.00  0.00    -0.047 F  
HETATM   32  O   UNL     1      -8.109   5.891  64.495  1.00  0.00    -0.128 OA 
HETATM   33  F   UNL     1      -6.272   4.713  63.887  1.00  0.00    -0.020 F  
HETATM   34  O   UNL     1      -6.101   6.961  63.677  1.00  0.00    -0.041 OA 
ENDBRANCH  21  24
ENDBRANCH  19  21
ENDBRANCH  11  17
BRANCH  16  35
HETATM   35  C   UNL     1      -7.298  18.464  68.980  1.00  0.00    -0.208 C  
BRANCH  35  36
HETATM   36  C   UNL     1      -6.547  19.398  68.015  1.00  0.00    -0.235 C  
HETATM   37  H   UNL     1      -5.558  21.118  68.111  1.00  0.00     0.000 HD 
HETATM   38  O   UNL     1      -6.021  20.541  68.707  1.00  0.00    -0.296 OA 
BRANCH  36  39
HETATM   39  C   UNL     1      -5.348  18.659  67.405  1.00  0.00    -0.144 C  
HETATM   40  O   UNL     1      -5.717  18.094  66.147  1.00  0.00    -0.148 OA 
HETATM   41  H   UNL     1      -4.974  17.638  65.769  1.00  0.00     0.000 HD 
ENDBRANCH  36  39
ENDBRANCH  35  36
ENDBRANCH  16  35
ENDBRANCH   2   7
TORSDOF 8
ENDMDL
MODEL      126
REMARK 921   NORMALIZED FREE ENERGY PREDICTED BY IDOCK:   -3.45 KCAL/MOL
REMARK 922        TOTAL FREE ENERGY PREDICTED BY IDOCK:   -5.98 KCAL/MOL
REMARK 923 INTER-LIGAND FREE ENERGY PREDICTED BY IDOCK:   -6.38 KCAL/MOL
REMARK 924 INTRA-LIGAND FREE ENERGY PREDICTED BY IDOCK:    0.40 KCAL/MOL
REMARK 927      BINDING AFFINITY PREDICTED BY RF-SCORE:    0.00 PKD
ROOT
HETATM    1  C   UNL     1      -7.427  20.451  70.071  1.00  0.00     0.843 C  
HETATM    2  C   UNL     1      -6.567  19.749  68.982  1.00  0.00    -0.368 C  
HETATM    3  C   UNL     1      -6.334  20.811  67.887  1.00  0.00    -0.374 C  
ENDROOT
BRANCH   2   4
HETATM    4  C   UNL     1      -5.217  19.351  69.649  1.00  0.00    -0.196 C  
HETATM    5  H   UNL     1      -4.552  18.535  71.351  1.00  0.00     0.000 HD 
HETATM    6  O   UNL     1      -5.375  18.778  70.944  1.00  0.00    -0.241 OA 
ENDBRANCH   2   4
BRANCH   2   7
HETATM    7  C   UNL     1      -7.330  18.537  68.405  1.00  0.00    -0.283 A  
HETATM    8  C   UNL     1      -7.635  17.358  69.069  1.00  0.00    -0.169 A  
HETATM    9  C   UNL     1      -8.265  16.468  68.181  1.00  0.00    -0.181 A  
HETATM   10  C   UNL     1      -8.735  15.147  68.332  1.00  0.00    -0.169 A  
HETATM   11  C   UNL     1      -9.312  14.477  67.252  1.00  0.00    -0.210 A  
HETATM   12  C   UNL     1      -9.395  15.142  66.025  1.00  0.00    -0.291 A  
HETATM   13  C   UNL     1      -8.372  17.109  66.952  1.00  0.00    -0.224 A  
HETATM   14  C   UNL     1      -8.932  16.449  65.843  1.00  0.00    -0.194 A  
HETATM   15  F   UNL     1      -9.949  14.507  64.975  1.00  0.00    -0.392 F  
HETATM   16  N   UNL     1      -7.848  18.390  67.117  1.00  0.00    -0.226 NA 
BRANCH  11  17
HETATM   17  N   UNL     1      -9.804  13.157  67.337  1.00  0.00    -0.222 N  
HETATM   18  H   UNL     1     -10.769  13.006  67.042  1.00  0.00     0.000 HD 
HETATM   19  C   UNL     1      -9.108  12.052  67.778  1.00  0.00    -0.187 C  
HETATM   20  O   UNL     1      -7.958  12.006  68.190  1.00  0.00    -0.135 OA 
BRANCH  19  21
HETATM   21  C   UNL     1      -9.893  10.763  67.697  1.00  0.00    -0.193 C  
HETATM   22  C   UNL     1     -11.413  10.828  67.791  1.00  0.00    -0.283 C  
HETATM   23  C   UNL     1     -10.628  10.356  68.973  1.00  0.00    -0.247 C  
BRANCH  21  24
HETATM   24  C   UNL     1      -9.219   9.668  66.871  1.00  0.00    -0.172 A  
HETATM   25  C   UNL     1      -7.909   5.557  65.636  1.00  0.00    -0.101 C  
HETATM   26  C   UNL     1      -8.956   9.879  65.490  1.00  0.00    -0.209 A  
HETATM   27  C   UNL     1      -8.948   8.393  67.401  1.00  0.00    -0.143 A  
HETATM   28  C   UNL     1      -8.494   8.858  64.651  1.00  0.00    -0.185 A  
HETATM   29  C   UNL     1      -8.287   7.621  65.216  1.00  0.00    -0.115 A  
HETATM   30  C   UNL     1      -8.494   7.400  66.557  1.00  0.00    -0.128 A  
HETATM   31  F   UNL     1      -8.806   4.583  65.344  1.00  0.00    -0.121 F  
HETATM   32  O   UNL     1      -8.244   6.112  66.917  1.00  0.00    -0.105 OA 
HETATM   33  F   UNL     1      -6.688   4.977  65.723  1.00  0.00    -0.047 F  
HETATM   34  O   UNL     1      -7.891   6.501  64.556  1.00  0.00    -0.103 OA 
ENDBRANCH  21  24
ENDBRANCH  19  21
ENDBRANCH  11  17
BRANCH  16  35
HETATM   35  C   UNL     1      -7.852  19.381  66.048  1.00  0.00    -0.281 C  
BRANCH  35  36
HETATM   36  C   UNL     1      -6.540  19.474  65.250  1.00  0.00    -0.275 C  
HETATM   37  H   UNL     1      -5.505  18.335  63.993  1.00  0.00     0.000 HD 
HETATM   38  O   UNL     1      -6.315  18.278  64.486  1.00  0.00    -0.083 OA 
BRANCH  36  39
HETATM   39  C   UNL     1      -6.623  20.632  64.247  1.00  0.00    -0.169 C  
HETATM   40  O   UNL     1      -5.324  21.192  64.047  1.00  0.00    -0.201 OA 
HETATM   41  H   UNL     1      -5.376  21.909  63.426  1.00  0.00     0.000 HD 
ENDBRANCH  36  39
ENDBRANCH  35  36
ENDBRANCH  16  35
ENDBRANCH   2   7
TORSDOF 8
ENDMDL
MODEL      127
REMARK 921   NORMALIZED FREE ENERGY PREDICTED BY IDOCK:   -3.41 KCAL/MOL
REMARK 922        TOTAL FREE ENERGY PREDICTED BY IDOCK:   -5.92 KCAL/MOL
REMARK 923 INTER-LIGAND FREE ENERGY PREDICTED BY IDOCK:   -5.68 KCAL/MOL
REMARK 924 INTRA-LIGAND FREE ENERGY PREDICTED BY IDOCK:   -0.23 KCAL/MOL
REMARK 927      BINDING AFFINITY PREDICTED BY RF-SCORE:    0.00 PKD
ROOT
HETATM    1  C   UNL     1      -9.752   5.570  65.559  1.00  0.00     0.158 C  
HETATM    2  C   UNL     1      -8.382   5.381  66.270  1.00  0.00    -0.115 C  
HETATM    3  C   UNL     1      -8.550   4.143  67.175  1.00  0.00    -0.105 C  
ENDROOT
BRANCH   2   4
HETATM    4  C   UNL     1      -7.323   5.105  65.162  1.00  0.00    -0.068 C  
HETATM    5  H   UNL     1      -7.235   4.881  63.175  1.00  0.00     0.000 HD 
HETATM    6  O   UNL     1      -7.881   5.049  63.851  1.00  0.00    -0.077 OA 
ENDBRANCH   2   4
BRANCH   2   7
HETATM    7  C   UNL     1      -8.049   6.628  67.117  1.00  0.00    -0.113 A  
HETATM    8  C   UNL     1      -8.232   7.953  66.749  1.00  0.00    -0.116 A  
HETATM    9  C   UNL     1      -7.733   8.794  67.759  1.00  0.00    -0.102 A  
HETATM   10  C   UNL     1      -7.637  10.197  67.867  1.00  0.00    -0.089 A  
HETATM   11  C   UNL     1      -7.062  10.779  68.998  1.00  0.00    -0.091 A  
HETATM   12  C   UNL     1      -6.575   9.937  70.003  1.00  0.00    -0.091 A  
HETATM   13  C   UNL     1      -7.251   7.983  68.779  1.00  0.00    -0.083 A  
HETATM   14  C   UNL     1      -6.650   8.544  69.922  1.00  0.00    -0.042 A  
HETATM   15  F   UNL     1      -6.018  10.486  71.099  1.00  0.00    -0.087 F  
HETATM   16  N   UNL     1      -7.501   6.666  68.401  1.00  0.00    -0.093 NA 
BRANCH  11  17
HETATM   17  N   UNL     1      -6.939  12.174  69.170  1.00  0.00    -0.223 N  
HETATM   18  H   UNL     1      -7.263  12.559  70.057  1.00  0.00     0.000 HD 
HETATM   19  C   UNL     1      -6.423  13.068  68.256  1.00  0.00    -0.093 C  
HETATM   20  O   UNL     1      -5.996  12.830  67.135  1.00  0.00    -0.311 OA 
BRANCH  19  21
HETATM   21  C   UNL     1      -6.372  14.493  68.756  1.00  0.00    -0.088 C  
HETATM   22  C   UNL     1      -5.167  14.934  69.579  1.00  0.00    -0.088 C  
HETATM   23  C   UNL     1      -6.465  14.664  70.272  1.00  0.00    -0.149 C  
BRANCH  21  24
HETATM   24  C   UNL     1      -7.107  15.497  67.869  1.00  0.00    -0.155 A  
HETATM   25  C   UNL     1     -10.419  18.134  66.380  1.00  0.00    -0.350 C  
HETATM   26  C   UNL     1      -6.371  16.429  67.088  1.00  0.00    -0.215 A  
HETATM   27  C   UNL     1      -8.509  15.618  67.882  1.00  0.00    -0.153 A  
HETATM   28  C   UNL     1      -6.988  17.472  66.388  1.00  0.00    -0.315 A  
HETATM   29  C   UNL     1      -8.358  17.566  66.471  1.00  0.00    -0.270 A  
HETATM   30  C   UNL     1      -9.098  16.654  67.186  1.00  0.00    -0.214 A  
HETATM   31  F   UNL     1     -10.928  19.134  67.141  1.00  0.00    -0.510 F  
HETATM   32  O   UNL     1     -10.430  16.926  67.154  1.00  0.00    -0.318 OA 
HETATM   33  F   UNL     1     -11.238  17.973  65.314  1.00  0.00    -0.206 F  
HETATM   34  O   UNL     1      -9.125  18.534  65.905  1.00  0.00    -0.477 OA 
ENDBRANCH  21  24
ENDBRANCH  19  21
ENDBRANCH  11  17
BRANCH  16  35
HETATM   35  C   UNL     1      -7.188   5.530  69.261  1.00  0.00    -0.065 C  
BRANCH  35  36
HETATM   36  C   UNL     1      -7.917   5.527  70.615  1.00  0.00    -0.103 C  
HETATM   37  H   UNL     1      -9.495   4.634  71.429  1.00  0.00     0.000 HD 
HETATM   38  O   UNL     1      -9.044   4.636  70.593  1.00  0.00    -0.118 OA 
BRANCH  36  39
HETATM   39  C   UNL     1      -6.972   5.018  71.712  1.00  0.00    -0.057 C  
HETATM   40  O   UNL     1      -7.579   5.197  72.993  1.00  0.00    -0.093 OA 
HETATM   41  H   UNL     1      -6.994   4.882  73.672  1.00  0.00     0.000 HD 
ENDBRANCH  36  39
ENDBRANCH  35  36
ENDBRANCH  16  35
ENDBRANCH   2   7
TORSDOF 8
ENDMDL
MODEL      128
REMARK 921   NORMALIZED FREE ENERGY PREDICTED BY IDOCK:   -3.40 KCAL/MOL
REMARK 922        TOTAL FREE ENERGY PREDICTED BY IDOCK:   -5.90 KCAL/MOL
REMARK 923 INTER-LIGAND FREE ENERGY PREDICTED BY IDOCK:   -6.14 KCAL/MOL
REMARK 924 INTRA-LIGAND FREE ENERGY PREDICTED BY IDOCK:    0.24 KCAL/MOL
REMARK 927      BINDING AFFINITY PREDICTED BY RF-SCORE:    0.00 PKD
ROOT
HETATM    1  C   UNL     1     -11.088  17.343  67.887  1.00  0.00    -0.014 C  
HETATM    2  C   UNL     1     -10.117  16.995  66.722  1.00  0.00    -0.300 C  
HETATM    3  C   UNL     1     -10.961  17.089  65.435  1.00  0.00     0.004 C  
ENDROOT
BRANCH   2   4
HETATM    4  C   UNL     1      -8.997  18.077  66.719  1.00  0.00    -0.269 C  
HETATM    5  H   UNL     1      -7.993  19.221  68.019  1.00  0.00     0.000 HD 
HETATM    6  O   UNL     1      -8.677  18.561  68.021  1.00  0.00    -0.281 OA 
ENDBRANCH   2   4
BRANCH   2   7
HETATM    7  C   UNL     1      -9.566  15.564  66.904  1.00  0.00    -0.228 A  
HETATM    8  C   UNL     1     -10.308  14.397  67.005  1.00  0.00    -0.263 A  
HETATM    9  C   UNL     1      -9.447  13.311  67.244  1.00  0.00    -0.233 A  
HETATM   10  C   UNL     1      -9.683  11.938  67.460  1.00  0.00    -0.185 A  
HETATM   11  C   UNL     1      -8.618  11.069  67.700  1.00  0.00    -0.125 A  
HETATM   12  C   UNL     1      -7.324  11.597  67.735  1.00  0.00    -0.106 A  
HETATM   13  C   UNL     1      -8.148  13.807  67.272  1.00  0.00    -0.139 A  
HETATM   14  C   UNL     1      -7.058  12.954  67.530  1.00  0.00    -0.153 A  
HETATM   15  F   UNL     1      -6.288  10.769  67.966  1.00  0.00    -0.056 F  
HETATM   16  N   UNL     1      -8.230  15.172  67.008  1.00  0.00    -0.220 NA 
BRANCH  11  17
HETATM   17  N   UNL     1      -8.787   9.686  67.922  1.00  0.00    -0.119 N  
HETATM   18  H   UNL     1      -8.185   9.255  68.625  1.00  0.00     0.000 HD 
HETATM   19  C   UNL     1      -9.685   8.858  67.283  1.00  0.00    -0.181 C  
HETATM   20  O   UNL     1     -10.483   9.155  66.404  1.00  0.00    -0.213 OA 
BRANCH  19  21
HETATM   21  C   UNL     1      -9.665   7.432  67.781  1.00  0.00    -0.171 C  
HETATM   22  C   UNL     1      -9.602   6.303  66.759  1.00  0.00    -0.183 C  
HETATM   23  C   UNL     1     -10.899   6.597  67.444  1.00  0.00    -0.434 C  
BRANCH  21  24
HETATM   24  C   UNL     1      -9.029   7.257  69.161  1.00  0.00    -0.135 A  
HETATM   25  C   UNL     1      -8.729   6.959  73.628  1.00  0.00    -0.138 C  
HETATM   26  C   UNL     1      -7.806   6.547  69.295  1.00  0.00    -0.110 A  
HETATM   27  C   UNL     1      -9.675   7.677  70.338  1.00  0.00    -0.179 A  
HETATM   28  C   UNL     1      -7.266   6.216  70.543  1.00  0.00    -0.083 A  
HETATM   29  C   UNL     1      -7.962   6.617  71.660  1.00  0.00    -0.103 A  
HETATM   30  C   UNL     1      -9.126   7.340  71.558  1.00  0.00    -0.140 A  
HETATM   31  F   UNL     1      -9.391   6.002  74.323  1.00  0.00    -0.124 F  
HETATM   32  O   UNL     1      -9.666   7.629  72.774  1.00  0.00    -0.168 OA 
HETATM   33  F   UNL     1      -8.244   7.852  74.523  1.00  0.00    -0.223 F  
HETATM   34  O   UNL     1      -7.623   6.348  72.948  1.00  0.00    -0.094 OA 
ENDBRANCH  21  24
ENDBRANCH  19  21
ENDBRANCH  11  17
BRANCH  16  35
HETATM   35  C   UNL     1      -7.049  16.020  66.892  1.00  0.00    -0.147 C  
BRANCH  35  36
HETATM   36  C   UNL     1      -6.191  16.108  68.165  1.00  0.00    -0.117 C  
HETATM   37  H   UNL     1      -4.953  17.412  69.013  1.00  0.00     0.000 HD 
HETATM   38  O   UNL     1      -5.484  17.357  68.226  1.00  0.00    -0.140 OA 
BRANCH  36  39
HETATM   39  C   UNL     1      -7.093  16.049  69.405  1.00  0.00    -0.217 C  
HETATM   40  O   UNL     1      -6.656  15.001  70.271  1.00  0.00    -0.153 OA 
HETATM   41  H   UNL     1      -7.215  14.965  71.039  1.00  0.00     0.000 HD 
ENDBRANCH  36  39
ENDBRANCH  35  36
ENDBRANCH  16  35
ENDBRANCH   2   7
TORSDOF 8
ENDMDL
MODEL      129
REMARK 921   NORMALIZED FREE ENERGY PREDICTED BY IDOCK:   -3.36 KCAL/MOL
REMARK 922        TOTAL FREE ENERGY PREDICTED BY IDOCK:   -5.85 KCAL/MOL
REMARK 923 INTER-LIGAND FREE ENERGY PREDICTED BY IDOCK:   -6.41 KCAL/MOL
REMARK 924 INTRA-LIGAND FREE ENERGY PREDICTED BY IDOCK:    0.57 KCAL/MOL
REMARK 927      BINDING AFFINITY PREDICTED BY RF-SCORE:    0.00 PKD
ROOT
HETATM    1  C   UNL     1      -5.542  17.898  66.699  1.00  0.00    -0.197 C  
HETATM    2  C   UNL     1      -6.280  17.484  68.005  1.00  0.00    -0.153 C  
HETATM    3  C   UNL     1      -5.171  17.216  69.043  1.00  0.00    -0.147 C  
ENDROOT
BRANCH   2   4
HETATM    4  C   UNL     1      -7.153  18.696  68.443  1.00  0.00    -0.272 C  
HETATM    5  H   UNL     1      -7.332  19.953  69.991  1.00  0.00     0.000 HD 
HETATM    6  O   UNL     1      -6.799  19.213  69.724  1.00  0.00    -0.186 OA 
ENDBRANCH   2   4
BRANCH   2   7
HETATM    7  C   UNL     1      -7.111  16.206  67.760  1.00  0.00    -0.138 A  
HETATM    8  C   UNL     1      -6.929  14.970  68.363  1.00  0.00    -0.109 A  
HETATM    9  C   UNL     1      -7.832  14.042  67.817  1.00  0.00    -0.176 A  
HETATM   10  C   UNL     1      -8.037  12.665  68.044  1.00  0.00    -0.161 A  
HETATM   11  C   UNL     1      -9.012  11.971  67.328  1.00  0.00    -0.180 A  
HETATM   12  C   UNL     1      -9.763  12.669  66.378  1.00  0.00    -0.258 A  
HETATM   13  C   UNL     1      -8.603  14.714  66.875  1.00  0.00    -0.204 A  
HETATM   14  C   UNL     1      -9.580  14.032  66.126  1.00  0.00    -0.263 A  
HETATM   15  F   UNL     1     -10.708  12.011  65.680  1.00  0.00    -0.275 F  
HETATM   16  N   UNL     1      -8.190  16.045  66.890  1.00  0.00    -0.216 NA 
BRANCH  11  17
HETATM   17  N   UNL     1      -9.268  10.595  67.509  1.00  0.00    -0.143 N  
HETATM   18  H   UNL     1     -10.240  10.294  67.434  1.00  0.00     0.000 HD 
HETATM   19  C   UNL     1      -8.334   9.617  67.777  1.00  0.00    -0.121 C  
HETATM   20  O   UNL     1      -7.127   9.755  67.923  1.00  0.00    -0.081 OA 
BRANCH  19  21
HETATM   21  C   UNL     1      -8.913   8.224  67.861  1.00  0.00    -0.134 C  
HETATM   22  C   UNL     1      -8.715   7.280  66.681  1.00  0.00    -0.136 C  
HETATM   23  C   UNL     1     -10.050   7.922  66.886  1.00  0.00    -0.362 C  
BRANCH  21  24
HETATM   24  C   UNL     1      -9.013   7.670  69.282  1.00  0.00    -0.135 A  
HETATM   25  C   UNL     1      -8.432   7.394  73.723  1.00  0.00    -0.175 C  
HETATM   26  C   UNL     1     -10.088   6.809  69.635  1.00  0.00    -0.197 A  
HETATM   27  C   UNL     1      -8.137   8.075  70.305  1.00  0.00    -0.113 A  
HETATM   28  C   UNL     1     -10.321   6.405  70.955  1.00  0.00    -0.246 A  
HETATM   29  C   UNL     1      -9.455   6.866  71.919  1.00  0.00    -0.141 A  
HETATM   30  C   UNL     1      -8.385   7.667  71.599  1.00  0.00    -0.108 A  
HETATM   31  F   UNL     1      -8.892   8.355  74.561  1.00  0.00    -0.108 F  
HETATM   32  O   UNL     1      -7.658   8.024  72.692  1.00  0.00    -0.100 OA 
HETATM   33  F   UNL     1      -7.619   6.581  74.439  1.00  0.00    -0.098 F  
HETATM   34  O   UNL     1      -9.548   6.625  73.253  1.00  0.00    -0.148 OA 
ENDBRANCH  21  24
ENDBRANCH  19  21
ENDBRANCH  11  17
BRANCH  16  35
HETATM   35  C   UNL     1      -8.824  17.071  66.070  1.00  0.00    -0.135 C  
BRANCH  35  36
HETATM   36  C   UNL     1      -9.268  18.327  66.839  1.00  0.00    -0.282 C  
HETATM   37  H   UNL     1      -9.376  20.285  66.514  1.00  0.00     0.000 HD 
HETATM   38  O   UNL     1      -9.102  19.508  66.039  1.00  0.00    -0.386 OA 
BRANCH  36  39
HETATM   39  C   UNL     1     -10.762  18.229  67.177  1.00  0.00    -0.305 C  
HETATM   40  O   UNL     1     -11.261  16.947  66.792  1.00  0.00     0.173 OA 
HETATM   41  H   UNL     1     -12.186  16.886  67.002  1.00  0.00     0.000 HD 
ENDBRANCH  36  39
ENDBRANCH  35  36
ENDBRANCH  16  35
ENDBRANCH   2   7
TORSDOF 8
ENDMDL
MODEL      130
REMARK 921   NORMALIZED FREE ENERGY PREDICTED BY IDOCK:   -3.15 KCAL/MOL
REMARK 922        TOTAL FREE ENERGY PREDICTED BY IDOCK:   -5.54 KCAL/MOL
REMARK 923 INTER-LIGAND FREE ENERGY PREDICTED BY IDOCK:   -5.12 KCAL/MOL
REMARK 924 INTRA-LIGAND FREE ENERGY PREDICTED BY IDOCK:   -0.42 KCAL/MOL
REMARK 927      BINDING AFFINITY PREDICTED BY RF-SCORE:    0.00 PKD
ROOT
HETATM    1  C   UNL     1     -11.303  15.849  70.151  1.00  0.00    -0.369 C  
HETATM    2  C   UNL     1     -11.176  15.522  68.636  1.00  0.00    -0.326 C  
HETATM    3  C   UNL     1     -12.577  15.058  68.191  1.00  0.00     0.757 C  
ENDROOT
BRANCH   2   4
HETATM    4  C   UNL     1     -10.785  16.845  67.912  1.00  0.00    -0.344 C  
HETATM    5  H   UNL     1     -10.258  18.721  68.367  1.00  0.00     0.000 HD 
HETATM    6  O   UNL     1     -10.496  17.915  68.808  1.00  0.00    -0.335 OA 
ENDBRANCH   2   4
BRANCH   2   7
HETATM    7  C   UNL     1     -10.141  14.396  68.424  1.00  0.00    -0.244 A  
HETATM    8  C   UNL     1     -10.395  13.034  68.380  1.00  0.00    -0.257 A  
HETATM    9  C   UNL     1      -9.183  12.333  68.251  1.00  0.00    -0.189 A  
HETATM   10  C   UNL     1      -8.880  10.956  68.200  1.00  0.00    -0.137 A  
HETATM   11  C   UNL     1      -7.556  10.530  68.090  1.00  0.00    -0.091 A  
HETATM   12  C   UNL     1      -6.548  11.498  68.047  1.00  0.00    -0.058 A  
HETATM   13  C   UNL     1      -8.161  13.273  68.194  1.00  0.00    -0.159 A  
HETATM   14  C   UNL     1      -6.816  12.868  68.101  1.00  0.00    -0.097 A  
HETATM   15  F   UNL     1      -5.266  11.099  67.940  1.00  0.00    -0.040 F  
HETATM   16  N   UNL     1      -8.762  14.528  68.244  1.00  0.00    -0.167 NA 
BRANCH  11  17
HETATM   17  N   UNL     1      -7.187   9.169  68.032  1.00  0.00    -0.079 N  
HETATM   18  H   UNL     1      -7.147   8.665  68.918  1.00  0.00     0.000 HD 
HETATM   19  C   UNL     1      -6.874   8.454  66.896  1.00  0.00    -0.069 C  
HETATM   20  O   UNL     1      -6.841   8.858  65.742  1.00  0.00    -0.071 OA 
BRANCH  19  21
HETATM   21  C   UNL     1      -6.573   6.996  67.154  1.00  0.00    -0.055 C  
HETATM   22  C   UNL     1      -5.336   6.381  66.509  1.00  0.00    -0.013 C  
HETATM   23  C   UNL     1      -6.686   6.073  65.942  1.00  0.00    -0.052 C  
BRANCH  21  24
HETATM   24  C   UNL     1      -7.074   6.481  68.504  1.00  0.00    -0.083 A  
HETATM   25  C   UNL     1      -9.710   4.394  71.475  1.00  0.00    -0.174 C  
HETATM   26  C   UNL     1      -6.158   6.281  69.573  1.00  0.00    -0.029 A  
HETATM   27  C   UNL     1      -8.407   6.078  68.701  1.00  0.00    -0.113 A  
HETATM   28  C   UNL     1      -6.531   5.660  70.770  1.00  0.00    -0.035 A  
HETATM   29  C   UNL     1      -7.838   5.249  70.891  1.00  0.00    -0.098 A  
HETATM   30  C   UNL     1      -8.753   5.467  69.888  1.00  0.00    -0.123 A  
HETATM   31  F   UNL     1      -9.952   3.062  71.399  1.00  0.00    -0.229 F  
HETATM   32  O   UNL     1      -9.986   4.979  70.195  1.00  0.00    -0.216 OA 
HETATM   33  F   UNL     1     -10.569   4.914  72.383  1.00  0.00    -0.245 F  
HETATM   34  O   UNL     1      -8.370   4.588  71.951  1.00  0.00    -0.104 OA 
ENDBRANCH  21  24
ENDBRANCH  19  21
ENDBRANCH  11  17
BRANCH  16  35
HETATM   35  C   UNL     1      -8.000  15.767  68.140  1.00  0.00    -0.135 C  
BRANCH  35  36
HETATM   36  C   UNL     1      -7.509  16.106  66.722  1.00  0.00    -0.211 C  
HETATM   37  H   UNL     1      -8.303  16.661  64.988  1.00  0.00     0.000 HD 
HETATM   38  O   UNL     1      -8.607  16.452  65.864  1.00  0.00    -0.407 OA 
BRANCH  36  39
HETATM   39  C   UNL     1      -6.582  17.328  66.771  1.00  0.00    -0.212 C  
HETATM   40  O   UNL     1      -5.368  17.043  66.076  1.00  0.00    -0.314 OA 
HETATM   41  H   UNL     1      -4.795  17.800  66.106  1.00  0.00     0.000 HD 
ENDBRANCH  36  39
ENDBRANCH  35  36
ENDBRANCH  16  35
ENDBRANCH   2   7
TORSDOF 8
ENDMDL
MODEL      131
REMARK 921   NORMALIZED FREE ENERGY PREDICTED BY IDOCK:   -3.09 KCAL/MOL
REMARK 922        TOTAL FREE ENERGY PREDICTED BY IDOCK:   -5.45 KCAL/MOL
REMARK 923 INTER-LIGAND FREE ENERGY PREDICTED BY IDOCK:   -4.78 KCAL/MOL
REMARK 924 INTRA-LIGAND FREE ENERGY PREDICTED BY IDOCK:   -0.67 KCAL/MOL
REMARK 927      BINDING AFFINITY PREDICTED BY RF-SCORE:    0.00 PKD
ROOT
HETATM    1  C   UNL     1     -10.319  18.870  70.531  1.00  0.00     1.766 C  
HETATM    2  C   UNL     1      -9.636  18.885  69.133  1.00  0.00    -0.237 C  
HETATM    3  C   UNL     1     -10.534  19.766  68.241  1.00  0.00    -0.449 C  
ENDROOT
BRANCH   2   4
HETATM    4  C   UNL     1      -8.236  19.542  69.314  1.00  0.00    -0.006 C  
HETATM    5  H   UNL     1      -6.316  18.998  69.470  1.00  0.00     0.000 HD 
HETATM    6  O   UNL     1      -7.170  18.597  69.360  1.00  0.00    -0.184 OA 
ENDBRANCH   2   4
BRANCH   2   7
HETATM    7  C   UNL     1      -9.555  17.450  68.570  1.00  0.00    -0.298 A  
HETATM    8  C   UNL     1      -9.783  16.272  69.265  1.00  0.00    -0.238 A  
HETATM    9  C   UNL     1      -9.531  15.173  68.425  1.00  0.00    -0.208 A  
HETATM   10  C   UNL     1      -9.573  13.780  68.641  1.00  0.00    -0.121 A  
HETATM   11  C   UNL     1      -9.245  12.898  67.611  1.00  0.00    -0.193 A  
HETATM   12  C   UNL     1      -8.864  13.430  66.375  1.00  0.00     0.128 A  
HETATM   13  C   UNL     1      -9.161  15.674  67.182  1.00  0.00    -0.210 A  
HETATM   14  C   UNL     1      -8.808  14.805  66.132  1.00  0.00     0.077 A  
HETATM   15  F   UNL     1      -8.545  12.589  65.373  1.00  0.00     0.495 F  
HETATM   16  N   UNL     1      -9.233  17.063  67.267  1.00  0.00    -0.219 NA 
BRANCH  11  17
HETATM   17  N   UNL     1      -9.269  11.495  67.761  1.00  0.00    -0.161 N  
HETATM   18  H   UNL     1      -8.367  11.028  67.861  1.00  0.00     0.000 HD 
HETATM   19  C   UNL     1     -10.390  10.693  67.787  1.00  0.00    -0.204 C  
HETATM   20  O   UNL     1     -11.558  11.036  67.669  1.00  0.00    -0.526 OA 
BRANCH  19  21
HETATM   21  C   UNL     1     -10.091   9.231  68.019  1.00  0.00    -0.234 C  
HETATM   22  C   UNL     1      -9.422   8.437  66.903  1.00  0.00    -0.239 C  
HETATM   23  C   UNL     1     -10.884   8.249  67.158  1.00  0.00    -0.095 C  
BRANCH  21  24
HETATM   24  C   UNL     1      -9.838   8.866  69.482  1.00  0.00    -0.180 A  
HETATM   25  C   UNL     1     -10.034   6.541  73.315  1.00  0.00    -0.185 C  
HETATM   26  C   UNL     1      -8.682   9.358  70.148  1.00  0.00    -0.245 A  
HETATM   27  C   UNL     1     -10.653   7.953  70.176  1.00  0.00    -0.237 A  
HETATM   28  C   UNL     1      -8.316   8.927  71.428  1.00  0.00    -0.195 A  
HETATM   29  C   UNL     1      -9.128   8.002  72.041  1.00  0.00    -0.160 A  
HETATM   30  C   UNL     1     -10.273   7.540  71.436  1.00  0.00    -0.186 A  
HETATM   31  F   UNL     1      -9.572   5.269  73.400  1.00  0.00    -0.139 F  
HETATM   32  O   UNL     1     -10.931   6.624  72.198  1.00  0.00    -0.229 OA 
HETATM   33  F   UNL     1     -10.728   6.800  74.448  1.00  0.00    -0.316 F  
HETATM   34  O   UNL     1      -8.910   7.432  73.255  1.00  0.00    -0.133 OA 
ENDBRANCH  21  24
ENDBRANCH  19  21
ENDBRANCH  11  17
BRANCH  16  35
HETATM   35  C   UNL     1      -8.974  17.933  66.126  1.00  0.00    -0.095 C  
BRANCH  35  36
HETATM   36  C   UNL     1      -7.597  18.618  66.136  1.00  0.00    -0.246 C  
HETATM   37  H   UNL     1      -5.881  18.477  65.146  1.00  0.00     0.000 HD 
HETATM   38  O   UNL     1      -6.731  18.053  65.139  1.00  0.00    -0.336 OA 
BRANCH  36  39
HETATM   39  C   UNL     1      -7.755  20.106  65.794  1.00  0.00    -0.179 C  
HETATM   40  O   UNL     1      -9.102  20.371  65.402  1.00  0.00    -0.368 OA 
HETATM   41  H   UNL     1      -9.200  21.293  65.190  1.00  0.00     0.000 HD 
ENDBRANCH  36  39
ENDBRANCH  35  36
ENDBRANCH  16  35
ENDBRANCH   2   7
TORSDOF 8
ENDMDL
MODEL      132
REMARK 921   NORMALIZED FREE ENERGY PREDICTED BY IDOCK:   -3.07 KCAL/MOL
REMARK 922        TOTAL FREE ENERGY PREDICTED BY IDOCK:   -5.43 KCAL/MOL
REMARK 923 INTER-LIGAND FREE ENERGY PREDICTED BY IDOCK:   -6.24 KCAL/MOL
REMARK 924 INTRA-LIGAND FREE ENERGY PREDICTED BY IDOCK:    0.82 KCAL/MOL
REMARK 927      BINDING AFFINITY PREDICTED BY RF-SCORE:    0.00 PKD
ROOT
HETATM    1  C   UNL     1      -7.427  20.451  70.071  1.00  0.00     0.843 C  
HETATM    2  C   UNL     1      -6.567  19.749  68.982  1.00  0.00    -0.368 C  
HETATM    3  C   UNL     1      -6.334  20.811  67.887  1.00  0.00    -0.374 C  
ENDROOT
BRANCH   2   4
HETATM    4  C   UNL     1      -5.217  19.351  69.649  1.00  0.00    -0.196 C  
HETATM    5  H   UNL     1      -4.552  18.535  71.351  1.00  0.00     0.000 HD 
HETATM    6  O   UNL     1      -5.375  18.778  70.944  1.00  0.00    -0.241 OA 
ENDBRANCH   2   4
BRANCH   2   7
HETATM    7  C   UNL     1      -7.330  18.537  68.405  1.00  0.00    -0.283 A  
HETATM    8  C   UNL     1      -7.635  17.358  69.069  1.00  0.00    -0.169 A  
HETATM    9  C   UNL     1      -8.265  16.468  68.181  1.00  0.00    -0.181 A  
HETATM   10  C   UNL     1      -8.735  15.147  68.332  1.00  0.00    -0.169 A  
HETATM   11  C   UNL     1      -9.312  14.477  67.252  1.00  0.00    -0.210 A  
HETATM   12  C   UNL     1      -9.395  15.142  66.025  1.00  0.00    -0.291 A  
HETATM   13  C   UNL     1      -8.372  17.109  66.952  1.00  0.00    -0.224 A  
HETATM   14  C   UNL     1      -8.932  16.449  65.843  1.00  0.00    -0.194 A  
HETATM   15  F   UNL     1      -9.949  14.507  64.975  1.00  0.00    -0.392 F  
HETATM   16  N   UNL     1      -7.848  18.390  67.117  1.00  0.00    -0.226 NA 
BRANCH  11  17
HETATM   17  N   UNL     1      -9.804  13.157  67.337  1.00  0.00    -0.222 N  
HETATM   18  H   UNL     1     -10.769  13.006  67.042  1.00  0.00     0.000 HD 
HETATM   19  C   UNL     1      -9.108  12.052  67.778  1.00  0.00    -0.187 C  
HETATM   20  O   UNL     1      -7.958  12.006  68.190  1.00  0.00    -0.135 OA 
BRANCH  19  21
HETATM   21  C   UNL     1      -9.893  10.763  67.697  1.00  0.00    -0.193 C  
HETATM   22  C   UNL     1     -10.916  10.602  66.579  1.00  0.00    -0.098 C  
HETATM   23  C   UNL     1     -11.392  10.884  67.969  1.00  0.00    -0.382 C  
BRANCH  21  24
HETATM   24  C   UNL     1      -9.155   9.542  68.247  1.00  0.00    -0.127 A  
HETATM   25  C   UNL     1      -8.515   5.629  70.348  1.00  0.00    -0.127 C  
HETATM   26  C   UNL     1      -7.935   9.121  67.652  1.00  0.00    -0.100 A  
HETATM   27  C   UNL     1      -9.702   8.735  69.261  1.00  0.00    -0.172 A  
HETATM   28  C   UNL     1      -7.305   7.922  68.006  1.00  0.00    -0.096 A  
HETATM   29  C   UNL     1      -7.907   7.153  68.974  1.00  0.00    -0.114 A  
HETATM   30  C   UNL     1      -9.066   7.557  69.594  1.00  0.00    -0.140 A  
HETATM   31  F   UNL     1      -9.136   4.494  69.942  1.00  0.00    -0.117 F  
HETATM   32  O   UNL     1      -9.507   6.654  70.512  1.00  0.00    -0.165 OA 
HETATM   33  F   UNL     1      -7.950   5.378  71.553  1.00  0.00    -0.103 F  
HETATM   34  O   UNL     1      -7.474   5.941  69.411  1.00  0.00    -0.083 OA 
ENDBRANCH  21  24
ENDBRANCH  19  21
ENDBRANCH  11  17
BRANCH  16  35
HETATM   35  C   UNL     1      -7.852  19.381  66.048  1.00  0.00    -0.281 C  
BRANCH  35  36
HETATM   36  C   UNL     1      -6.540  19.474  65.250  1.00  0.00    -0.275 C  
HETATM   37  H   UNL     1      -5.505  18.335  63.993  1.00  0.00     0.000 HD 
HETATM   38  O   UNL     1      -6.315  18.278  64.486  1.00  0.00    -0.083 OA 
BRANCH  36  39
HETATM   39  C   UNL     1      -6.623  20.632  64.247  1.00  0.00    -0.169 C  
HETATM   40  O   UNL     1      -5.324  21.192  64.047  1.00  0.00    -0.201 OA 
HETATM   41  H   UNL     1      -5.376  21.909  63.426  1.00  0.00     0.000 HD 
ENDBRANCH  36  39
ENDBRANCH  35  36
ENDBRANCH  16  35
ENDBRANCH   2   7
TORSDOF 8
ENDMDL
MODEL      133
REMARK 921   NORMALIZED FREE ENERGY PREDICTED BY IDOCK:   -2.74 KCAL/MOL
REMARK 922        TOTAL FREE ENERGY PREDICTED BY IDOCK:   -4.94 KCAL/MOL
REMARK 923 INTER-LIGAND FREE ENERGY PREDICTED BY IDOCK:   -4.14 KCAL/MOL
REMARK 924 INTRA-LIGAND FREE ENERGY PREDICTED BY IDOCK:   -0.80 KCAL/MOL
REMARK 927      BINDING AFFINITY PREDICTED BY RF-SCORE:    0.00 PKD
ROOT
HETATM    1  C   UNL     1      -8.433  19.588  68.257  1.00  0.00    -0.376 C  
HETATM    2  C   UNL     1      -9.588  18.548  68.197  1.00  0.00    -0.353 C  
HETATM    3  C   UNL     1     -10.267  18.599  69.581  1.00  0.00     0.516 C  
ENDROOT
BRANCH   2   4
HETATM    4  C   UNL     1     -10.575  19.021  67.089  1.00  0.00    -0.462 C  
HETATM    5  H   UNL     1     -11.287  20.729  66.325  1.00  0.00     0.000 HD 
HETATM    6  O   UNL     1     -10.686  20.440  67.001  1.00  0.00    -0.092 OA 
ENDBRANCH   2   4
BRANCH   2   7
HETATM    7  C   UNL     1      -9.017  17.139  67.927  1.00  0.00    -0.230 A  
HETATM    8  C   UNL     1      -9.390  16.275  66.908  1.00  0.00    -0.241 A  
HETATM    9  C   UNL     1      -8.700  15.058  67.047  1.00  0.00    -0.262 A  
HETATM   10  C   UNL     1      -8.738  13.853  66.316  1.00  0.00     0.352 A  
HETATM   11  C   UNL     1      -7.943  12.771  66.698  1.00  0.00     0.314 A  
HETATM   12  C   UNL     1      -7.128  12.912  67.825  1.00  0.00    -0.137 A  
HETATM   13  C   UNL     1      -7.869  15.173  68.156  1.00  0.00    -0.125 A  
HETATM   14  C   UNL     1      -7.072  14.091  68.573  1.00  0.00    -0.102 A  
HETATM   15  F   UNL     1      -6.356  11.875  68.204  1.00  0.00    -0.049 F  
HETATM   16  N   UNL     1      -8.031  16.466  68.650  1.00  0.00    -0.207 NA 
BRANCH  11  17
HETATM   17  N   UNL     1      -7.933  11.540  66.009  1.00  0.00    -0.371 N  
HETATM   18  H   UNL     1      -7.238  11.432  65.270  1.00  0.00     0.000 HD 
HETATM   19  C   UNL     1      -8.770  10.468  66.236  1.00  0.00    -0.151 C  
HETATM   20  O   UNL     1      -9.677  10.386  67.053  1.00  0.00    -0.169 OA 
BRANCH  19  21
HETATM   21  C   UNL     1      -8.473   9.266  65.370  1.00  0.00    -0.157 C  
HETATM   22  C   UNL     1      -7.650   9.467  64.103  1.00  0.00    -0.115 C  
HETATM   23  C   UNL     1      -9.128   9.269  63.989  1.00  0.00    -0.014 C  
BRANCH  21  24
HETATM   24  C   UNL     1      -8.402   7.944  66.133  1.00  0.00    -0.127 A  
HETATM   25  C   UNL     1      -9.505   3.794  67.435  1.00  0.00    -0.196 C  
HETATM   26  C   UNL     1      -7.165   7.500  66.673  1.00  0.00    -0.083 A  
HETATM   27  C   UNL     1      -9.505   7.075  66.224  1.00  0.00    -0.127 A  
HETATM   28  C   UNL     1      -7.007   6.228  67.235  1.00  0.00    -0.072 A  
HETATM   29  C   UNL     1      -8.110   5.406  67.260  1.00  0.00    -0.101 A  
HETATM   30  C   UNL     1      -9.328   5.825  66.781  1.00  0.00    -0.133 A  
HETATM   31  F   UNL     1      -9.527   2.756  66.562  1.00  0.00    -0.154 F  
HETATM   32  O   UNL     1     -10.286   4.864  66.885  1.00  0.00    -0.224 OA 
HETATM   33  F   UNL     1     -10.092   3.375  68.582  1.00  0.00    -0.046 F  
HETATM   34  O   UNL     1      -8.139   4.127  67.717  1.00  0.00    -0.093 OA 
ENDBRANCH  21  24
ENDBRANCH  19  21
ENDBRANCH  11  17
BRANCH  16  35
HETATM   35  C   UNL     1      -7.264  16.974  69.781  1.00  0.00     0.463 C  
BRANCH  35  36
HETATM   36  C   UNL     1      -5.778  17.239  69.486  1.00  0.00    -0.215 C  
HETATM   37  H   UNL     1      -4.702  18.172  68.100  1.00  0.00     0.000 HD 
HETATM   38  O   UNL     1      -5.620  18.009  68.283  1.00  0.00    -0.158 OA 
BRANCH  36  39
HETATM   39  C   UNL     1      -5.161  18.064  70.623  1.00  0.00    -0.274 C  
HETATM   40  O   UNL     1      -5.918  19.260  70.818  1.00  0.00    -0.168 OA 
HETATM   41  H   UNL     1      -5.535  19.770  71.522  1.00  0.00     0.000 HD 
ENDBRANCH  36  39
ENDBRANCH  35  36
ENDBRANCH  16  35
ENDBRANCH   2   7
TORSDOF 8
ENDMDL
MODEL      134
REMARK 921   NORMALIZED FREE ENERGY PREDICTED BY IDOCK:   -2.74 KCAL/MOL
REMARK 922        TOTAL FREE ENERGY PREDICTED BY IDOCK:   -4.94 KCAL/MOL
REMARK 923 INTER-LIGAND FREE ENERGY PREDICTED BY IDOCK:   -5.28 KCAL/MOL
REMARK 924 INTRA-LIGAND FREE ENERGY PREDICTED BY IDOCK:    0.33 KCAL/MOL
REMARK 927      BINDING AFFINITY PREDICTED BY RF-SCORE:    0.00 PKD
ROOT
HETATM    1  C   UNL     1     -11.992  14.320  65.131  1.00  0.00    -0.395 C  
HETATM    2  C   UNL     1     -10.956  14.351  66.292  1.00  0.00    -0.318 C  
HETATM    3  C   UNL     1      -9.604  14.692  65.634  1.00  0.00    -0.215 C  
ENDROOT
BRANCH   2   4
HETATM    4  C   UNL     1     -11.390  15.488  67.263  1.00  0.00    -0.167 C  
HETATM    5  H   UNL     1     -10.695  17.231  67.961  1.00  0.00     0.000 HD 
HETATM    6  O   UNL     1     -10.430  16.537  67.369  1.00  0.00    -0.303 OA 
ENDBRANCH   2   4
BRANCH   2   7
HETATM    7  C   UNL     1     -10.891  12.970  66.979  1.00  0.00    -0.261 A  
HETATM    8  C   UNL     1     -11.543  12.592  68.143  1.00  0.00    -0.390 A  
HETATM    9  C   UNL     1     -11.166  11.282  68.489  1.00  0.00    -0.311 A  
HETATM   10  C   UNL     1     -11.500  10.452  69.578  1.00  0.00    -0.311 A  
HETATM   11  C   UNL     1     -10.949   9.175  69.686  1.00  0.00    -0.153 A  
HETATM   12  C   UNL     1     -10.053   8.752  68.699  1.00  0.00    -0.189 A  
HETATM   13  C   UNL     1     -10.282  10.831  67.515  1.00  0.00    -0.196 A  
HETATM   14  C   UNL     1      -9.698   9.554  67.610  1.00  0.00    -0.188 A  
HETATM   15  F   UNL     1      -9.514   7.522  68.790  1.00  0.00    -0.147 F  
HETATM   16  N   UNL     1     -10.166  11.849  66.571  1.00  0.00    -0.200 NA 
BRANCH  11  17
HETATM   17  N   UNL     1     -11.243   8.295  70.749  1.00  0.00    -0.263 N  
HETATM   18  H   UNL     1     -11.083   8.645  71.694  1.00  0.00     0.000 HD 
HETATM   19  C   UNL     1     -11.726   7.008  70.636  1.00  0.00    -0.338 C  
HETATM   20  O   UNL     1     -11.972   6.388  69.611  1.00  0.00    -0.197 OA 
BRANCH  19  21
HETATM   21  C   UNL     1     -11.996   6.338  71.963  1.00  0.00    -0.353 C  
HETATM   22  C   UNL     1     -13.443   6.147  72.403  1.00  0.00     0.571 C  
HETATM   23  C   UNL     1     -12.624   7.226  73.036  1.00  0.00     1.117 C  
BRANCH  21  24
HETATM   24  C   UNL     1     -10.923   5.337  72.391  1.00  0.00    -0.273 A  
HETATM   25  C   UNL     1      -6.842   3.579  73.014  1.00  0.00    -0.039 C  
HETATM   26  C   UNL     1     -11.193   4.408  73.433  1.00  0.00    -0.386 A  
HETATM   27  C   UNL     1      -9.617   5.373  71.869  1.00  0.00    -0.188 A  
HETATM   28  C   UNL     1     -10.201   3.582  73.975  1.00  0.00    -0.212 A  
HETATM   29  C   UNL     1      -8.933   3.691  73.453  1.00  0.00    -0.094 A  
HETATM   30  C   UNL     1      -8.654   4.552  72.418  1.00  0.00    -0.114 A  
HETATM   31  F   UNL     1      -5.908   4.201  73.775  1.00  0.00    -0.006 F  
HETATM   32  O   UNL     1      -7.343   4.520  72.053  1.00  0.00    -0.063 OA 
HETATM   33  F   UNL     1      -6.225   2.572  72.351  1.00  0.00    -0.011 F  
HETATM   34  O   UNL     1      -7.836   3.013  73.880  1.00  0.00    -0.062 OA 
ENDBRANCH  21  24
ENDBRANCH  19  21
ENDBRANCH  11  17
BRANCH  16  35
HETATM   35  C   UNL     1      -9.366  11.707  65.360  1.00  0.00    -0.127 C  
BRANCH  35  36
HETATM   36  C   UNL     1      -8.136  10.794  65.503  1.00  0.00    -0.084 C  
HETATM   37  H   UNL     1      -6.841   9.879  64.305  1.00  0.00     0.000 HD 
HETATM   38  O   UNL     1      -7.601  10.443  64.217  1.00  0.00    -0.120 OA 
BRANCH  36  39
HETATM   39  C   UNL     1      -7.024  11.535  66.258  1.00  0.00     0.156 C  
HETATM   40  O   UNL     1      -5.822  11.517  65.487  1.00  0.00    -0.445 OA 
HETATM   41  H   UNL     1      -5.133  11.976  65.955  1.00  0.00     0.000 HD 
ENDBRANCH  36  39
ENDBRANCH  35  36
ENDBRANCH  16  35
ENDBRANCH   2   7
TORSDOF 8
ENDMDL
MODEL      135
REMARK 921   NORMALIZED FREE ENERGY PREDICTED BY IDOCK:   -2.52 KCAL/MOL
REMARK 922        TOTAL FREE ENERGY PREDICTED BY IDOCK:   -4.62 KCAL/MOL
REMARK 923 INTER-LIGAND FREE ENERGY PREDICTED BY IDOCK:   -5.04 KCAL/MOL
REMARK 924 INTRA-LIGAND FREE ENERGY PREDICTED BY IDOCK:    0.42 KCAL/MOL
REMARK 927      BINDING AFFINITY PREDICTED BY RF-SCORE:    0.00 PKD
ROOT
HETATM    1  C   UNL     1      -9.573  15.787  68.740  1.00  0.00    -0.216 C  
HETATM    2  C   UNL     1      -8.218  15.261  68.185  1.00  0.00    -0.141 C  
HETATM    3  C   UNL     1      -7.989  16.018  66.862  1.00  0.00    -0.283 C  
ENDROOT
BRANCH   2   4
HETATM    4  C   UNL     1      -7.121  15.636  69.224  1.00  0.00    -0.189 C  
HETATM    5  H   UNL     1      -5.316  16.501  69.274  1.00  0.00     0.000 HD 
HETATM    6  O   UNL     1      -5.986  16.272  68.641  1.00  0.00    -0.107 OA 
ENDBRANCH   2   4
BRANCH   2   7
HETATM    7  C   UNL     1      -8.306  13.741  67.931  1.00  0.00    -0.172 A  
HETATM    8  C   UNL     1      -7.584  12.749  68.578  1.00  0.00    -0.120 A  
HETATM    9  C   UNL     1      -7.886  11.500  68.008  1.00  0.00    -0.126 A  
HETATM   10  C   UNL     1      -7.409  10.197  68.263  1.00  0.00    -0.081 A  
HETATM   11  C   UNL     1      -7.877   9.117  67.513  1.00  0.00    -0.100 A  
HETATM   12  C   UNL     1      -8.811   9.364  66.503  1.00  0.00    -0.136 A  
HETATM   13  C   UNL     1      -8.825  11.714  67.005  1.00  0.00    -0.177 A  
HETATM   14  C   UNL     1      -9.298  10.644  66.223  1.00  0.00    -0.199 A  
HETATM   15  F   UNL     1      -9.270   8.330  65.772  1.00  0.00    -0.221 F  
HETATM   16  N   UNL     1      -9.114  13.077  67.006  1.00  0.00    -0.224 NA 
BRANCH  11  17
HETATM   17  N   UNL     1      -7.442   7.790  67.718  1.00  0.00    -0.102 N  
HETATM   18  H   UNL     1      -7.511   7.426  68.669  1.00  0.00     0.000 HD 
HETATM   19  C   UNL     1      -6.934   6.938  66.761  1.00  0.00    -0.066 C  
HETATM   20  O   UNL     1      -6.750   7.170  65.574  1.00  0.00    -0.050 OA 
BRANCH  19  21
HETATM   21  C   UNL     1      -6.609   5.558  67.281  1.00  0.00    -0.053 C  
HETATM   22  C   UNL     1      -5.146   5.176  67.472  1.00  0.00    -0.004 C  
HETATM   23  C   UNL     1      -5.895   4.632  66.297  1.00  0.00    -0.022 C  
BRANCH  21  24
HETATM   24  C   UNL     1      -7.685   4.958  68.186  1.00  0.00    -0.082 A  
HETATM   25  C   UNL     1      -9.932   3.985  71.947  1.00  0.00    -0.176 C  
HETATM   26  C   UNL     1      -8.961   4.629  67.653  1.00  0.00    -0.124 A  
HETATM   27  C   UNL     1      -7.502   4.823  69.575  1.00  0.00    -0.056 A  
HETATM   28  C   UNL     1     -10.031   4.233  68.463  1.00  0.00    -0.023 A  
HETATM   29  C   UNL     1      -9.806   4.159  69.818  1.00  0.00    -0.150 A  
HETATM   30  C   UNL     1      -8.570   4.432  70.356  1.00  0.00    -0.077 A  
HETATM   31  F   UNL     1     -10.477   4.956  72.721  1.00  0.00    -0.209 F  
HETATM   32  O   UNL     1      -8.555   4.313  71.711  1.00  0.00    -0.102 OA 
HETATM   33  F   UNL     1      -9.987   2.826  72.645  1.00  0.00    -0.167 F  
HETATM   34  O   UNL     1     -10.730   3.843  70.763  1.00  0.00     0.788 OA 
ENDBRANCH  21  24
ENDBRANCH  19  21
ENDBRANCH  11  17
BRANCH  16  35
HETATM   35  C   UNL     1     -10.114  13.666  66.123  1.00  0.00    -0.306 C  
BRANCH  35  36
HETATM   36  C   UNL     1     -10.969  12.649  65.348  1.00  0.00    -0.286 C  
HETATM   37  H   UNL     1     -12.758  11.801  65.524  1.00  0.00     0.000 HD 
HETATM   38  O   UNL     1     -12.229  12.429  66.002  1.00  0.00    -0.636 OA 
BRANCH  36  39
HETATM   39  C   UNL     1     -11.286  13.196  63.950  1.00  0.00    -0.374 C  
HETATM   40  O   UNL     1     -10.286  12.768  63.025  1.00  0.00    -0.274 OA 
HETATM   41  H   UNL     1     -10.482  13.107  62.159  1.00  0.00     0.000 HD 
ENDBRANCH  36  39
ENDBRANCH  35  36
ENDBRANCH  16  35
ENDBRANCH   2   7
TORSDOF 8
ENDMDL
MODEL      136
REMARK 921   NORMALIZED FREE ENERGY PREDICTED BY IDOCK:   -2.35 KCAL/MOL
REMARK 922        TOTAL FREE ENERGY PREDICTED BY IDOCK:   -4.37 KCAL/MOL
REMARK 923 INTER-LIGAND FREE ENERGY PREDICTED BY IDOCK:   -5.12 KCAL/MOL
REMARK 924 INTRA-LIGAND FREE ENERGY PREDICTED BY IDOCK:    0.75 KCAL/MOL
REMARK 927      BINDING AFFINITY PREDICTED BY RF-SCORE:    0.00 PKD
ROOT
HETATM    1  C   UNL     1     -11.147  14.645  64.218  1.00  0.00     0.009 C  
HETATM    2  C   UNL     1     -11.609  14.043  65.575  1.00  0.00    -0.333 C  
HETATM    3  C   UNL     1     -11.604  15.217  66.575  1.00  0.00    -0.015 C  
ENDROOT
BRANCH   2   4
HETATM    4  C   UNL     1     -13.058  13.509  65.371  1.00  0.00    -0.056 C  
HETATM    5  H   UNL     1     -14.026  12.135  64.284  1.00  0.00     0.000 HD 
HETATM    6  O   UNL     1     -13.142  12.461  64.408  1.00  0.00    -0.786 OA 
ENDBRANCH   2   4
BRANCH   2   7
HETATM    7  C   UNL     1     -10.625  12.943  66.028  1.00  0.00    -0.270 A  
HETATM    8  C   UNL     1     -10.675  11.598  65.696  1.00  0.00    -0.330 A  
HETATM    9  C   UNL     1      -9.652  10.908  66.369  1.00  0.00    -0.229 A  
HETATM   10  C   UNL     1      -9.291   9.545  66.413  1.00  0.00    -0.231 A  
HETATM   11  C   UNL     1      -8.219   9.126  67.202  1.00  0.00    -0.113 A  
HETATM   12  C   UNL     1      -7.530  10.084  67.952  1.00  0.00    -0.089 A  
HETATM   13  C   UNL     1      -8.940  11.841  67.116  1.00  0.00    -0.177 A  
HETATM   14  C   UNL     1      -7.867  11.440  67.934  1.00  0.00    -0.117 A  
HETATM   15  F   UNL     1      -6.494   9.692  68.717  1.00  0.00    -0.046 F  
HETATM   16  N   UNL     1      -9.509  13.086  66.856  1.00  0.00    -0.236 NA 
BRANCH  11  17
HETATM   17  N   UNL     1      -7.806   7.779  67.288  1.00  0.00    -0.115 N  
HETATM   18  H   UNL     1      -8.514   7.097  67.563  1.00  0.00     0.000 HD 
HETATM   19  C   UNL     1      -6.540   7.293  67.036  1.00  0.00    -0.060 C  
HETATM   20  O   UNL     1      -5.546   7.928  66.713  1.00  0.00    -0.031 OA 
BRANCH  19  21
HETATM   21  C   UNL     1      -6.425   5.792  67.159  1.00  0.00    -0.047 C  
HETATM   22  C   UNL     1      -6.431   5.172  68.552  1.00  0.00    -0.040 C  
HETATM   23  C   UNL     1      -5.139   5.278  67.805  1.00  0.00    -0.004 C  
BRANCH  21  24
HETATM   24  C   UNL     1      -6.995   5.019  65.970  1.00  0.00    -0.066 A  
HETATM   25  C   UNL     1      -9.992   2.852  63.429  1.00  0.00    -0.128 C  
HETATM   26  C   UNL     1      -6.387   5.133  64.690  1.00  0.00    -0.034 A  
HETATM   27  C   UNL     1      -8.187   4.277  66.064  1.00  0.00    -0.105 A  
HETATM   28  C   UNL     1      -6.959   4.582  63.538  1.00  0.00    -0.044 A  
HETATM   29  C   UNL     1      -8.146   3.902  63.684  1.00  0.00    -0.089 A  
HETATM   30  C   UNL     1      -8.735   3.743  64.916  1.00  0.00    -0.115 A  
HETATM   31  F   UNL     1     -11.116   3.462  62.979  1.00  0.00    -0.186 F  
HETATM   32  O   UNL     1      -9.906   3.053  64.847  1.00  0.00    -0.103 OA 
HETATM   33  F   UNL     1     -10.122   1.526  63.188  1.00  0.00    -0.096 F  
HETATM   34  O   UNL     1      -8.873   3.345  62.680  1.00  0.00    -0.087 OA 
ENDBRANCH  21  24
ENDBRANCH  19  21
ENDBRANCH  11  17
BRANCH  16  35
HETATM   35  C   UNL     1      -8.979  14.322  67.418  1.00  0.00    -0.201 C  
BRANCH  35  36
HETATM   36  C   UNL     1      -8.915  14.356  68.955  1.00  0.00    -0.067 C  
HETATM   37  H   UNL     1      -8.140  15.523  70.365  1.00  0.00     0.000 HD 
HETATM   38  O   UNL     1      -8.181  15.502  69.416  1.00  0.00    -0.239 OA 
BRANCH  36  39
HETATM   39  C   UNL     1     -10.332  14.477  69.531  1.00  0.00    -0.009 C  
HETATM   40  O   UNL     1     -10.746  15.844  69.513  1.00  0.00    -0.240 OA 
HETATM   41  H   UNL     1     -11.623  15.919  69.870  1.00  0.00     0.000 HD 
ENDBRANCH  36  39
ENDBRANCH  35  36
ENDBRANCH  16  35
ENDBRANCH   2   7
TORSDOF 8
ENDMDL
MODEL      137
REMARK 921   NORMALIZED FREE ENERGY PREDICTED BY IDOCK:   -2.35 KCAL/MOL
REMARK 922        TOTAL FREE ENERGY PREDICTED BY IDOCK:   -4.37 KCAL/MOL
REMARK 923 INTER-LIGAND FREE ENERGY PREDICTED BY IDOCK:   -3.48 KCAL/MOL
REMARK 924 INTRA-LIGAND FREE ENERGY PREDICTED BY IDOCK:   -0.89 KCAL/MOL
REMARK 927      BINDING AFFINITY PREDICTED BY RF-SCORE:    0.00 PKD
ROOT
HETATM    1  C   UNL     1      -6.979  19.675  65.408  1.00  0.00    -0.273 C  
HETATM    2  C   UNL     1      -6.581  18.779  66.616  1.00  0.00    -0.211 C  
HETATM    3  C   UNL     1      -5.125  18.345  66.350  1.00  0.00    -0.169 C  
ENDROOT
BRANCH   2   4
HETATM    4  C   UNL     1      -6.660  19.666  67.893  1.00  0.00    -0.237 C  
HETATM    5  H   UNL     1      -5.468  20.308  69.367  1.00  0.00     0.000 HD 
HETATM    6  O   UNL     1      -5.420  19.766  68.588  1.00  0.00    -0.201 OA 
ENDBRANCH   2   4
BRANCH   2   7
HETATM    7  C   UNL     1      -7.508  17.546  66.686  1.00  0.00    -0.245 A  
HETATM    8  C   UNL     1      -7.151  16.262  67.072  1.00  0.00    -0.259 A  
HETATM    9  C   UNL     1      -8.255  15.403  66.925  1.00  0.00    -0.281 A  
HETATM   10  C   UNL     1      -8.418  14.018  67.136  1.00  0.00    -0.207 A  
HETATM   11  C   UNL     1      -9.647  13.408  66.883  1.00  0.00    -0.257 A  
HETATM   12  C   UNL     1     -10.696  14.198  66.406  1.00  0.00    -0.288 A  
HETATM   13  C   UNL     1      -9.320  16.167  66.461  1.00  0.00    -0.268 A  
HETATM   14  C   UNL     1     -10.564  15.571  66.182  1.00  0.00    -0.321 A  
HETATM   15  F   UNL     1     -11.887  13.621  66.158  1.00  0.00    -0.333 F  
HETATM   16  N   UNL     1      -8.867  17.481  66.373  1.00  0.00    -0.363 NA 
BRANCH  11  17
HETATM   17  N   UNL     1      -9.876  12.029  67.076  1.00  0.00    -0.193 N  
HETATM   18  H   UNL     1      -9.686  11.415  66.283  1.00  0.00     0.000 HD 
HETATM   19  C   UNL     1     -10.332  11.428  68.230  1.00  0.00    -0.194 C  
HETATM   20  O   UNL     1     -10.636  11.967  69.285  1.00  0.00    -0.102 OA 
BRANCH  19  21
HETATM   21  C   UNL     1     -10.422   9.923  68.142  1.00  0.00    -0.256 C  
HETATM   22  C   UNL     1     -11.720   9.297  67.644  1.00  0.00     2.188 C  
HETATM   23  C   UNL     1     -11.406   9.261  69.106  1.00  0.00     0.216 C  
BRANCH  21  24
HETATM   24  C   UNL     1      -9.085   9.227  67.885  1.00  0.00    -0.133 A  
HETATM   25  C   UNL     1      -5.873   7.010  65.671  1.00  0.00    -0.036 C  
HETATM   26  C   UNL     1      -7.946   9.565  68.665  1.00  0.00    -0.092 A  
HETATM   27  C   UNL     1      -8.902   8.335  66.812  1.00  0.00    -0.158 A  
HETATM   28  C   UNL     1      -6.666   9.083  68.369  1.00  0.00    -0.060 A  
HETATM   29  C   UNL     1      -6.540   8.248  67.283  1.00  0.00    -0.058 A  
HETATM   30  C   UNL     1      -7.631   7.873  66.536  1.00  0.00    -0.092 A  
HETATM   31  F   UNL     1      -5.294   7.522  64.557  1.00  0.00    -0.028 F  
HETATM   32  O   UNL     1      -7.297   7.054  65.502  1.00  0.00    -0.074 OA 
HETATM   33  F   UNL     1      -5.489   5.715  65.773  1.00  0.00    -0.011 F  
HETATM   34  O   UNL     1      -5.378   7.724  66.813  1.00  0.00    -0.026 OA 
ENDBRANCH  21  24
ENDBRANCH  19  21
ENDBRANCH  11  17
BRANCH  16  35
HETATM   35  C   UNL     1      -9.735  18.585  65.980  1.00  0.00    -0.115 C  
BRANCH  35  36
HETATM   36  C   UNL     1     -10.273  19.430  67.148  1.00  0.00    -0.412 C  
HETATM   37  H   UNL     1     -11.856  20.569  67.527  1.00  0.00     0.000 HD 
HETATM   38  O   UNL     1     -11.524  20.047  66.806  1.00  0.00     0.302 OA 
BRANCH  36  39
HETATM   39  C   UNL     1     -10.541  18.528  68.361  1.00  0.00    -0.107 C  
HETATM   40  O   UNL     1      -9.652  18.873  69.424  1.00  0.00    -0.120 OA 
HETATM   41  H   UNL     1      -9.819  18.314  70.175  1.00  0.00     0.000 HD 
ENDBRANCH  36  39
ENDBRANCH  35  36
ENDBRANCH  16  35
ENDBRANCH   2   7
TORSDOF 8
ENDMDL
MODEL      138
REMARK 921   NORMALIZED FREE ENERGY PREDICTED BY IDOCK:   -2.33 KCAL/MOL
REMARK 922        TOTAL FREE ENERGY PREDICTED BY IDOCK:   -4.34 KCAL/MOL
REMARK 923 INTER-LIGAND FREE ENERGY PREDICTED BY IDOCK:   -4.13 KCAL/MOL
REMARK 924 INTRA-LIGAND FREE ENERGY PREDICTED BY IDOCK:   -0.21 KCAL/MOL
REMARK 927      BINDING AFFINITY PREDICTED BY RF-SCORE:    0.00 PKD
ROOT
HETATM    1  C   UNL     1      -9.717  17.987  65.970  1.00  0.00    -0.130 C  
HETATM    2  C   UNL     1     -10.452  16.619  66.052  1.00  0.00    -0.306 C  
HETATM    3  C   UNL     1     -11.752  16.890  66.837  1.00  0.00     1.422 C  
ENDROOT
BRANCH   2   4
HETATM    4  C   UNL     1     -10.779  16.185  64.592  1.00  0.00     0.002 C  
HETATM    5  H   UNL     1     -12.341  16.134  63.342  1.00  0.00     0.000 HD 
HETATM    6  O   UNL     1     -12.142  16.397  64.232  1.00  0.00    -0.601 OA 
ENDBRANCH   2   4
BRANCH   2   7
HETATM    7  C   UNL     1      -9.574  15.591  66.798  1.00  0.00    -0.235 A  
HETATM    8  C   UNL     1      -9.579  14.215  66.625  1.00  0.00    -0.301 A  
HETATM    9  C   UNL     1      -8.698  13.622  67.545  1.00  0.00    -0.198 A  
HETATM   10  C   UNL     1      -8.364  12.278  67.814  1.00  0.00    -0.162 A  
HETATM   11  C   UNL     1      -7.452  11.967  68.823  1.00  0.00    -0.100 A  
HETATM   12  C   UNL     1      -6.896  13.015  69.563  1.00  0.00     0.099 A  
HETATM   13  C   UNL     1      -8.119  14.644  68.289  1.00  0.00    -0.143 A  
HETATM   14  C   UNL     1      -7.211  14.355  69.324  1.00  0.00    -0.107 A  
HETATM   15  F   UNL     1      -6.015  12.728  70.540  1.00  0.00    -0.159 F  
HETATM   16  N   UNL     1      -8.620  15.843  67.786  1.00  0.00    -0.158 NA 
BRANCH  11  17
HETATM   17  N   UNL     1      -7.075  10.645  69.140  1.00  0.00    -0.084 N  
HETATM   18  H   UNL     1      -6.075  10.443  69.156  1.00  0.00     0.000 HD 
HETATM   19  C   UNL     1      -7.924   9.598  69.431  1.00  0.00    -0.111 C  
HETATM   20  O   UNL     1      -9.147   9.611  69.452  1.00  0.00    -0.163 OA 
BRANCH  19  21
HETATM   21  C   UNL     1      -7.213   8.314  69.787  1.00  0.00    -0.060 C  
HETATM   22  C   UNL     1      -5.722   8.200  69.490  1.00  0.00    -0.026 C  
HETATM   23  C   UNL     1      -6.699   7.494  68.604  1.00  0.00    -0.054 C  
BRANCH  21  24
HETATM   24  C   UNL     1      -7.821   7.567  70.974  1.00  0.00    -0.091 A  
HETATM   25  C   UNL     1      -9.081   4.119  73.554  1.00  0.00    -0.102 C  
HETATM   26  C   UNL     1      -7.937   8.211  72.236  1.00  0.00    -0.178 A  
HETATM   27  C   UNL     1      -8.170   6.206  70.900  1.00  0.00    -0.126 A  
HETATM   28  C   UNL     1      -8.332   7.527  73.391  1.00  0.00    -0.181 A  
HETATM   29  C   UNL     1      -8.621   6.188  73.267  1.00  0.00    -0.123 A  
HETATM   30  C   UNL     1      -8.556   5.550  72.051  1.00  0.00    -0.131 A  
HETATM   31  F   UNL     1      -8.179   3.239  74.056  1.00  0.00    -0.070 F  
HETATM   32  O   UNL     1      -8.867   4.228  72.140  1.00  0.00    -0.109 OA 
HETATM   33  F   UNL     1     -10.315   3.604  73.766  1.00  0.00    -0.158 F  
HETATM   34  O   UNL     1      -8.970   5.352  74.279  1.00  0.00    -0.118 OA 
ENDBRANCH  21  24
ENDBRANCH  19  21
ENDBRANCH  11  17
BRANCH  16  35
HETATM   35  C   UNL     1      -8.185  17.144  68.282  1.00  0.00    -0.230 C  
BRANCH  35  36
HETATM   36  C   UNL     1      -6.706  17.474  68.014  1.00  0.00    -0.181 C  
HETATM   37  H   UNL     1      -5.588  18.061  66.480  1.00  0.00     0.000 HD 
HETATM   38  O   UNL     1      -6.502  17.857  66.645  1.00  0.00    -0.164 OA 
BRANCH  36  39
HETATM   39  C   UNL     1      -6.276  18.667  68.878  1.00  0.00    -0.231 C  
HETATM   40  O   UNL     1      -7.397  19.518  69.119  1.00  0.00    -0.361 OA 
HETATM   41  H   UNL     1      -7.131  20.257  69.654  1.00  0.00     0.000 HD 
ENDBRANCH  36  39
ENDBRANCH  35  36
ENDBRANCH  16  35
ENDBRANCH   2   7
TORSDOF 8
ENDMDL
MODEL      139
REMARK 921   NORMALIZED FREE ENERGY PREDICTED BY IDOCK:   -1.98 KCAL/MOL
REMARK 922        TOTAL FREE ENERGY PREDICTED BY IDOCK:   -3.82 KCAL/MOL
REMARK 923 INTER-LIGAND FREE ENERGY PREDICTED BY IDOCK:   -3.96 KCAL/MOL
REMARK 924 INTRA-LIGAND FREE ENERGY PREDICTED BY IDOCK:    0.15 KCAL/MOL
REMARK 927      BINDING AFFINITY PREDICTED BY RF-SCORE:    0.00 PKD
ROOT
HETATM    1  C   UNL     1      -9.624  17.902  65.999  1.00  0.00    -0.100 C  
HETATM    2  C   UNL     1     -10.356  16.537  66.143  1.00  0.00    -0.344 C  
HETATM    3  C   UNL     1     -11.569  16.809  67.056  1.00  0.00     0.934 C  
ENDROOT
BRANCH   2   4
HETATM    4  C   UNL     1     -10.829  16.117  64.720  1.00  0.00    -0.262 C  
HETATM    5  H   UNL     1     -12.535  15.772  63.732  1.00  0.00     0.000 HD 
HETATM    6  O   UNL     1     -12.246  16.028  64.600  1.00  0.00     0.069 OA 
ENDBRANCH   2   4
BRANCH   2   7
HETATM    7  C   UNL     1      -9.414  15.498  66.791  1.00  0.00    -0.237 A  
HETATM    8  C   UNL     1      -9.546  14.118  66.746  1.00  0.00    -0.290 A  
HETATM    9  C   UNL     1      -8.536  13.524  67.523  1.00  0.00    -0.193 A  
HETATM   10  C   UNL     1      -8.245  12.181  67.840  1.00  0.00    -0.155 A  
HETATM   11  C   UNL     1      -7.170  11.871  68.674  1.00  0.00    -0.109 A  
HETATM   12  C   UNL     1      -6.407  12.921  69.192  1.00  0.00    -0.105 A  
HETATM   13  C   UNL     1      -7.752  14.547  68.043  1.00  0.00    -0.135 A  
HETATM   14  C   UNL     1      -6.673  14.262  68.901  1.00  0.00    -0.100 A  
HETATM   15  F   UNL     1      -5.366  12.636  69.998  1.00  0.00    -0.077 F  
HETATM   16  N   UNL     1      -8.264  15.743  67.544  1.00  0.00    -0.154 NA 
BRANCH  11  17
HETATM   17  N   UNL     1      -6.824  10.549  69.027  1.00  0.00    -0.062 N  
HETATM   18  H   UNL     1      -5.891  10.232  68.764  1.00  0.00     0.000 HD 
HETATM   19  C   UNL     1      -7.624   9.645  69.693  1.00  0.00    -0.114 C  
HETATM   20  O   UNL     1      -8.771   9.806  70.084  1.00  0.00    -0.207 OA 
BRANCH  19  21
HETATM   21  C   UNL     1      -6.947   8.324  69.977  1.00  0.00    -0.043 C  
HETATM   22  C   UNL     1      -5.876   8.271  71.061  1.00  0.00    -0.033 C  
HETATM   23  C   UNL     1      -5.462   8.253  69.623  1.00  0.00    -0.026 C  
BRANCH  21  24
HETATM   24  C   UNL     1      -7.817   7.099  69.694  1.00  0.00    -0.118 A  
HETATM   25  C   UNL     1      -8.913   2.957  68.360  1.00  0.00    -0.143 C  
HETATM   26  C   UNL     1      -9.021   6.898  70.422  1.00  0.00    -0.152 A  
HETATM   27  C   UNL     1      -7.409   6.082  68.811  1.00  0.00    -0.085 A  
HETATM   28  C   UNL     1      -9.768   5.719  70.322  1.00  0.00    -0.223 A  
HETATM   29  C   UNL     1      -9.299   4.743  69.473  1.00  0.00    -0.133 A  
HETATM   30  C   UNL     1      -8.159   4.927  68.728  1.00  0.00    -0.084 A  
HETATM   31  F   UNL     1      -8.358   1.857  68.926  1.00  0.00    -0.060 F  
HETATM   32  O   UNL     1      -7.858   3.844  67.962  1.00  0.00    -0.073 OA 
HETATM   33  F   UNL     1      -9.580   2.555  67.253  1.00  0.00    -0.186 F  
HETATM   34  O   UNL     1      -9.857   3.519  69.283  1.00  0.00    -0.060 OA 
ENDBRANCH  21  24
ENDBRANCH  19  21
ENDBRANCH  11  17
BRANCH  16  35
HETATM   35  C   UNL     1      -7.652  17.036  67.825  1.00  0.00    -0.170 C  
BRANCH  35  36
HETATM   36  C   UNL     1      -6.226  17.208  67.273  1.00  0.00    -0.161 C  
HETATM   37  H   UNL     1      -5.362  17.487  65.506  1.00  0.00     0.000 HD 
HETATM   38  O   UNL     1      -6.242  17.381  65.847  1.00  0.00    -0.158 OA 
BRANCH  36  39
HETATM   39  C   UNL     1      -5.589  18.473  67.865  1.00  0.00    -0.168 C  
HETATM   40  O   UNL     1      -6.422  18.993  68.901  1.00  0.00    -0.243 OA 
HETATM   41  H   UNL     1      -6.027  19.776  69.268  1.00  0.00     0.000 HD 
ENDBRANCH  36  39
ENDBRANCH  35  36
ENDBRANCH  16  35
ENDBRANCH   2   7
TORSDOF 8
ENDMDL
MODEL      140
REMARK 921   NORMALIZED FREE ENERGY PREDICTED BY IDOCK:   -1.83 KCAL/MOL
REMARK 922        TOTAL FREE ENERGY PREDICTED BY IDOCK:   -3.60 KCAL/MOL
REMARK 923 INTER-LIGAND FREE ENERGY PREDICTED BY IDOCK:   -3.47 KCAL/MOL
REMARK 924 INTRA-LIGAND FREE ENERGY PREDICTED BY IDOCK:   -0.13 KCAL/MOL
REMARK 927      BINDING AFFINITY PREDICTED BY RF-SCORE:    0.00 PKD
ROOT
HETATM    1  C   UNL     1     -10.001  19.135  69.685  1.00  0.00     0.177 C  
HETATM    2  C   UNL     1     -10.123  18.533  68.256  1.00  0.00    -0.424 C  
HETATM    3  C   UNL     1     -11.589  18.755  67.834  1.00  0.00     1.349 C  
ENDROOT
BRANCH   2   4
HETATM    4  C   UNL     1      -9.163  19.341  67.334  1.00  0.00    -0.300 C  
HETATM    5  H   UNL     1      -8.691  21.246  66.939  1.00  0.00     0.000 HD 
HETATM    6  O   UNL     1      -9.276  20.753  67.501  1.00  0.00    -0.325 OA 
ENDBRANCH   2   4
BRANCH   2   7
HETATM    7  C   UNL     1      -9.792  17.025  68.288  1.00  0.00    -0.278 A  
HETATM    8  C   UNL     1     -10.650  15.995  68.644  1.00  0.00    -0.266 A  
HETATM    9  C   UNL     1      -9.953  14.774  68.625  1.00  0.00    -0.232 A  
HETATM   10  C   UNL     1     -10.338  13.454  68.936  1.00  0.00    -0.089 A  
HETATM   11  C   UNL     1      -9.414  12.412  68.849  1.00  0.00     0.239 A  
HETATM   12  C   UNL     1      -8.105  12.715  68.463  1.00  0.00    -0.082 A  
HETATM   13  C   UNL     1      -8.647  15.044  68.231  1.00  0.00    -0.156 A  
HETATM   14  C   UNL     1      -7.692  14.014  68.154  1.00  0.00    -0.143 A  
HETATM   15  F   UNL     1      -7.203  11.718  68.376  1.00  0.00    -0.068 F  
HETATM   16  N   UNL     1      -8.577  16.412  67.976  1.00  0.00    -0.182 NA 
BRANCH  11  17
HETATM   17  N   UNL     1      -9.735  11.070  69.144  1.00  0.00    -0.387 N  
HETATM   18  H   UNL     1      -8.964  10.462  69.422  1.00  0.00     0.000 HD 
HETATM   19  C   UNL     1     -10.989  10.498  69.095  1.00  0.00    -0.240 C  
HETATM   20  O   UNL     1     -12.042  11.032  68.775  1.00  0.00    -0.518 OA 
BRANCH  19  21
HETATM   21  C   UNL     1     -11.018   9.050  69.524  1.00  0.00    -0.118 C  
HETATM   22  C   UNL     1     -11.938   8.648  70.671  1.00  0.00    -0.056 C  
HETATM   23  C   UNL     1     -10.468   8.763  70.920  1.00  0.00    -0.278 C  
BRANCH  21  24
HETATM   24  C   UNL     1     -10.704   8.057  68.405  1.00  0.00    -0.070 A  
HETATM   25  C   UNL     1      -8.269   5.537  65.602  1.00  0.00    -0.127 C  
HETATM   26  C   UNL     1     -11.660   7.071  68.040  1.00  0.00     0.667 A  
HETATM   27  C   UNL     1      -9.440   8.002  67.790  1.00  0.00    -0.166 A  
HETATM   28  C   UNL     1     -11.365   6.038  67.142  1.00  0.00     0.150 A  
HETATM   29  C   UNL     1     -10.100   6.011  66.603  1.00  0.00    -0.174 A  
HETATM   30  C   UNL     1      -9.169   6.976  66.909  1.00  0.00    -0.150 A  
HETATM   31  F   UNL     1      -7.421   4.583  66.058  1.00  0.00    -0.079 F  
HETATM   32  O   UNL     1      -7.978   6.765  66.284  1.00  0.00    -0.101 OA 
HETATM   33  F   UNL     1      -8.022   5.706  64.281  1.00  0.00    -0.096 F  
HETATM   34  O   UNL     1      -9.615   5.065  65.758  1.00  0.00    -0.159 OA 
ENDBRANCH  21  24
ENDBRANCH  19  21
ENDBRANCH  11  17
BRANCH  16  35
HETATM   35  C   UNL     1      -7.367  17.054  67.475  1.00  0.00    -0.154 C  
BRANCH  35  36
HETATM   36  C   UNL     1      -6.210  17.128  68.486  1.00  0.00    -0.151 C  
HETATM   37  H   UNL     1      -4.413  16.313  68.720  1.00  0.00     0.000 HD 
HETATM   38  O   UNL     1      -5.127  16.268  68.095  1.00  0.00    -0.094 OA 
BRANCH  36  39
HETATM   39  C   UNL     1      -5.648  18.555  68.529  1.00  0.00    -0.188 C  
HETATM   40  O   UNL     1      -5.476  18.965  69.886  1.00  0.00    -0.205 OA 
HETATM   41  H   UNL     1      -5.127  19.849  69.913  1.00  0.00     0.000 HD 
ENDBRANCH  36  39
ENDBRANCH  35  36
ENDBRANCH  16  35
ENDBRANCH   2   7
TORSDOF 8
ENDMDL
MODEL      141
REMARK 921   NORMALIZED FREE ENERGY PREDICTED BY IDOCK:   -1.66 KCAL/MOL
REMARK 922        TOTAL FREE ENERGY PREDICTED BY IDOCK:   -3.35 KCAL/MOL
REMARK 923 INTER-LIGAND FREE ENERGY PREDICTED BY IDOCK:   -4.36 KCAL/MOL
REMARK 924 INTRA-LIGAND FREE ENERGY PREDICTED BY IDOCK:    1.01 KCAL/MOL
REMARK 927      BINDING AFFINITY PREDICTED BY RF-SCORE:    0.00 PKD
ROOT
HETATM    1  C   UNL     1      -6.363   6.227  67.046  1.00  0.00    -0.041 C  
HETATM    2  C   UNL     1      -7.317   6.836  68.114  1.00  0.00    -0.097 C  
HETATM    3  C   UNL     1      -8.651   6.078  67.960  1.00  0.00    -0.114 C  
ENDROOT
BRANCH   2   4
HETATM    4  C   UNL     1      -6.686   6.549  69.509  1.00  0.00    -0.053 C  
HETATM    5  H   UNL     1      -6.357   5.000  70.732  1.00  0.00     0.000 HD 
HETATM    6  O   UNL     1      -6.741   5.175  69.882  1.00  0.00    -0.038 OA 
ENDBRANCH   2   4
BRANCH   2   7
HETATM    7  C   UNL     1      -7.517   8.343  67.846  1.00  0.00    -0.098 A  
HETATM    8  C   UNL     1      -6.858   9.391  68.472  1.00  0.00    -0.062 A  
HETATM    9  C   UNL     1      -7.376  10.614  68.011  1.00  0.00    -0.088 A  
HETATM   10  C   UNL     1      -7.092  11.954  68.346  1.00  0.00    -0.086 A  
HETATM   11  C   UNL     1      -7.790  12.996  67.734  1.00  0.00    -0.157 A  
HETATM   12  C   UNL     1      -8.779  12.675  66.799  1.00  0.00    -0.134 A  
HETATM   13  C   UNL     1      -8.356  10.324  67.069  1.00  0.00    -0.126 A  
HETATM   14  C   UNL     1      -9.086  11.357  66.451  1.00  0.00    -0.201 A  
HETATM   15  F   UNL     1      -9.459  13.671  66.201  1.00  0.00    -0.272 F  
HETATM   16  N   UNL     1      -8.393   8.938  66.936  1.00  0.00    -0.111 NA 
BRANCH  11  17
HETATM   17  N   UNL     1      -7.553  14.357  68.022  1.00  0.00    -0.122 N  
HETATM   18  H   UNL     1      -8.304  15.011  67.802  1.00  0.00     0.000 HD 
HETATM   19  C   UNL     1      -6.406  14.889  68.572  1.00  0.00    -0.093 C  
HETATM   20  O   UNL     1      -5.386  14.297  68.895  1.00  0.00    -0.084 OA 
BRANCH  19  21
HETATM   21  C   UNL     1      -6.479  16.379  68.814  1.00  0.00    -0.142 C  
HETATM   22  C   UNL     1      -5.199  17.199  68.698  1.00  0.00    -0.140 C  
HETATM   23  C   UNL     1      -5.743  16.883  70.055  1.00  0.00    -0.224 C  
BRANCH  21  24
HETATM   24  C   UNL     1      -7.829  17.007  68.470  1.00  0.00    -0.251 A  
HETATM   25  C   UNL     1     -10.898  19.358  66.192  1.00  0.00    -0.311 C  
HETATM   26  C   UNL     1      -9.028  16.438  68.980  1.00  0.00    -0.239 A  
HETATM   27  C   UNL     1      -7.946  18.072  67.559  1.00  0.00    -0.224 A  
HETATM   28  C   UNL     1     -10.295  16.869  68.568  1.00  0.00    -0.336 A  
HETATM   29  C   UNL     1     -10.347  17.887  67.644  1.00  0.00    -0.381 A  
HETATM   30  C   UNL     1      -9.204  18.481  67.165  1.00  0.00    -0.277 A  
HETATM   31  F   UNL     1     -11.250  19.029  64.925  1.00  0.00    -0.067 F  
HETATM   32  O   UNL     1      -9.468  19.456  66.254  1.00  0.00    -0.353 OA 
HETATM   33  F   UNL     1     -11.427  20.576  66.460  1.00  0.00     0.428 F  
HETATM   34  O   UNL     1     -11.476  18.402  67.091  1.00  0.00     0.450 OA 
ENDBRANCH  21  24
ENDBRANCH  19  21
ENDBRANCH  11  17
BRANCH  16  35
HETATM   35  C   UNL     1      -9.264   8.265  65.980  1.00  0.00    -0.166 C  
BRANCH  35  36
HETATM   36  C   UNL     1      -8.761   8.283  64.526  1.00  0.00     0.158 C  
HETATM   37  H   UNL     1      -7.904   9.577  63.286  1.00  0.00     0.000 HD 
HETATM   38  O   UNL     1      -8.214   9.566  64.184  1.00  0.00    -0.138 OA 
BRANCH  36  39
HETATM   39  C   UNL     1      -7.630   7.260  64.356  1.00  0.00    -0.111 C  
HETATM   40  O   UNL     1      -6.530   7.865  63.675  1.00  0.00    -0.062 OA 
HETATM   41  H   UNL     1      -5.830   7.231  63.570  1.00  0.00     0.000 HD 
ENDBRANCH  36  39
ENDBRANCH  35  36
ENDBRANCH  16  35
ENDBRANCH   2   7
TORSDOF 8
ENDMDL
MODEL      142
REMARK 921   NORMALIZED FREE ENERGY PREDICTED BY IDOCK:   -1.24 KCAL/MOL
REMARK 922        TOTAL FREE ENERGY PREDICTED BY IDOCK:   -2.74 KCAL/MOL
REMARK 923 INTER-LIGAND FREE ENERGY PREDICTED BY IDOCK:   -3.78 KCAL/MOL
REMARK 924 INTRA-LIGAND FREE ENERGY PREDICTED BY IDOCK:    1.05 KCAL/MOL
REMARK 927      BINDING AFFINITY PREDICTED BY RF-SCORE:    0.00 PKD
ROOT
HETATM    1  C   UNL     1     -10.721  18.863  65.859  1.00  0.00    -0.366 C  
HETATM    2  C   UNL     1     -10.291  18.551  67.321  1.00  0.00    -0.430 C  
HETATM    3  C   UNL     1      -9.517  19.796  67.801  1.00  0.00    -0.456 C  
ENDROOT
BRANCH   2   4
HETATM    4  C   UNL     1     -11.594  18.368  68.154  1.00  0.00     1.656 C  
HETATM    5  H   UNL     1     -12.636  16.901  69.031  1.00  0.00     0.000 HD 
HETATM    6  O   UNL     1     -11.842  17.013  68.523  1.00  0.00     0.410 OA 
ENDBRANCH   2   4
BRANCH   2   7
HETATM    7  C   UNL     1      -9.382  17.304  67.351  1.00  0.00    -0.236 A  
HETATM    8  C   UNL     1      -9.711  16.028  66.918  1.00  0.00    -0.244 A  
HETATM    9  C   UNL     1      -8.645  15.151  67.186  1.00  0.00    -0.247 A  
HETATM   10  C   UNL     1      -8.480  13.765  66.987  1.00  0.00    -0.150 A  
HETATM   11  C   UNL     1      -7.298  13.133  67.376  1.00  0.00    -0.111 A  
HETATM   12  C   UNL     1      -6.299  13.905  67.977  1.00  0.00    -0.142 A  
HETATM   13  C   UNL     1      -7.629  15.896  67.775  1.00  0.00    -0.140 A  
HETATM   14  C   UNL     1      -6.435  15.279  68.193  1.00  0.00    -0.133 A  
HETATM   15  F   UNL     1      -5.154  13.307  68.357  1.00  0.00    -0.059 F  
HETATM   16  N   UNL     1      -8.069  17.217  67.818  1.00  0.00    -0.190 NA 
BRANCH  11  17
HETATM   17  N   UNL     1      -7.069  11.752  67.203  1.00  0.00    -0.139 N  
HETATM   18  H   UNL     1      -6.265  11.354  67.690  1.00  0.00     0.000 HD 
HETATM   19  C   UNL     1      -7.825  10.886  66.441  1.00  0.00    -0.154 C  
HETATM   20  O   UNL     1      -8.811  11.148  65.767  1.00  0.00    -0.193 OA 
BRANCH  19  21
HETATM   21  C   UNL     1      -7.357   9.451  66.502  1.00  0.00    -0.093 C  
HETATM   22  C   UNL     1      -6.005   9.098  65.894  1.00  0.00    -0.051 C  
HETATM   23  C   UNL     1      -7.254   8.732  65.157  1.00  0.00    -0.087 C  
BRANCH  21  24
HETATM   24  C   UNL     1      -7.891   8.666  67.700  1.00  0.00    -0.103 A  
HETATM   25  C   UNL     1      -8.021   5.616  70.989  1.00  0.00    -0.111 C  
HETATM   26  C   UNL     1      -8.843   9.260  68.572  1.00  0.00    -0.129 A  
HETATM   27  C   UNL     1      -7.383   7.401  68.050  1.00  0.00    -0.096 A  
HETATM   28  C   UNL     1      -9.241   8.654  69.770  1.00  0.00    -0.154 A  
HETATM   29  C   UNL     1      -8.680   7.437  70.080  1.00  0.00    -0.143 A  
HETATM   30  C   UNL     1      -7.787   6.822  69.235  1.00  0.00    -0.110 A  
HETATM   31  F   UNL     1      -7.092   5.594  71.976  1.00  0.00    -0.075 F  
HETATM   32  O   UNL     1      -7.340   5.635  69.727  1.00  0.00    -0.066 OA 
HETATM   33  F   UNL     1      -8.738   4.470  71.077  1.00  0.00    -0.105 F  
HETATM   34  O   UNL     1      -8.903   6.725  71.215  1.00  0.00    -0.135 OA 
ENDBRANCH  21  24
ENDBRANCH  19  21
ENDBRANCH  11  17
BRANCH  16  35
HETATM   35  C   UNL     1      -7.235  18.305  68.316  1.00  0.00    -0.259 C  
BRANCH  35  36
HETATM   36  C   UNL     1      -6.090  18.721  67.376  1.00  0.00    -0.171 C  
HETATM   37  H   UNL     1      -5.752  18.795  65.419  1.00  0.00     0.000 HD 
HETATM   38  O   UNL     1      -6.459  18.539  66.000  1.00  0.00    -0.196 OA 
BRANCH  36  39
HETATM   39  C   UNL     1      -5.785  20.213  67.559  1.00  0.00    -0.179 C  
HETATM   40  O   UNL     1      -6.866  20.848  68.242  1.00  0.00    -0.199 OA 
HETATM   41  H   UNL     1      -6.676  21.772  68.355  1.00  0.00     0.000 HD 
ENDBRANCH  36  39
ENDBRANCH  35  36
ENDBRANCH  16  35
ENDBRANCH   2   7
TORSDOF 8
ENDMDL
MODEL      143
REMARK 921   NORMALIZED FREE ENERGY PREDICTED BY IDOCK:   -0.49 KCAL/MOL
REMARK 922        TOTAL FREE ENERGY PREDICTED BY IDOCK:   -1.63 KCAL/MOL
REMARK 923 INTER-LIGAND FREE ENERGY PREDICTED BY IDOCK:   -2.69 KCAL/MOL
REMARK 924 INTRA-LIGAND FREE ENERGY PREDICTED BY IDOCK:    1.06 KCAL/MOL
REMARK 927      BINDING AFFINITY PREDICTED BY RF-SCORE:    0.00 PKD
ROOT
HETATM    1  C   UNL     1     -10.767  18.881  65.879  1.00  0.00    -0.366 C  
HETATM    2  C   UNL     1     -10.417  18.656  67.378  1.00  0.00    -0.467 C  
HETATM    3  C   UNL     1      -9.716  19.950  67.840  1.00  0.00    -0.510 C  
ENDROOT
BRANCH   2   4
HETATM    4  C   UNL     1     -11.762  18.465  68.140  1.00  0.00     2.098 C  
HETATM    5  H   UNL     1     -12.843  16.991  68.956  1.00  0.00     0.000 HD 
HETATM    6  O   UNL     1     -12.023  17.108  68.491  1.00  0.00     0.775 OA 
ENDBRANCH   2   4
BRANCH   2   7
HETATM    7  C   UNL     1      -9.470  17.446  67.524  1.00  0.00    -0.250 A  
HETATM    8  C   UNL     1      -9.732  16.138  67.146  1.00  0.00    -0.236 A  
HETATM    9  C   UNL     1      -8.653  15.316  67.517  1.00  0.00    -0.190 A  
HETATM   10  C   UNL     1      -8.431  13.928  67.403  1.00  0.00    -0.208 A  
HETATM   11  C   UNL     1      -7.252  13.361  67.889  1.00  0.00    -0.133 A  
HETATM   12  C   UNL     1      -6.313  14.199  68.499  1.00  0.00    -0.093 A  
HETATM   13  C   UNL     1      -7.697  16.127  68.117  1.00  0.00    -0.141 A  
HETATM   14  C   UNL     1      -6.507  15.577  68.631  1.00  0.00    -0.102 A  
HETATM   15  F   UNL     1      -5.171  13.665  68.971  1.00  0.00    -0.072 F  
HETATM   16  N   UNL     1      -8.182  17.432  68.065  1.00  0.00    -0.223 NA 
BRANCH  11  17
HETATM   17  N   UNL     1      -6.967  11.981  67.804  1.00  0.00    -0.093 N  
HETATM   18  H   UNL     1      -6.934  11.464  68.683  1.00  0.00     0.000 HD 
HETATM   19  C   UNL     1      -6.731  11.264  66.651  1.00  0.00    -0.132 C  
HETATM   20  O   UNL     1      -6.705  11.681  65.502  1.00  0.00     0.693 OA 
BRANCH  19  21
HETATM   21  C   UNL     1      -6.512   9.787  66.883  1.00  0.00    -0.066 C  
HETATM   22  C   UNL     1      -5.250   9.343  67.614  1.00  0.00    -0.037 C  
HETATM   23  C   UNL     1      -5.335   9.167  66.131  1.00  0.00    -0.037 C  
BRANCH  21  24
HETATM   24  C   UNL     1      -7.800   8.973  67.007  1.00  0.00    -0.098 A  
HETATM   25  C   UNL     1     -10.613   5.498  66.625  1.00  0.00    -0.299 C  
HETATM   26  C   UNL     1      -8.744   9.286  68.023  1.00  0.00    -0.125 A  
HETATM   27  C   UNL     1      -8.040   7.833  66.219  1.00  0.00    -0.114 A  
HETATM   28  C   UNL     1      -9.855   8.477  68.286  1.00  0.00    -0.190 A  
HETATM   29  C   UNL     1     -10.017   7.352  67.511  1.00  0.00    -0.173 A  
HETATM   30  C   UNL     1      -9.141   7.048  66.496  1.00  0.00    -0.156 A  
HETATM   31  F   UNL     1     -10.347   4.301  67.204  1.00  0.00    -0.188 F  
HETATM   32  O   UNL     1      -9.468   5.893  65.856  1.00  0.00    -0.118 OA 
HETATM   33  F   UNL     1     -11.659   5.322  65.784  1.00  0.00     0.010 F  
HETATM   34  O   UNL     1     -11.001   6.425  67.649  1.00  0.00    -0.310 OA 
ENDBRANCH  21  24
ENDBRANCH  19  21
ENDBRANCH  11  17
BRANCH  16  35
HETATM   35  C   UNL     1      -7.414  18.574  68.545  1.00  0.00    -0.297 C  
BRANCH  35  36
HETATM   36  C   UNL     1      -5.897  18.478  68.305  1.00  0.00    -0.193 C  
HETATM   37  H   UNL     1      -4.673  18.148  66.775  1.00  0.00     0.000 HD 
HETATM   38  O   UNL     1      -5.609  18.208  66.923  1.00  0.00    -0.137 OA 
BRANCH  36  39
HETATM   39  C   UNL     1      -5.232  19.819  68.641  1.00  0.00    -0.194 C  
HETATM   40  O   UNL     1      -6.071  20.894  68.218  1.00  0.00    -0.321 OA 
HETATM   41  H   UNL     1      -5.659  21.725  68.427  1.00  0.00     0.000 HD 
ENDBRANCH  36  39
ENDBRANCH  35  36
ENDBRANCH  16  35
ENDBRANCH   2   7
TORSDOF 8
ENDMDL
MODEL      144
REMARK 921   NORMALIZED FREE ENERGY PREDICTED BY IDOCK:   -0.39 KCAL/MOL
REMARK 922        TOTAL FREE ENERGY PREDICTED BY IDOCK:   -1.48 KCAL/MOL
REMARK 923 INTER-LIGAND FREE ENERGY PREDICTED BY IDOCK:   -2.19 KCAL/MOL
REMARK 924 INTRA-LIGAND FREE ENERGY PREDICTED BY IDOCK:    0.71 KCAL/MOL
REMARK 927      BINDING AFFINITY PREDICTED BY RF-SCORE:    0.00 PKD
ROOT
HETATM    1  C   UNL     1      -8.883  19.441  69.296  1.00  0.00    -0.034 C  
HETATM    2  C   UNL     1     -10.147  18.613  68.925  1.00  0.00    -0.357 C  
HETATM    3  C   UNL     1     -11.018  18.592  70.197  1.00  0.00     2.610 C  
ENDROOT
BRANCH   2   4
HETATM    4  C   UNL     1     -10.875  19.376  67.779  1.00  0.00    -0.283 C  
HETATM    5  H   UNL     1     -11.896  18.976  66.104  1.00  0.00     0.000 HD 
HETATM    6  O   UNL     1     -11.451  18.511  66.803  1.00  0.00     0.632 OA 
ENDBRANCH   2   4
BRANCH   2   7
HETATM    7  C   UNL     1      -9.740  17.178  68.524  1.00  0.00    -0.291 A  
HETATM    8  C   UNL     1     -10.451  16.014  68.777  1.00  0.00    -0.248 A  
HETATM    9  C   UNL     1      -9.712  14.906  68.327  1.00  0.00    -0.215 A  
HETATM   10  C   UNL     1      -9.955  13.517  68.375  1.00  0.00    -0.232 A  
HETATM   11  C   UNL     1      -9.018  12.620  67.860  1.00  0.00    -0.189 A  
HETATM   12  C   UNL     1      -7.837  13.133  67.315  1.00  0.00    -0.117 A  
HETATM   13  C   UNL     1      -8.535  15.387  67.767  1.00  0.00    -0.150 A  
HETATM   14  C   UNL     1      -7.566  14.502  67.258  1.00  0.00    -0.150 A  
HETATM   15  F   UNL     1      -6.925  12.278  66.815  1.00  0.00    -0.112 F  
HETATM   16  N   UNL     1      -8.589  16.777  67.843  1.00  0.00    -0.199 NA 
BRANCH  11  17
HETATM   17  N   UNL     1      -9.201  11.221  67.876  1.00  0.00    -0.153 N  
HETATM   18  H   UNL     1      -9.820  10.830  67.165  1.00  0.00     0.000 HD 
HETATM   19  C   UNL     1      -8.625  10.330  68.757  1.00  0.00    -0.139 C  
HETATM   20  O   UNL     1      -7.872  10.579  69.688  1.00  0.00    -0.149 OA 
BRANCH  19  21
HETATM   21  C   UNL     1      -8.972   8.886  68.480  1.00  0.00    -0.134 C  
HETATM   22  C   UNL     1     -10.177   8.277  69.187  1.00  0.00    -0.223 C  
HETATM   23  C   UNL     1      -8.801   7.928  69.658  1.00  0.00    -0.138 C  
BRANCH  21  24
HETATM   24  C   UNL     1      -8.569   8.398  67.088  1.00  0.00    -0.123 A  
HETATM   25  C   UNL     1      -7.794   5.551  63.708  1.00  0.00    -0.103 C  
HETATM   26  C   UNL     1      -8.632   9.284  65.978  1.00  0.00    -0.158 A  
HETATM   27  C   UNL     1      -8.243   7.054  66.834  1.00  0.00    -0.117 A  
HETATM   28  C   UNL     1      -8.433   8.850  64.662  1.00  0.00    -0.185 A  
HETATM   29  C   UNL     1      -8.159   7.516  64.471  1.00  0.00    -0.086 A  
HETATM   30  C   UNL     1      -8.052   6.646  65.530  1.00  0.00    -0.124 A  
HETATM   31  F   UNL     1      -8.781   4.783  63.184  1.00  0.00    -0.114 F  
HETATM   32  O   UNL     1      -7.788   5.372  65.131  1.00  0.00    -0.087 OA 
HETATM   33  F   UNL     1      -6.618   5.100  63.210  1.00  0.00    -0.025 F  
HETATM   34  O   UNL     1      -7.986   6.904  63.270  1.00  0.00    -0.117 OA 
ENDBRANCH  21  24
ENDBRANCH  19  21
ENDBRANCH  11  17
BRANCH  16  35
HETATM   35  C   UNL     1      -7.547  17.634  67.290  1.00  0.00    -0.199 C  
BRANCH  35  36
HETATM   36  C   UNL     1      -7.886  18.266  65.929  1.00  0.00    -0.047 C  
HETATM   37  H   UNL     1      -9.350  18.165  64.589  1.00  0.00     0.000 HD 
HETATM   38  O   UNL     1      -9.140  17.776  65.430  1.00  0.00     0.138 OA 
BRANCH  36  39
HETATM   39  C   UNL     1      -8.035  19.786  66.085  1.00  0.00    -0.340 C  
HETATM   40  O   UNL     1      -7.126  20.261  67.078  1.00  0.00    -0.237 OA 
HETATM   41  H   UNL     1      -7.219  21.202  67.174  1.00  0.00     0.000 HD 
ENDBRANCH  36  39
ENDBRANCH  35  36
ENDBRANCH  16  35
ENDBRANCH   2   7
TORSDOF 8
ENDMDL
MODEL      145
REMARK 921   NORMALIZED FREE ENERGY PREDICTED BY IDOCK:   -0.24 KCAL/MOL
REMARK 922        TOTAL FREE ENERGY PREDICTED BY IDOCK:   -1.27 KCAL/MOL
REMARK 923 INTER-LIGAND FREE ENERGY PREDICTED BY IDOCK:   -2.18 KCAL/MOL
REMARK 924 INTRA-LIGAND FREE ENERGY PREDICTED BY IDOCK:    0.91 KCAL/MOL
REMARK 927      BINDING AFFINITY PREDICTED BY RF-SCORE:    0.00 PKD
ROOT
HETATM    1  C   UNL     1     -11.140  15.913  67.086  1.00  0.00    -0.148 C  
HETATM    2  C   UNL     1      -9.928  15.935  68.061  1.00  0.00    -0.220 C  
HETATM    3  C   UNL     1      -9.141  17.216  67.718  1.00  0.00    -0.233 C  
ENDROOT
BRANCH   2   4
HETATM    4  C   UNL     1     -10.503  16.020  69.506  1.00  0.00    -0.286 C  
HETATM    5  H   UNL     1     -12.025  16.878  70.482  1.00  0.00     0.000 HD 
HETATM    6  O   UNL     1     -11.674  16.827  69.601  1.00  0.00     0.322 OA 
ENDBRANCH   2   4
BRANCH   2   7
HETATM    7  C   UNL     1      -9.049  14.685  67.839  1.00  0.00    -0.189 A  
HETATM    8  C   UNL     1      -9.185  13.745  66.829  1.00  0.00    -0.255 A  
HETATM    9  C   UNL     1      -8.246  12.715  67.016  1.00  0.00    -0.110 A  
HETATM   10  C   UNL     1      -7.990  11.521  66.310  1.00  0.00     0.019 A  
HETATM   11  C   UNL     1      -6.988  10.650  66.740  1.00  0.00    -0.110 A  
HETATM   12  C   UNL     1      -6.264  10.985  67.888  1.00  0.00    -0.053 A  
HETATM   13  C   UNL     1      -7.501  13.029  68.147  1.00  0.00    -0.130 A  
HETATM   14  C   UNL     1      -6.498  12.158  68.611  1.00  0.00    -0.072 A  
HETATM   15  F   UNL     1      -5.294  10.153  68.313  1.00  0.00    -0.037 F  
HETATM   16  N   UNL     1      -7.964  14.259  68.607  1.00  0.00    -0.140 NA 
BRANCH  11  17
HETATM   17  N   UNL     1      -6.680   9.442  66.078  1.00  0.00    -0.079 N  
HETATM   18  H   UNL     1      -5.824   8.966  66.364  1.00  0.00     0.000 HD 
HETATM   19  C   UNL     1      -7.423   8.842  65.083  1.00  0.00    -0.090 C  
HETATM   20  O   UNL     1      -8.463   9.243  64.581  1.00  0.00    -0.158 OA 
BRANCH  19  21
HETATM   21  C   UNL     1      -6.860   7.522  64.613  1.00  0.00    -0.051 C  
HETATM   22  C   UNL     1      -5.557   7.525  63.822  1.00  0.00    -0.041 C  
HETATM   23  C   UNL     1      -6.849   7.310  63.099  1.00  0.00    -0.054 C  
BRANCH  21  24
HETATM   24  C   UNL     1      -7.215   6.333  65.506  1.00  0.00    -0.070 A  
HETATM   25  C   UNL     1      -9.657   3.025  67.303  1.00  0.00     0.023 C  
HETATM   26  C   UNL     1      -6.187   5.493  66.014  1.00  0.00    -0.034 A  
HETATM   27  C   UNL     1      -8.548   5.958  65.754  1.00  0.00    -0.154 A  
HETATM   28  C   UNL     1      -6.463   4.303  66.697  1.00  0.00    -0.037 A  
HETATM   29  C   UNL     1      -7.784   3.967  66.875  1.00  0.00    -0.085 A  
HETATM   30  C   UNL     1      -8.798   4.781  66.428  1.00  0.00    -0.113 A  
HETATM   31  F   UNL     1     -10.147   2.011  66.547  1.00  0.00     0.523 F  
HETATM   32  O   UNL     1     -10.031   4.267  66.690  1.00  0.00    -0.224 OA 
HETATM   33  F   UNL     1     -10.245   2.948  68.520  1.00  0.00     0.194 F  
HETATM   34  O   UNL     1      -8.245   2.833  67.465  1.00  0.00    -0.078 OA 
ENDBRANCH  21  24
ENDBRANCH  19  21
ENDBRANCH  11  17
BRANCH  16  35
HETATM   35  C   UNL     1      -7.369  14.942  69.750  1.00  0.00    -0.100 C  
BRANCH  35  36
HETATM   36  C   UNL     1      -6.870  16.369  69.461  1.00  0.00    -0.187 C  
HETATM   37  H   UNL     1      -6.057  17.872  70.475  1.00  0.00     0.000 HD 
HETATM   38  O   UNL     1      -6.365  16.991  70.653  1.00  0.00     0.518 OA 
BRANCH  36  39
HETATM   39  C   UNL     1      -5.707  16.319  68.461  1.00  0.00    -0.109 C  
HETATM   40  O   UNL     1      -5.573  14.996  67.940  1.00  0.00    -0.135 OA 
HETATM   41  H   UNL     1      -4.853  14.966  67.321  1.00  0.00     0.000 HD 
ENDBRANCH  36  39
ENDBRANCH  35  36
ENDBRANCH  16  35
ENDBRANCH   2   7
TORSDOF 8
ENDMDL
MODEL      146
REMARK 921   NORMALIZED FREE ENERGY PREDICTED BY IDOCK:    0.02 KCAL/MOL
REMARK 922        TOTAL FREE ENERGY PREDICTED BY IDOCK:   -0.88 KCAL/MOL
REMARK 923 INTER-LIGAND FREE ENERGY PREDICTED BY IDOCK:   -0.27 KCAL/MOL
REMARK 924 INTRA-LIGAND FREE ENERGY PREDICTED BY IDOCK:   -0.61 KCAL/MOL
REMARK 927      BINDING AFFINITY PREDICTED BY RF-SCORE:    0.00 PKD
ROOT
HETATM    1  C   UNL     1     -12.947  13.221  68.926  1.00  0.00     1.719 C  
HETATM    2  C   UNL     1     -11.407  13.440  68.942  1.00  0.00    -0.331 C  
HETATM    3  C   UNL     1     -11.098  14.308  67.705  1.00  0.00    -0.294 C  
ENDROOT
BRANCH   2   4
HETATM    4  C   UNL     1     -11.067  14.215  70.249  1.00  0.00     0.170 C  
HETATM    5  H   UNL     1     -11.703  14.342  72.142  1.00  0.00     0.000 HD 
HETATM    6  O   UNL     1     -11.911  13.870  71.345  1.00  0.00    -0.116 OA 
ENDBRANCH   2   4
BRANCH   2   7
HETATM    7  C   UNL     1     -10.679  12.082  68.845  1.00  0.00    -0.185 A  
HETATM    8  C   UNL     1     -11.197  10.899  68.340  1.00  0.00    -0.347 A  
HETATM    9  C   UNL     1     -10.254   9.867  68.499  1.00  0.00    -0.199 A  
HETATM   10  C   UNL     1     -10.290   8.490  68.197  1.00  0.00    -0.258 A  
HETATM   11  C   UNL     1      -9.195   7.676  68.490  1.00  0.00    -0.143 A  
HETATM   12  C   UNL     1      -8.079   8.258  69.100  1.00  0.00    -0.120 A  
HETATM   13  C   UNL     1      -9.126  10.421  69.094  1.00  0.00    -0.187 A  
HETATM   14  C   UNL     1      -8.016   9.618  69.416  1.00  0.00    -0.111 A  
HETATM   15  F   UNL     1      -7.016   7.483  69.388  1.00  0.00    -0.051 F  
HETATM   16  N   UNL     1      -9.377  11.782  69.248  1.00  0.00     0.391 NA 
BRANCH  11  17
HETATM   17  N   UNL     1      -9.166   6.293  68.212  1.00  0.00    -0.113 N  
HETATM   18  H   UNL     1      -9.833   5.709  68.716  1.00  0.00     0.000 HD 
HETATM   19  C   UNL     1      -8.325   5.654  67.326  1.00  0.00    -0.100 C  
HETATM   20  O   UNL     1      -7.446   6.153  66.635  1.00  0.00    -0.087 OA 
BRANCH  19  21
HETATM   21  C   UNL     1      -8.576   4.170  67.206  1.00  0.00    -0.103 C  
HETATM   22  C   UNL     1      -8.056   3.439  65.973  1.00  0.00    -0.093 C  
HETATM   23  C   UNL     1      -9.516   3.748  66.078  1.00  0.00    -0.178 C  
BRANCH  21  24
HETATM   24  C   UNL     1      -8.682   3.440  68.545  1.00  0.00    -0.139 A  
HETATM   25  C   UNL     1      -8.767   2.833  72.990  1.00  0.00    -0.079 C  
HETATM   26  C   UNL     1      -9.380   2.205  68.628  1.00  0.00    -0.235 A  
HETATM   27  C   UNL     1      -8.210   4.007  69.743  1.00  0.00    -0.066 A  
HETATM   28  C   UNL     1      -9.648   1.578  69.851  1.00  0.00    -0.089 A  
HETATM   29  C   UNL     1      -9.199   2.199  70.993  1.00  0.00    -0.117 A  
HETATM   30  C   UNL     1      -8.486   3.374  70.937  1.00  0.00    -0.066 A  
HETATM   31  F   UNL     1      -9.693   3.439  73.773  1.00  0.00    -0.110 F  
HETATM   32  O   UNL     1      -8.142   3.832  72.172  1.00  0.00    -0.073 OA 
HETATM   33  F   UNL     1      -7.830   2.295  73.807  1.00  0.00    -0.048 F  
HETATM   34  O   UNL     1      -9.405   1.771  72.266  1.00  0.00    -0.073 OA 
ENDBRANCH  21  24
ENDBRANCH  19  21
ENDBRANCH  11  17
BRANCH  16  35
HETATM   35  C   UNL     1      -8.384  12.706  69.784  1.00  0.00     2.219 C  
BRANCH  35  36
HETATM   36  C   UNL     1      -7.573  13.469  68.722  1.00  0.00    -0.066 C  
HETATM   37  H   UNL     1      -6.128  14.831  68.678  1.00  0.00     0.000 HD 
HETATM   38  O   UNL     1      -6.628  14.360  69.335  1.00  0.00    -0.120 OA 
BRANCH  36  39
HETATM   39  C   UNL     1      -6.763  12.477  67.876  1.00  0.00    -0.103 C  
HETATM   40  O   UNL     1      -7.499  12.129  66.702  1.00  0.00    -0.370 OA 
HETATM   41  H   UNL     1      -6.996  11.516  66.179  1.00  0.00     0.000 HD 
ENDBRANCH  36  39
ENDBRANCH  35  36
ENDBRANCH  16  35
ENDBRANCH   2   7
TORSDOF 8
ENDMDL
MODEL      147
REMARK 921   NORMALIZED FREE ENERGY PREDICTED BY IDOCK:    0.14 KCAL/MOL
REMARK 922        TOTAL FREE ENERGY PREDICTED BY IDOCK:   -0.71 KCAL/MOL
REMARK 923 INTER-LIGAND FREE ENERGY PREDICTED BY IDOCK:   -1.83 KCAL/MOL
REMARK 924 INTRA-LIGAND FREE ENERGY PREDICTED BY IDOCK:    1.12 KCAL/MOL
REMARK 927      BINDING AFFINITY PREDICTED BY RF-SCORE:    0.00 PKD
ROOT
HETATM    1  C   UNL     1     -10.095   6.369  72.571  1.00  0.00    -0.191 C  
HETATM    2  C   UNL     1      -8.562   6.442  72.319  1.00  0.00    -0.117 C  
HETATM    3  C   UNL     1      -7.939   6.874  73.662  1.00  0.00    -0.114 C  
ENDROOT
BRANCH   2   4
HETATM    4  C   UNL     1      -8.091   5.008  71.937  1.00  0.00    -0.115 C  
HETATM    5  H   UNL     1      -8.684   3.110  72.160  1.00  0.00     0.000 HD 
HETATM    6  O   UNL     1      -8.971   3.985  72.393  1.00  0.00    -0.107 OA 
ENDBRANCH   2   4
BRANCH   2   7
HETATM    7  C   UNL     1      -8.256   7.484  71.221  1.00  0.00    -0.100 A  
HETATM    8  C   UNL     1      -8.740   8.783  71.153  1.00  0.00    -0.265 A  
HETATM    9  C   UNL     1      -8.299   9.387  69.963  1.00  0.00    -0.190 A  
HETATM   10  C   UNL     1      -8.531  10.658  69.397  1.00  0.00    -0.058 A  
HETATM   11  C   UNL     1      -7.973  10.992  68.163  1.00  0.00    -0.119 A  
HETATM   12  C   UNL     1      -7.197  10.035  67.503  1.00  0.00    -0.089 A  
HETATM   13  C   UNL     1      -7.512   8.459  69.290  1.00  0.00    -0.084 A  
HETATM   14  C   UNL     1      -6.953   8.766  68.035  1.00  0.00    -0.078 A  
HETATM   15  F   UNL     1      -6.653  10.345  66.311  1.00  0.00    -0.079 F  
HETATM   16  N   UNL     1      -7.449   7.323  70.094  1.00  0.00    -0.086 NA 
BRANCH  11  17
HETATM   17  N   UNL     1      -8.165  12.246  67.544  1.00  0.00    -0.159 N  
HETATM   18  H   UNL     1      -8.071  12.277  66.528  1.00  0.00     0.000 HD 
HETATM   19  C   UNL     1      -8.468  13.433  68.177  1.00  0.00    -0.172 C  
HETATM   20  O   UNL     1      -8.608  13.627  69.376  1.00  0.00     0.526 OA 
BRANCH  19  21
HETATM   21  C   UNL     1      -8.669  14.595  67.233  1.00  0.00    -0.224 C  
HETATM   22  C   UNL     1      -9.846  14.554  66.266  1.00  0.00    -0.322 C  
HETATM   23  C   UNL     1      -8.468  14.284  65.750  1.00  0.00     1.801 C  
BRANCH  21  24
HETATM   24  C   UNL     1      -8.157  15.934  67.766  1.00  0.00    -0.155 A  
HETATM   25  C   UNL     1      -7.727  20.378  68.210  1.00  0.00     0.009 C  
HETATM   26  C   UNL     1      -7.610  16.015  69.075  1.00  0.00    -0.209 A  
HETATM   27  C   UNL     1      -8.314  17.132  67.046  1.00  0.00    -0.232 A  
HETATM   28  C   UNL     1      -7.279  17.237  69.673  1.00  0.00     0.303 A  
HETATM   29  C   UNL     1      -7.493  18.379  68.937  1.00  0.00    -0.243 A  
HETATM   30  C   UNL     1      -7.983  18.326  67.654  1.00  0.00    -0.241 A  
HETATM   31  F   UNL     1      -8.774  21.161  68.569  1.00  0.00     0.647 F  
HETATM   32  O   UNL     1      -8.133  19.561  67.102  1.00  0.00    -0.259 OA 
HETATM   33  F   UNL     1      -6.727  21.194  67.801  1.00  0.00    -0.359 F  
HETATM   34  O   UNL     1      -7.281  19.652  69.364  1.00  0.00    -0.352 OA 
ENDBRANCH  21  24
ENDBRANCH  19  21
ENDBRANCH  11  17
BRANCH  16  35
HETATM   35  C   UNL     1      -6.651   6.155  69.739  1.00  0.00    -0.047 C  
BRANCH  35  36
HETATM   36  C   UNL     1      -7.200   5.332  68.561  1.00  0.00    -0.063 C  
HETATM   37  H   UNL     1      -7.425   3.415  68.090  1.00  0.00     0.000 HD 
HETATM   38  O   UNL     1      -7.086   3.924  68.818  1.00  0.00    -0.050 OA 
BRANCH  36  39
HETATM   39  C   UNL     1      -8.693   5.629  68.372  1.00  0.00    -0.109 C  
HETATM   40  O   UNL     1      -9.467   4.767  69.208  1.00  0.00    -0.126 OA 
HETATM   41  H   UNL     1     -10.392   4.951  69.090  1.00  0.00     0.000 HD 
ENDBRANCH  36  39
ENDBRANCH  35  36
ENDBRANCH  16  35
ENDBRANCH   2   7
TORSDOF 8
ENDMDL
MODEL      148
REMARK 921   NORMALIZED FREE ENERGY PREDICTED BY IDOCK:    1.21 KCAL/MOL
REMARK 922        TOTAL FREE ENERGY PREDICTED BY IDOCK:    0.86 KCAL/MOL
REMARK 923 INTER-LIGAND FREE ENERGY PREDICTED BY IDOCK:   -0.87 KCAL/MOL
REMARK 924 INTRA-LIGAND FREE ENERGY PREDICTED BY IDOCK:    1.73 KCAL/MOL
REMARK 927      BINDING AFFINITY PREDICTED BY RF-SCORE:    0.00 PKD
ROOT
HETATM    1  C   UNL     1      -8.671  17.252  67.113  1.00  0.00    -0.231 C  
HETATM    2  C   UNL     1      -7.703  16.226  67.768  1.00  0.00    -0.157 C  
HETATM    3  C   UNL     1      -6.709  15.823  66.660  1.00  0.00     0.623 C  
ENDROOT
BRANCH   2   4
HETATM    4  C   UNL     1      -6.961  16.965  68.921  1.00  0.00    -0.213 C  
HETATM    5  H   UNL     1      -6.513  16.694  70.852  1.00  0.00     0.000 HD 
HETATM    6  O   UNL     1      -6.965  16.243  70.150  1.00  0.00     0.203 OA 
ENDBRANCH   2   4
BRANCH   2   7
HETATM    7  C   UNL     1      -8.493  14.993  68.260  1.00  0.00    -0.147 A  
HETATM    8  C   UNL     1      -8.317  13.680  67.852  1.00  0.00    -0.174 A  
HETATM    9  C   UNL     1      -9.282  12.863  68.468  1.00  0.00    -0.062 A  
HETATM   10  C   UNL     1      -9.566  11.485  68.370  1.00  0.00    -0.195 A  
HETATM   11  C   UNL     1     -10.621  10.930  69.094  1.00  0.00    -0.220 A  
HETATM   12  C   UNL     1     -11.390  11.774  69.901  1.00  0.00    -0.121 A  
HETATM   13  C   UNL     1     -10.056  13.676  69.288  1.00  0.00     0.302 A  
HETATM   14  C   UNL     1     -11.137  13.144  70.014  1.00  0.00     0.345 A  
HETATM   15  F   UNL     1     -12.412  11.251  70.605  1.00  0.00    -0.378 F  
HETATM   16  N   UNL     1      -9.529  14.963  69.194  1.00  0.00    -0.188 NA 
BRANCH  11  17
HETATM   17  N   UNL     1     -10.956   9.560  69.042  1.00  0.00    -0.398 N  
HETATM   18  H   UNL     1     -11.865   9.323  68.646  1.00  0.00     0.000 HD 
HETATM   19  C   UNL     1     -10.174   8.509  69.474  1.00  0.00    -0.206 C  
HETATM   20  O   UNL     1      -9.067   8.564  69.992  1.00  0.00    -0.143 OA 
BRANCH  19  21
HETATM   21  C   UNL     1     -10.787   7.151  69.231  1.00  0.00    -0.204 C  
HETATM   22  C   UNL     1     -11.982   7.048  68.290  1.00  0.00     1.821 C  
HETATM   23  C   UNL     1     -12.205   6.960  69.767  1.00  0.00     0.390 C  
BRANCH  21  24
HETATM   24  C   UNL     1      -9.804   5.986  69.356  1.00  0.00    -0.203 A  
HETATM   25  C   UNL     1      -6.346   3.568  70.883  1.00  0.00    -0.019 C  
HETATM   26  C   UNL     1     -10.187   4.684  68.935  1.00  0.00    -0.012 A  
HETATM   27  C   UNL     1      -8.556   6.128  69.991  1.00  0.00    -0.136 A  
HETATM   28  C   UNL     1      -9.394   3.556  69.176  1.00  0.00    -0.242 A  
HETATM   29  C   UNL     1      -8.204   3.749  69.837  1.00  0.00    -0.053 A  
HETATM   30  C   UNL     1      -7.790   5.003  70.220  1.00  0.00    -0.070 A  
HETATM   31  F   UNL     1      -6.279   3.159  72.174  1.00  0.00    -0.012 F  
HETATM   32  O   UNL     1      -6.594   4.981  70.868  1.00  0.00    -0.032 OA 
HETATM   33  F   UNL     1      -5.138   3.335  70.317  1.00  0.00    -0.003 F  
HETATM   34  O   UNL     1      -7.329   2.776  70.202  1.00  0.00    -0.040 OA 
ENDBRANCH  21  24
ENDBRANCH  19  21
ENDBRANCH  11  17
BRANCH  16  35
HETATM   35  C   UNL     1     -10.049  16.080  69.974  1.00  0.00    -0.039 C  
BRANCH  35  36
HETATM   36  C   UNL     1     -11.545  16.372  69.765  1.00  0.00     0.003 C  
HETATM   37  H   UNL     1     -13.028  15.691  68.631  1.00  0.00     0.000 HD 
HETATM   38  O   UNL     1     -12.104  15.511  68.760  1.00  0.00    -0.291 OA 
BRANCH  36  39
HETATM   39  C   UNL     1     -12.315  16.096  71.063  1.00  0.00    -0.028 C  
HETATM   40  O   UNL     1     -11.496  16.419  72.188  1.00  0.00    -0.337 OA 
HETATM   41  H   UNL     1     -11.973  16.248  72.992  1.00  0.00     0.000 HD 
ENDBRANCH  36  39
ENDBRANCH  35  36
ENDBRANCH  16  35
ENDBRANCH   2   7
TORSDOF 8
ENDMDL
MODEL      149
REMARK 921   NORMALIZED FREE ENERGY PREDICTED BY IDOCK:    2.68 KCAL/MOL
REMARK 922        TOTAL FREE ENERGY PREDICTED BY IDOCK:    3.02 KCAL/MOL
REMARK 923 INTER-LIGAND FREE ENERGY PREDICTED BY IDOCK:    1.07 KCAL/MOL
REMARK 924 INTRA-LIGAND FREE ENERGY PREDICTED BY IDOCK:    1.95 KCAL/MOL
REMARK 927      BINDING AFFINITY PREDICTED BY RF-SCORE:    0.00 PKD
ROOT
HETATM    1  C   UNL     1      -9.640  15.773  69.001  1.00  0.00    -0.243 C  
HETATM    2  C   UNL     1      -8.233  15.200  68.667  1.00  0.00    -0.154 C  
HETATM    3  C   UNL     1      -7.523  16.293  67.843  1.00  0.00    -0.142 C  
ENDROOT
BRANCH   2   4
HETATM    4  C   UNL     1      -7.497  14.974  70.020  1.00  0.00     0.096 C  
HETATM    5  H   UNL     1      -7.828  15.201  71.981  1.00  0.00     0.000 HD 
HETATM    6  O   UNL     1      -8.277  15.340  71.156  1.00  0.00     2.112 OA 
ENDBRANCH   2   4
BRANCH   2   7
HETATM    7  C   UNL     1      -8.374  13.904  67.839  1.00  0.00    -0.167 A  
HETATM    8  C   UNL     1      -7.754  12.689  68.090  1.00  0.00    -0.142 A  
HETATM    9  C   UNL     1      -8.070  11.779  67.065  1.00  0.00    -0.169 A  
HETATM   10  C   UNL     1      -7.678  10.447  66.821  1.00  0.00    -0.114 A  
HETATM   11  C   UNL     1      -8.137   9.775  65.687  1.00  0.00    -0.120 A  
HETATM   12  C   UNL     1      -8.976  10.459  64.802  1.00  0.00    -0.202 A  
HETATM   13  C   UNL     1      -8.916  12.431  66.175  1.00  0.00     0.037 A  
HETATM   14  C   UNL     1      -9.377  11.781  65.015  1.00  0.00     0.001 A  
HETATM   15  F   UNL     1      -9.425   9.821  63.705  1.00  0.00    -0.309 F  
HETATM   16  N   UNL     1      -9.137  13.707  66.687  1.00  0.00    -0.215 NA 
BRANCH  11  17
HETATM   17  N   UNL     1      -7.784   8.442  65.386  1.00  0.00    -0.095 N  
HETATM   18  H   UNL     1      -7.420   7.877  66.154  1.00  0.00     0.000 HD 
HETATM   19  C   UNL     1      -7.882   7.827  64.155  1.00  0.00    -0.133 C  
HETATM   20  O   UNL     1      -8.271   8.316  63.104  1.00  0.00    -0.161 OA 
BRANCH  19  21
HETATM   21  C   UNL     1      -7.479   6.372  64.165  1.00  0.00    -0.084 C  
HETATM   22  C   UNL     1      -6.007   6.022  63.978  1.00  0.00    -0.025 C  
HETATM   23  C   UNL     1      -6.955   5.823  62.838  1.00  0.00    -0.047 C  
BRANCH  21  24
HETATM   24  C   UNL     1      -8.381   5.475  65.012  1.00  0.00    -0.146 A  
HETATM   25  C   UNL     1      -9.890   3.240  68.598  1.00  0.00     0.276 C  
HETATM   26  C   UNL     1      -9.749   5.309  64.662  1.00  0.00     0.559 A  
HETATM   27  C   UNL     1      -7.937   4.888  66.211  1.00  0.00    -0.107 A  
HETATM   28  C   UNL     1     -10.656   4.636  65.489  1.00  0.00    -0.208 A  
HETATM   29  C   UNL     1     -10.174   4.119  66.668  1.00  0.00     0.126 A  
HETATM   30  C   UNL     1      -8.847   4.230  67.012  1.00  0.00    -0.116 A  
HETATM   31  F   UNL     1     -10.233   3.880  69.743  1.00  0.00    -0.198 F  
HETATM   32  O   UNL     1      -8.574   3.665  68.219  1.00  0.00    -0.090 OA 
HETATM   33  F   UNL     1      -9.856   1.913  68.867  1.00  0.00    -0.192 F  
HETATM   34  O   UNL     1     -10.908   3.480  67.617  1.00  0.00     2.560 OA 
ENDBRANCH  21  24
ENDBRANCH  19  21
ENDBRANCH  11  17
BRANCH  16  35
HETATM   35  C   UNL     1     -10.035  14.663  66.049  1.00  0.00    -0.316 C  
BRANCH  35  36
HETATM   36  C   UNL     1     -11.448  14.723  66.654  1.00  0.00    -0.335 C  
HETATM   37  H   UNL     1     -12.769  16.120  67.160  1.00  0.00     0.000 HD 
HETATM   38  O   UNL     1     -11.896  16.082  66.786  1.00  0.00     0.557 OA 
BRANCH  36  39
HETATM   39  C   UNL     1     -12.443  14.018  65.722  1.00  0.00    -0.494 C  
HETATM   40  O   UNL     1     -12.273  12.603  65.816  1.00  0.00    -0.532 OA 
HETATM   41  H   UNL     1     -12.889  12.167  65.239  1.00  0.00     0.000 HD 
ENDBRANCH  36  39
ENDBRANCH  35  36
ENDBRANCH  16  35
ENDBRANCH   2   7
TORSDOF 8
ENDMDL
MODEL      150
REMARK 921   NORMALIZED FREE ENERGY PREDICTED BY IDOCK:    3.78 KCAL/MOL
REMARK 922        TOTAL FREE ENERGY PREDICTED BY IDOCK:    4.63 KCAL/MOL
REMARK 923 INTER-LIGAND FREE ENERGY PREDICTED BY IDOCK:    3.58 KCAL/MOL
REMARK 924 INTRA-LIGAND FREE ENERGY PREDICTED BY IDOCK:    1.04 KCAL/MOL
REMARK 927      BINDING AFFINITY PREDICTED BY RF-SCORE:    0.00 PKD
ROOT
HETATM    1  C   UNL     1     -12.350   5.680  70.714  1.00  0.00     2.146 C  
HETATM    2  C   UNL     1     -11.490   6.538  71.686  1.00  0.00    -0.345 C  
HETATM    3  C   UNL     1     -12.486   7.165  72.682  1.00  0.00     0.327 C  
ENDROOT
BRANCH   2   4
HETATM    4  C   UNL     1     -10.522   5.565  72.423  1.00  0.00    -0.214 C  
HETATM    5  H   UNL     1      -9.483   5.468  74.130  1.00  0.00     0.000 HD 
HETATM    6  O   UNL     1     -10.072   6.062  73.680  1.00  0.00    -0.181 OA 
ENDBRANCH   2   4
BRANCH   2   7
HETATM    7  C   UNL     1     -10.746   7.639  70.900  1.00  0.00    -0.235 A  
HETATM    8  C   UNL     1      -9.711   8.436  71.368  1.00  0.00    -0.260 A  
HETATM    9  C   UNL     1      -9.356   9.373  70.381  1.00  0.00    -0.317 A  
HETATM   10  C   UNL     1      -8.411  10.419  70.359  1.00  0.00     0.880 A  
HETATM   11  C   UNL     1      -8.282  11.227  69.228  1.00  0.00     0.150 A  
HETATM   12  C   UNL     1      -9.119  10.980  68.136  1.00  0.00    -0.155 A  
HETATM   13  C   UNL     1     -10.166   9.142  69.275  1.00  0.00    -0.210 A  
HETATM   14  C   UNL     1     -10.068   9.955  68.130  1.00  0.00    -0.193 A  
HETATM   15  F   UNL     1      -9.004  11.753  67.039  1.00  0.00    -0.163 F  
HETATM   16  N   UNL     1     -10.970   8.047  69.584  1.00  0.00    -0.164 NA 
BRANCH  11  17
HETATM   17  N   UNL     1      -7.356  12.288  69.140  1.00  0.00    -0.318 N  
HETATM   18  H   UNL     1      -6.372  12.033  69.049  1.00  0.00     0.000 HD 
HETATM   19  C   UNL     1      -7.649  13.635  69.166  1.00  0.00     0.140 C  
HETATM   20  O   UNL     1      -8.747  14.160  69.285  1.00  0.00     0.142 OA 
BRANCH  19  21
HETATM   21  C   UNL     1      -6.442  14.527  68.994  1.00  0.00    -0.099 C  
HETATM   22  C   UNL     1      -5.247  13.995  68.211  1.00  0.00    -0.111 C  
HETATM   23  C   UNL     1      -5.171  14.063  69.704  1.00  0.00    -0.091 C  
BRANCH  21  24
HETATM   24  C   UNL     1      -6.761  16.022  68.989  1.00  0.00    -0.157 A  
HETATM   25  C   UNL     1      -9.193  19.787  68.765  1.00  0.00    -0.195 C  
HETATM   26  C   UNL     1      -5.889  16.938  69.638  1.00  0.00    -0.210 A  
HETATM   27  C   UNL     1      -7.963  16.527  68.459  1.00  0.00    -0.216 A  
HETATM   28  C   UNL     1      -6.213  18.289  69.806  1.00  0.00    -0.174 A  
HETATM   29  C   UNL     1      -7.420  18.717  69.303  1.00  0.00    -0.076 A  
HETATM   30  C   UNL     1      -8.264  17.862  68.636  1.00  0.00    -0.275 A  
HETATM   31  F   UNL     1     -10.178  20.051  69.657  1.00  0.00    -0.461 F  
HETATM   32  O   UNL     1      -9.409  18.474  68.228  1.00  0.00    -0.305 OA 
HETATM   33  F   UNL     1      -9.300  20.688  67.759  1.00  0.00    -0.439 F  
HETATM   34  O   UNL     1      -7.927  19.973  69.412  1.00  0.00    -0.001 OA 
ENDBRANCH  21  24
ENDBRANCH  19  21
ENDBRANCH  11  17
BRANCH  16  35
HETATM   35  C   UNL     1     -11.910   7.472  68.630  1.00  0.00     1.697 C  
BRANCH  35  36
HETATM   36  C   UNL     1     -11.361   6.286  67.818  1.00  0.00     0.120 C  
HETATM   37  H   UNL     1     -12.058   4.936  66.537  1.00  0.00     0.000 HD 
HETATM   38  O   UNL     1     -12.397   5.669  67.038  1.00  0.00     4.030 OA 
BRANCH  36  39
HETATM   39  C   UNL     1     -10.297   6.781  66.829  1.00  0.00    -0.215 C  
HETATM   40  O   UNL     1     -10.271   5.932  65.682  1.00  0.00    -0.266 OA 
HETATM   41  H   UNL     1      -9.613   6.239  65.069  1.00  0.00     0.000 HD 
ENDBRANCH  36  39
ENDBRANCH  35  36
ENDBRANCH  16  35
ENDBRANCH   2   7
TORSDOF 8
ENDMDL
MODEL      151
REMARK 921   NORMALIZED FREE ENERGY PREDICTED BY IDOCK:    4.15 KCAL/MOL
REMARK 922        TOTAL FREE ENERGY PREDICTED BY IDOCK:    5.18 KCAL/MOL
REMARK 923 INTER-LIGAND FREE ENERGY PREDICTED BY IDOCK:    1.27 KCAL/MOL
REMARK 924 INTRA-LIGAND FREE ENERGY PREDICTED BY IDOCK:    3.91 KCAL/MOL
REMARK 927      BINDING AFFINITY PREDICTED BY RF-SCORE:    0.00 PKD
ROOT
HETATM    1  C   UNL     1     -10.539  17.348  69.698  1.00  0.00     0.209 C  
HETATM    2  C   UNL     1      -9.501  17.308  68.540  1.00  0.00    -0.285 C  
HETATM    3  C   UNL     1     -10.174  18.026  67.352  1.00  0.00    -0.370 C  
ENDROOT
BRANCH   2   4
HETATM    4  C   UNL     1      -8.250  18.102  69.018  1.00  0.00    -0.039 C  
HETATM    5  H   UNL     1      -6.345  18.394  68.478  1.00  0.00     0.000 HD 
HETATM    6  O   UNL     1      -7.108  17.909  68.187  1.00  0.00    -0.211 OA 
ENDBRANCH   2   4
BRANCH   2   7
HETATM    7  C   UNL     1      -9.176  15.844  68.172  1.00  0.00    -0.190 A  
HETATM    8  C   UNL     1      -8.536  14.911  68.974  1.00  0.00    -0.178 A  
HETATM    9  C   UNL     1      -8.353  13.718  68.253  1.00  0.00    -0.161 A  
HETATM   10  C   UNL     1      -7.734  12.493  68.580  1.00  0.00    -0.063 A  
HETATM   11  C   UNL     1      -7.675  11.461  67.642  1.00  0.00    -0.121 A  
HETATM   12  C   UNL     1      -8.227  11.681  66.377  1.00  0.00    -0.052 A  
HETATM   13  C   UNL     1      -8.905  13.903  66.991  1.00  0.00    -0.218 A  
HETATM   14  C   UNL     1      -8.842  12.885  66.022  1.00  0.00     0.394 A  
HETATM   15  F   UNL     1      -8.176  10.694  65.463  1.00  0.00    -0.151 F  
HETATM   16  N   UNL     1      -9.453  15.184  66.974  1.00  0.00    -0.218 NA 
BRANCH  11  17
HETATM   17  N   UNL     1      -7.073  10.213  67.907  1.00  0.00    -0.084 N  
HETATM   18  H   UNL     1      -6.171  10.034  67.464  1.00  0.00     0.000 HD 
HETATM   19  C   UNL     1      -7.584   9.211  68.705  1.00  0.00    -0.084 C  
HETATM   20  O   UNL     1      -8.645   9.205  69.312  1.00  0.00    -0.130 OA 
BRANCH  19  21
HETATM   21  C   UNL     1      -6.675   8.012  68.837  1.00  0.00    -0.053 C  
HETATM   22  C   UNL     1      -5.905   7.820  70.139  1.00  0.00    -0.023 C  
HETATM   23  C   UNL     1      -5.181   8.321  68.930  1.00  0.00    -0.031 C  
BRANCH  21  24
HETATM   24  C   UNL     1      -7.110   6.799  68.015  1.00  0.00    -0.085 A  
HETATM   25  C   UNL     1      -7.035   3.672  64.797  1.00  0.00    -0.050 C  
HETATM   26  C   UNL     1      -7.922   5.793  68.606  1.00  0.00    -0.101 A  
HETATM   27  C   UNL     1      -6.638   6.574  66.709  1.00  0.00    -0.048 A  
HETATM   28  C   UNL     1      -8.213   4.588  67.956  1.00  0.00    -0.094 A  
HETATM   29  C   UNL     1      -7.690   4.406  66.697  1.00  0.00    -0.094 A  
HETATM   30  C   UNL     1      -6.936   5.379  66.086  1.00  0.00    -0.063 A  
HETATM   31  F   UNL     1      -6.001   2.803  64.674  1.00  0.00    -0.016 F  
HETATM   32  O   UNL     1      -6.503   5.003  64.852  1.00  0.00    -0.034 OA 
HETATM   33  F   UNL     1      -7.800   3.557  63.686  1.00  0.00    -0.073 F  
HETATM   34  O   UNL     1      -7.821   3.289  65.935  1.00  0.00    -0.083 OA 
ENDBRANCH  21  24
ENDBRANCH  19  21
ENDBRANCH  11  17
BRANCH  16  35
HETATM   35  C   UNL     1     -10.181  15.709  65.825  1.00  0.00    -0.367 C  
BRANCH  35  36
HETATM   36  C   UNL     1     -11.475  16.466  66.172  1.00  0.00     0.726 C  
HETATM   37  H   UNL     1     -12.173  18.321  66.025  1.00  0.00     0.000 HD 
HETATM   38  O   UNL     1     -11.374  17.853  65.811  1.00  0.00     0.568 OA 
BRANCH  36  39
HETATM   39  C   UNL     1     -12.648  15.884  65.372  1.00  0.00     1.785 C  
HETATM   40  O   UNL     1     -13.511  15.153  66.243  1.00  0.00     1.357 OA 
HETATM   41  H   UNL     1     -14.238  14.793  65.747  1.00  0.00     0.000 HD 
ENDBRANCH  36  39
ENDBRANCH  35  36
ENDBRANCH  16  35
ENDBRANCH   2   7
TORSDOF 8
ENDMDL
MODEL      152
REMARK 921   NORMALIZED FREE ENERGY PREDICTED BY IDOCK:    4.23 KCAL/MOL
REMARK 922        TOTAL FREE ENERGY PREDICTED BY IDOCK:    5.29 KCAL/MOL
REMARK 923 INTER-LIGAND FREE ENERGY PREDICTED BY IDOCK:    5.02 KCAL/MOL
REMARK 924 INTRA-LIGAND FREE ENERGY PREDICTED BY IDOCK:    0.27 KCAL/MOL
REMARK 927      BINDING AFFINITY PREDICTED BY RF-SCORE:    0.00 PKD
ROOT
HETATM    1  C   UNL     1     -11.703  16.040  67.325  1.00  0.00     0.449 C  
HETATM    2  C   UNL     1     -11.001  15.776  68.688  1.00  0.00    -0.307 C  
HETATM    3  C   UNL     1      -9.897  16.846  68.803  1.00  0.00    -0.269 C  
ENDROOT
BRANCH   2   4
HETATM    4  C   UNL     1     -12.071  15.977  69.802  1.00  0.00    -0.107 C  
HETATM    5  H   UNL     1     -13.078  14.890  71.148  1.00  0.00     0.000 HD 
HETATM    6  O   UNL     1     -12.426  14.767  70.468  1.00  0.00    -0.315 OA 
ENDBRANCH   2   4
BRANCH   2   7
HETATM    7  C   UNL     1     -10.385  14.360  68.700  1.00  0.00    -0.245 A  
HETATM    8  C   UNL     1     -10.651  13.333  67.807  1.00  0.00    -0.249 A  
HETATM    9  C   UNL     1      -9.955  12.176  68.200  1.00  0.00    -0.201 A  
HETATM   10  C   UNL     1      -9.908  10.869  67.673  1.00  0.00    -0.192 A  
HETATM   11  C   UNL     1      -9.132   9.888  68.292  1.00  0.00    -0.122 A  
HETATM   12  C   UNL     1      -8.422  10.232  69.446  1.00  0.00    -0.160 A  
HETATM   13  C   UNL     1      -9.229  12.493  69.342  1.00  0.00     1.248 A  
HETATM   14  C   UNL     1      -8.454  11.516  69.995  1.00  0.00     2.176 A  
HETATM   15  F   UNL     1      -7.670   9.294  70.053  1.00  0.00    -0.063 F  
HETATM   16  N   UNL     1      -9.456  13.842  69.604  1.00  0.00     0.846 NA 
BRANCH  11  17
HETATM   17  N   UNL     1      -9.040   8.563  67.814  1.00  0.00    -0.135 N  
HETATM   18  H   UNL     1      -8.178   8.058  68.022  1.00  0.00     0.000 HD 
HETATM   19  C   UNL     1     -10.000   7.883  67.095  1.00  0.00    -0.230 C  
HETATM   20  O   UNL     1     -11.090   8.297  66.726  1.00  0.00     0.158 OA 
BRANCH  19  21
HETATM   21  C   UNL     1      -9.629   6.454  66.777  1.00  0.00    -0.189 C  
HETATM   22  C   UNL     1      -9.849   5.942  65.358  1.00  0.00     0.594 C  
HETATM   23  C   UNL     1     -10.796   5.527  66.440  1.00  0.00    -0.195 C  
BRANCH  21  24
HETATM   24  C   UNL     1      -8.487   5.897  67.627  1.00  0.00    -0.103 A  
HETATM   25  C   UNL     1      -6.274   4.494  71.270  1.00  0.00    -0.018 C  
HETATM   26  C   UNL     1      -7.490   5.078  67.030  1.00  0.00    -0.087 A  
HETATM   27  C   UNL     1      -8.444   6.068  69.023  1.00  0.00    -0.117 A  
HETATM   28  C   UNL     1      -6.519   4.411  67.786  1.00  0.00    -0.038 A  
HETATM   29  C   UNL     1      -6.551   4.582  69.150  1.00  0.00    -0.041 A  
HETATM   30  C   UNL     1      -7.479   5.400  69.749  1.00  0.00    -0.066 A  
HETATM   31  F   UNL     1      -6.720   3.453  72.016  1.00  0.00    -0.017 F  
HETATM   32  O   UNL     1      -7.352   5.426  71.104  1.00  0.00    -0.078 OA 
HETATM   33  F   UNL     1      -5.282   5.099  71.965  1.00  0.00    -0.004 F  
HETATM   34  O   UNL     1      -5.728   3.980  70.047  1.00  0.00    -0.015 OA 
ENDBRANCH  21  24
ENDBRANCH  19  21
ENDBRANCH  11  17
BRANCH  16  35
HETATM   35  C   UNL     1      -8.801  14.549  70.699  1.00  0.00     2.543 C  
BRANCH  35  36
HETATM   36  C   UNL     1      -7.445  15.180  70.340  1.00  0.00     0.587 C  
HETATM   37  H   UNL     1      -5.599  15.206  71.075  1.00  0.00     0.000 HD 
HETATM   38  O   UNL     1      -6.436  14.816  71.297  1.00  0.00     0.205 OA 
BRANCH  36  39
HETATM   39  C   UNL     1      -6.972  14.655  68.978  1.00  0.00    -0.120 C  
HETATM   40  O   UNL     1      -7.126  15.673  67.988  1.00  0.00    -0.108 OA 
HETATM   41  H   UNL     1      -6.832  15.348  67.145  1.00  0.00     0.000 HD 
ENDBRANCH  36  39
ENDBRANCH  35  36
ENDBRANCH  16  35
ENDBRANCH   2   7
TORSDOF 8
ENDMDL
MODEL      153
REMARK 921   NORMALIZED FREE ENERGY PREDICTED BY IDOCK:    5.03 KCAL/MOL
REMARK 922        TOTAL FREE ENERGY PREDICTED BY IDOCK:    6.47 KCAL/MOL
REMARK 923 INTER-LIGAND FREE ENERGY PREDICTED BY IDOCK:    6.24 KCAL/MOL
REMARK 924 INTRA-LIGAND FREE ENERGY PREDICTED BY IDOCK:    0.22 KCAL/MOL
REMARK 927      BINDING AFFINITY PREDICTED BY RF-SCORE:    0.00 PKD
ROOT
HETATM    1  C   UNL     1      -8.549  19.899  70.835  1.00  0.00     2.091 C  
HETATM    2  C   UNL     1      -9.885  19.146  70.569  1.00  0.00     1.549 C  
HETATM    3  C   UNL     1     -10.452  18.800  71.961  1.00  0.00     3.656 C  
ENDROOT
BRANCH   2   4
HETATM    4  C   UNL     1     -10.830  20.137  69.827  1.00  0.00     1.270 C  
HETATM    5  H   UNL     1     -11.573  20.434  67.993  1.00  0.00     0.000 HD 
HETATM    6  O   UNL     1     -10.997  19.830  68.445  1.00  0.00     0.082 OA 
ENDBRANCH   2   4
BRANCH   2   7
HETATM    7  C   UNL     1      -9.614  17.860  69.760  1.00  0.00     0.833 A  
HETATM    8  C   UNL     1     -10.328  16.673  69.827  1.00  0.00    -0.115 A  
HETATM    9  C   UNL     1      -9.723  15.712  68.998  1.00  0.00    -0.241 A  
HETATM   10  C   UNL     1     -10.019  14.358  68.736  1.00  0.00    -0.223 A  
HETATM   11  C   UNL     1      -9.218  13.617  67.866  1.00  0.00    -0.203 A  
HETATM   12  C   UNL     1      -8.116  14.246  67.280  1.00  0.00    -0.178 A  
HETATM   13  C   UNL     1      -8.627  16.315  68.391  1.00  0.00    -0.200 A  
HETATM   14  C   UNL     1      -7.793  15.584  67.524  1.00  0.00    -0.191 A  
HETATM   15  F   UNL     1      -7.335  13.542  66.438  1.00  0.00     0.724 F  
HETATM   16  N   UNL     1      -8.604  17.640  68.821  1.00  0.00    -0.246 NA 
BRANCH  11  17
HETATM   17  N   UNL     1      -9.461  12.262  67.560  1.00  0.00    -0.178 N  
HETATM   18  H   UNL     1      -9.679  12.041  66.588  1.00  0.00     0.000 HD 
HETATM   19  C   UNL     1      -9.432  11.205  68.446  1.00  0.00    -0.189 C  
HETATM   20  O   UNL     1      -9.211  11.242  69.648  1.00  0.00     0.436 OA 
BRANCH  19  21
HETATM   21  C   UNL     1      -9.680   9.861  67.802  1.00  0.00    -0.175 C  
HETATM   22  C   UNL     1     -10.277   9.823  66.401  1.00  0.00    -0.288 C  
HETATM   23  C   UNL     1     -11.146   9.497  67.574  1.00  0.00     0.021 C  
BRANCH  21  24
HETATM   24  C   UNL     1      -8.726   8.758  68.262  1.00  0.00    -0.135 A  
HETATM   25  C   UNL     1      -7.072   4.631  68.865  1.00  0.00    -0.052 C  
HETATM   26  C   UNL     1      -7.355   9.056  68.496  1.00  0.00    -0.077 A  
HETATM   27  C   UNL     1      -9.128   7.413  68.354  1.00  0.00    -0.132 A  
HETATM   28  C   UNL     1      -6.408   8.059  68.758  1.00  0.00    -0.044 A  
HETATM   29  C   UNL     1      -6.852   6.758  68.795  1.00  0.00    -0.066 A  
HETATM   30  C   UNL     1      -8.178   6.447  68.612  1.00  0.00    -0.121 A  
HETATM   31  F   UNL     1      -6.748   3.835  67.817  1.00  0.00    -0.042 F  
HETATM   32  O   UNL     1      -8.411   5.108  68.674  1.00  0.00    -0.089 OA 
HETATM   33  F   UNL     1      -7.039   3.868  69.983  1.00  0.00    -0.039 F  
HETATM   34  O   UNL     1      -6.077   5.658  68.984  1.00  0.00    -0.022 OA 
ENDBRANCH  21  24
ENDBRANCH  19  21
ENDBRANCH  11  17
BRANCH  16  35
HETATM   35  C   UNL     1      -7.624  18.604  68.337  1.00  0.00    -0.297 C  
BRANCH  35  36
HETATM   36  C   UNL     1      -6.375  18.755  69.223  1.00  0.00    -0.272 C  
HETATM   37  H   UNL     1      -5.263  17.601  70.398  1.00  0.00     0.000 HD 
HETATM   38  O   UNL     1      -6.034  17.508  69.850  1.00  0.00    -0.246 OA 
BRANCH  36  39
HETATM   39  C   UNL     1      -5.172  19.160  68.360  1.00  0.00    -0.188 C  
HETATM   40  O   UNL     1      -5.628  19.706  67.122  1.00  0.00    -0.174 OA 
HETATM   41  H   UNL     1      -4.883  19.957  66.588  1.00  0.00     0.000 HD 
ENDBRANCH  36  39
ENDBRANCH  35  36
ENDBRANCH  16  35
ENDBRANCH   2   7
TORSDOF 8
ENDMDL
MODEL      154
REMARK 921   NORMALIZED FREE ENERGY PREDICTED BY IDOCK:    7.44 KCAL/MOL
REMARK 922        TOTAL FREE ENERGY PREDICTED BY IDOCK:   10.00 KCAL/MOL
REMARK 923 INTER-LIGAND FREE ENERGY PREDICTED BY IDOCK:    7.31 KCAL/MOL
REMARK 924 INTRA-LIGAND FREE ENERGY PREDICTED BY IDOCK:    2.69 KCAL/MOL
REMARK 927      BINDING AFFINITY PREDICTED BY RF-SCORE:    0.00 PKD
ROOT
HETATM    1  C   UNL     1     -10.411  18.853  71.465  1.00  0.00     3.165 C  
HETATM    2  C   UNL     1      -9.459  18.980  70.241  1.00  0.00     1.452 C  
HETATM    3  C   UNL     1     -10.171  19.930  69.257  1.00  0.00    -0.212 C  
ENDROOT
BRANCH   2   4
HETATM    4  C   UNL     1      -8.136  19.621  70.754  1.00  0.00     1.999 C  
HETATM    5  H   UNL     1      -6.495  20.499  70.019  1.00  0.00     0.000 HD 
HETATM    6  O   UNL     1      -7.301  20.108  69.706  1.00  0.00    -0.046 OA 
ENDBRANCH   2   4
BRANCH   2   7
HETATM    7  C   UNL     1      -9.242  17.595  69.595  1.00  0.00     0.816 A  
HETATM    8  C   UNL     1      -9.430  16.360  70.197  1.00  0.00     1.040 A  
HETATM    9  C   UNL     1      -9.049  15.340  69.308  1.00  0.00    -0.240 A  
HETATM   10  C   UNL     1      -9.006  13.936  69.433  1.00  0.00     0.708 A  
HETATM   11  C   UNL     1      -8.553  13.148  68.374  1.00  0.00    -0.124 A  
HETATM   12  C   UNL     1      -8.133  13.787  67.203  1.00  0.00    -0.075 A  
HETATM   13  C   UNL     1      -8.637  15.947  68.127  1.00  0.00    -0.169 A  
HETATM   14  C   UNL     1      -8.158  15.176  67.052  1.00  0.00    -0.240 A  
HETATM   15  F   UNL     1      -7.693  13.038  66.174  1.00  0.00     0.698 F  
HETATM   16  N   UNL     1      -8.812  17.319  68.296  1.00  0.00    -0.250 NA 
BRANCH  11  17
HETATM   17  N   UNL     1      -8.487  11.740  68.433  1.00  0.00    -0.159 N  
HETATM   18  H   UNL     1      -9.080  11.224  67.783  1.00  0.00     0.000 HD 
HETATM   19  C   UNL     1      -7.700  10.992  69.283  1.00  0.00    -0.068 C  
HETATM   20  O   UNL     1      -6.934  11.399  70.145  1.00  0.00    -0.042 OA 
BRANCH  19  21
HETATM   21  C   UNL     1      -7.809   9.502  69.065  1.00  0.00    -0.077 C  
HETATM   22  C   UNL     1      -8.414   8.645  70.172  1.00  0.00    -0.135 C  
HETATM   23  C   UNL     1      -6.932   8.636  69.968  1.00  0.00    -0.043 C  
BRANCH  21  24
HETATM   24  C   UNL     1      -7.967   9.090  67.601  1.00  0.00    -0.101 A  
HETATM   25  C   UNL     1      -6.827   7.636  63.512  1.00  0.00    -0.059 C  
HETATM   26  C   UNL     1      -9.228   8.645  67.119  1.00  0.00    -0.175 A  
HETATM   27  C   UNL     1      -6.869   9.021  66.723  1.00  0.00    -0.080 A  
HETATM   28  C   UNL     1      -9.391   8.104  65.839  1.00  0.00    -0.126 A  
HETATM   29  C   UNL     1      -8.275   8.023  65.039  1.00  0.00    -0.141 A  
HETATM   30  C   UNL     1      -7.051   8.483  65.466  1.00  0.00    -0.082 A  
HETATM   31  F   UNL     1      -6.290   6.406  63.319  1.00  0.00    -0.030 F  
HETATM   32  O   UNL     1      -6.075   8.302  64.536  1.00  0.00    -0.062 OA 
HETATM   33  F   UNL     1      -6.692   8.327  62.356  1.00  0.00    -0.086 F  
HETATM   34  O   UNL     1      -8.226   7.485  63.793  1.00  0.00    -0.070 OA 
ENDBRANCH  21  24
ENDBRANCH  19  21
ENDBRANCH  11  17
BRANCH  16  35
HETATM   35  C   UNL     1      -8.543  18.279  67.231  1.00  0.00    -0.254 C  
BRANCH  35  36
HETATM   36  C   UNL     1      -7.404  17.882  66.277  1.00  0.00    -0.292 C  
HETATM   37  H   UNL     1      -6.940  16.345  65.106  1.00  0.00     0.000 HD 
HETATM   38  O   UNL     1      -7.644  16.591  65.695  1.00  0.00     0.427 OA 
BRANCH  36  39
HETATM   39  C   UNL     1      -7.327  18.883  65.116  1.00  0.00     0.662 C  
HETATM   40  O   UNL     1      -6.367  19.897  65.414  1.00  0.00    -0.217 OA 
HETATM   41  H   UNL     1      -6.320  20.516  64.695  1.00  0.00     0.000 HD 
ENDBRANCH  36  39
ENDBRANCH  35  36
ENDBRANCH  16  35
ENDBRANCH   2   7
TORSDOF 8
ENDMDL
MODEL      155
REMARK 921   NORMALIZED FREE ENERGY PREDICTED BY IDOCK:    7.49 KCAL/MOL
REMARK 922        TOTAL FREE ENERGY PREDICTED BY IDOCK:   10.08 KCAL/MOL
REMARK 923 INTER-LIGAND FREE ENERGY PREDICTED BY IDOCK:   10.02 KCAL/MOL
REMARK 924 INTRA-LIGAND FREE ENERGY PREDICTED BY IDOCK:    0.06 KCAL/MOL
REMARK 927      BINDING AFFINITY PREDICTED BY RF-SCORE:    0.00 PKD
ROOT
HETATM    1  C   UNL     1     -10.517  19.421  72.221  1.00  0.00     3.696 C  
HETATM    2  C   UNL     1      -9.558  19.698  71.027  1.00  0.00     2.097 C  
HETATM    3  C   UNL     1     -10.002  21.054  70.443  1.00  0.00     1.941 C  
ENDROOT
BRANCH   2   4
HETATM    4  C   UNL     1      -8.118  19.801  71.610  1.00  0.00     2.936 C  
HETATM    5  H   UNL     1      -6.484  20.940  71.413  1.00  0.00     0.000 HD 
HETATM    6  O   UNL     1      -7.362  20.876  71.058  1.00  0.00     1.037 OA 
ENDBRANCH   2   4
BRANCH   2   7
HETATM    7  C   UNL     1      -9.696  18.582  69.969  1.00  0.00     1.165 A  
HETATM    8  C   UNL     1     -10.134  17.284  70.186  1.00  0.00     0.899 A  
HETATM    9  C   UNL     1     -10.041  16.550  68.990  1.00  0.00    -0.279 A  
HETATM   10  C   UNL     1     -10.315  15.203  68.675  1.00  0.00    -0.232 A  
HETATM   11  C   UNL     1     -10.107  14.726  67.381  1.00  0.00    -0.231 A  
HETATM   12  C   UNL     1      -9.610  15.609  66.418  1.00  0.00    -0.290 A  
HETATM   13  C   UNL     1      -9.559  17.410  68.009  1.00  0.00    -0.276 A  
HETATM   14  C   UNL     1      -9.323  16.948  66.701  1.00  0.00    -0.278 A  
HETATM   15  F   UNL     1      -9.404  15.161  65.165  1.00  0.00    -0.177 F  
HETATM   16  N   UNL     1      -9.406  18.659  68.606  1.00  0.00    -0.344 NA 
BRANCH  11  17
HETATM   17  N   UNL     1     -10.364  13.391  67.001  1.00  0.00    -0.246 N  
HETATM   18  H   UNL     1     -10.613  13.231  66.024  1.00  0.00     0.000 HD 
HETATM   19  C   UNL     1     -10.311  12.283  67.819  1.00  0.00    -0.207 C  
HETATM   20  O   UNL     1     -10.052  12.246  69.014  1.00  0.00    -0.041 OA 
BRANCH  19  21
HETATM   21  C   UNL     1     -10.582  10.980  67.103  1.00  0.00    -0.294 C  
HETATM   22  C   UNL     1     -11.967  10.355  67.226  1.00  0.00     1.958 C  
HETATM   23  C   UNL     1     -10.830   9.771  68.003  1.00  0.00    -0.276 C  
BRANCH  21  24
HETATM   24  C   UNL     1      -9.756  10.778  65.832  1.00  0.00    -0.272 A  
HETATM   25  C   UNL     1      -6.485   9.268  63.157  1.00  0.00    -0.091 C  
HETATM   26  C   UNL     1     -10.362  10.944  64.557  1.00  0.00    -0.417 A  
HETATM   27  C   UNL     1      -8.429  10.312  65.871  1.00  0.00    -0.154 A  
HETATM   28  C   UNL     1      -9.703  10.614  63.367  1.00  0.00    -0.387 A  
HETATM   29  C   UNL     1      -8.422  10.124  63.468  1.00  0.00    -0.186 A  
HETATM   30  C   UNL     1      -7.798   9.991  64.687  1.00  0.00    -0.145 A  
HETATM   31  F   UNL     1      -6.308   7.944  62.929  1.00  0.00    -0.071 F  
HETATM   32  O   UNL     1      -6.542   9.480  64.575  1.00  0.00    -0.086 OA 
HETATM   33  F   UNL     1      -5.403   9.917  62.666  1.00  0.00    -0.083 F  
HETATM   34  O   UNL     1      -7.646   9.705  62.435  1.00  0.00    -0.107 OA 
ENDBRANCH  21  24
ENDBRANCH  19  21
ENDBRANCH  11  17
BRANCH  16  35
HETATM   35  C   UNL     1      -8.976  19.837  67.860  1.00  0.00    -0.322 C  
BRANCH  35  36
HETATM   36  C   UNL     1      -9.410  19.859  66.384  1.00  0.00    -0.397 C  
HETATM   37  H   UNL     1     -10.799  20.751  65.277  1.00  0.00     0.000 HD 
HETATM   38  O   UNL     1     -10.530  20.737  66.189  1.00  0.00     0.180 OA 
BRANCH  36  39
HETATM   39  C   UNL     1      -8.267  20.399  65.515  1.00  0.00     0.416 C  
HETATM   40  O   UNL     1      -7.326  19.357  65.253  1.00  0.00    -0.414 OA 
HETATM   41  H   UNL     1      -6.618  19.692  64.715  1.00  0.00     0.000 HD 
ENDBRANCH  36  39
ENDBRANCH  35  36
ENDBRANCH  16  35
ENDBRANCH   2   7
TORSDOF 8
ENDMDL
MODEL      156
REMARK 921   NORMALIZED FREE ENERGY PREDICTED BY IDOCK:    9.76 KCAL/MOL
REMARK 922        TOTAL FREE ENERGY PREDICTED BY IDOCK:   13.41 KCAL/MOL
REMARK 923 INTER-LIGAND FREE ENERGY PREDICTED BY IDOCK:   13.15 KCAL/MOL
REMARK 924 INTRA-LIGAND FREE ENERGY PREDICTED BY IDOCK:    0.26 KCAL/MOL
REMARK 927      BINDING AFFINITY PREDICTED BY RF-SCORE:    0.00 PKD
ROOT
HETATM    1  C   UNL     1     -11.841  17.235  65.171  1.00  0.00     2.437 C  
HETATM    2  C   UNL     1     -10.984  17.139  66.466  1.00  0.00     0.202 C  
HETATM    3  C   UNL     1      -9.824  18.136  66.273  1.00  0.00    -0.311 C  
ENDROOT
BRANCH   2   4
HETATM    4  C   UNL     1     -11.892  17.583  67.651  1.00  0.00     1.713 C  
HETATM    5  H   UNL     1     -12.023  19.072  68.981  1.00  0.00     0.000 HD 
HETATM    6  O   UNL     1     -11.470  18.801  68.259  1.00  0.00     0.806 OA 
ENDBRANCH   2   4
BRANCH   2   7
HETATM    7  C   UNL     1     -10.441  15.703  66.634  1.00  0.00    -0.301 A  
HETATM    8  C   UNL     1     -10.960  14.549  66.068  1.00  0.00    -0.324 A  
HETATM    9  C   UNL     1     -10.236  13.434  66.524  1.00  0.00    -0.282 A  
HETATM   10  C   UNL     1     -10.372  12.049  66.292  1.00  0.00    -0.253 A  
HETATM   11  C   UNL     1      -9.507  11.143  66.907  1.00  0.00    -0.185 A  
HETATM   12  C   UNL     1      -8.521  11.642  67.763  1.00  0.00    -0.144 A  
HETATM   13  C   UNL     1      -9.237  13.902  67.371  1.00  0.00    -0.224 A  
HETATM   14  C   UNL     1      -8.364  13.007  68.017  1.00  0.00    -0.169 A  
HETATM   15  F   UNL     1      -7.680  10.778  68.362  1.00  0.00    -0.094 F  
HETATM   16  N   UNL     1      -9.339  15.292  67.385  1.00  0.00    -0.196 NA 
BRANCH  11  17
HETATM   17  N   UNL     1      -9.589   9.748  66.714  1.00  0.00    -0.169 N  
HETATM   18  H   UNL     1     -10.186   9.229  67.358  1.00  0.00     0.000 HD 
HETATM   19  C   UNL     1      -8.940   9.016  65.742  1.00  0.00    -0.197 C  
HETATM   20  O   UNL     1      -8.170   9.427  64.885  1.00  0.00    -0.127 OA 
BRANCH  19  21
HETATM   21  C   UNL     1      -9.276   7.543  65.759  1.00  0.00     0.043 C  
HETATM   22  C   UNL     1      -9.241   6.772  64.445  1.00  0.00     1.466 C  
HETATM   23  C   UNL     1     -10.563   7.150  65.036  1.00  0.00     5.446 C  
BRANCH  21  24
HETATM   24  C   UNL     1      -8.942   6.838  67.074  1.00  0.00    -0.118 A  
HETATM   25  C   UNL     1      -6.518   5.439  70.581  1.00  0.00    -0.035 C  
HETATM   26  C   UNL     1      -9.973   6.558  68.012  1.00  0.00    -0.146 A  
HETATM   27  C   UNL     1      -7.618   6.554  67.454  1.00  0.00    -0.100 A  
HETATM   28  C   UNL     1      -9.705   6.065  69.294  1.00  0.00    -0.174 A  
HETATM   29  C   UNL     1      -8.388   5.846  69.625  1.00  0.00    -0.117 A  
HETATM   30  C   UNL     1      -7.375   6.070  68.723  1.00  0.00    -0.085 A  
HETATM   31  F   UNL     1      -5.939   6.315  71.440  1.00  0.00    -0.028 F  
HETATM   32  O   UNL     1      -6.146   5.804  69.244  1.00  0.00    -0.028 OA 
HETATM   33  F   UNL     1      -6.016   4.211  70.850  1.00  0.00    -0.012 F  
HETATM   34  O   UNL     1      -7.930   5.420  70.831  1.00  0.00    -0.099 OA 
ENDBRANCH  21  24
ENDBRANCH  19  21
ENDBRANCH  11  17
BRANCH  16  35
HETATM   35  C   UNL     1      -8.406  16.138  68.121  1.00  0.00    -0.166 C  
BRANCH  35  36
HETATM   36  C   UNL     1      -7.694  15.444  69.295  1.00  0.00    -0.221 C  
HETATM   37  H   UNL     1      -6.226  15.855  70.569  1.00  0.00     0.000 HD 
HETATM   38  O   UNL     1      -6.666  16.284  69.845  1.00  0.00    -0.153 OA 
BRANCH  36  39
HETATM   39  C   UNL     1      -8.696  15.174  70.424  1.00  0.00     1.115 C  
HETATM   40  O   UNL     1      -8.835  16.340  71.237  1.00  0.00     4.384 OA 
HETATM   41  H   UNL     1      -9.456  16.172  71.936  1.00  0.00     0.000 HD 
ENDBRANCH  36  39
ENDBRANCH  35  36
ENDBRANCH  16  35
ENDBRANCH   2   7
TORSDOF 8
ENDMDL
MODEL      157
REMARK 921   NORMALIZED FREE ENERGY PREDICTED BY IDOCK:   10.28 KCAL/MOL
REMARK 922        TOTAL FREE ENERGY PREDICTED BY IDOCK:   14.17 KCAL/MOL
REMARK 923 INTER-LIGAND FREE ENERGY PREDICTED BY IDOCK:   11.42 KCAL/MOL
REMARK 924 INTRA-LIGAND FREE ENERGY PREDICTED BY IDOCK:    2.75 KCAL/MOL
REMARK 927      BINDING AFFINITY PREDICTED BY RF-SCORE:    0.00 PKD
ROOT
HETATM    1  C   UNL     1      -8.892  19.620  71.800  1.00  0.00     3.788 C  
HETATM    2  C   UNL     1     -10.206  19.257  71.052  1.00  0.00     2.235 C  
HETATM    3  C   UNL     1     -11.109  18.577  72.102  1.00  0.00     3.581 C  
ENDROOT
BRANCH   2   4
HETATM    4  C   UNL     1     -10.844  20.593  70.570  1.00  0.00     2.685 C  
HETATM    5  H   UNL     1     -10.795  21.807  68.979  1.00  0.00     0.000 HD 
HETATM    6  O   UNL     1     -10.406  20.992  69.274  1.00  0.00     0.535 OA 
ENDBRANCH   2   4
BRANCH   2   7
HETATM    7  C   UNL     1      -9.903  18.286  69.891  1.00  0.00     0.890 A  
HETATM    8  C   UNL     1     -10.439  17.020  69.706  1.00  0.00    -0.011 A  
HETATM    9  C   UNL     1      -9.853  16.421  68.578  1.00  0.00    -0.231 A  
HETATM   10  C   UNL     1     -10.009  15.151  67.985  1.00  0.00    -0.221 A  
HETATM   11  C   UNL     1      -9.267  14.804  66.855  1.00  0.00    -0.245 A  
HETATM   12  C   UNL     1      -8.361  15.738  66.343  1.00  0.00    -0.232 A  
HETATM   13  C   UNL     1      -8.954  17.334  68.039  1.00  0.00    -0.242 A  
HETATM   14  C   UNL     1      -8.180  17.002  66.911  1.00  0.00    -0.245 A  
HETATM   15  F   UNL     1      -7.638  15.416  65.254  1.00  0.00     3.125 F  
HETATM   16  N   UNL     1      -9.034  18.488  68.816  1.00  0.00    -0.284 NA 
BRANCH  11  17
HETATM   17  N   UNL     1      -9.378  13.552  66.214  1.00  0.00    -0.457 N  
HETATM   18  H   UNL     1      -9.660  13.561  65.234  1.00  0.00     0.000 HD 
HETATM   19  C   UNL     1      -9.143  12.318  66.782  1.00  0.00    -0.211 C  
HETATM   20  O   UNL     1      -8.815  12.075  67.935  1.00  0.00    -0.159 OA 
BRANCH  19  21
HETATM   21  C   UNL     1      -9.291  11.164  65.819  1.00  0.00    -0.238 C  
HETATM   22  C   UNL     1      -9.928  11.426  64.459  1.00  0.00    -0.318 C  
HETATM   23  C   UNL     1     -10.727  10.735  65.518  1.00  0.00    -0.145 C  
BRANCH  21  24
HETATM   24  C   UNL     1      -8.230  10.074  65.975  1.00  0.00    -0.126 A  
HETATM   25  C   UNL     1      -6.001   6.256  65.208  1.00  0.00    -0.026 C  
HETATM   26  C   UNL     1      -6.965  10.390  66.541  1.00  0.00    -0.112 A  
HETATM   27  C   UNL     1      -8.413   8.776  65.465  1.00  0.00    -0.181 A  
HETATM   28  C   UNL     1      -5.904   9.478  66.557  1.00  0.00    -0.055 A  
HETATM   29  C   UNL     1      -6.128   8.237  66.008  1.00  0.00    -0.045 A  
HETATM   30  C   UNL     1      -7.354   7.892  65.490  1.00  0.00    -0.076 A  
HETATM   31  F   UNL     1      -5.428   5.996  64.007  1.00  0.00    -0.016 F  
HETATM   32  O   UNL     1      -7.369   6.628  64.986  1.00  0.00    -0.073 OA 
HETATM   33  F   UNL     1      -5.975   5.111  65.929  1.00  0.00    -0.020 F  
HETATM   34  O   UNL     1      -5.210   7.242  65.888  1.00  0.00    -0.023 OA 
ENDBRANCH  21  24
ENDBRANCH  19  21
ENDBRANCH  11  17
BRANCH  16  35
HETATM   35  C   UNL     1      -8.275  19.694  68.509  1.00  0.00    -0.297 C  
BRANCH  35  36
HETATM   36  C   UNL     1      -6.749  19.503  68.467  1.00  0.00    -0.288 C  
HETATM   37  H   UNL     1      -5.463  18.078  67.954  1.00  0.00     0.000 HD 
HETATM   38  O   UNL     1      -6.406  18.196  67.980  1.00  0.00    -0.177 OA 
BRANCH  36  39
HETATM   39  C   UNL     1      -6.125  20.515  67.497  1.00  0.00    -0.227 C  
HETATM   40  O   UNL     1      -7.052  20.820  66.454  1.00  0.00    -0.441 OA 
HETATM   41  H   UNL     1      -6.665  21.447  65.854  1.00  0.00     0.000 HD 
ENDBRANCH  36  39
ENDBRANCH  35  36
ENDBRANCH  16  35
ENDBRANCH   2   7
TORSDOF 8
ENDMDL
MODEL      158
REMARK 921   NORMALIZED FREE ENERGY PREDICTED BY IDOCK:   11.90 KCAL/MOL
REMARK 922        TOTAL FREE ENERGY PREDICTED BY IDOCK:   16.54 KCAL/MOL
REMARK 923 INTER-LIGAND FREE ENERGY PREDICTED BY IDOCK:   16.63 KCAL/MOL
REMARK 924 INTRA-LIGAND FREE ENERGY PREDICTED BY IDOCK:   -0.09 KCAL/MOL
REMARK 927      BINDING AFFINITY PREDICTED BY RF-SCORE:    0.00 PKD
ROOT
HETATM    1  C   UNL     1     -10.036   6.514  72.828  1.00  0.00    -0.193 C  
HETATM    2  C   UNL     1      -8.635   6.966  72.324  1.00  0.00    -0.123 C  
HETATM    3  C   UNL     1      -7.814   7.268  73.594  1.00  0.00    -0.129 C  
ENDROOT
BRANCH   2   4
HETATM    4  C   UNL     1      -8.017   5.765  71.549  1.00  0.00    -0.113 C  
HETATM    5  H   UNL     1      -7.514   3.854  71.869  1.00  0.00     0.000 HD 
HETATM    6  O   UNL     1      -7.891   4.587  72.342  1.00  0.00    -0.086 OA 
ENDBRANCH   2   4
BRANCH   2   7
HETATM    7  C   UNL     1      -8.770   8.234  71.454  1.00  0.00    -0.158 A  
HETATM    8  C   UNL     1      -9.021   9.523  71.900  1.00  0.00     1.243 A  
HETATM    9  C   UNL     1      -9.154  10.385  70.797  1.00  0.00     1.773 A  
HETATM   10  C   UNL     1      -9.445  11.761  70.694  1.00  0.00     5.827 A  
HETATM   11  C   UNL     1      -9.541  12.369  69.442  1.00  0.00     1.046 A  
HETATM   12  C   UNL     1      -9.356  11.578  68.303  1.00  0.00    -0.190 A  
HETATM   13  C   UNL     1      -8.962   9.626  69.648  1.00  0.00    -0.203 A  
HETATM   14  C   UNL     1      -9.071  10.212  68.373  1.00  0.00    -0.133 A  
HETATM   15  F   UNL     1      -9.445  12.153  67.089  1.00  0.00    -0.178 F  
HETATM   16  N   UNL     1      -8.674   8.328  70.064  1.00  0.00    -0.132 NA 
BRANCH  11  17
HETATM   17  N   UNL     1      -9.827  13.740  69.270  1.00  0.00    -0.345 N  
HETATM   18  H   UNL     1     -10.704  13.971  68.803  1.00  0.00     0.000 HD 
HETATM   19  C   UNL     1      -9.038  14.797  69.671  1.00  0.00     0.220 C  
HETATM   20  O   UNL     1      -7.950  14.750  70.228  1.00  0.00     0.379 OA 
BRANCH  19  21
HETATM   21  C   UNL     1      -9.646  16.152  69.396  1.00  0.00    -0.208 C  
HETATM   22  C   UNL     1     -10.072  17.015  70.578  1.00  0.00     1.603 C  
HETATM   23  C   UNL     1     -11.118  16.307  69.777  1.00  0.00    -0.337 C  
BRANCH  21  24
HETATM   24  C   UNL     1      -9.164  16.806  68.101  1.00  0.00    -0.224 A  
HETATM   25  C   UNL     1      -8.702  19.910  64.893  1.00  0.00     2.102 C  
HETATM   26  C   UNL     1      -7.939  16.393  67.509  1.00  0.00    -0.172 A  
HETATM   27  C   UNL     1      -9.834  17.899  67.522  1.00  0.00    -0.309 A  
HETATM   28  C   UNL     1      -7.370  17.064  66.420  1.00  0.00    -0.328 A  
HETATM   29  C   UNL     1      -8.049  18.152  65.923  1.00  0.00     0.033 A  
HETATM   30  C   UNL     1      -9.255  18.548  66.451  1.00  0.00    -0.277 A  
HETATM   31  F   UNL     1      -8.190  21.137  65.159  1.00  0.00     0.751 F  
HETATM   32  O   UNL     1      -9.759  19.648  65.828  1.00  0.00    -0.379 OA 
HETATM   33  F   UNL     1      -9.228  19.948  63.646  1.00  0.00     6.070 F  
HETATM   34  O   UNL     1      -7.633  18.954  64.909  1.00  0.00     0.464 OA 
ENDBRANCH  21  24
ENDBRANCH  19  21
ENDBRANCH  11  17
BRANCH  16  35
HETATM   35  C   UNL     1      -8.348   7.259  69.127  1.00  0.00    -0.132 C  
BRANCH  35  36
HETATM   36  C   UNL     1      -9.526   6.337  68.766  1.00  0.00    -0.122 C  
HETATM   37  H   UNL     1     -11.146   6.410  67.618  1.00  0.00     0.000 HD 
HETATM   38  O   UNL     1     -10.419   6.979  67.841  1.00  0.00    -0.185 OA 
BRANCH  36  39
HETATM   39  C   UNL     1      -9.002   5.074  68.070  1.00  0.00    -0.108 C  
HETATM   40  O   UNL     1      -8.700   5.364  66.705  1.00  0.00    -0.114 OA 
HETATM   41  H   UNL     1      -8.375   4.581  66.275  1.00  0.00     0.000 HD 
ENDBRANCH  36  39
ENDBRANCH  35  36
ENDBRANCH  16  35
ENDBRANCH   2   7
TORSDOF 8
ENDMDL
MODEL      159
REMARK 921   NORMALIZED FREE ENERGY PREDICTED BY IDOCK:   17.69 KCAL/MOL
REMARK 922        TOTAL FREE ENERGY PREDICTED BY IDOCK:   25.04 KCAL/MOL
REMARK 923 INTER-LIGAND FREE ENERGY PREDICTED BY IDOCK:    1.40 KCAL/MOL
REMARK 924 INTRA-LIGAND FREE ENERGY PREDICTED BY IDOCK:   23.64 KCAL/MOL
REMARK 927      BINDING AFFINITY PREDICTED BY RF-SCORE:    0.00 PKD
ROOT
HETATM    1  C   UNL     1      -9.627   3.234  71.069  1.00  0.00    -0.234 C  
HETATM    2  C   UNL     1     -10.159   4.316  72.051  1.00  0.00    -0.244 C  
HETATM    3  C   UNL     1     -11.627   3.937  72.332  1.00  0.00     1.013 C  
ENDROOT
BRANCH   2   4
HETATM    4  C   UNL     1      -9.311   4.212  73.353  1.00  0.00    -0.111 C  
HETATM    5  H   UNL     1      -9.295   3.185  75.071  1.00  0.00     0.000 HD 
HETATM    6  O   UNL     1      -9.812   3.249  74.277  1.00  0.00    -0.103 OA 
ENDBRANCH   2   4
BRANCH   2   7
HETATM    7  C   UNL     1     -10.077   5.711  71.394  1.00  0.00    -0.200 A  
HETATM    8  C   UNL     1      -9.186   6.113  70.411  1.00  0.00    -0.162 A  
HETATM    9  C   UNL     1      -9.376   7.479  70.133  1.00  0.00    -0.157 A  
HETATM   10  C   UNL     1      -8.721   8.374  69.262  1.00  0.00    -0.138 A  
HETATM   11  C   UNL     1      -9.111   9.712  69.204  1.00  0.00    -0.154 A  
HETATM   12  C   UNL     1     -10.150  10.139  70.036  1.00  0.00    -0.190 A  
HETATM   13  C   UNL     1     -10.415   7.928  70.941  1.00  0.00    -0.203 A  
HETATM   14  C   UNL     1     -10.815   9.277  70.913  1.00  0.00    -0.365 A  
HETATM   15  F   UNL     1     -10.536  11.428  69.989  1.00  0.00    -0.073 F  
HETATM   16  N   UNL     1     -10.870   6.828  71.664  1.00  0.00    -0.226 NA 
BRANCH  11  17
HETATM   17  N   UNL     1      -8.499  10.657  68.353  1.00  0.00    -0.126 N  
HETATM   18  H   UNL     1      -7.479  10.698  68.369  1.00  0.00     0.000 HD 
HETATM   19  C   UNL     1      -9.142  11.530  67.502  1.00  0.00    -0.166 C  
HETATM   20  O   UNL     1     -10.347  11.663  67.337  1.00  0.00    -0.199 OA 
BRANCH  19  21
HETATM   21  C   UNL     1      -8.206  12.381  66.677  1.00  0.00     0.054 C  
HETATM   22  C   UNL     1      -7.912  11.960  65.242  1.00  0.00     1.502 C  
HETATM   23  C   UNL     1      -6.879  11.726  66.298  1.00  0.00     0.370 C  
BRANCH  21  24
HETATM   24  C   UNL     1      -8.197  13.861  67.062  1.00  0.00    -0.069 A  
HETATM   25  C   UNL     1      -9.776  17.900  68.214  1.00  0.00    -0.327 C  
HETATM   26  C   UNL     1      -7.044  14.431  67.666  1.00  0.00    -0.202 A  
HETATM   27  C   UNL     1      -9.344  14.669  66.948  1.00  0.00    -0.258 A  
HETATM   28  C   UNL     1      -7.037  15.731  68.186  1.00  0.00    -0.123 A  
HETATM   29  C   UNL     1      -8.200  16.460  68.084  1.00  0.00    -0.170 A  
HETATM   30  C   UNL     1      -9.316  15.946  67.468  1.00  0.00    -0.217 A  
HETATM   31  F   UNL     1     -10.495  18.085  69.349  1.00  0.00    -0.331 F  
HETATM   32  O   UNL     1     -10.362  16.816  67.479  1.00  0.00    -0.286 OA 
HETATM   33  F   UNL     1      -9.880  19.030  67.475  1.00  0.00    -0.314 F  
HETATM   34  O   UNL     1      -8.399  17.712  68.571  1.00  0.00    -0.281 OA 
ENDBRANCH  21  24
ENDBRANCH  19  21
ENDBRANCH  11  17
BRANCH  16  35
HETATM   35  C   UNL     1     -12.006   6.905  72.575  1.00  0.00    -0.047 C  
BRANCH  35  36
HETATM   36  C   UNL     1     -12.598   5.545  72.984  1.00  0.00     0.849 C  
HETATM   37  H   UNL     1     -13.743   4.140  72.170  1.00  0.00     0.000 HD 
HETATM   38  O   UNL     1     -13.377   4.979  71.918  1.00  0.00     2.636 OA 
BRANCH  36  39
HETATM   39  C   UNL     1     -11.466   4.553  73.280  1.00  0.00    -0.219 C  
HETATM   40  O   UNL     1     -11.674   3.949  74.557  1.00  0.00     0.874 OA 
HETATM   41  H   UNL     1     -10.972   3.334  74.739  1.00  0.00     0.000 HD 
ENDBRANCH  36  39
ENDBRANCH  35  36
ENDBRANCH  16  35
ENDBRANCH   2   7
TORSDOF 8
ENDMDL
MODEL      160
REMARK 921   NORMALIZED FREE ENERGY PREDICTED BY IDOCK:   18.01 KCAL/MOL
REMARK 922        TOTAL FREE ENERGY PREDICTED BY IDOCK:   25.52 KCAL/MOL
REMARK 923 INTER-LIGAND FREE ENERGY PREDICTED BY IDOCK:   25.24 KCAL/MOL
REMARK 924 INTRA-LIGAND FREE ENERGY PREDICTED BY IDOCK:    0.28 KCAL/MOL
REMARK 927      BINDING AFFINITY PREDICTED BY RF-SCORE:    0.00 PKD
ROOT
HETATM    1  C   UNL     1     -10.942  17.684  70.933  1.00  0.00     1.909 C  
HETATM    2  C   UNL     1      -9.490  17.434  70.433  1.00  0.00     2.743 C  
HETATM    3  C   UNL     1      -9.081  18.719  69.685  1.00  0.00     0.629 C  
ENDROOT
BRANCH   2   4
HETATM    4  C   UNL     1      -8.599  17.231  71.694  1.00  0.00    11.172 C  
HETATM    5  H   UNL     1      -6.889  16.329  72.210  1.00  0.00     0.000 HD 
HETATM    6  O   UNL     1      -7.432  16.452  71.441  1.00  0.00     4.444 OA 
ENDBRANCH   2   4
BRANCH   2   7
HETATM    7  C   UNL     1      -9.461  16.221  69.479  1.00  0.00    -0.068 A  
HETATM    8  C   UNL     1      -8.661  15.094  69.595  1.00  0.00    -0.052 A  
HETATM    9  C   UNL     1      -8.869  14.254  68.487  1.00  0.00    -0.176 A  
HETATM   10  C   UNL     1      -8.291  13.026  68.101  1.00  0.00    -0.164 A  
HETATM   11  C   UNL     1      -8.678  12.409  66.912  1.00  0.00    -0.191 A  
HETATM   12  C   UNL     1      -9.635  13.043  66.114  1.00  0.00    -0.202 A  
HETATM   13  C   UNL     1      -9.828  14.856  67.680  1.00  0.00    -0.217 A  
HETATM   14  C   UNL     1     -10.222  14.262  66.466  1.00  0.00    -0.277 A  
HETATM   15  F   UNL     1     -10.017  12.458  64.963  1.00  0.00    -0.274 F  
HETATM   16  N   UNL     1     -10.221  16.027  68.324  1.00  0.00    -0.232 NA 
BRANCH  11  17
HETATM   17  N   UNL     1      -8.141  11.181  66.470  1.00  0.00    -0.161 N  
HETATM   18  H   UNL     1      -7.837  11.135  65.497  1.00  0.00     0.000 HD 
HETATM   19  C   UNL     1      -7.986  10.037  67.224  1.00  0.00    -0.106 C  
HETATM   20  O   UNL     1      -8.296   9.865  68.395  1.00  0.00    -0.105 OA 
BRANCH  19  21
HETATM   21  C   UNL     1      -7.326   8.899  66.481  1.00  0.00    -0.085 C  
HETATM   22  C   UNL     1      -5.805   8.884  66.375  1.00  0.00    -0.054 C  
HETATM   23  C   UNL     1      -6.617   9.282  65.183  1.00  0.00    -0.074 C  
BRANCH  21  24
HETATM   24  C   UNL     1      -8.108   7.587  66.517  1.00  0.00    -0.120 A  
HETATM   25  C   UNL     1     -11.057   4.432  65.297  1.00  0.00     0.202 C  
HETATM   26  C   UNL     1      -7.555   6.447  67.161  1.00  0.00    -0.096 A  
HETATM   27  C   UNL     1      -9.323   7.423  65.827  1.00  0.00     0.141 A  
HETATM   28  C   UNL     1      -8.150   5.182  67.084  1.00  0.00    -0.104 A  
HETATM   29  C   UNL     1      -9.314   5.073  66.360  1.00  0.00    -0.145 A  
HETATM   30  C   UNL     1      -9.892   6.168  65.761  1.00  0.00     0.375 A  
HETATM   31  F   UNL     1     -10.983   3.818  64.090  1.00  0.00    -0.280 F  
HETATM   32  O   UNL     1     -11.030   5.851  65.086  1.00  0.00     1.949 OA 
HETATM   33  F   UNL     1     -12.246   4.099  65.853  1.00  0.00     2.869 F  
HETATM   34  O   UNL     1     -10.005   3.926  66.132  1.00  0.00    -0.164 OA 
ENDBRANCH  21  24
ENDBRANCH  19  21
ENDBRANCH  11  17
BRANCH  16  35
HETATM   35  C   UNL     1     -11.269  16.895  67.800  1.00  0.00     0.005 C  
BRANCH  35  36
HETATM   36  C   UNL     1     -11.042  17.383  66.359  1.00  0.00     0.464 C  
HETATM   37  H   UNL     1     -12.015  17.343  64.626  1.00  0.00     0.000 HD 
HETATM   38  O   UNL     1     -12.155  17.042  65.517  1.00  0.00     1.997 OA 
BRANCH  36  39
HETATM   39  C   UNL     1     -10.926  18.913  66.340  1.00  0.00     0.040 C  
HETATM   40  O   UNL     1      -9.573  19.291  66.083  1.00  0.00    -0.353 OA 
HETATM   41  H   UNL     1      -9.502  20.239  66.072  1.00  0.00     0.000 HD 
ENDBRANCH  36  39
ENDBRANCH  35  36
ENDBRANCH  16  35
ENDBRANCH   2   7
TORSDOF 8
ENDMDL
MODEL      161
REMARK 921   NORMALIZED FREE ENERGY PREDICTED BY IDOCK:   18.63 KCAL/MOL
REMARK 922        TOTAL FREE ENERGY PREDICTED BY IDOCK:   26.42 KCAL/MOL
REMARK 923 INTER-LIGAND FREE ENERGY PREDICTED BY IDOCK:   25.03 KCAL/MOL
REMARK 924 INTRA-LIGAND FREE ENERGY PREDICTED BY IDOCK:    1.39 KCAL/MOL
REMARK 927      BINDING AFFINITY PREDICTED BY RF-SCORE:    0.00 PKD
ROOT
HETATM    1  C   UNL     1     -10.713  19.908  72.964  1.00  0.00     5.307 C  
HETATM    2  C   UNL     1      -9.806  19.991  71.703  1.00  0.00     2.642 C  
HETATM    3  C   UNL     1     -10.232  21.278  70.968  1.00  0.00     3.806 C  
ENDROOT
BRANCH   2   4
HETATM    4  C   UNL     1      -8.336  20.111  72.202  1.00  0.00     2.563 C  
HETATM    5  H   UNL     1      -7.283  21.098  73.588  1.00  0.00     0.000 HD 
HETATM    6  O   UNL     1      -8.180  21.026  73.284  1.00  0.00     4.304 OA 
ENDBRANCH   2   4
BRANCH   2   7
HETATM    7  C   UNL     1     -10.034  18.756  70.805  1.00  0.00     2.494 A  
HETATM    8  C   UNL     1     -10.013  17.427  71.202  1.00  0.00     4.053 A  
HETATM    9  C   UNL     1     -10.184  16.598  70.080  1.00  0.00     0.218 A  
HETATM   10  C   UNL     1     -10.200  15.196  69.925  1.00  0.00    -0.178 A  
HETATM   11  C   UNL     1     -10.369  14.629  68.662  1.00  0.00    -0.246 A  
HETATM   12  C   UNL     1     -10.506  15.482  67.563  1.00  0.00    -0.282 A  
HETATM   13  C   UNL     1     -10.334  17.422  68.970  1.00  0.00    -0.319 A  
HETATM   14  C   UNL     1     -10.488  16.874  67.683  1.00  0.00    -0.332 A  
HETATM   15  F   UNL     1     -10.670  14.947  66.338  1.00  0.00    -0.290 F  
HETATM   16  N   UNL     1     -10.297  18.735  69.434  1.00  0.00     0.151 NA 
BRANCH  11  17
HETATM   17  N   UNL     1     -10.397  13.236  68.440  1.00  0.00    -0.248 N  
HETATM   18  H   UNL     1     -10.896  12.912  67.611  1.00  0.00     0.000 HD 
HETATM   19  C   UNL     1      -9.816  12.269  69.232  1.00  0.00     0.592 C  
HETATM   20  O   UNL     1      -9.190  12.429  70.271  1.00  0.00     3.623 OA 
BRANCH  19  21
HETATM   21  C   UNL     1      -9.972  10.865  68.698  1.00  0.00    -0.196 C  
HETATM   22  C   UNL     1     -10.448  10.680  67.262  1.00  0.00    -0.293 C  
HETATM   23  C   UNL     1     -11.403  10.432  68.385  1.00  0.00    -0.292 C  
BRANCH  21  24
HETATM   24  C   UNL     1      -9.031   9.841  69.335  1.00  0.00    -0.197 A  
HETATM   25  C   UNL     1      -7.448   6.903  72.334  1.00  0.00    -0.087 C  
HETATM   26  C   UNL     1      -8.150   9.082  68.519  1.00  0.00    -0.107 A  
HETATM   27  C   UNL     1      -9.084   9.531  70.706  1.00  0.00    -0.176 A  
HETATM   28  C   UNL     1      -7.388   8.022  69.025  1.00  0.00    -0.084 A  
HETATM   29  C   UNL     1      -7.512   7.737  70.365  1.00  0.00    -0.078 A  
HETATM   30  C   UNL     1      -8.327   8.482  71.184  1.00  0.00    -0.150 A  
HETATM   31  F   UNL     1      -8.141   5.787  72.670  1.00  0.00    -0.103 F  
HETATM   32  O   UNL     1      -8.319   8.035  72.470  1.00  0.00    -0.129 OA 
HETATM   33  F   UNL     1      -6.429   7.034  73.217  1.00  0.00    -0.063 F  
HETATM   34  O   UNL     1      -6.895   6.721  71.023  1.00  0.00    -0.056 OA 
ENDBRANCH  21  24
ENDBRANCH  19  21
ENDBRANCH  11  17
BRANCH  16  35
HETATM   35  C   UNL     1     -10.490  19.883  68.555  1.00  0.00    -0.213 C  
BRANCH  35  36
HETATM   36  C   UNL     1     -10.213  19.609  67.066  1.00  0.00    -0.439 C  
HETATM   37  H   UNL     1     -11.267  19.319  65.407  1.00  0.00     0.000 HD 
HETATM   38  O   UNL     1     -11.438  19.489  66.326  1.00  0.00     0.265 OA 
BRANCH  36  39
HETATM   39  C   UNL     1      -9.440  20.786  66.457  1.00  0.00     0.118 C  
HETATM   40  O   UNL     1      -8.213  20.320  65.896  1.00  0.00    -0.547 OA 
HETATM   41  H   UNL     1      -7.735  21.049  65.518  1.00  0.00     0.000 HD 
ENDBRANCH  36  39
ENDBRANCH  35  36
ENDBRANCH  16  35
ENDBRANCH   2   7
TORSDOF 8
ENDMDL
MODEL      162
REMARK 921   NORMALIZED FREE ENERGY PREDICTED BY IDOCK:   21.84 KCAL/MOL
REMARK 922        TOTAL FREE ENERGY PREDICTED BY IDOCK:   31.14 KCAL/MOL
REMARK 923 INTER-LIGAND FREE ENERGY PREDICTED BY IDOCK:   29.42 KCAL/MOL
REMARK 924 INTRA-LIGAND FREE ENERGY PREDICTED BY IDOCK:    1.72 KCAL/MOL
REMARK 927      BINDING AFFINITY PREDICTED BY RF-SCORE:    0.00 PKD
ROOT
HETATM    1  C   UNL     1     -12.671  17.424  64.688  1.00  0.00     7.495 C  
HETATM    2  C   UNL     1     -12.009  17.514  66.093  1.00  0.00     3.477 C  
HETATM    3  C   UNL     1     -10.821  18.484  65.932  1.00  0.00    -0.077 C  
ENDROOT
BRANCH   2   4
HETATM    4  C   UNL     1     -13.070  18.110  67.064  1.00  0.00     8.769 C  
HETATM    5  H   UNL     1     -13.519  19.858  67.929  1.00  0.00     0.000 HD 
HETATM    6  O   UNL     1     -12.871  19.495  67.337  1.00  0.00     3.590 OA 
ENDBRANCH   2   4
BRANCH   2   7
HETATM    7  C   UNL     1     -11.512  16.119  66.533  1.00  0.00     0.523 A  
HETATM    8  C   UNL     1     -12.290  15.076  67.013  1.00  0.00     0.471 A  
HETATM    9  C   UNL     1     -11.460  14.003  67.382  1.00  0.00    -0.373 A  
HETATM   10  C   UNL     1     -11.732  12.741  67.952  1.00  0.00    -0.408 A  
HETATM   11  C   UNL     1     -10.690  11.860  68.242  1.00  0.00    -0.223 A  
HETATM   12  C   UNL     1      -9.380  12.266  67.967  1.00  0.00    -0.195 A  
HETATM   13  C   UNL     1     -10.149  14.374  67.108  1.00  0.00    -0.253 A  
HETATM   14  C   UNL     1      -9.079  13.511  67.408  1.00  0.00    -0.219 A  
HETATM   15  F   UNL     1      -8.366  11.425  68.243  1.00  0.00    -0.123 F  
HETATM   16  N   UNL     1     -10.199  15.645  66.540  1.00  0.00    -0.273 NA 
BRANCH  11  17
HETATM   17  N   UNL     1     -10.894  10.584  68.809  1.00  0.00    -0.215 N  
HETATM   18  H   UNL     1     -10.995  10.543  69.824  1.00  0.00     0.000 HD 
HETATM   19  C   UNL     1     -10.972   9.388  68.128  1.00  0.00    -0.045 C  
HETATM   20  O   UNL     1     -10.864   9.205  66.924  1.00  0.00    -0.147 OA 
BRANCH  19  21
HETATM   21  C   UNL     1     -11.255   8.197  69.013  1.00  0.00     0.380 C  
HETATM   22  C   UNL     1     -12.008   7.011  68.421  1.00  0.00     1.709 C  
HETATM   23  C   UNL     1     -12.728   7.950  69.337  1.00  0.00     3.430 C  
BRANCH  21  24
HETATM   24  C   UNL     1     -10.226   7.980  70.123  1.00  0.00    -0.203 A  
HETATM   25  C   UNL     1      -6.230   7.362  72.068  1.00  0.00    -0.040 C  
HETATM   26  C   UNL     1     -10.512   8.400  71.450  1.00  0.00    -0.286 A  
HETATM   27  C   UNL     1      -8.938   7.479  69.858  1.00  0.00    -0.141 A  
HETATM   28  C   UNL     1      -9.550   8.375  72.466  1.00  0.00    -0.358 A  
HETATM   29  C   UNL     1      -8.296   7.914  72.139  1.00  0.00    -0.131 A  
HETATM   30  C   UNL     1      -8.004   7.465  70.873  1.00  0.00    -0.097 A  
HETATM   31  F   UNL     1      -5.238   8.281  71.963  1.00  0.00    -0.034 F  
HETATM   32  O   UNL     1      -6.710   7.062  70.750  1.00  0.00    -0.051 OA 
HETATM   33  F   UNL     1      -5.692   6.238  72.599  1.00  0.00    -0.034 F  
HETATM   34  O   UNL     1      -7.224   7.863  72.973  1.00  0.00    -0.082 OA 
ENDBRANCH  21  24
ENDBRANCH  19  21
ENDBRANCH  11  17
BRANCH  16  35
HETATM   35  C   UNL     1      -9.008  16.337  66.060  1.00  0.00    -0.290 C  
BRANCH  35  36
HETATM   36  C   UNL     1      -7.712  15.511  66.126  1.00  0.00     1.214 C  
HETATM   37  H   UNL     1      -5.869  15.611  65.389  1.00  0.00     0.000 HD 
HETATM   38  O   UNL     1      -6.670  16.121  65.348  1.00  0.00     2.982 OA 
BRANCH  36  39
HETATM   39  C   UNL     1      -7.207  15.453  67.574  1.00  0.00    -0.196 C  
HETATM   40  O   UNL     1      -6.438  16.621  67.865  1.00  0.00    -0.125 OA 
HETATM   41  H   UNL     1      -6.126  16.585  68.762  1.00  0.00     0.000 HD 
ENDBRANCH  36  39
ENDBRANCH  35  36
ENDBRANCH  16  35
ENDBRANCH   2   7
TORSDOF 8
ENDMDL
MODEL      163
REMARK 921   NORMALIZED FREE ENERGY PREDICTED BY IDOCK:   23.81 KCAL/MOL
REMARK 922        TOTAL FREE ENERGY PREDICTED BY IDOCK:   34.02 KCAL/MOL
REMARK 923 INTER-LIGAND FREE ENERGY PREDICTED BY IDOCK:   32.79 KCAL/MOL
REMARK 924 INTRA-LIGAND FREE ENERGY PREDICTED BY IDOCK:    1.24 KCAL/MOL
REMARK 927      BINDING AFFINITY PREDICTED BY RF-SCORE:    0.00 PKD
ROOT
HETATM    1  C   UNL     1      -8.367  14.841  73.094  1.00  0.00     8.772 C  
HETATM    2  C   UNL     1      -7.733  15.142  71.705  1.00  0.00     4.174 C  
HETATM    3  C   UNL     1      -8.587  16.272  71.094  1.00  0.00     5.258 C  
ENDROOT
BRANCH   2   4
HETATM    4  C   UNL     1      -6.279  15.636  71.961  1.00  0.00     1.826 C  
HETATM    5  H   UNL     1      -4.796  16.553  70.978  1.00  0.00     0.000 HD 
HETATM    6  O   UNL     1      -5.683  16.251  70.822  1.00  0.00    -0.061 OA 
ENDBRANCH   2   4
BRANCH   2   7
HETATM    7  C   UNL     1      -7.789  13.882  70.815  1.00  0.00     3.327 A  
HETATM    8  C   UNL     1      -7.934  12.570  71.243  1.00  0.00     9.926 A  
HETATM    9  C   UNL     1      -7.856  11.704  70.138  1.00  0.00     2.131 A  
HETATM   10  C   UNL     1      -7.903  10.299  70.025  1.00  0.00    -0.056 A  
HETATM   11  C   UNL     1      -7.775   9.688  68.777  1.00  0.00    -0.080 A  
HETATM   12  C   UNL     1      -7.587  10.501  67.655  1.00  0.00    -0.093 A  
HETATM   13  C   UNL     1      -7.681  12.488  69.003  1.00  0.00     0.186 A  
HETATM   14  C   UNL     1      -7.532  11.895  67.736  1.00  0.00    -0.121 A  
HETATM   15  F   UNL     1      -7.463   9.924  66.445  1.00  0.00    -0.094 F  
HETATM   16  N   UNL     1      -7.697  13.816  69.423  1.00  0.00     0.256 NA 
BRANCH  11  17
HETATM   17  N   UNL     1      -7.815   8.289  68.595  1.00  0.00    -0.118 N  
HETATM   18  H   UNL     1      -8.466   7.768  69.183  1.00  0.00     0.000 HD 
HETATM   19  C   UNL     1      -7.062   7.558  67.702  1.00  0.00    -0.085 C  
HETATM   20  O   UNL     1      -6.217   7.972  66.920  1.00  0.00    -0.051 OA 
BRANCH  19  21
HETATM   21  C   UNL     1      -7.374   6.080  67.704  1.00  0.00    -0.077 C  
HETATM   22  C   UNL     1      -6.330   5.113  67.157  1.00  0.00    -0.036 C  
HETATM   23  C   UNL     1      -7.532   5.436  66.328  1.00  0.00    -0.087 C  
BRANCH  21  24
HETATM   24  C   UNL     1      -8.320   5.639  68.821  1.00  0.00    -0.103 A  
HETATM   25  C   UNL     1      -9.654   3.975  72.769  1.00  0.00    -0.132 C  
HETATM   26  C   UNL     1      -9.613   6.220  68.928  1.00  0.00    -0.135 A  
HETATM   27  C   UNL     1      -7.915   4.753  69.836  1.00  0.00    -0.069 A  
HETATM   28  C   UNL     1     -10.455   5.977  70.020  1.00  0.00    -0.313 A  
HETATM   29  C   UNL     1      -9.989   5.134  71.002  1.00  0.00    -0.206 A  
HETATM   30  C   UNL     1      -8.759   4.527  70.904  1.00  0.00    -0.101 A  
HETATM   31  F   UNL     1      -9.276   4.538  73.943  1.00  0.00    -0.110 F  
HETATM   32  O   UNL     1      -8.480   3.742  71.979  1.00  0.00    -0.087 OA 
HETATM   33  F   UNL     1     -10.228   2.782  73.054  1.00  0.00    -0.164 F  
HETATM   34  O   UNL     1     -10.638   4.818  72.153  1.00  0.00    -0.198 OA 
ENDBRANCH  21  24
ENDBRANCH  19  21
ENDBRANCH  11  17
BRANCH  16  35
HETATM   35  C   UNL     1      -7.605  14.934  68.491  1.00  0.00    -0.121 C  
BRANCH  35  36
HETATM   36  C   UNL     1      -8.830  15.116  67.579  1.00  0.00    -0.182 C  
HETATM   37  H   UNL     1     -10.772  15.480  67.787  1.00  0.00     0.000 HD 
HETATM   38  O   UNL     1     -10.015  15.368  68.350  1.00  0.00    -0.210 OA 
BRANCH  36  39
HETATM   39  C   UNL     1      -8.625  16.336  66.671  1.00  0.00    -0.267 C  
HETATM   40  O   UNL     1      -8.676  15.934  65.302  1.00  0.00     0.285 OA 
HETATM   41  H   UNL     1      -8.549  16.690  64.740  1.00  0.00     0.000 HD 
ENDBRANCH  36  39
ENDBRANCH  35  36
ENDBRANCH  16  35
ENDBRANCH   2   7
TORSDOF 8
ENDMDL
MODEL      164
REMARK 921   NORMALIZED FREE ENERGY PREDICTED BY IDOCK:   28.57 KCAL/MOL
REMARK 922        TOTAL FREE ENERGY PREDICTED BY IDOCK:   41.01 KCAL/MOL
REMARK 923 INTER-LIGAND FREE ENERGY PREDICTED BY IDOCK:   40.62 KCAL/MOL
REMARK 924 INTRA-LIGAND FREE ENERGY PREDICTED BY IDOCK:    0.39 KCAL/MOL
REMARK 927      BINDING AFFINITY PREDICTED BY RF-SCORE:    0.00 PKD
ROOT
HETATM    1  C   UNL     1      -6.048   7.515  66.677  1.00  0.00    -0.044 C  
HETATM    2  C   UNL     1      -7.020   7.950  67.810  1.00  0.00    -0.074 C  
HETATM    3  C   UNL     1      -8.187   6.943  67.767  1.00  0.00    -0.117 C  
ENDROOT
BRANCH   2   4
HETATM    4  C   UNL     1      -6.243   7.825  69.154  1.00  0.00    -0.035 C  
HETATM    5  H   UNL     1      -6.611   7.831  71.122  1.00  0.00     0.000 HD 
HETATM    6  O   UNL     1      -7.084   7.908  70.302  1.00  0.00    -0.048 OA 
ENDBRANCH   2   4
BRANCH   2   7
HETATM    7  C   UNL     1      -7.532   9.382  67.547  1.00  0.00    -0.091 A  
HETATM    8  C   UNL     1      -6.912  10.566  67.919  1.00  0.00    -0.077 A  
HETATM    9  C   UNL     1      -7.731  11.655  67.571  1.00  0.00    -0.136 A  
HETATM   10  C   UNL     1      -7.594  13.046  67.757  1.00  0.00    -0.152 A  
HETATM   11  C   UNL     1      -8.594  13.917  67.322  1.00  0.00    -0.211 A  
HETATM   12  C   UNL     1      -9.731  13.373  66.717  1.00  0.00    -0.262 A  
HETATM   13  C   UNL     1      -8.867  11.144  66.954  1.00  0.00    -0.157 A  
HETATM   14  C   UNL     1      -9.898  11.999  66.524  1.00  0.00    -0.225 A  
HETATM   15  F   UNL     1     -10.703  14.203  66.293  1.00  0.00    -0.283 F  
HETATM   16  N   UNL     1      -8.708   9.761  66.896  1.00  0.00    -0.134 NA 
BRANCH  11  17
HETATM   17  N   UNL     1      -8.517  15.317  67.476  1.00  0.00    -0.167 N  
HETATM   18  H   UNL     1      -9.378  15.844  67.326  1.00  0.00     0.000 HD 
HETATM   19  C   UNL     1      -7.393  16.044  67.808  1.00  0.00    -0.139 C  
HETATM   20  O   UNL     1      -6.263  15.623  68.013  1.00  0.00    -0.114 OA 
BRANCH  19  21
HETATM   21  C   UNL     1      -7.644  17.526  67.953  1.00  0.00    -0.204 C  
HETATM   22  C   UNL     1      -8.188  18.294  66.753  1.00  0.00    -0.269 C  
HETATM   23  C   UNL     1      -6.743  18.434  67.116  1.00  0.00    -0.206 C  
BRANCH  21  24
HETATM   24  C   UNL     1      -7.995  17.969  69.373  1.00  0.00     0.340 A  
HETATM   25  C   UNL     1     -10.517  19.177  72.883  1.00  0.00     3.499 C  
HETATM   26  C   UNL     1      -7.105  17.688  70.446  1.00  0.00     1.950 A  
HETATM   27  C   UNL     1      -9.237  18.549  69.689  1.00  0.00     0.690 A  
HETATM   28  C   UNL     1      -7.447  17.922  71.783  1.00  0.00     8.350 A  
HETATM   29  C   UNL     1      -8.691  18.452  72.034  1.00  0.00    12.664 A  
HETATM   30  C   UNL     1      -9.556  18.770  71.013  1.00  0.00     3.830 A  
HETATM   31  F   UNL     1     -11.451  18.345  73.407  1.00  0.00     0.187 F  
HETATM   32  O   UNL     1     -10.736  19.270  71.468  1.00  0.00     2.207 OA 
HETATM   33  F   UNL     1     -10.704  20.400  73.432  1.00  0.00     3.287 F  
HETATM   34  O   UNL     1      -9.217  18.701  73.262  1.00  0.00     6.894 OA 
ENDBRANCH  21  24
ENDBRANCH  19  21
ENDBRANCH  11  17
BRANCH  16  35
HETATM   35  C   UNL     1      -9.681   8.887  66.251  1.00  0.00    -0.275 C  
BRANCH  35  36
HETATM   36  C   UNL     1      -9.602   8.856  64.715  1.00  0.00     0.696 C  
HETATM   37  H   UNL     1      -9.948  10.100  63.204  1.00  0.00     0.000 HD 
HETATM   38  O   UNL     1      -9.996  10.118  64.153  1.00  0.00    -0.278 OA 
BRANCH  36  39
HETATM   39  C   UNL     1      -8.154   8.608  64.274  1.00  0.00    -0.158 C  
HETATM   40  O   UNL     1      -7.712   9.679  63.439  1.00  0.00    -0.118 OA 
HETATM   41  H   UNL     1      -6.815   9.525  63.166  1.00  0.00     0.000 HD 
ENDBRANCH  36  39
ENDBRANCH  35  36
ENDBRANCH  16  35
ENDBRANCH   2   7
TORSDOF 8
ENDMDL
MODEL      165
REMARK 921   NORMALIZED FREE ENERGY PREDICTED BY IDOCK:   30.59 KCAL/MOL
REMARK 922        TOTAL FREE ENERGY PREDICTED BY IDOCK:   43.98 KCAL/MOL
REMARK 923 INTER-LIGAND FREE ENERGY PREDICTED BY IDOCK:   41.50 KCAL/MOL
REMARK 924 INTRA-LIGAND FREE ENERGY PREDICTED BY IDOCK:    2.48 KCAL/MOL
REMARK 927      BINDING AFFINITY PREDICTED BY RF-SCORE:    0.00 PKD
ROOT
HETATM    1  C   UNL     1      -8.498  14.938  73.336  1.00  0.00     9.616 C  
HETATM    2  C   UNL     1      -7.998  15.709  72.081  1.00  0.00     7.694 C  
HETATM    3  C   UNL     1      -9.015  16.848  71.859  1.00  0.00    11.011 C  
ENDROOT
BRANCH   2   4
HETATM    4  C   UNL     1      -6.597  16.292  72.428  1.00  0.00     4.964 C  
HETATM    5  H   UNL     1      -5.312  17.661  71.734  1.00  0.00     0.000 HD 
HETATM    6  O   UNL     1      -6.166  17.305  71.522  1.00  0.00     1.655 OA 
ENDBRANCH   2   4
BRANCH   2   7
HETATM    7  C   UNL     1      -7.968  14.767  70.859  1.00  0.00     2.248 A  
HETATM    8  C   UNL     1      -7.946  13.380  70.882  1.00  0.00     5.625 A  
HETATM    9  C   UNL     1      -7.839  12.889  69.568  1.00  0.00     0.960 A  
HETATM   10  C   UNL     1      -7.740  11.583  69.045  1.00  0.00    -0.034 A  
HETATM   11  C   UNL     1      -7.618  11.383  67.670  1.00  0.00    -0.108 A  
HETATM   12  C   UNL     1      -7.583  12.504  66.835  1.00  0.00     0.082 A  
HETATM   13  C   UNL     1      -7.814  13.985  68.714  1.00  0.00    -0.097 A  
HETATM   14  C   UNL     1      -7.673  13.810  67.324  1.00  0.00    -0.095 A  
HETATM   15  F   UNL     1      -7.466  12.325  65.506  1.00  0.00     1.241 F  
HETATM   16  N   UNL     1      -7.949  15.122  69.508  1.00  0.00    -0.210 NA 
BRANCH  11  17
HETATM   17  N   UNL     1      -7.517  10.104  67.083  1.00  0.00    -0.091 N  
HETATM   18  H   UNL     1      -8.040   9.350  67.529  1.00  0.00     0.000 HD 
HETATM   19  C   UNL     1      -6.781   9.772  65.965  1.00  0.00    -0.087 C  
HETATM   20  O   UNL     1      -6.073  10.506  65.290  1.00  0.00    -0.128 OA 
BRANCH  19  21
HETATM   21  C   UNL     1      -6.921   8.327  65.548  1.00  0.00    -0.066 C  
HETATM   22  C   UNL     1      -5.852   7.721  64.646  1.00  0.00    -0.041 C  
HETATM   23  C   UNL     1      -7.177   8.091  64.060  1.00  0.00    -0.087 C  
BRANCH  21  24
HETATM   24  C   UNL     1      -7.664   7.450  66.556  1.00  0.00    -0.093 A  
HETATM   25  C   UNL     1      -8.895   3.761  68.794  1.00  0.00    -0.110 C  
HETATM   26  C   UNL     1      -8.203   8.027  67.738  1.00  0.00    -0.129 A  
HETATM   27  C   UNL     1      -7.736   6.052  66.419  1.00  0.00    -0.102 A  
HETATM   28  C   UNL     1      -8.746   7.251  68.769  1.00  0.00    -0.125 A  
HETATM   29  C   UNL     1      -8.752   5.887  68.598  1.00  0.00    -0.109 A  
HETATM   30  C   UNL     1      -8.273   5.306  67.447  1.00  0.00    -0.103 A  
HETATM   31  F   UNL     1      -8.006   3.040  69.520  1.00  0.00    -0.049 F  
HETATM   32  O   UNL     1      -8.358   3.948  67.477  1.00  0.00    -0.093 OA 
HETATM   33  F   UNL     1     -10.032   3.031  68.698  1.00  0.00    -0.124 F  
HETATM   34  O   UNL     1      -9.189   4.973  69.503  1.00  0.00    -0.108 OA 
ENDBRANCH  21  24
ENDBRANCH  19  21
ENDBRANCH  11  17
BRANCH  16  35
HETATM   35  C   UNL     1      -8.031  16.465  68.948  1.00  0.00    -0.236 C  
BRANCH  35  36
HETATM   36  C   UNL     1      -9.329  16.765  68.179  1.00  0.00    -0.234 C  
HETATM   37  H   UNL     1     -11.279  16.825  68.560  1.00  0.00     0.000 HD 
HETATM   38  O   UNL     1     -10.477  16.640  69.035  1.00  0.00    -0.285 OA 
BRANCH  36  39
HETATM   39  C   UNL     1      -9.311  18.214  67.674  1.00  0.00    -0.260 C  
HETATM   40  O   UNL     1      -9.420  18.231  66.250  1.00  0.00    -0.390 OA 
HETATM   41  H   UNL     1      -9.409  19.128  65.938  1.00  0.00     0.000 HD 
ENDBRANCH  36  39
ENDBRANCH  35  36
ENDBRANCH  16  35
ENDBRANCH   2   7
TORSDOF 8
ENDMDL
MODEL      166
REMARK 921   NORMALIZED FREE ENERGY PREDICTED BY IDOCK:   30.97 KCAL/MOL
REMARK 922        TOTAL FREE ENERGY PREDICTED BY IDOCK:   44.54 KCAL/MOL
REMARK 923 INTER-LIGAND FREE ENERGY PREDICTED BY IDOCK:   42.88 KCAL/MOL
REMARK 924 INTRA-LIGAND FREE ENERGY PREDICTED BY IDOCK:    1.66 KCAL/MOL
REMARK 927      BINDING AFFINITY PREDICTED BY RF-SCORE:    0.00 PKD
ROOT
HETATM    1  C   UNL     1      -7.775  14.904  74.087  1.00  0.00     8.143 C  
HETATM    2  C   UNL     1      -7.275  15.675  72.832  1.00  0.00     7.409 C  
HETATM    3  C   UNL     1      -8.292  16.814  72.611  1.00  0.00    17.120 C  
ENDROOT
BRANCH   2   4
HETATM    4  C   UNL     1      -5.874  16.258  73.180  1.00  0.00     2.645 C  
HETATM    5  H   UNL     1      -4.364  17.212  72.276  1.00  0.00     0.000 HD 
HETATM    6  O   UNL     1      -5.219  16.856  72.064  1.00  0.00    -0.152 OA 
ENDBRANCH   2   4
BRANCH   2   7
HETATM    7  C   UNL     1      -7.245  14.733  71.610  1.00  0.00     2.479 A  
HETATM    8  C   UNL     1      -7.223  13.346  71.633  1.00  0.00     5.195 A  
HETATM    9  C   UNL     1      -7.116  12.855  70.320  1.00  0.00     1.425 A  
HETATM   10  C   UNL     1      -7.017  11.549  69.797  1.00  0.00     0.082 A  
HETATM   11  C   UNL     1      -6.895  11.349  68.421  1.00  0.00    -0.068 A  
HETATM   12  C   UNL     1      -6.860  12.470  67.587  1.00  0.00    -0.136 A  
HETATM   13  C   UNL     1      -7.091  13.951  69.465  1.00  0.00     0.081 A  
HETATM   14  C   UNL     1      -6.950  13.777  68.076  1.00  0.00    -0.137 A  
HETATM   15  F   UNL     1      -6.743  12.291  66.257  1.00  0.00     0.224 F  
HETATM   16  N   UNL     1      -7.226  15.088  70.260  1.00  0.00     0.088 NA 
BRANCH  11  17
HETATM   17  N   UNL     1      -6.794  10.070  67.834  1.00  0.00    -0.074 N  
HETATM   18  H   UNL     1      -7.317   9.316  68.281  1.00  0.00     0.000 HD 
HETATM   19  C   UNL     1      -6.058   9.738  66.717  1.00  0.00    -0.063 C  
HETATM   20  O   UNL     1      -5.350  10.472  66.041  1.00  0.00    -0.059 OA 
BRANCH  19  21
HETATM   21  C   UNL     1      -6.198   8.293  66.299  1.00  0.00    -0.046 C  
HETATM   22  C   UNL     1      -5.129   7.687  65.397  1.00  0.00    -0.028 C  
HETATM   23  C   UNL     1      -6.454   8.057  64.812  1.00  0.00    -0.049 C  
BRANCH  21  24
HETATM   24  C   UNL     1      -6.941   7.416  67.308  1.00  0.00    -0.083 A  
HETATM   25  C   UNL     1     -10.377   5.458  69.427  1.00  0.00    -0.269 C  
HETATM   26  C   UNL     1      -6.284   6.305  67.903  1.00  0.00    -0.028 A  
HETATM   27  C   UNL     1      -8.307   7.597  67.590  1.00  0.00    -0.118 A  
HETATM   28  C   UNL     1      -6.961   5.377  68.703  1.00  0.00    -0.060 A  
HETATM   29  C   UNL     1      -8.305   5.581  68.910  1.00  0.00    -0.102 A  
HETATM   30  C   UNL     1      -8.955   6.670  68.380  1.00  0.00    -0.123 A  
HETATM   31  F   UNL     1     -11.238   4.636  68.777  1.00  0.00     0.840 F  
HETATM   32  O   UNL     1     -10.280   6.686  68.690  1.00  0.00    -0.154 OA 
HETATM   33  F   UNL     1     -10.907   5.726  70.644  1.00  0.00    -0.300 F  
HETATM   34  O   UNL     1      -9.135   4.766  69.612  1.00  0.00    -0.102 OA 
ENDBRANCH  21  24
ENDBRANCH  19  21
ENDBRANCH  11  17
BRANCH  16  35
HETATM   35  C   UNL     1      -7.308  16.431  69.699  1.00  0.00     0.103 C  
BRANCH  35  36
HETATM   36  C   UNL     1      -5.950  17.115  69.462  1.00  0.00    -0.235 C  
HETATM   37  H   UNL     1      -4.469  17.015  68.141  1.00  0.00     0.000 HD 
HETATM   38  O   UNL     1      -5.308  16.593  68.288  1.00  0.00    -0.109 OA 
BRANCH  36  39
HETATM   39  C   UNL     1      -6.159  18.616  69.222  1.00  0.00    -0.251 C  
HETATM   40  O   UNL     1      -5.450  19.366  70.209  1.00  0.00    -0.208 OA 
HETATM   41  H   UNL     1      -5.580  20.296  70.060  1.00  0.00     0.000 HD 
ENDBRANCH  36  39
ENDBRANCH  35  36
ENDBRANCH  16  35
ENDBRANCH   2   7
TORSDOF 8
ENDMDL
MODEL      167
REMARK 921   NORMALIZED FREE ENERGY PREDICTED BY IDOCK:   39.77 KCAL/MOL
REMARK 922        TOTAL FREE ENERGY PREDICTED BY IDOCK:   57.46 KCAL/MOL
REMARK 923 INTER-LIGAND FREE ENERGY PREDICTED BY IDOCK:   54.70 KCAL/MOL
REMARK 924 INTRA-LIGAND FREE ENERGY PREDICTED BY IDOCK:    2.76 KCAL/MOL
REMARK 927      BINDING AFFINITY PREDICTED BY RF-SCORE:    0.00 PKD
ROOT
HETATM    1  C   UNL     1     -10.163  17.815  73.197  1.00  0.00     6.671 C  
HETATM    2  C   UNL     1      -9.013  17.156  72.382  1.00  0.00    14.390 C  
HETATM    3  C   UNL     1      -8.369  18.300  71.572  1.00  0.00     9.603 C  
ENDROOT
BRANCH   2   4
HETATM    4  C   UNL     1      -7.996  16.576  73.408  1.00  0.00    17.959 C  
HETATM    5  H   UNL     1      -6.775  15.003  73.606  1.00  0.00     0.000 HD 
HETATM    6  O   UNL     1      -7.395  15.357  72.980  1.00  0.00     5.439 OA 
ENDBRANCH   2   4
BRANCH   2   7
HETATM    7  C   UNL     1      -9.586  16.080  71.435  1.00  0.00     3.731 A  
HETATM    8  C   UNL     1      -9.173  15.812  70.138  1.00  0.00     0.572 A  
HETATM    9  C   UNL     1      -9.994  14.816  69.579  1.00  0.00    -0.035 A  
HETATM   10  C   UNL     1     -10.028  14.217  68.303  1.00  0.00    -0.241 A  
HETATM   11  C   UNL     1     -10.987  13.247  68.006  1.00  0.00    -0.244 A  
HETATM   12  C   UNL     1     -11.912  12.903  68.996  1.00  0.00    -0.251 A  
HETATM   13  C   UNL     1     -10.919  14.445  70.548  1.00  0.00     0.252 A  
HETATM   14  C   UNL     1     -11.907  13.483  70.267  1.00  0.00    -0.327 A  
HETATM   15  F   UNL     1     -12.842  11.968  68.722  1.00  0.00     0.371 F  
HETATM   16  N   UNL     1     -10.624  15.182  71.693  1.00  0.00     0.381 NA 
BRANCH  11  17
HETATM   17  N   UNL     1     -11.074  12.608  66.751  1.00  0.00    -0.266 N  
HETATM   18  H   UNL     1     -11.997  12.280  66.465  1.00  0.00     0.000 HD 
HETATM   19  C   UNL     1     -10.035  12.383  65.873  1.00  0.00    -0.255 C  
HETATM   20  O   UNL     1      -8.856  12.674  66.019  1.00  0.00     0.091 OA 
BRANCH  19  21
HETATM   21  C   UNL     1     -10.457  11.724  64.582  1.00  0.00    -0.347 C  
HETATM   22  C   UNL     1     -11.073  12.590  63.488  1.00  0.00    -0.497 C  
HETATM   23  C   UNL     1     -11.961  11.709  64.308  1.00  0.00    -0.182 C  
BRANCH  21  24
HETATM   24  C   UNL     1      -9.644  10.483  64.214  1.00  0.00    -0.364 A  
HETATM   25  C   UNL     1      -7.438   6.611  64.741  1.00  0.00    -0.095 C  
HETATM   26  C   UNL     1      -9.681   9.976  62.886  1.00  0.00     0.053 A  
HETATM   27  C   UNL     1      -8.939   9.740  65.178  1.00  0.00    -0.237 A  
HETATM   28  C   UNL     1      -9.091   8.757  62.534  1.00  0.00     0.290 A  
HETATM   29  C   UNL     1      -8.451   8.053  63.528  1.00  0.00     0.155 A  
HETATM   30  C   UNL     1      -8.365   8.540  64.811  1.00  0.00    -0.153 A  
HETATM   31  F   UNL     1      -8.055   5.499  65.211  1.00  0.00    -0.099 F  
HETATM   32  O   UNL     1      -7.704   7.693  65.645  1.00  0.00    -0.089 OA 
HETATM   33  F   UNL     1      -6.106   6.368  64.737  1.00  0.00    -0.027 F  
HETATM   34  O   UNL     1      -7.866   6.835  63.390  1.00  0.00    -0.116 OA 
ENDBRANCH  21  24
ENDBRANCH  19  21
ENDBRANCH  11  17
BRANCH  16  35
HETATM   35  C   UNL     1     -11.351  15.010  72.945  1.00  0.00     0.194 C  
BRANCH  35  36
HETATM   36  C   UNL     1     -12.883  15.067  72.815  1.00  0.00    -0.410 C  
HETATM   37  H   UNL     1     -14.246  16.309  72.075  1.00  0.00     0.000 HD 
HETATM   38  O   UNL     1     -13.300  16.273  72.155  1.00  0.00    -0.080 OA 
BRANCH  36  39
HETATM   39  C   UNL     1     -13.375  13.898  71.952  1.00  0.00    -0.412 C  
HETATM   40  O   UNL     1     -13.996  12.914  72.781  1.00  0.00    -0.730 OA 
HETATM   41  H   UNL     1     -14.301  12.190  72.246  1.00  0.00     0.000 HD 
ENDBRANCH  36  39
ENDBRANCH  35  36
ENDBRANCH  16  35
ENDBRANCH   2   7
TORSDOF 8
ENDMDL
MODEL      168
REMARK 921   NORMALIZED FREE ENERGY PREDICTED BY IDOCK:   51.23 KCAL/MOL
REMARK 922        TOTAL FREE ENERGY PREDICTED BY IDOCK:   74.27 KCAL/MOL
REMARK 923 INTER-LIGAND FREE ENERGY PREDICTED BY IDOCK:   46.67 KCAL/MOL
REMARK 924 INTRA-LIGAND FREE ENERGY PREDICTED BY IDOCK:   27.60 KCAL/MOL
REMARK 927      BINDING AFFINITY PREDICTED BY RF-SCORE:    0.00 PKD
ROOT
HETATM    1  C   UNL     1      -9.751   3.281  71.125  1.00  0.00    -0.212 C  
HETATM    2  C   UNL     1     -10.653   4.189  72.009  1.00  0.00     0.023 C  
HETATM    3  C   UNL     1     -12.104   3.845  71.615  1.00  0.00     5.025 C  
ENDROOT
BRANCH   2   4
HETATM    4  C   UNL     1     -10.385   3.797  73.492  1.00  0.00    -0.160 C  
HETATM    5  H   UNL     1     -10.685   2.252  74.728  1.00  0.00     0.000 HD 
HETATM    6  O   UNL     1     -10.849   2.491  73.824  1.00  0.00    -0.159 OA 
ENDBRANCH   2   4
BRANCH   2   7
HETATM    7  C   UNL     1     -10.352   5.675  71.719  1.00  0.00    -0.215 A  
HETATM    8  C   UNL     1      -9.131   6.317  71.862  1.00  0.00    -0.143 A  
HETATM    9  C   UNL     1      -9.283   7.685  71.578  1.00  0.00    -0.156 A  
HETATM   10  C   UNL     1      -8.382   8.770  71.609  1.00  0.00    -0.190 A  
HETATM   11  C   UNL     1      -8.818  10.057  71.293  1.00  0.00     1.937 A  
HETATM   12  C   UNL     1     -10.164  10.241  70.962  1.00  0.00     0.969 A  
HETATM   13  C   UNL     1     -10.613   7.895  71.232  1.00  0.00    -0.211 A  
HETATM   14  C   UNL     1     -11.081   9.187  70.927  1.00  0.00    -0.356 A  
HETATM   15  F   UNL     1     -10.597  11.478  70.655  1.00  0.00     0.747 F  
HETATM   16  N   UNL     1     -11.241   6.653  71.269  1.00  0.00    -0.269 NA 
BRANCH  11  17
HETATM   17  N   UNL     1      -7.968  11.183  71.304  1.00  0.00     4.915 N  
HETATM   18  H   UNL     1      -7.705  11.553  72.218  1.00  0.00     0.000 HD 
HETATM   19  C   UNL     1      -7.457  11.834  70.201  1.00  0.00     1.653 C  
HETATM   20  O   UNL     1      -7.653  11.575  69.022  1.00  0.00    -0.119 OA 
BRANCH  19  21
HETATM   21  C   UNL     1      -6.528  12.976  70.540  1.00  0.00     0.508 C  
HETATM   22  C   UNL     1      -5.131  12.651  71.057  1.00  0.00    -0.152 C  
HETATM   23  C   UNL     1      -6.175  13.123  72.019  1.00  0.00     1.908 C  
BRANCH  21  24
HETATM   24  C   UNL     1      -6.770  14.247  69.725  1.00  0.00    -0.095 A  
HETATM   25  C   UNL     1      -7.569  16.848  66.157  1.00  0.00    -0.195 C  
HETATM   26  C   UNL     1      -7.292  15.408  70.358  1.00  0.00     0.605 A  
HETATM   27  C   UNL     1      -6.606  14.281  68.329  1.00  0.00    -0.113 A  
HETATM   28  C   UNL     1      -7.685  16.541  69.635  1.00  0.00     0.323 A  
HETATM   29  C   UNL     1      -7.540  16.501  68.268  1.00  0.00    -0.170 A  
HETATM   30  C   UNL     1      -7.001  15.406  67.635  1.00  0.00    -0.184 A  
HETATM   31  F   UNL     1      -8.697  16.713  65.417  1.00  0.00     0.018 F  
HETATM   32  O   UNL     1      -6.953  15.558  66.284  1.00  0.00     0.631 OA 
HETATM   33  F   UNL     1      -6.729  17.663  65.477  1.00  0.00    -0.263 F  
HETATM   34  O   UNL     1      -7.910  17.478  67.400  1.00  0.00    -0.197 OA 
ENDBRANCH  21  24
ENDBRANCH  19  21
ENDBRANCH  11  17
BRANCH  16  35
HETATM   35  C   UNL     1     -12.640   6.470  70.898  1.00  0.00     0.131 C  
BRANCH  35  36
HETATM   36  C   UNL     1     -13.081   5.005  70.746  1.00  0.00     8.791 C  
HETATM   37  H   UNL     1     -13.081   3.612  69.328  1.00  0.00     0.000 HD 
HETATM   38  O   UNL     1     -12.808   4.517  69.422  1.00  0.00    14.467 OA 
BRANCH  36  39
HETATM   39  C   UNL     1     -12.287   4.120  71.716  1.00  0.00     4.863 C  
HETATM   40  O   UNL     1     -13.186   3.334  72.499  1.00  0.00     2.711 OA 
HETATM   41  H   UNL     1     -12.693   2.786  73.100  1.00  0.00     0.000 HD 
ENDBRANCH  36  39
ENDBRANCH  35  36
ENDBRANCH  16  35
ENDBRANCH   2   7
TORSDOF 8
ENDMDL
MODEL      169
REMARK 921   NORMALIZED FREE ENERGY PREDICTED BY IDOCK:   80.80 KCAL/MOL
REMARK 922        TOTAL FREE ENERGY PREDICTED BY IDOCK:  117.67 KCAL/MOL
REMARK 923 INTER-LIGAND FREE ENERGY PREDICTED BY IDOCK:  113.76 KCAL/MOL
REMARK 924 INTRA-LIGAND FREE ENERGY PREDICTED BY IDOCK:    3.91 KCAL/MOL
REMARK 927      BINDING AFFINITY PREDICTED BY RF-SCORE:    0.00 PKD
ROOT
HETATM    1  C   UNL     1     -13.367  17.946  64.155  1.00  0.00    15.011 C  
HETATM    2  C   UNL     1     -12.872  17.735  65.614  1.00  0.00    10.109 C  
HETATM    3  C   UNL     1     -11.783  18.804  65.843  1.00  0.00     2.707 C  
ENDROOT
BRANCH   2   4
HETATM    4  C   UNL     1     -14.089  17.989  66.552  1.00  0.00    14.576 C  
HETATM    5  H   UNL     1     -14.813  19.432  67.736  1.00  0.00     0.000 HD 
HETATM    6  O   UNL     1     -14.071  19.277  67.164  1.00  0.00     6.389 OA 
ENDBRANCH   2   4
BRANCH   2   7
HETATM    7  C   UNL     1     -12.280  16.318  65.773  1.00  0.00     2.133 A  
HETATM    8  C   UNL     1     -12.965  15.171  66.146  1.00  0.00     1.494 A  
HETATM    9  C   UNL     1     -12.061  14.099  66.256  1.00  0.00    -0.463 A  
HETATM   10  C   UNL     1     -12.226  12.751  66.634  1.00  0.00    -0.162 A  
HETATM   11  C   UNL     1     -11.126  11.892  66.679  1.00  0.00    -0.310 A  
HETATM   12  C   UNL     1      -9.868  12.407  66.354  1.00  0.00    -0.240 A  
HETATM   13  C   UNL     1     -10.799  14.581  65.926  1.00  0.00    -0.308 A  
HETATM   14  C   UNL     1      -9.672  13.740  65.981  1.00  0.00    -0.255 A  
HETATM   15  F   UNL     1      -8.799  11.590  66.393  1.00  0.00    -0.175 F  
HETATM   16  N   UNL     1     -10.956  15.921  65.580  1.00  0.00    -0.283 NA 
BRANCH  11  17
HETATM   17  N   UNL     1     -11.223  10.534  67.047  1.00  0.00    -0.109 N  
HETATM   18  H   UNL     1     -10.670  10.234  67.850  1.00  0.00     0.000 HD 
HETATM   19  C   UNL     1     -11.992   9.571  66.428  1.00  0.00     5.672 C  
HETATM   20  O   UNL     1     -12.712   9.704  65.448  1.00  0.00    10.183 OA 
BRANCH  19  21
HETATM   21  C   UNL     1     -11.928   8.216  67.093  1.00  0.00     4.566 C  
HETATM   22  C   UNL     1     -12.866   7.118  66.604  1.00  0.00    10.940 C  
HETATM   23  C   UNL     1     -13.166   7.814  67.894  1.00  0.00    14.666 C  
BRANCH  21  24
HETATM   24  C   UNL     1     -10.554   7.859  67.659  1.00  0.00    -0.276 A  
HETATM   25  C   UNL     1      -6.093   7.418  67.868  1.00  0.00    -0.035 C  
HETATM   26  C   UNL     1     -10.362   7.783  69.066  1.00  0.00    -0.219 A  
HETATM   27  C   UNL     1      -9.422   7.713  66.836  1.00  0.00    -0.222 A  
HETATM   28  C   UNL     1      -9.096   7.622  69.641  1.00  0.00    -0.147 A  
HETATM   29  C   UNL     1      -8.021   7.527  68.788  1.00  0.00    -0.126 A  
HETATM   30  C   UNL     1      -8.183   7.557  67.423  1.00  0.00    -0.116 A  
HETATM   31  F   UNL     1      -5.268   8.490  67.787  1.00  0.00    -0.031 F  
HETATM   32  O   UNL     1      -7.001   7.460  66.757  1.00  0.00    -0.073 OA 
HETATM   33  F   UNL     1      -5.329   6.305  67.759  1.00  0.00    -0.004 F  
HETATM   34  O   UNL     1      -6.719   7.418  69.159  1.00  0.00    -0.049 OA 
ENDBRANCH  21  24
ENDBRANCH  19  21
ENDBRANCH  11  17
BRANCH  16  35
HETATM   35  C   UNL     1      -9.846  16.744  65.111  1.00  0.00     0.788 C  
BRANCH  35  36
HETATM   36  C   UNL     1      -8.641  15.955  64.572  1.00  0.00     7.176 C  
HETATM   37  H   UNL     1      -6.829  16.351  63.860  1.00  0.00     0.000 HD 
HETATM   38  O   UNL     1      -7.573  16.838  64.193  1.00  0.00     8.049 OA 
BRANCH  36  39
HETATM   39  C   UNL     1      -8.088  15.037  65.670  1.00  0.00     3.106 C  
HETATM   40  O   UNL     1      -7.190  15.769  66.505  1.00  0.00    -0.203 OA 
HETATM   41  H   UNL     1      -6.848  15.201  67.185  1.00  0.00     0.000 HD 
ENDBRANCH  36  39
ENDBRANCH  35  36
ENDBRANCH  16  35
ENDBRANCH   2   7
TORSDOF 8
ENDMDL
MODEL      170
REMARK 921   NORMALIZED FREE ENERGY PREDICTED BY IDOCK:   83.53 KCAL/MOL
REMARK 922        TOTAL FREE ENERGY PREDICTED BY IDOCK:  121.68 KCAL/MOL
REMARK 923 INTER-LIGAND FREE ENERGY PREDICTED BY IDOCK:  117.37 KCAL/MOL
REMARK 924 INTRA-LIGAND FREE ENERGY PREDICTED BY IDOCK:    4.31 KCAL/MOL
REMARK 927      BINDING AFFINITY PREDICTED BY RF-SCORE:    0.00 PKD
ROOT
HETATM    1  C   UNL     1     -13.373  17.946  64.150  1.00  0.00    15.011 C  
HETATM    2  C   UNL     1     -12.896  17.697  65.610  1.00  0.00     9.713 C  
HETATM    3  C   UNL     1     -11.758  18.709  65.854  1.00  0.00     2.786 C  
ENDROOT
BRANCH   2   4
HETATM    4  C   UNL     1     -14.103  18.000  66.546  1.00  0.00    14.576 C  
HETATM    5  H   UNL     1     -14.763  19.464  67.741  1.00  0.00     0.000 HD 
HETATM    6  O   UNL     1     -14.026  19.279  67.171  1.00  0.00     6.411 OA 
ENDBRANCH   2   4
BRANCH   2   7
HETATM    7  C   UNL     1     -12.374  16.252  65.756  1.00  0.00     2.460 A  
HETATM    8  C   UNL     1     -13.117  15.086  65.640  1.00  0.00     0.898 A  
HETATM    9  C   UNL     1     -12.300  13.977  65.920  1.00  0.00    -0.515 A  
HETATM   10  C   UNL     1     -12.562  12.593  65.981  1.00  0.00     0.283 A  
HETATM   11  C   UNL     1     -11.544  11.697  66.313  1.00  0.00    -0.043 A  
HETATM   12  C   UNL     1     -10.274  12.209  66.595  1.00  0.00    -0.201 A  
HETATM   13  C   UNL     1     -11.024  14.457  66.194  1.00  0.00    -0.320 A  
HETATM   14  C   UNL     1      -9.985  13.576  66.549  1.00  0.00    -0.287 A  
HETATM   15  F   UNL     1      -9.284  11.356  66.916  1.00  0.00    -0.164 F  
HETATM   16  N   UNL     1     -11.069  15.840  66.036  1.00  0.00    -0.164 NA 
BRANCH  11  17
HETATM   17  N   UNL     1     -11.739  10.302  66.388  1.00  0.00     1.554 N  
HETATM   18  H   UNL     1     -11.548   9.859  67.287  1.00  0.00     0.000 HD 
HETATM   19  C   UNL     1     -12.164   9.478  65.367  1.00  0.00    10.214 C  
HETATM   20  O   UNL     1     -12.431   9.791  64.215  1.00  0.00     8.485 OA 
BRANCH  19  21
HETATM   21  C   UNL     1     -12.332   8.034  65.776  1.00  0.00    12.474 C  
HETATM   22  C   UNL     1     -12.959   7.063  64.782  1.00  0.00    15.733 C  
HETATM   23  C   UNL     1     -13.774   7.555  65.935  1.00  0.00    19.460 C  
BRANCH  21  24
HETATM   24  C   UNL     1     -11.292   7.541  66.782  1.00  0.00     1.172 A  
HETATM   25  C   UNL     1      -9.476   5.077  70.064  1.00  0.00    -0.166 C  
HETATM   26  C   UNL     1      -9.908   7.757  66.539  1.00  0.00    -0.255 A  
HETATM   27  C   UNL     1     -11.646   6.766  67.902  1.00  0.00     0.527 A  
HETATM   28  C   UNL     1      -8.910   7.188  67.338  1.00  0.00    -0.119 A  
HETATM   29  C   UNL     1      -9.315   6.405  68.394  1.00  0.00    -0.121 A  
HETATM   30  C   UNL     1     -10.647   6.213  68.676  1.00  0.00    -0.270 A  
HETATM   31  F   UNL     1      -9.315   3.736  69.941  1.00  0.00    -0.174 F  
HETATM   32  O   UNL     1     -10.839   5.400  69.750  1.00  0.00    -0.297 OA 
HETATM   33  F   UNL     1      -9.242   5.400  71.358  1.00  0.00    -0.146 F  
HETATM   34  O   UNL     1      -8.497   5.732  69.245  1.00  0.00    -0.106 OA 
ENDBRANCH  21  24
ENDBRANCH  19  21
ENDBRANCH  11  17
BRANCH  16  35
HETATM   35  C   UNL     1      -9.889  16.685  66.179  1.00  0.00    -0.318 C  
BRANCH  35  36
HETATM   36  C   UNL     1      -8.547  15.947  66.031  1.00  0.00    -0.095 C  
HETATM   37  H   UNL     1      -6.612  16.383  66.157  1.00  0.00     0.000 HD 
HETATM   38  O   UNL     1      -7.441  16.838  66.248  1.00  0.00    -0.284 OA 
BRANCH  36  39
HETATM   39  C   UNL     1      -8.441  14.843  67.091  1.00  0.00    -0.220 C  
HETATM   40  O   UNL     1      -7.962  15.396  68.318  1.00  0.00    -0.124 OA 
HETATM   41  H   UNL     1      -7.897  14.712  68.974  1.00  0.00     0.000 HD 
ENDBRANCH  36  39
ENDBRANCH  35  36
ENDBRANCH  16  35
ENDBRANCH   2   7
TORSDOF 8
ENDMDL
