MODEL        1
REMARK 921   NORMALIZED FREE ENERGY PREDICTED BY IDOCK:   -6.40 KCAL/MOL
REMARK 922        TOTAL FREE ENERGY PREDICTED BY IDOCK:   -7.79 KCAL/MOL
REMARK 923 INTER-LIGAND FREE ENERGY PREDICTED BY IDOCK:   -7.52 KCAL/MOL
REMARK 924 INTRA-LIGAND FREE ENERGY PREDICTED BY IDOCK:   -0.27 KCAL/MOL
REMARK 927      BINDING AFFINITY PREDICTED BY RF-SCORE:    0.00 PKD
ROOT
HETATM    1  C   UNL     1     -13.357  15.812  73.070  1.00  0.00    -0.679 C  
HETATM    2  C   UNL     1     -12.047  16.275  72.436  1.00  0.00    -0.598 C  
HETATM    3  C   UNL     1     -11.353  15.149  71.667  1.00  0.00    -0.394 C  
HETATM    4  C   UNL     1     -12.268  14.461  70.634  1.00  0.00    -0.344 C  
HETATM    5  C   UNL     1     -13.566  14.007  71.330  1.00  0.00    -0.327 C  
HETATM    6  C   UNL     1     -14.276  15.156  72.047  1.00  0.00    -0.673 C  
ENDROOT
BRANCH   4   7
HETATM    7  N   UNL     1     -12.539  15.367  69.508  1.00  0.00    -0.614 N  
HETATM    8  H   UNL     1     -13.504  15.571  69.248  1.00  0.00     0.000 HD 
BRANCH   7   9
HETATM    9  S   UNL     1     -11.291  16.066  68.651  1.00  0.00    -0.365 SA 
BRANCH   9  10
HETATM   10  C   UNL     1     -11.203  14.982  67.267  1.00  0.00    -0.338 A  
HETATM   11  N   UNL     1     -12.260  14.329  66.838  1.00  0.00    -0.411 NA 
HETATM   12  C   UNL     1     -11.909  13.567  65.735  1.00  0.00    -0.372 A  
HETATM   13  C   UNL     1     -12.775  12.734  64.997  1.00  0.00    -0.455 A  
HETATM   14  C   UNL     1     -12.285  12.012  63.905  1.00  0.00    -0.555 A  
HETATM   15  C   UNL     1     -10.948  12.115  63.535  1.00  0.00    -0.521 A  
HETATM   16  C   UNL     1     -10.069  12.936  64.244  1.00  0.00    -0.251 A  
HETATM   17  C   UNL     1     -10.571  13.657  65.341  1.00  0.00    -0.317 A  
HETATM   18  S   UNL     1      -9.752  14.746  66.393  1.00  0.00    -0.306 SA 
ENDBRANCH   9  10
ENDBRANCH   7   9
ENDBRANCH   4   7
TORSDOF 3
ENDMDL
MODEL        2
REMARK 921   NORMALIZED FREE ENERGY PREDICTED BY IDOCK:   -6.04 KCAL/MOL
REMARK 922        TOTAL FREE ENERGY PREDICTED BY IDOCK:   -7.37 KCAL/MOL
REMARK 923 INTER-LIGAND FREE ENERGY PREDICTED BY IDOCK:   -7.15 KCAL/MOL
REMARK 924 INTRA-LIGAND FREE ENERGY PREDICTED BY IDOCK:   -0.22 KCAL/MOL
REMARK 927      BINDING AFFINITY PREDICTED BY RF-SCORE:    0.00 PKD
ROOT
HETATM    1  C   UNL     1     -12.848  15.145  73.216  1.00  0.00    -0.640 C  
HETATM    2  C   UNL     1     -13.447  13.890  72.585  1.00  0.00    -0.652 C  
HETATM    3  C   UNL     1     -13.766  14.093  71.102  1.00  0.00    -0.206 C  
HETATM    4  C   UNL     1     -12.569  14.620  70.286  1.00  0.00    -0.318 C  
HETATM    5  C   UNL     1     -12.013  15.888  70.962  1.00  0.00    -0.453 C  
HETATM    6  C   UNL     1     -11.646  15.653  72.428  1.00  0.00    -0.523 C  
ENDROOT
BRANCH   4   7
HETATM    7  N   UNL     1     -11.543  13.575  70.153  1.00  0.00    -0.509 N  
HETATM    8  H   UNL     1     -10.558  13.821  70.259  1.00  0.00     0.000 HD 
BRANCH   7   9
HETATM    9  S   UNL     1     -11.965  11.994  69.830  1.00  0.00    -0.276 SA 
BRANCH   9  10
HETATM   10  C   UNL     1     -11.617  11.912  68.106  1.00  0.00    -0.334 A  
HETATM   11  N   UNL     1     -12.256  12.667  67.241  1.00  0.00    -0.386 NA 
HETATM   12  C   UNL     1     -11.773  12.408  65.967  1.00  0.00    -0.410 A  
HETATM   13  C   UNL     1     -12.210  13.027  64.778  1.00  0.00    -0.487 A  
HETATM   14  C   UNL     1     -11.640  12.664  63.554  1.00  0.00    -0.584 A  
HETATM   15  C   UNL     1     -10.637  11.700  63.502  1.00  0.00    -0.496 A  
HETATM   16  C   UNL     1     -10.182  11.075  64.664  1.00  0.00    -0.392 A  
HETATM   17  C   UNL     1     -10.763  11.446  65.890  1.00  0.00    -0.255 A  
HETATM   18  S   UNL     1     -10.415  10.874  67.474  1.00  0.00    -0.230 SA 
ENDBRANCH   9  10
ENDBRANCH   7   9
ENDBRANCH   4   7
TORSDOF 3
ENDMDL
MODEL        3
REMARK 921   NORMALIZED FREE ENERGY PREDICTED BY IDOCK:   -6.00 KCAL/MOL
REMARK 922        TOTAL FREE ENERGY PREDICTED BY IDOCK:   -7.32 KCAL/MOL
REMARK 923 INTER-LIGAND FREE ENERGY PREDICTED BY IDOCK:   -6.96 KCAL/MOL
REMARK 924 INTRA-LIGAND FREE ENERGY PREDICTED BY IDOCK:   -0.36 KCAL/MOL
REMARK 927      BINDING AFFINITY PREDICTED BY RF-SCORE:    0.00 PKD
ROOT
HETATM    1  C   UNL     1     -13.511  15.774  72.929  1.00  0.00    -0.666 C  
HETATM    2  C   UNL     1     -12.230  16.189  72.208  1.00  0.00    -0.577 C  
HETATM    3  C   UNL     1     -11.426  14.978  71.727  1.00  0.00    -0.376 C  
HETATM    4  C   UNL     1     -12.256  13.992  70.881  1.00  0.00    -0.362 C  
HETATM    5  C   UNL     1     -13.527  13.602  71.660  1.00  0.00    -0.398 C  
HETATM    6  C   UNL     1     -14.348  14.820  72.085  1.00  0.00    -0.589 C  
ENDROOT
BRANCH   4   7
HETATM    7  N   UNL     1     -12.575  14.583  69.574  1.00  0.00    -0.560 N  
HETATM    8  H   UNL     1     -13.309  15.289  69.506  1.00  0.00     0.000 HD 
BRANCH   7   9
HETATM    9  S   UNL     1     -11.753  14.118  68.198  1.00  0.00    -0.363 SA 
BRANCH   9  10
HETATM   10  C   UNL     1     -10.940  15.623  67.783  1.00  0.00    -0.316 A  
HETATM   11  N   UNL     1     -11.106  16.713  68.499  1.00  0.00    -0.339 NA 
HETATM   12  C   UNL     1     -10.341  17.735  67.958  1.00  0.00    -0.393 A  
HETATM   13  C   UNL     1     -10.255  19.052  68.453  1.00  0.00    -0.450 A  
HETATM   14  C   UNL     1      -9.447  19.989  67.802  1.00  0.00    -0.486 A  
HETATM   15  C   UNL     1      -8.721  19.629  66.671  1.00  0.00    -0.392 A  
HETATM   16  C   UNL     1      -8.784  18.331  66.162  1.00  0.00    -0.118 A  
HETATM   17  C   UNL     1      -9.599  17.396  66.823  1.00  0.00    -0.277 A  
HETATM   18  S   UNL     1      -9.874  15.739  66.452  1.00  0.00    -0.299 SA 
ENDBRANCH   9  10
ENDBRANCH   7   9
ENDBRANCH   4   7
TORSDOF 3
ENDMDL
MODEL        4
REMARK 921   NORMALIZED FREE ENERGY PREDICTED BY IDOCK:   -5.94 KCAL/MOL
REMARK 922        TOTAL FREE ENERGY PREDICTED BY IDOCK:   -7.26 KCAL/MOL
REMARK 923 INTER-LIGAND FREE ENERGY PREDICTED BY IDOCK:   -6.96 KCAL/MOL
REMARK 924 INTRA-LIGAND FREE ENERGY PREDICTED BY IDOCK:   -0.29 KCAL/MOL
REMARK 927      BINDING AFFINITY PREDICTED BY RF-SCORE:    0.00 PKD
ROOT
HETATM    1  C   UNL     1     -10.858  11.346  63.487  1.00  0.00    -0.430 C  
HETATM    2  C   UNL     1     -11.738  12.594  63.464  1.00  0.00    -0.604 C  
HETATM    3  C   UNL     1     -12.554  12.743  64.751  1.00  0.00    -0.518 C  
HETATM    4  C   UNL     1     -11.695  12.681  66.029  1.00  0.00    -0.417 C  
HETATM    5  C   UNL     1     -10.838  11.400  66.003  1.00  0.00    -0.306 C  
HETATM    6  C   UNL     1      -9.987  11.295  64.737  1.00  0.00    -0.327 C  
ENDROOT
BRANCH   4   7
HETATM    7  N   UNL     1     -10.868  13.891  66.148  1.00  0.00    -0.289 N  
HETATM    8  H   UNL     1     -10.930  14.614  65.431  1.00  0.00     0.000 HD 
BRANCH   7   9
HETATM    9  S   UNL     1      -9.829  14.097  67.437  1.00  0.00    -0.243 SA 
BRANCH   9  10
HETATM   10  C   UNL     1     -10.982  14.246  68.759  1.00  0.00    -0.255 A  
HETATM   11  N   UNL     1     -11.371  13.198  69.451  1.00  0.00    -0.243 NA 
HETATM   12  C   UNL     1     -12.262  13.606  70.432  1.00  0.00    -0.363 A  
HETATM   13  C   UNL     1     -12.891  12.767  71.375  1.00  0.00    -0.371 A  
HETATM   14  C   UNL     1     -13.778  13.311  72.309  1.00  0.00    -0.686 A  
HETATM   15  C   UNL     1     -14.039  14.678  72.320  1.00  0.00    -0.588 A  
HETATM   16  C   UNL     1     -13.426  15.532  71.401  1.00  0.00    -0.583 A  
HETATM   17  C   UNL     1     -12.536  14.975  70.466  1.00  0.00    -0.369 A  
HETATM   18  S   UNL     1     -11.629  15.756  69.230  1.00  0.00    -0.369 SA 
ENDBRANCH   9  10
ENDBRANCH   7   9
ENDBRANCH   4   7
TORSDOF 3
ENDMDL
MODEL        5
REMARK 921   NORMALIZED FREE ENERGY PREDICTED BY IDOCK:   -5.92 KCAL/MOL
REMARK 922        TOTAL FREE ENERGY PREDICTED BY IDOCK:   -7.23 KCAL/MOL
REMARK 923 INTER-LIGAND FREE ENERGY PREDICTED BY IDOCK:   -6.85 KCAL/MOL
REMARK 924 INTRA-LIGAND FREE ENERGY PREDICTED BY IDOCK:   -0.38 KCAL/MOL
REMARK 927      BINDING AFFINITY PREDICTED BY RF-SCORE:    0.00 PKD
ROOT
HETATM    1  C   UNL     1     -12.725  12.613  64.764  1.00  0.00    -0.460 C  
HETATM    2  C   UNL     1     -11.332  12.081  65.093  1.00  0.00    -0.359 C  
HETATM    3  C   UNL     1     -10.229  13.003  64.568  1.00  0.00    -0.331 C  
HETATM    4  C   UNL     1     -10.393  14.469  65.016  1.00  0.00    -0.413 C  
HETATM    5  C   UNL     1     -11.810  14.954  64.650  1.00  0.00    -0.412 C  
HETATM    6  C   UNL     1     -12.902  14.054  65.229  1.00  0.00    -0.418 C  
ENDROOT
BRANCH   4   7
HETATM    7  N   UNL     1     -10.125  14.596  66.455  1.00  0.00    -0.270 N  
HETATM    8  H   UNL     1      -9.746  13.800  66.968  1.00  0.00     0.000 HD 
BRANCH   7   9
HETATM    9  S   UNL     1     -10.433  16.024  67.262  1.00  0.00    -0.308 SA 
BRANCH   9  10
HETATM   10  C   UNL     1     -11.215  15.411  68.716  1.00  0.00    -0.301 A  
HETATM   11  N   UNL     1     -11.500  16.200  69.726  1.00  0.00    -0.311 NA 
HETATM   12  C   UNL     1     -12.121  15.461  70.721  1.00  0.00    -0.366 A  
HETATM   13  C   UNL     1     -12.578  15.961  71.957  1.00  0.00    -0.517 A  
HETATM   14  C   UNL     1     -13.183  15.099  72.877  1.00  0.00    -0.600 A  
HETATM   15  C   UNL     1     -13.344  13.750  72.578  1.00  0.00    -0.656 A  
HETATM   16  C   UNL     1     -12.904  13.228  71.359  1.00  0.00    -0.411 A  
HETATM   17  C   UNL     1     -12.297  14.103  70.442  1.00  0.00    -0.359 A  
HETATM   18  S   UNL     1     -11.670  13.770  68.875  1.00  0.00    -0.356 SA 
ENDBRANCH   9  10
ENDBRANCH   7   9
ENDBRANCH   4   7
TORSDOF 3
ENDMDL
MODEL        6
REMARK 921   NORMALIZED FREE ENERGY PREDICTED BY IDOCK:   -5.89 KCAL/MOL
REMARK 922        TOTAL FREE ENERGY PREDICTED BY IDOCK:   -7.20 KCAL/MOL
REMARK 923 INTER-LIGAND FREE ENERGY PREDICTED BY IDOCK:   -6.91 KCAL/MOL
REMARK 924 INTRA-LIGAND FREE ENERGY PREDICTED BY IDOCK:   -0.29 KCAL/MOL
REMARK 927      BINDING AFFINITY PREDICTED BY RF-SCORE:    0.00 PKD
ROOT
HETATM    1  C   UNL     1      -9.701  20.669  67.256  1.00  0.00    -0.562 C  
HETATM    2  C   UNL     1      -9.428  19.708  66.101  1.00  0.00    -0.441 C  
HETATM    3  C   UNL     1      -8.654  18.469  66.558  1.00  0.00    -0.289 C  
HETATM    4  C   UNL     1      -9.308  17.746  67.752  1.00  0.00    -0.257 C  
HETATM    5  C   UNL     1      -9.549  18.759  68.888  1.00  0.00    -0.369 C  
HETATM    6  C   UNL     1     -10.373  19.963  68.429  1.00  0.00    -0.507 C  
ENDROOT
BRANCH   4   7
HETATM    7  N   UNL     1     -10.553  17.088  67.331  1.00  0.00    -0.317 N  
HETATM    8  H   UNL     1     -11.399  17.645  67.207  1.00  0.00     0.000 HD 
BRANCH   7   9
HETATM    9  S   UNL     1     -10.602  15.444  67.052  1.00  0.00    -0.312 SA 
BRANCH   9  10
HETATM   10  C   UNL     1     -11.410  14.893  68.516  1.00  0.00    -0.298 A  
HETATM   11  N   UNL     1     -12.050  15.729  69.303  1.00  0.00    -0.297 NA 
HETATM   12  C   UNL     1     -12.599  15.026  70.364  1.00  0.00    -0.350 A  
HETATM   13  C   UNL     1     -13.361  15.578  71.414  1.00  0.00    -0.592 A  
HETATM   14  C   UNL     1     -13.850  14.752  72.429  1.00  0.00    -0.578 A  
HETATM   15  C   UNL     1     -13.597  13.384  72.409  1.00  0.00    -0.708 A  
HETATM   16  C   UNL     1     -12.849  12.809  71.379  1.00  0.00    -0.371 A  
HETATM   17  C   UNL     1     -12.361  13.649  70.363  1.00  0.00    -0.345 A  
HETATM   18  S   UNL     1     -11.430  13.245  68.973  1.00  0.00    -0.320 SA 
ENDBRANCH   9  10
ENDBRANCH   7   9
ENDBRANCH   4   7
TORSDOF 3
ENDMDL
MODEL        7
REMARK 921   NORMALIZED FREE ENERGY PREDICTED BY IDOCK:   -5.89 KCAL/MOL
REMARK 922        TOTAL FREE ENERGY PREDICTED BY IDOCK:   -7.20 KCAL/MOL
REMARK 923 INTER-LIGAND FREE ENERGY PREDICTED BY IDOCK:   -6.94 KCAL/MOL
REMARK 924 INTRA-LIGAND FREE ENERGY PREDICTED BY IDOCK:   -0.26 KCAL/MOL
REMARK 927      BINDING AFFINITY PREDICTED BY RF-SCORE:    0.00 PKD
ROOT
HETATM    1  C   UNL     1     -12.215  13.332  63.366  1.00  0.00    -0.476 C  
HETATM    2  C   UNL     1     -12.130  11.831  63.630  1.00  0.00    -0.486 C  
HETATM    3  C   UNL     1     -10.821  11.445  64.323  1.00  0.00    -0.416 C  
HETATM    4  C   UNL     1     -10.544  12.260  65.602  1.00  0.00    -0.260 C  
HETATM    5  C   UNL     1     -10.632  13.763  65.274  1.00  0.00    -0.363 C  
HETATM    6  C   UNL     1     -11.968  14.142  64.634  1.00  0.00    -0.459 C  
ENDROOT
BRANCH   4   7
HETATM    7  N   UNL     1     -11.482  11.875  66.666  1.00  0.00    -0.339 N  
HETATM    8  H   UNL     1     -12.472  12.104  66.571  1.00  0.00     0.000 HD 
BRANCH   7   9
HETATM    9  S   UNL     1     -10.952  11.069  68.027  1.00  0.00    -0.282 SA 
BRANCH   9  10
HETATM   10  C   UNL     1     -11.706  12.037  69.290  1.00  0.00    -0.330 A  
HETATM   11  N   UNL     1     -11.703  13.350  69.241  1.00  0.00    -0.310 NA 
HETATM   12  C   UNL     1     -12.375  13.849  70.347  1.00  0.00    -0.363 A  
HETATM   13  C   UNL     1     -12.583  15.212  70.640  1.00  0.00    -0.450 A  
HETATM   14  C   UNL     1     -13.275  15.577  71.799  1.00  0.00    -0.567 A  
HETATM   15  C   UNL     1     -13.767  14.603  72.663  1.00  0.00    -0.545 A  
HETATM   16  C   UNL     1     -13.579  13.246  72.394  1.00  0.00    -0.694 A  
HETATM   17  C   UNL     1     -12.882  12.889  71.227  1.00  0.00    -0.270 A  
HETATM   18  S   UNL     1     -12.504  11.323  70.622  1.00  0.00    -0.328 SA 
ENDBRANCH   9  10
ENDBRANCH   7   9
ENDBRANCH   4   7
TORSDOF 3
ENDMDL
MODEL        8
REMARK 921   NORMALIZED FREE ENERGY PREDICTED BY IDOCK:   -5.88 KCAL/MOL
REMARK 922        TOTAL FREE ENERGY PREDICTED BY IDOCK:   -7.18 KCAL/MOL
REMARK 923 INTER-LIGAND FREE ENERGY PREDICTED BY IDOCK:   -6.85 KCAL/MOL
REMARK 924 INTRA-LIGAND FREE ENERGY PREDICTED BY IDOCK:   -0.33 KCAL/MOL
REMARK 927      BINDING AFFINITY PREDICTED BY RF-SCORE:    0.00 PKD
ROOT
HETATM    1  C   UNL     1     -13.266  14.252  72.849  1.00  0.00    -0.593 C  
HETATM    2  C   UNL     1     -13.233  13.978  71.347  1.00  0.00    -0.404 C  
HETATM    3  C   UNL     1     -12.990  15.254  70.538  1.00  0.00    -0.380 C  
HETATM    4  C   UNL     1     -11.746  16.041  70.997  1.00  0.00    -0.417 C  
HETATM    5  C   UNL     1     -11.839  16.296  72.513  1.00  0.00    -0.608 C  
HETATM    6  C   UNL     1     -12.025  15.005  73.312  1.00  0.00    -0.417 C  
ENDROOT
BRANCH   4   7
HETATM    7  N   UNL     1     -10.521  15.312  70.638  1.00  0.00    -0.486 N  
HETATM    8  H   UNL     1     -10.246  14.492  71.180  1.00  0.00     0.000 HD 
BRANCH   7   9
HETATM    9  S   UNL     1      -9.572  15.807  69.358  1.00  0.00    -0.274 SA 
BRANCH   9  10
HETATM   10  C   UNL     1     -10.326  14.921  68.036  1.00  0.00    -0.244 A  
HETATM   11  N   UNL     1     -10.619  15.506  66.897  1.00  0.00    -0.304 NA 
HETATM   12  C   UNL     1     -11.185  14.576  66.039  1.00  0.00    -0.337 A  
HETATM   13  C   UNL     1     -11.625  14.827  64.723  1.00  0.00    -0.418 A  
HETATM   14  C   UNL     1     -12.187  13.795  63.967  1.00  0.00    -0.429 A  
HETATM   15  C   UNL     1     -12.310  12.515  64.502  1.00  0.00    -0.545 A  
HETATM   16  C   UNL     1     -11.878  12.237  65.801  1.00  0.00    -0.417 A  
HETATM   17  C   UNL     1     -11.315  13.283  66.553  1.00  0.00    -0.322 A  
HETATM   18  S   UNL     1     -10.688  13.254  68.155  1.00  0.00    -0.257 SA 
ENDBRANCH   9  10
ENDBRANCH   7   9
ENDBRANCH   4   7
TORSDOF 3
ENDMDL
MODEL        9
REMARK 921   NORMALIZED FREE ENERGY PREDICTED BY IDOCK:   -5.85 KCAL/MOL
REMARK 922        TOTAL FREE ENERGY PREDICTED BY IDOCK:   -7.14 KCAL/MOL
REMARK 923 INTER-LIGAND FREE ENERGY PREDICTED BY IDOCK:   -6.91 KCAL/MOL
REMARK 924 INTRA-LIGAND FREE ENERGY PREDICTED BY IDOCK:   -0.23 KCAL/MOL
REMARK 927      BINDING AFFINITY PREDICTED BY RF-SCORE:    0.00 PKD
ROOT
HETATM    1  C   UNL     1     -13.243  15.850  73.210  1.00  0.00    -0.698 C  
HETATM    2  C   UNL     1     -11.980  16.277  72.465  1.00  0.00    -0.648 C  
HETATM    3  C   UNL     1     -11.288  15.092  71.787  1.00  0.00    -0.391 C  
HETATM    4  C   UNL     1     -12.229  14.273  70.881  1.00  0.00    -0.355 C  
HETATM    5  C   UNL     1     -13.477  13.862  71.686  1.00  0.00    -0.428 C  
HETATM    6  C   UNL     1     -14.189  15.063  72.311  1.00  0.00    -0.594 C  
ENDROOT
BRANCH   4   7
HETATM    7  N   UNL     1     -12.581  15.044  69.680  1.00  0.00    -0.605 N  
HETATM    8  H   UNL     1     -13.561  15.136  69.411  1.00  0.00     0.000 HD 
BRANCH   7   9
HETATM    9  S   UNL     1     -11.402  15.769  68.750  1.00  0.00    -0.379 SA 
BRANCH   9  10
HETATM   10  C   UNL     1     -11.142  14.526  67.531  1.00  0.00    -0.307 A  
HETATM   11  N   UNL     1     -10.799  13.302  67.861  1.00  0.00    -0.238 NA 
HETATM   12  C   UNL     1     -10.678  12.536  66.712  1.00  0.00    -0.236 A  
HETATM   13  C   UNL     1     -10.329  11.171  66.663  1.00  0.00    -0.286 A  
HETATM   14  C   UNL     1     -10.236  10.520  65.429  1.00  0.00    -0.340 A  
HETATM   15  C   UNL     1     -10.492  11.208  64.247  1.00  0.00    -0.427 A  
HETATM   16  C   UNL     1     -10.845  12.559  64.267  1.00  0.00    -0.400 A  
HETATM   17  C   UNL     1     -10.935  13.205  65.512  1.00  0.00    -0.277 A  
HETATM   18  S   UNL     1     -11.352  14.837  65.862  1.00  0.00    -0.303 SA 
ENDBRANCH   9  10
ENDBRANCH   7   9
ENDBRANCH   4   7
TORSDOF 3
ENDMDL
MODEL       10
REMARK 921   NORMALIZED FREE ENERGY PREDICTED BY IDOCK:   -5.81 KCAL/MOL
REMARK 922        TOTAL FREE ENERGY PREDICTED BY IDOCK:   -7.10 KCAL/MOL
REMARK 923 INTER-LIGAND FREE ENERGY PREDICTED BY IDOCK:   -6.79 KCAL/MOL
REMARK 924 INTRA-LIGAND FREE ENERGY PREDICTED BY IDOCK:   -0.31 KCAL/MOL
REMARK 927      BINDING AFFINITY PREDICTED BY RF-SCORE:    0.00 PKD
ROOT
HETATM    1  C   UNL     1     -10.071  20.182  67.079  1.00  0.00    -0.599 C  
HETATM    2  C   UNL     1     -10.514  19.055  66.149  1.00  0.00    -0.541 C  
HETATM    3  C   UNL     1      -9.705  17.776  66.373  1.00  0.00    -0.315 C  
HETATM    4  C   UNL     1      -9.684  17.317  67.845  1.00  0.00    -0.273 C  
HETATM    5  C   UNL     1      -9.221  18.487  68.734  1.00  0.00    -0.292 C  
HETATM    6  C   UNL     1     -10.075  19.741  68.538  1.00  0.00    -0.555 C  
ENDROOT
BRANCH   4   7
HETATM    7  N   UNL     1     -11.008  16.817  68.242  1.00  0.00    -0.362 N  
HETATM    8  H   UNL     1     -11.829  17.409  68.113  1.00  0.00     0.000 HD 
BRANCH   7   9
HETATM    9  S   UNL     1     -11.188  15.296  68.903  1.00  0.00    -0.306 SA 
BRANCH   9  10
HETATM   10  C   UNL     1     -11.098  14.301  67.453  1.00  0.00    -0.304 A  
HETATM   11  N   UNL     1     -12.155  14.081  66.706  1.00  0.00    -0.447 NA 
HETATM   12  C   UNL     1     -11.795  13.284  65.629  1.00  0.00    -0.380 A  
HETATM   13  C   UNL     1     -12.657  12.839  64.607  1.00  0.00    -0.491 A  
HETATM   14  C   UNL     1     -12.161  12.031  63.580  1.00  0.00    -0.653 A  
HETATM   15  C   UNL     1     -10.818  11.668  63.555  1.00  0.00    -0.497 A  
HETATM   16  C   UNL     1      -9.941  12.098  64.552  1.00  0.00    -0.231 A  
HETATM   17  C   UNL     1     -10.450  12.910  65.581  1.00  0.00    -0.277 A  
HETATM   18  S   UNL     1      -9.630  13.600  66.927  1.00  0.00    -0.269 SA 
ENDBRANCH   9  10
ENDBRANCH   7   9
ENDBRANCH   4   7
TORSDOF 3
ENDMDL
MODEL       11
REMARK 921   NORMALIZED FREE ENERGY PREDICTED BY IDOCK:   -5.81 KCAL/MOL
REMARK 922        TOTAL FREE ENERGY PREDICTED BY IDOCK:   -7.10 KCAL/MOL
REMARK 923 INTER-LIGAND FREE ENERGY PREDICTED BY IDOCK:   -6.91 KCAL/MOL
REMARK 924 INTRA-LIGAND FREE ENERGY PREDICTED BY IDOCK:   -0.19 KCAL/MOL
REMARK 927      BINDING AFFINITY PREDICTED BY RF-SCORE:    0.00 PKD
ROOT
HETATM    1  C   UNL     1     -13.712   7.131  71.567  1.00  0.00    -0.413 C  
HETATM    2  C   UNL     1     -14.269   8.553  71.607  1.00  0.00    -0.496 C  
HETATM    3  C   UNL     1     -13.256   9.548  72.177  1.00  0.00    -0.539 C  
HETATM    4  C   UNL     1     -11.887   9.498  71.470  1.00  0.00    -0.405 C  
HETATM    5  C   UNL     1     -11.371   8.047  71.468  1.00  0.00    -0.299 C  
HETATM    6  C   UNL     1     -12.371   7.073  70.844  1.00  0.00    -0.361 C  
ENDROOT
BRANCH   4   7
HETATM    7  N   UNL     1     -11.995  10.043  70.109  1.00  0.00    -0.439 N  
HETATM    8  H   UNL     1     -12.222   9.419  69.334  1.00  0.00     0.000 HD 
BRANCH   7   9
HETATM    9  S   UNL     1     -11.752  11.667  69.813  1.00  0.00    -0.354 SA 
BRANCH   9  10
HETATM   10  C   UNL     1     -11.413  11.632  68.085  1.00  0.00    -0.313 A  
HETATM   11  N   UNL     1     -12.155  12.297  67.228  1.00  0.00    -0.517 NA 
HETATM   12  C   UNL     1     -11.655  12.104  65.949  1.00  0.00    -0.364 A  
HETATM   13  C   UNL     1     -12.181  12.660  64.765  1.00  0.00    -0.528 A  
HETATM   14  C   UNL     1     -11.581  12.376  63.535  1.00  0.00    -0.577 A  
HETATM   15  C   UNL     1     -10.460  11.553  63.471  1.00  0.00    -0.486 A  
HETATM   16  C   UNL     1      -9.915  10.993  64.628  1.00  0.00    -0.357 A  
HETATM   17  C   UNL     1     -10.527  11.284  65.860  1.00  0.00    -0.259 A  
HETATM   18  S   UNL     1     -10.091  10.762  67.440  1.00  0.00    -0.201 SA 
ENDBRANCH   9  10
ENDBRANCH   7   9
ENDBRANCH   4   7
TORSDOF 3
ENDMDL
MODEL       12
REMARK 921   NORMALIZED FREE ENERGY PREDICTED BY IDOCK:   -5.79 KCAL/MOL
REMARK 922        TOTAL FREE ENERGY PREDICTED BY IDOCK:   -7.07 KCAL/MOL
REMARK 923 INTER-LIGAND FREE ENERGY PREDICTED BY IDOCK:   -6.74 KCAL/MOL
REMARK 924 INTRA-LIGAND FREE ENERGY PREDICTED BY IDOCK:   -0.33 KCAL/MOL
REMARK 927      BINDING AFFINITY PREDICTED BY RF-SCORE:    0.00 PKD
ROOT
HETATM    1  C   UNL     1     -12.137  12.348  63.671  1.00  0.00    -0.648 C  
HETATM    2  C   UNL     1     -12.366  13.103  64.978  1.00  0.00    -0.511 C  
HETATM    3  C   UNL     1     -11.797  12.349  66.182  1.00  0.00    -0.442 C  
HETATM    4  C   UNL     1     -10.316  11.954  66.010  1.00  0.00    -0.233 C  
HETATM    5  C   UNL     1     -10.147  11.189  64.683  1.00  0.00    -0.358 C  
HETATM    6  C   UNL     1     -10.670  11.979  63.483  1.00  0.00    -0.513 C  
ENDROOT
BRANCH   4   7
HETATM    7  N   UNL     1      -9.460  13.147  66.067  1.00  0.00    -0.464 N  
HETATM    8  H   UNL     1      -9.186  13.612  65.201  1.00  0.00     0.000 HD 
BRANCH   7   9
HETATM    9  S   UNL     1      -8.928  13.753  67.528  1.00  0.00    -0.214 SA 
BRANCH   9  10
HETATM   10  C   UNL     1      -9.329  15.456  67.337  1.00  0.00    -0.201 A  
HETATM   11  N   UNL     1      -9.075  16.331  68.283  1.00  0.00    -0.192 NA 
HETATM   12  C   UNL     1      -9.478  17.589  67.860  1.00  0.00    -0.277 A  
HETATM   13  C   UNL     1      -9.364  18.784  68.600  1.00  0.00    -0.392 A  
HETATM   14  C   UNL     1      -9.819  19.987  68.054  1.00  0.00    -0.522 A  
HETATM   15  C   UNL     1     -10.377  20.017  66.780  1.00  0.00    -0.564 A  
HETATM   16  C   UNL     1     -10.498  18.850  66.023  1.00  0.00    -0.507 A  
HETATM   17  C   UNL     1     -10.038  17.644  66.582  1.00  0.00    -0.335 A  
HETATM   18  S   UNL     1     -10.038  16.063  65.904  1.00  0.00    -0.372 SA 
ENDBRANCH   9  10
ENDBRANCH   7   9
ENDBRANCH   4   7
TORSDOF 3
ENDMDL
MODEL       13
REMARK 921   NORMALIZED FREE ENERGY PREDICTED BY IDOCK:   -5.75 KCAL/MOL
REMARK 922        TOTAL FREE ENERGY PREDICTED BY IDOCK:   -7.03 KCAL/MOL
REMARK 923 INTER-LIGAND FREE ENERGY PREDICTED BY IDOCK:   -6.74 KCAL/MOL
REMARK 924 INTRA-LIGAND FREE ENERGY PREDICTED BY IDOCK:   -0.29 KCAL/MOL
REMARK 927      BINDING AFFINITY PREDICTED BY RF-SCORE:    0.00 PKD
ROOT
HETATM    1  C   UNL     1     -12.201  12.405  63.488  1.00  0.00    -0.661 C  
HETATM    2  C   UNL     1     -12.404  13.396  64.632  1.00  0.00    -0.433 C  
HETATM    3  C   UNL     1     -12.002  12.800  65.984  1.00  0.00    -0.491 C  
HETATM    4  C   UNL     1     -10.576  12.212  65.991  1.00  0.00    -0.257 C  
HETATM    5  C   UNL     1     -10.433  11.215  64.825  1.00  0.00    -0.388 C  
HETATM    6  C   UNL     1     -10.785  11.842  63.476  1.00  0.00    -0.504 C  
ENDROOT
BRANCH   4   7
HETATM    7  N   UNL     1      -9.579  13.290  65.916  1.00  0.00    -0.469 N  
HETATM    8  H   UNL     1      -9.449  13.794  65.038  1.00  0.00     0.000 HD 
BRANCH   7   9
HETATM    9  S   UNL     1      -8.657  13.700  67.244  1.00  0.00    -0.202 SA 
BRANCH   9  10
HETATM   10  C   UNL     1      -9.114  15.388  67.445  1.00  0.00    -0.197 A  
HETATM   11  N   UNL     1      -9.562  16.102  66.438  1.00  0.00    -0.266 NA 
HETATM   12  C   UNL     1      -9.857  17.383  66.882  1.00  0.00    -0.289 A  
HETATM   13  C   UNL     1     -10.365  18.434  66.091  1.00  0.00    -0.431 A  
HETATM   14  C   UNL     1     -10.612  19.683  66.668  1.00  0.00    -0.599 A  
HETATM   15  C   UNL     1     -10.367  19.895  68.021  1.00  0.00    -0.547 A  
HETATM   16  C   UNL     1      -9.869  18.870  68.829  1.00  0.00    -0.461 A  
HETATM   17  C   UNL     1      -9.623  17.618  68.239  1.00  0.00    -0.306 A  
HETATM   18  S   UNL     1      -9.029  16.174  68.961  1.00  0.00    -0.236 SA 
ENDBRANCH   9  10
ENDBRANCH   7   9
ENDBRANCH   4   7
TORSDOF 3
ENDMDL
MODEL       14
REMARK 921   NORMALIZED FREE ENERGY PREDICTED BY IDOCK:   -5.71 KCAL/MOL
REMARK 922        TOTAL FREE ENERGY PREDICTED BY IDOCK:   -6.98 KCAL/MOL
REMARK 923 INTER-LIGAND FREE ENERGY PREDICTED BY IDOCK:   -6.88 KCAL/MOL
REMARK 924 INTRA-LIGAND FREE ENERGY PREDICTED BY IDOCK:   -0.10 KCAL/MOL
REMARK 927      BINDING AFFINITY PREDICTED BY RF-SCORE:    0.00 PKD
ROOT
HETATM    1  C   UNL     1     -10.779  11.665  63.480  1.00  0.00    -0.495 C  
HETATM    2  C   UNL     1     -11.732  12.856  63.539  1.00  0.00    -0.576 C  
HETATM    3  C   UNL     1     -12.633  12.808  64.776  1.00  0.00    -0.518 C  
HETATM    4  C   UNL     1     -11.850  12.644  66.094  1.00  0.00    -0.418 C  
HETATM    5  C   UNL     1     -10.915  11.425  65.980  1.00  0.00    -0.286 C  
HETATM    6  C   UNL     1      -9.983  11.516  64.771  1.00  0.00    -0.304 C  
ENDROOT
BRANCH   4   7
HETATM    7  N   UNL     1     -11.110  13.876  66.405  1.00  0.00    -0.306 N  
HETATM    8  H   UNL     1     -11.343  14.739  65.914  1.00  0.00     0.000 HD 
BRANCH   7   9
HETATM    9  S   UNL     1      -9.894  13.881  67.547  1.00  0.00    -0.241 SA 
BRANCH   9  10
HETATM   10  C   UNL     1     -10.835  14.099  69.019  1.00  0.00    -0.251 A  
HETATM   11  N   UNL     1     -10.760  15.205  69.724  1.00  0.00    -0.271 NA 
HETATM   12  C   UNL     1     -11.612  15.110  70.814  1.00  0.00    -0.317 A  
HETATM   13  C   UNL     1     -11.808  16.101  71.797  1.00  0.00    -0.581 A  
HETATM   14  C   UNL     1     -12.697  15.871  72.851  1.00  0.00    -0.584 A  
HETATM   15  C   UNL     1     -13.396  14.670  72.934  1.00  0.00    -0.585 A  
HETATM   16  C   UNL     1     -13.224  13.673  71.972  1.00  0.00    -0.522 A  
HETATM   17  C   UNL     1     -12.328  13.914  70.916  1.00  0.00    -0.377 A  
HETATM   18  S   UNL     1     -11.914  12.901  69.589  1.00  0.00    -0.249 SA 
ENDBRANCH   9  10
ENDBRANCH   7   9
ENDBRANCH   4   7
TORSDOF 3
ENDMDL
MODEL       15
REMARK 921   NORMALIZED FREE ENERGY PREDICTED BY IDOCK:   -5.70 KCAL/MOL
REMARK 922        TOTAL FREE ENERGY PREDICTED BY IDOCK:   -6.97 KCAL/MOL
REMARK 923 INTER-LIGAND FREE ENERGY PREDICTED BY IDOCK:   -6.61 KCAL/MOL
REMARK 924 INTRA-LIGAND FREE ENERGY PREDICTED BY IDOCK:   -0.36 KCAL/MOL
REMARK 927      BINDING AFFINITY PREDICTED BY RF-SCORE:    0.00 PKD
ROOT
HETATM    1  C   UNL     1     -11.509   7.126  72.131  1.00  0.00    -0.306 C  
HETATM    2  C   UNL     1     -11.071   8.588  72.182  1.00  0.00    -0.436 C  
HETATM    3  C   UNL     1      -9.976   8.893  71.157  1.00  0.00    -0.342 C  
HETATM    4  C   UNL     1     -10.345   8.463  69.723  1.00  0.00    -0.216 C  
HETATM    5  C   UNL     1     -10.768   6.981  69.731  1.00  0.00    -0.265 C  
HETATM    6  C   UNL     1     -11.901   6.704  70.720  1.00  0.00    -0.441 C  
ENDROOT
BRANCH   4   7
HETATM    7  N   UNL     1     -11.402   9.332  69.186  1.00  0.00    -0.429 N  
HETATM    8  H   UNL     1     -12.378   9.136  69.413  1.00  0.00     0.000 HD 
BRANCH   7   9
HETATM    9  S   UNL     1     -11.031  10.633  68.210  1.00  0.00    -0.284 SA 
BRANCH   9  10
HETATM   10  C   UNL     1     -11.684  11.955  69.172  1.00  0.00    -0.319 A  
HETATM   11  N   UNL     1     -12.247  11.740  70.340  1.00  0.00    -0.348 NA 
HETATM   12  C   UNL     1     -12.654  12.951  70.879  1.00  0.00    -0.270 A  
HETATM   13  C   UNL     1     -13.294  13.127  72.122  1.00  0.00    -0.621 A  
HETATM   14  C   UNL     1     -13.659  14.410  72.543  1.00  0.00    -0.598 A  
HETATM   15  C   UNL     1     -13.387  15.517  71.745  1.00  0.00    -0.577 A  
HETATM   16  C   UNL     1     -12.749  15.372  70.511  1.00  0.00    -0.455 A  
HETATM   17  C   UNL     1     -12.388  14.078  70.097  1.00  0.00    -0.345 A  
HETATM   18  S   UNL     1     -11.591  13.582  68.655  1.00  0.00    -0.353 SA 
ENDBRANCH   9  10
ENDBRANCH   7   9
ENDBRANCH   4   7
TORSDOF 3
ENDMDL
MODEL       16
REMARK 921   NORMALIZED FREE ENERGY PREDICTED BY IDOCK:   -5.61 KCAL/MOL
REMARK 922        TOTAL FREE ENERGY PREDICTED BY IDOCK:   -6.87 KCAL/MOL
REMARK 923 INTER-LIGAND FREE ENERGY PREDICTED BY IDOCK:   -6.65 KCAL/MOL
REMARK 924 INTRA-LIGAND FREE ENERGY PREDICTED BY IDOCK:   -0.21 KCAL/MOL
REMARK 927      BINDING AFFINITY PREDICTED BY RF-SCORE:    0.00 PKD
ROOT
HETATM    1  C   UNL     1      -9.409  10.462  63.940  1.00  0.00    -0.322 C  
HETATM    2  C   UNL     1     -10.167  11.501  63.117  1.00  0.00    -0.389 C  
HETATM    3  C   UNL     1     -11.522  11.846  63.738  1.00  0.00    -0.542 C  
HETATM    4  C   UNL     1     -11.426  12.261  65.220  1.00  0.00    -0.351 C  
HETATM    5  C   UNL     1     -10.663  11.174  66.002  1.00  0.00    -0.272 C  
HETATM    6  C   UNL     1      -9.288  10.881  65.401  1.00  0.00    -0.240 C  
ENDROOT
BRANCH   4   7
HETATM    7  N   UNL     1     -10.782  13.577  65.341  1.00  0.00    -0.295 N  
HETATM    8  H   UNL     1      -9.990  13.693  65.975  1.00  0.00     0.000 HD 
BRANCH   7   9
HETATM    9  S   UNL     1     -11.328  14.883  64.459  1.00  0.00    -0.245 SA 
BRANCH   9  10
HETATM   10  C   UNL     1     -10.872  16.207  65.527  1.00  0.00    -0.270 A  
HETATM   11  N   UNL     1     -10.875  17.454  65.114  1.00  0.00    -0.609 NA 
HETATM   12  C   UNL     1     -10.491  18.281  66.159  1.00  0.00    -0.383 A  
HETATM   13  C   UNL     1     -10.380  19.685  66.101  1.00  0.00    -0.627 A  
HETATM   14  C   UNL     1      -9.973  20.399  67.232  1.00  0.00    -0.564 A  
HETATM   15  C   UNL     1      -9.684  19.733  68.420  1.00  0.00    -0.480 A  
HETATM   16  C   UNL     1      -9.790  18.343  68.506  1.00  0.00    -0.402 A  
HETATM   17  C   UNL     1     -10.199  17.635  67.363  1.00  0.00    -0.345 A  
HETATM   18  S   UNL     1     -10.433  15.943  67.158  1.00  0.00    -0.315 SA 
ENDBRANCH   9  10
ENDBRANCH   7   9
ENDBRANCH   4   7
TORSDOF 3
ENDMDL
MODEL       17
REMARK 921   NORMALIZED FREE ENERGY PREDICTED BY IDOCK:   -5.59 KCAL/MOL
REMARK 922        TOTAL FREE ENERGY PREDICTED BY IDOCK:   -6.84 KCAL/MOL
REMARK 923 INTER-LIGAND FREE ENERGY PREDICTED BY IDOCK:   -6.49 KCAL/MOL
REMARK 924 INTRA-LIGAND FREE ENERGY PREDICTED BY IDOCK:   -0.35 KCAL/MOL
REMARK 927      BINDING AFFINITY PREDICTED BY RF-SCORE:    0.00 PKD
ROOT
HETATM    1  C   UNL     1     -10.709  11.767  68.807  1.00  0.00    -0.255 C  
HETATM    2  C   UNL     1      -9.287  11.754  68.250  1.00  0.00    -0.193 C  
HETATM    3  C   UNL     1      -9.243  11.260  66.802  1.00  0.00    -0.186 C  
HETATM    4  C   UNL     1     -10.208  12.019  65.869  1.00  0.00    -0.232 C  
HETATM    5  C   UNL     1     -11.625  11.991  66.474  1.00  0.00    -0.384 C  
HETATM    6  C   UNL     1     -11.660  12.540  67.901  1.00  0.00    -0.403 C  
ENDROOT
BRANCH   4   7
HETATM    7  N   UNL     1      -9.732  13.393  65.651  1.00  0.00    -0.481 N  
HETATM    8  H   UNL     1      -8.833  13.680  66.038  1.00  0.00     0.000 HD 
BRANCH   7   9
HETATM    9  S   UNL     1     -10.642  14.488  64.782  1.00  0.00    -0.291 SA 
BRANCH   9  10
HETATM   10  C   UNL     1     -10.403  15.942  65.745  1.00  0.00    -0.376 A  
HETATM   11  N   UNL     1     -10.580  17.140  65.234  1.00  0.00    -0.662 NA 
HETATM   12  C   UNL     1     -10.340  18.092  66.213  1.00  0.00    -0.397 A  
HETATM   13  C   UNL     1     -10.433  19.489  66.045  1.00  0.00    -0.611 A  
HETATM   14  C   UNL     1     -10.155  20.340  67.119  1.00  0.00    -0.556 A  
HETATM   15  C   UNL     1      -9.795  19.817  68.358  1.00  0.00    -0.522 A  
HETATM   16  C   UNL     1      -9.700  18.437  68.553  1.00  0.00    -0.386 A  
HETATM   17  C   UNL     1      -9.980  17.591  67.466  1.00  0.00    -0.315 A  
HETATM   18  S   UNL     1      -9.961  15.872  67.395  1.00  0.00    -0.243 SA 
ENDBRANCH   9  10
ENDBRANCH   7   9
ENDBRANCH   4   7
TORSDOF 3
ENDMDL
MODEL       18
REMARK 921   NORMALIZED FREE ENERGY PREDICTED BY IDOCK:   -5.57 KCAL/MOL
REMARK 922        TOTAL FREE ENERGY PREDICTED BY IDOCK:   -6.82 KCAL/MOL
REMARK 923 INTER-LIGAND FREE ENERGY PREDICTED BY IDOCK:   -6.56 KCAL/MOL
REMARK 924 INTRA-LIGAND FREE ENERGY PREDICTED BY IDOCK:   -0.26 KCAL/MOL
REMARK 927      BINDING AFFINITY PREDICTED BY RF-SCORE:    0.00 PKD
ROOT
HETATM    1  C   UNL     1     -11.515   6.631  71.880  1.00  0.00    -0.332 C  
HETATM    2  C   UNL     1     -11.531   8.053  72.435  1.00  0.00    -0.449 C  
HETATM    3  C   UNL     1     -10.488   8.945  71.755  1.00  0.00    -0.431 C  
HETATM    4  C   UNL     1     -10.589   8.937  70.217  1.00  0.00    -0.218 C  
HETATM    5  C   UNL     1     -10.558   7.481  69.714  1.00  0.00    -0.245 C  
HETATM    6  C   UNL     1     -11.642   6.618  70.361  1.00  0.00    -0.457 C  
ENDROOT
BRANCH   4   7
HETATM    7  N   UNL     1     -11.804   9.642  69.781  1.00  0.00    -0.447 N  
HETATM    8  H   UNL     1     -12.455   9.176  69.148  1.00  0.00     0.000 HD 
BRANCH   7   9
HETATM    9  S   UNL     1     -12.133  11.190  70.308  1.00  0.00    -0.391 SA 
BRANCH   9  10
HETATM   10  C   UNL     1     -11.883  12.096  68.819  1.00  0.00    -0.303 A  
HETATM   11  N   UNL     1     -11.816  11.495  67.653  1.00  0.00    -0.629 NA 
HETATM   12  C   UNL     1     -11.632  12.445  66.660  1.00  0.00    -0.385 A  
HETATM   13  C   UNL     1     -11.517  12.185  65.279  1.00  0.00    -0.388 A  
HETATM   14  C   UNL     1     -11.326  13.241  64.384  1.00  0.00    -0.415 A  
HETATM   15  C   UNL     1     -11.254  14.552  64.846  1.00  0.00    -0.395 A  
HETATM   16  C   UNL     1     -11.369  14.839  66.208  1.00  0.00    -0.334 A  
HETATM   17  C   UNL     1     -11.561  13.770  67.099  1.00  0.00    -0.364 A  
HETATM   18  S   UNL     1     -11.747  13.801  68.809  1.00  0.00    -0.376 SA 
ENDBRANCH   9  10
ENDBRANCH   7   9
ENDBRANCH   4   7
TORSDOF 3
ENDMDL
MODEL       19
REMARK 921   NORMALIZED FREE ENERGY PREDICTED BY IDOCK:   -5.56 KCAL/MOL
REMARK 922        TOTAL FREE ENERGY PREDICTED BY IDOCK:   -6.80 KCAL/MOL
REMARK 923 INTER-LIGAND FREE ENERGY PREDICTED BY IDOCK:   -6.60 KCAL/MOL
REMARK 924 INTRA-LIGAND FREE ENERGY PREDICTED BY IDOCK:   -0.21 KCAL/MOL
REMARK 927      BINDING AFFINITY PREDICTED BY RF-SCORE:    0.00 PKD
ROOT
HETATM    1  C   UNL     1     -13.631   7.245  71.803  1.00  0.00    -0.386 C  
HETATM    2  C   UNL     1     -14.337   8.565  71.501  1.00  0.00    -0.451 C  
HETATM    3  C   UNL     1     -13.530   9.770  71.990  1.00  0.00    -0.498 C  
HETATM    4  C   UNL     1     -12.075   9.779  71.479  1.00  0.00    -0.409 C  
HETATM    5  C   UNL     1     -11.412   8.430  71.820  1.00  0.00    -0.365 C  
HETATM    6  C   UNL     1     -12.201   7.239  71.276  1.00  0.00    -0.389 C  
ENDROOT
BRANCH   4   7
HETATM    7  N   UNL     1     -12.042  10.057  70.036  1.00  0.00    -0.473 N  
HETATM    8  H   UNL     1     -12.914  10.248  69.541  1.00  0.00     0.000 HD 
BRANCH   7   9
HETATM    9  S   UNL     1     -10.601  10.063  69.197  1.00  0.00    -0.230 SA 
BRANCH   9  10
HETATM   10  C   UNL     1     -11.001  11.159  67.878  1.00  0.00    -0.253 A  
HETATM   11  N   UNL     1     -10.747  10.848  66.627  1.00  0.00    -0.251 NA 
HETATM   12  C   UNL     1     -11.176  11.878  65.804  1.00  0.00    -0.312 A  
HETATM   13  C   UNL     1     -11.079  11.908  64.398  1.00  0.00    -0.395 A  
HETATM   14  C   UNL     1     -11.548  13.018  63.690  1.00  0.00    -0.507 A  
HETATM   15  C   UNL     1     -12.118  14.094  64.364  1.00  0.00    -0.486 A  
HETATM   16  C   UNL     1     -12.232  14.089  65.756  1.00  0.00    -0.475 A  
HETATM   17  C   UNL     1     -11.757  12.968  66.458  1.00  0.00    -0.382 A  
HETATM   18  S   UNL     1     -11.765  12.664  68.151  1.00  0.00    -0.334 SA 
ENDBRANCH   9  10
ENDBRANCH   7   9
ENDBRANCH   4   7
TORSDOF 3
ENDMDL
MODEL       20
REMARK 921   NORMALIZED FREE ENERGY PREDICTED BY IDOCK:   -5.47 KCAL/MOL
REMARK 922        TOTAL FREE ENERGY PREDICTED BY IDOCK:   -6.70 KCAL/MOL
REMARK 923 INTER-LIGAND FREE ENERGY PREDICTED BY IDOCK:   -6.38 KCAL/MOL
REMARK 924 INTRA-LIGAND FREE ENERGY PREDICTED BY IDOCK:   -0.31 KCAL/MOL
REMARK 927      BINDING AFFINITY PREDICTED BY RF-SCORE:    0.00 PKD
ROOT
HETATM    1  C   UNL     1     -12.642  12.030  63.888  1.00  0.00    -0.517 C  
HETATM    2  C   UNL     1     -11.224  11.467  63.829  1.00  0.00    -0.456 C  
HETATM    3  C   UNL     1     -10.180  12.566  63.616  1.00  0.00    -0.310 C  
HETATM    4  C   UNL     1     -10.288  13.717  64.636  1.00  0.00    -0.368 C  
HETATM    5  C   UNL     1     -11.733  14.251  64.645  1.00  0.00    -0.439 C  
HETATM    6  C   UNL     1     -12.760  13.151  64.915  1.00  0.00    -0.421 C  
ENDROOT
BRANCH   4   7
HETATM    7  N   UNL     1      -9.864  13.261  65.967  1.00  0.00    -0.351 N  
HETATM    8  H   UNL     1      -9.621  12.280  66.109  1.00  0.00     0.000 HD 
BRANCH   7   9
HETATM    9  S   UNL     1      -9.775  14.324  67.250  1.00  0.00    -0.240 SA 
BRANCH   9  10
HETATM   10  C   UNL     1     -10.684  13.437  68.468  1.00  0.00    -0.262 A  
HETATM   11  N   UNL     1     -11.422  14.057  69.361  1.00  0.00    -0.276 NA 
HETATM   12  C   UNL     1     -12.033  13.119  70.178  1.00  0.00    -0.310 A  
HETATM   13  C   UNL     1     -12.905  13.401  71.250  1.00  0.00    -0.407 A  
HETATM   14  C   UNL     1     -13.448  12.354  72.001  1.00  0.00    -0.460 A  
HETATM   15  C   UNL     1     -13.139  11.032  71.693  1.00  0.00    -0.543 A  
HETATM   16  C   UNL     1     -12.283  10.724  70.635  1.00  0.00    -0.474 A  
HETATM   17  C   UNL     1     -11.742  11.784  69.886  1.00  0.00    -0.323 A  
HETATM   18  S   UNL     1     -10.679  11.728  68.534  1.00  0.00    -0.229 SA 
ENDBRANCH   9  10
ENDBRANCH   7   9
ENDBRANCH   4   7
TORSDOF 3
ENDMDL
MODEL       21
REMARK 921   NORMALIZED FREE ENERGY PREDICTED BY IDOCK:   -5.45 KCAL/MOL
REMARK 922        TOTAL FREE ENERGY PREDICTED BY IDOCK:   -6.67 KCAL/MOL
REMARK 923 INTER-LIGAND FREE ENERGY PREDICTED BY IDOCK:   -6.47 KCAL/MOL
REMARK 924 INTRA-LIGAND FREE ENERGY PREDICTED BY IDOCK:   -0.20 KCAL/MOL
REMARK 927      BINDING AFFINITY PREDICTED BY RF-SCORE:    0.00 PKD
ROOT
HETATM    1  C   UNL     1     -13.009   7.888  71.876  1.00  0.00    -0.323 C  
HETATM    2  C   UNL     1     -13.833   9.113  71.484  1.00  0.00    -0.353 C  
HETATM    3  C   UNL     1     -13.023  10.407  71.593  1.00  0.00    -0.581 C  
HETATM    4  C   UNL     1     -11.686  10.356  70.826  1.00  0.00    -0.368 C  
HETATM    5  C   UNL     1     -10.895   9.110  71.268  1.00  0.00    -0.402 C  
HETATM    6  C   UNL     1     -11.699   7.820  71.100  1.00  0.00    -0.304 C  
ENDROOT
BRANCH   4   7
HETATM    7  N   UNL     1     -11.929  10.366  69.376  1.00  0.00    -0.522 N  
HETATM    8  H   UNL     1     -12.871  10.539  69.026  1.00  0.00     0.000 HD 
BRANCH   7   9
HETATM    9  S   UNL     1     -10.686  10.096  68.297  1.00  0.00    -0.249 SA 
BRANCH   9  10
HETATM   10  C   UNL     1     -10.786  11.557  67.319  1.00  0.00    -0.256 A  
HETATM   11  N   UNL     1     -11.875  11.862  66.650  1.00  0.00    -0.590 NA 
HETATM   12  C   UNL     1     -11.681  13.063  65.986  1.00  0.00    -0.393 A  
HETATM   13  C   UNL     1     -12.626  13.716  65.169  1.00  0.00    -0.474 A  
HETATM   14  C   UNL     1     -12.295  14.925  64.550  1.00  0.00    -0.330 A  
HETATM   15  C   UNL     1     -11.039  15.493  64.740  1.00  0.00    -0.421 A  
HETATM   16  C   UNL     1     -10.085  14.870  65.547  1.00  0.00    -0.400 A  
HETATM   17  C   UNL     1     -10.428  13.655  66.165  1.00  0.00    -0.297 A  
HETATM   18  S   UNL     1      -9.488  12.665  67.212  1.00  0.00    -0.205 SA 
ENDBRANCH   9  10
ENDBRANCH   7   9
ENDBRANCH   4   7
TORSDOF 3
ENDMDL
MODEL       22
REMARK 921   NORMALIZED FREE ENERGY PREDICTED BY IDOCK:   -5.45 KCAL/MOL
REMARK 922        TOTAL FREE ENERGY PREDICTED BY IDOCK:   -6.67 KCAL/MOL
REMARK 923 INTER-LIGAND FREE ENERGY PREDICTED BY IDOCK:   -6.34 KCAL/MOL
REMARK 924 INTRA-LIGAND FREE ENERGY PREDICTED BY IDOCK:   -0.33 KCAL/MOL
REMARK 927      BINDING AFFINITY PREDICTED BY RF-SCORE:    0.00 PKD
ROOT
HETATM    1  C   UNL     1     -12.148  13.171  63.674  1.00  0.00    -0.583 C  
HETATM    2  C   UNL     1     -11.752  12.130  64.719  1.00  0.00    -0.390 C  
HETATM    3  C   UNL     1     -10.444  12.496  65.425  1.00  0.00    -0.308 C  
HETATM    4  C   UNL     1     -10.449  13.919  66.019  1.00  0.00    -0.298 C  
HETATM    5  C   UNL     1     -10.844  14.925  64.921  1.00  0.00    -0.431 C  
HETATM    6  C   UNL     1     -12.180  14.576  64.265  1.00  0.00    -0.441 C  
ENDROOT
BRANCH   4   7
HETATM    7  N   UNL     1     -11.353  13.986  67.175  1.00  0.00    -0.316 N  
HETATM    8  H   UNL     1     -12.345  13.780  67.051  1.00  0.00     0.000 HD 
BRANCH   7   9
HETATM    9  S   UNL     1     -10.783  14.395  68.689  1.00  0.00    -0.259 SA 
BRANCH   9  10
HETATM   10  C   UNL     1     -10.183  16.021  68.378  1.00  0.00    -0.236 A  
HETATM   11  N   UNL     1     -10.955  16.950  67.860  1.00  0.00    -0.309 NA 
HETATM   12  C   UNL     1     -10.233  18.128  67.740  1.00  0.00    -0.383 A  
HETATM   13  C   UNL     1     -10.723  19.347  67.230  1.00  0.00    -0.603 A  
HETATM   14  C   UNL     1      -9.881  20.461  67.158  1.00  0.00    -0.601 A  
HETATM   15  C   UNL     1      -8.562  20.376  67.595  1.00  0.00    -0.302 A  
HETATM   16  C   UNL     1      -8.052  19.182  68.109  1.00  0.00    -0.351 A  
HETATM   17  C   UNL     1      -8.907  18.068  68.176  1.00  0.00    -0.273 A  
HETATM   18  S   UNL     1      -8.582  16.484  68.762  1.00  0.00    -0.259 SA 
ENDBRANCH   9  10
ENDBRANCH   7   9
ENDBRANCH   4   7
TORSDOF 3
ENDMDL
MODEL       23
REMARK 921   NORMALIZED FREE ENERGY PREDICTED BY IDOCK:   -5.43 KCAL/MOL
REMARK 922        TOTAL FREE ENERGY PREDICTED BY IDOCK:   -6.65 KCAL/MOL
REMARK 923 INTER-LIGAND FREE ENERGY PREDICTED BY IDOCK:   -6.35 KCAL/MOL
REMARK 924 INTRA-LIGAND FREE ENERGY PREDICTED BY IDOCK:   -0.31 KCAL/MOL
REMARK 927      BINDING AFFINITY PREDICTED BY RF-SCORE:    0.00 PKD
ROOT
HETATM    1  C   UNL     1     -13.526  15.598  72.952  1.00  0.00    -0.657 C  
HETATM    2  C   UNL     1     -12.259  16.216  72.366  1.00  0.00    -0.592 C  
HETATM    3  C   UNL     1     -11.316  15.154  71.794  1.00  0.00    -0.391 C  
HETATM    4  C   UNL     1     -12.001  14.208  70.788  1.00  0.00    -0.306 C  
HETATM    5  C   UNL     1     -13.264  13.608  71.436  1.00  0.00    -0.358 C  
HETATM    6  C   UNL     1     -14.221  14.683  71.952  1.00  0.00    -0.628 C  
ENDROOT
BRANCH   4   7
HETATM    7  N   UNL     1     -12.312  14.925  69.543  1.00  0.00    -0.541 N  
HETATM    8  H   UNL     1     -13.088  15.587  69.525  1.00  0.00     0.000 HD 
BRANCH   7   9
HETATM    9  S   UNL     1     -11.415  14.670  68.159  1.00  0.00    -0.337 SA 
BRANCH   9  10
HETATM   10  C   UNL     1     -10.175  15.906  68.347  1.00  0.00    -0.226 A  
HETATM   11  N   UNL     1      -8.954  15.601  68.724  1.00  0.00    -0.190 NA 
HETATM   12  C   UNL     1      -8.190  16.757  68.773  1.00  0.00    -0.250 A  
HETATM   13  C   UNL     1      -6.829  16.832  69.132  1.00  0.00    -0.227 A  
HETATM   14  C   UNL     1      -6.180  18.070  69.147  1.00  0.00    -0.237 A  
HETATM   15  C   UNL     1      -6.866  19.230  68.802  1.00  0.00    -0.350 A  
HETATM   16  C   UNL     1      -8.213  19.185  68.438  1.00  0.00    -0.384 A  
HETATM   17  C   UNL     1      -8.858  17.935  68.427  1.00  0.00    -0.289 A  
HETATM   18  S   UNL     1     -10.485  17.555  68.019  1.00  0.00    -0.384 SA 
ENDBRANCH   9  10
ENDBRANCH   7   9
ENDBRANCH   4   7
TORSDOF 3
ENDMDL
MODEL       24
REMARK 921   NORMALIZED FREE ENERGY PREDICTED BY IDOCK:   -5.42 KCAL/MOL
REMARK 922        TOTAL FREE ENERGY PREDICTED BY IDOCK:   -6.64 KCAL/MOL
REMARK 923 INTER-LIGAND FREE ENERGY PREDICTED BY IDOCK:   -6.29 KCAL/MOL
REMARK 924 INTRA-LIGAND FREE ENERGY PREDICTED BY IDOCK:   -0.35 KCAL/MOL
REMARK 927      BINDING AFFINITY PREDICTED BY RF-SCORE:    0.00 PKD
ROOT
HETATM    1  C   UNL     1      -9.325   7.661  70.990  1.00  0.00    -0.156 C  
HETATM    2  C   UNL     1     -10.298   7.239  69.891  1.00  0.00    -0.226 C  
HETATM    3  C   UNL     1     -11.436   6.372  70.436  1.00  0.00    -0.458 C  
HETATM    4  C   UNL     1     -12.174   7.013  71.628  1.00  0.00    -0.357 C  
HETATM    5  C   UNL     1     -11.147   7.409  72.707  1.00  0.00    -0.394 C  
HETATM    6  C   UNL     1     -10.048   8.320  72.159  1.00  0.00    -0.344 C  
ENDROOT
BRANCH   4   7
HETATM    7  N   UNL     1     -12.967   8.166  71.178  1.00  0.00    -0.510 N  
HETATM    8  H   UNL     1     -13.176   8.275  70.185  1.00  0.00     0.000 HD 
BRANCH   7   9
HETATM    9  S   UNL     1     -13.529   9.299  72.266  1.00  0.00    -0.467 SA 
BRANCH   9  10
HETATM   10  C   UNL     1     -13.002  10.786  71.486  1.00  0.00    -0.456 A  
HETATM   11  N   UNL     1     -13.338  11.965  71.958  1.00  0.00    -0.441 NA 
HETATM   12  C   UNL     1     -12.776  12.952  71.161  1.00  0.00    -0.276 A  
HETATM   13  C   UNL     1     -12.909  14.342  71.353  1.00  0.00    -0.415 A  
HETATM   14  C   UNL     1     -12.293  15.230  70.467  1.00  0.00    -0.434 A  
HETATM   15  C   UNL     1     -11.541  14.750  69.398  1.00  0.00    -0.342 A  
HETATM   16  C   UNL     1     -11.389  13.379  69.187  1.00  0.00    -0.333 A  
HETATM   17  C   UNL     1     -12.013  12.494  70.084  1.00  0.00    -0.301 A  
HETATM   18  S   UNL     1     -12.003  10.774  70.097  1.00  0.00    -0.377 SA 
ENDBRANCH   9  10
ENDBRANCH   7   9
ENDBRANCH   4   7
TORSDOF 3
ENDMDL
MODEL       25
REMARK 921   NORMALIZED FREE ENERGY PREDICTED BY IDOCK:   -5.42 KCAL/MOL
REMARK 922        TOTAL FREE ENERGY PREDICTED BY IDOCK:   -6.64 KCAL/MOL
REMARK 923 INTER-LIGAND FREE ENERGY PREDICTED BY IDOCK:   -6.44 KCAL/MOL
REMARK 924 INTRA-LIGAND FREE ENERGY PREDICTED BY IDOCK:   -0.20 KCAL/MOL
REMARK 927      BINDING AFFINITY PREDICTED BY RF-SCORE:    0.00 PKD
ROOT
HETATM    1  C   UNL     1     -11.619  12.639  63.541  1.00  0.00    -0.584 C  
HETATM    2  C   UNL     1     -10.305  13.021  64.219  1.00  0.00    -0.385 C  
HETATM    3  C   UNL     1     -10.428  14.328  65.007  1.00  0.00    -0.458 C  
HETATM    4  C   UNL     1     -11.601  14.330  66.007  1.00  0.00    -0.360 C  
HETATM    5  C   UNL     1     -12.898  13.948  65.267  1.00  0.00    -0.437 C  
HETATM    6  C   UNL     1     -12.777  12.613  64.531  1.00  0.00    -0.439 C  
ENDROOT
BRANCH   4   7
HETATM    7  N   UNL     1     -11.321  13.419  67.126  1.00  0.00    -0.302 N  
HETATM    8  H   UNL     1     -10.967  12.481  66.934  1.00  0.00     0.000 HD 
BRANCH   7   9
HETATM    9  S   UNL     1     -11.573  13.896  68.705  1.00  0.00    -0.351 SA 
BRANCH   9  10
HETATM   10  C   UNL     1     -11.647  12.331  69.507  1.00  0.00    -0.298 A  
HETATM   11  N   UNL     1     -12.499  12.098  70.480  1.00  0.00    -0.248 NA 
HETATM   12  C   UNL     1     -12.351  10.789  70.912  1.00  0.00    -0.396 A  
HETATM   13  C   UNL     1     -13.092  10.170  71.939  1.00  0.00    -0.571 A  
HETATM   14  C   UNL     1     -12.834   8.840  72.281  1.00  0.00    -0.465 A  
HETATM   15  C   UNL     1     -11.852   8.118  71.609  1.00  0.00    -0.334 A  
HETATM   16  C   UNL     1     -11.105   8.704  70.585  1.00  0.00    -0.282 A  
HETATM   17  C   UNL     1     -11.373  10.043  70.249  1.00  0.00    -0.308 A  
HETATM   18  S   UNL     1     -10.641  11.028  69.043  1.00  0.00    -0.225 SA 
ENDBRANCH   9  10
ENDBRANCH   7   9
ENDBRANCH   4   7
TORSDOF 3
ENDMDL
MODEL       26
REMARK 921   NORMALIZED FREE ENERGY PREDICTED BY IDOCK:   -5.36 KCAL/MOL
REMARK 922        TOTAL FREE ENERGY PREDICTED BY IDOCK:   -6.57 KCAL/MOL
REMARK 923 INTER-LIGAND FREE ENERGY PREDICTED BY IDOCK:   -6.38 KCAL/MOL
REMARK 924 INTRA-LIGAND FREE ENERGY PREDICTED BY IDOCK:   -0.20 KCAL/MOL
REMARK 927      BINDING AFFINITY PREDICTED BY RF-SCORE:    0.00 PKD
ROOT
HETATM    1  C   UNL     1     -10.726  11.464  63.478  1.00  0.00    -0.453 C  
HETATM    2  C   UNL     1     -11.728  12.617  63.445  1.00  0.00    -0.571 C  
HETATM    3  C   UNL     1     -12.632  12.625  64.681  1.00  0.00    -0.517 C  
HETATM    4  C   UNL     1     -11.850  12.593  66.009  1.00  0.00    -0.436 C  
HETATM    5  C   UNL     1     -10.865  11.408  65.989  1.00  0.00    -0.306 C  
HETATM    6  C   UNL     1      -9.932  11.446  64.779  1.00  0.00    -0.313 C  
ENDROOT
BRANCH   4   7
HETATM    7  N   UNL     1     -11.162  13.874  66.227  1.00  0.00    -0.305 N  
HETATM    8  H   UNL     1     -10.974  14.485  65.432  1.00  0.00     0.000 HD 
BRANCH   7   9
HETATM    9  S   UNL     1     -10.683  14.341  67.755  1.00  0.00    -0.253 SA 
BRANCH   9  10
HETATM   10  C   UNL     1     -10.080  15.962  67.423  1.00  0.00    -0.252 A  
HETATM   11  N   UNL     1     -10.768  17.031  67.755  1.00  0.00    -0.342 NA 
HETATM   12  C   UNL     1     -10.054  18.163  67.391  1.00  0.00    -0.351 A  
HETATM   13  C   UNL     1     -10.466  19.497  67.589  1.00  0.00    -0.593 A  
HETATM   14  C   UNL     1      -9.648  20.548  67.165  1.00  0.00    -0.570 A  
HETATM   15  C   UNL     1      -8.424  20.288  66.555  1.00  0.00    -0.262 A  
HETATM   16  C   UNL     1      -7.990  18.976  66.351  1.00  0.00    -0.300 A  
HETATM   17  C   UNL     1      -8.820  17.926  66.780  1.00  0.00    -0.258 A  
HETATM   18  S   UNL     1      -8.563  16.228  66.682  1.00  0.00    -0.298 SA 
ENDBRANCH   9  10
ENDBRANCH   7   9
ENDBRANCH   4   7
TORSDOF 3
ENDMDL
MODEL       27
REMARK 921   NORMALIZED FREE ENERGY PREDICTED BY IDOCK:   -5.32 KCAL/MOL
REMARK 922        TOTAL FREE ENERGY PREDICTED BY IDOCK:   -6.52 KCAL/MOL
REMARK 923 INTER-LIGAND FREE ENERGY PREDICTED BY IDOCK:   -6.25 KCAL/MOL
REMARK 924 INTRA-LIGAND FREE ENERGY PREDICTED BY IDOCK:   -0.27 KCAL/MOL
REMARK 927      BINDING AFFINITY PREDICTED BY RF-SCORE:    0.00 PKD
ROOT
HETATM    1  C   UNL     1     -10.233   7.301  66.943  1.00  0.00    -0.340 C  
HETATM    2  C   UNL     1     -11.096   6.472  67.892  1.00  0.00    -0.352 C  
HETATM    3  C   UNL     1     -10.606   6.564  69.339  1.00  0.00    -0.291 C  
HETATM    4  C   UNL     1     -10.449   8.015  69.839  1.00  0.00    -0.233 C  
HETATM    5  C   UNL     1      -9.564   8.798  68.851  1.00  0.00    -0.158 C  
HETATM    6  C   UNL     1     -10.098   8.742  67.419  1.00  0.00    -0.289 C  
ENDROOT
BRANCH   4   7
HETATM    7  N   UNL     1     -11.768   8.641  70.009  1.00  0.00    -0.423 N  
HETATM    8  H   UNL     1     -12.360   8.795  69.193  1.00  0.00     0.000 HD 
BRANCH   7   9
HETATM    9  S   UNL     1     -12.310   9.105  71.517  1.00  0.00    -0.367 SA 
BRANCH   9  10
HETATM   10  C   UNL     1     -12.499  10.838  71.274  1.00  0.00    -0.399 A  
HETATM   11  N   UNL     1     -13.186  11.578  72.114  1.00  0.00    -0.404 NA 
HETATM   12  C   UNL     1     -13.157  12.897  71.689  1.00  0.00    -0.335 A  
HETATM   13  C   UNL     1     -13.777  13.986  72.334  1.00  0.00    -0.669 A  
HETATM   14  C   UNL     1     -13.674  15.269  71.790  1.00  0.00    -0.605 A  
HETATM   15  C   UNL     1     -12.957  15.482  70.616  1.00  0.00    -0.425 A  
HETATM   16  C   UNL     1     -12.329  14.422  69.959  1.00  0.00    -0.391 A  
HETATM   17  C   UNL     1     -12.439  13.136  70.514  1.00  0.00    -0.248 A  
HETATM   18  S   UNL     1     -11.777  11.650  69.953  1.00  0.00    -0.323 SA 
ENDBRANCH   9  10
ENDBRANCH   7   9
ENDBRANCH   4   7
TORSDOF 3
ENDMDL
MODEL       28
REMARK 921   NORMALIZED FREE ENERGY PREDICTED BY IDOCK:   -5.31 KCAL/MOL
REMARK 922        TOTAL FREE ENERGY PREDICTED BY IDOCK:   -6.52 KCAL/MOL
REMARK 923 INTER-LIGAND FREE ENERGY PREDICTED BY IDOCK:   -6.28 KCAL/MOL
REMARK 924 INTRA-LIGAND FREE ENERGY PREDICTED BY IDOCK:   -0.24 KCAL/MOL
REMARK 927      BINDING AFFINITY PREDICTED BY RF-SCORE:    0.00 PKD
ROOT
HETATM    1  C   UNL     1      -8.556  19.729  66.147  1.00  0.00    -0.367 C  
HETATM    2  C   UNL     1      -7.881  18.477  66.701  1.00  0.00    -0.270 C  
HETATM    3  C   UNL     1      -8.191  18.268  68.185  1.00  0.00    -0.295 C  
HETATM    4  C   UNL     1      -9.700  18.284  68.502  1.00  0.00    -0.362 C  
HETATM    5  C   UNL     1     -10.324  19.572  67.930  1.00  0.00    -0.567 C  
HETATM    6  C   UNL     1     -10.053  19.736  66.434  1.00  0.00    -0.600 C  
ENDROOT
BRANCH   4   7
HETATM    7  N   UNL     1     -10.347  17.077  67.967  1.00  0.00    -0.324 N  
HETATM    8  H   UNL     1     -11.138  17.171  67.330  1.00  0.00     0.000 HD 
BRANCH   7   9
HETATM    9  S   UNL     1      -9.805  15.556  68.387  1.00  0.00    -0.213 SA 
BRANCH   9  10
HETATM   10  C   UNL     1     -10.457  14.604  67.057  1.00  0.00    -0.269 A  
HETATM   11  N   UNL     1      -9.675  14.073  66.145  1.00  0.00    -0.295 NA 
HETATM   12  C   UNL     1     -10.449  13.369  65.234  1.00  0.00    -0.324 A  
HETATM   13  C   UNL     1      -9.966  12.660  64.116  1.00  0.00    -0.196 A  
HETATM   14  C   UNL     1     -10.862  11.997  63.272  1.00  0.00    -0.400 A  
HETATM   15  C   UNL     1     -12.229  12.026  63.532  1.00  0.00    -0.653 A  
HETATM   16  C   UNL     1     -12.734  12.716  64.636  1.00  0.00    -0.458 A  
HETATM   17  C   UNL     1     -11.825  13.380  65.478  1.00  0.00    -0.363 A  
HETATM   18  S   UNL     1     -12.132  14.295  66.902  1.00  0.00    -0.324 SA 
ENDBRANCH   9  10
ENDBRANCH   7   9
ENDBRANCH   4   7
TORSDOF 3
ENDMDL
MODEL       29
REMARK 921   NORMALIZED FREE ENERGY PREDICTED BY IDOCK:   -5.25 KCAL/MOL
REMARK 922        TOTAL FREE ENERGY PREDICTED BY IDOCK:   -6.44 KCAL/MOL
REMARK 923 INTER-LIGAND FREE ENERGY PREDICTED BY IDOCK:   -6.20 KCAL/MOL
REMARK 924 INTRA-LIGAND FREE ENERGY PREDICTED BY IDOCK:   -0.23 KCAL/MOL
REMARK 927      BINDING AFFINITY PREDICTED BY RF-SCORE:    0.00 PKD
ROOT
HETATM    1  C   UNL     1     -10.133   4.985  71.472  1.00  0.00    -0.263 C  
HETATM    2  C   UNL     1     -10.021   5.768  70.165  1.00  0.00    -0.258 C  
HETATM    3  C   UNL     1     -11.365   6.357  69.733  1.00  0.00    -0.494 C  
HETATM    4  C   UNL     1     -12.049   7.192  70.834  1.00  0.00    -0.326 C  
HETATM    5  C   UNL     1     -12.144   6.351  72.122  1.00  0.00    -0.316 C  
HETATM    6  C   UNL     1     -10.783   5.817  72.572  1.00  0.00    -0.279 C  
ENDROOT
BRANCH   4   7
HETATM    7  N   UNL     1     -11.315   8.447  71.052  1.00  0.00    -0.262 N  
HETATM    8  H   UNL     1     -10.982   8.678  71.989  1.00  0.00     0.000 HD 
BRANCH   7   9
HETATM    9  S   UNL     1     -11.018   9.498  69.791  1.00  0.00    -0.197 SA 
BRANCH   9  10
HETATM   10  C   UNL     1     -11.789  10.959  70.401  1.00  0.00    -0.357 A  
HETATM   11  N   UNL     1     -11.558  12.133  69.859  1.00  0.00    -0.263 NA 
HETATM   12  C   UNL     1     -12.303  13.096  70.523  1.00  0.00    -0.304 A  
HETATM   13  C   UNL     1     -12.323  14.474  70.227  1.00  0.00    -0.408 A  
HETATM   14  C   UNL     1     -13.118  15.338  70.985  1.00  0.00    -0.544 A  
HETATM   15  C   UNL     1     -13.897  14.847  72.028  1.00  0.00    -0.563 A  
HETATM   16  C   UNL     1     -13.900  13.486  72.341  1.00  0.00    -0.687 A  
HETATM   17  C   UNL     1     -13.097  12.625  71.573  1.00  0.00    -0.278 A  
HETATM   18  S   UNL     1     -12.897  10.921  71.702  1.00  0.00    -0.405 SA 
ENDBRANCH   9  10
ENDBRANCH   7   9
ENDBRANCH   4   7
TORSDOF 3
ENDMDL
MODEL       30
REMARK 921   NORMALIZED FREE ENERGY PREDICTED BY IDOCK:   -5.24 KCAL/MOL
REMARK 922        TOTAL FREE ENERGY PREDICTED BY IDOCK:   -6.43 KCAL/MOL
REMARK 923 INTER-LIGAND FREE ENERGY PREDICTED BY IDOCK:   -6.11 KCAL/MOL
REMARK 924 INTRA-LIGAND FREE ENERGY PREDICTED BY IDOCK:   -0.32 KCAL/MOL
REMARK 927      BINDING AFFINITY PREDICTED BY RF-SCORE:    0.00 PKD
ROOT
HETATM    1  C   UNL     1     -13.400  15.863  73.277  1.00  0.00    -0.660 C  
HETATM    2  C   UNL     1     -12.035  16.265  72.723  1.00  0.00    -0.636 C  
HETATM    3  C   UNL     1     -11.451  15.190  71.804  1.00  0.00    -0.452 C  
HETATM    4  C   UNL     1     -12.413  14.760  70.679  1.00  0.00    -0.345 C  
HETATM    5  C   UNL     1     -13.766  14.356  71.296  1.00  0.00    -0.364 C  
HETATM    6  C   UNL     1     -14.363  15.463  72.166  1.00  0.00    -0.642 C  
ENDROOT
BRANCH   4   7
HETATM    7  N   UNL     1     -12.561  15.840  69.693  1.00  0.00    -0.494 N  
HETATM    8  H   UNL     1     -13.440  16.355  69.640  1.00  0.00     0.000 HD 
BRANCH   7   9
HETATM    9  S   UNL     1     -11.312  16.235  68.659  1.00  0.00    -0.268 SA 
BRANCH   9  10
HETATM   10  C   UNL     1     -10.903  14.644  68.026  1.00  0.00    -0.257 A  
HETATM   11  N   UNL     1      -9.865  13.974  68.473  1.00  0.00    -0.231 NA 
HETATM   12  C   UNL     1      -9.791  12.756  67.813  1.00  0.00    -0.220 A  
HETATM   13  C   UNL     1      -8.814  11.762  68.025  1.00  0.00    -0.164 A  
HETATM   14  C   UNL     1      -8.853  10.578  67.282  1.00  0.00    -0.138 A  
HETATM   15  C   UNL     1      -9.854  10.371  66.338  1.00  0.00    -0.266 A  
HETATM   16  C   UNL     1     -10.836  11.337  66.111  1.00  0.00    -0.281 A  
HETATM   17  C   UNL     1     -10.788  12.524  66.863  1.00  0.00    -0.248 A  
HETATM   18  S   UNL     1     -11.847  13.879  66.823  1.00  0.00    -0.442 SA 
ENDBRANCH   9  10
ENDBRANCH   7   9
ENDBRANCH   4   7
TORSDOF 3
ENDMDL
MODEL       31
REMARK 921   NORMALIZED FREE ENERGY PREDICTED BY IDOCK:   -5.23 KCAL/MOL
REMARK 922        TOTAL FREE ENERGY PREDICTED BY IDOCK:   -6.42 KCAL/MOL
REMARK 923 INTER-LIGAND FREE ENERGY PREDICTED BY IDOCK:   -6.22 KCAL/MOL
REMARK 924 INTRA-LIGAND FREE ENERGY PREDICTED BY IDOCK:   -0.20 KCAL/MOL
REMARK 927      BINDING AFFINITY PREDICTED BY RF-SCORE:    0.00 PKD
ROOT
HETATM    1  C   UNL     1      -8.699   6.311  71.672  1.00  0.00    -0.134 C  
HETATM    2  C   UNL     1     -10.096   6.139  71.080  1.00  0.00    -0.231 C  
HETATM    3  C   UNL     1     -11.190   6.309  72.137  1.00  0.00    -0.326 C  
HETATM    4  C   UNL     1     -11.072   7.624  72.932  1.00  0.00    -0.393 C  
HETATM    5  C   UNL     1      -9.649   7.739  73.512  1.00  0.00    -0.332 C  
HETATM    6  C   UNL     1      -8.569   7.624  72.436  1.00  0.00    -0.162 C  
ENDROOT
BRANCH   4   7
HETATM    7  N   UNL     1     -11.408   8.770  72.075  1.00  0.00    -0.361 N  
HETATM    8  H   UNL     1     -10.663   9.375  71.728  1.00  0.00     0.000 HD 
BRANCH   7   9
HETATM    9  S   UNL     1     -12.992   9.098  71.663  1.00  0.00    -0.386 SA 
BRANCH   9  10
HETATM   10  C   UNL     1     -12.903  10.836  71.397  1.00  0.00    -0.452 A  
HETATM   11  N   UNL     1     -13.501  11.684  72.202  1.00  0.00    -0.320 NA 
HETATM   12  C   UNL     1     -13.253  12.977  71.767  1.00  0.00    -0.392 A  
HETATM   13  C   UNL     1     -13.724  14.158  72.377  1.00  0.00    -0.645 A  
HETATM   14  C   UNL     1     -13.404  15.402  71.826  1.00  0.00    -0.567 A  
HETATM   15  C   UNL     1     -12.615  15.485  70.682  1.00  0.00    -0.493 A  
HETATM   16  C   UNL     1     -12.132  14.332  70.060  1.00  0.00    -0.400 A  
HETATM   17  C   UNL     1     -12.460  13.086  70.621  1.00  0.00    -0.268 A  
HETATM   18  S   UNL     1     -12.013  11.508  70.101  1.00  0.00    -0.359 SA 
ENDBRANCH   9  10
ENDBRANCH   7   9
ENDBRANCH   4   7
TORSDOF 3
ENDMDL
MODEL       32
REMARK 921   NORMALIZED FREE ENERGY PREDICTED BY IDOCK:   -5.21 KCAL/MOL
REMARK 922        TOTAL FREE ENERGY PREDICTED BY IDOCK:   -6.40 KCAL/MOL
REMARK 923 INTER-LIGAND FREE ENERGY PREDICTED BY IDOCK:   -6.19 KCAL/MOL
REMARK 924 INTRA-LIGAND FREE ENERGY PREDICTED BY IDOCK:   -0.21 KCAL/MOL
REMARK 927      BINDING AFFINITY PREDICTED BY RF-SCORE:    0.00 PKD
ROOT
HETATM    1  C   UNL     1     -10.309   6.360  72.476  1.00  0.00    -0.212 C  
HETATM    2  C   UNL     1     -10.547   6.108  70.989  1.00  0.00    -0.301 C  
HETATM    3  C   UNL     1     -11.909   6.635  70.530  1.00  0.00    -0.430 C  
HETATM    4  C   UNL     1     -12.148   8.113  70.898  1.00  0.00    -0.148 C  
HETATM    5  C   UNL     1     -11.904   8.305  72.407  1.00  0.00    -0.461 C  
HETATM    6  C   UNL     1     -10.517   7.826  72.839  1.00  0.00    -0.412 C  
ENDROOT
BRANCH   4   7
HETATM    7  N   UNL     1     -11.286   8.986  70.088  1.00  0.00    -0.411 N  
HETATM    8  H   UNL     1     -10.530   8.576  69.538  1.00  0.00     0.000 HD 
BRANCH   7   9
HETATM    9  S   UNL     1     -11.526  10.636  70.054  1.00  0.00    -0.347 SA 
BRANCH   9  10
HETATM   10  C   UNL     1     -11.332  10.956  68.334  1.00  0.00    -0.304 A  
HETATM   11  N   UNL     1     -11.942  11.963  67.750  1.00  0.00    -0.573 NA 
HETATM   12  C   UNL     1     -11.600  11.985  66.407  1.00  0.00    -0.313 A  
HETATM   13  C   UNL     1     -12.053  12.922  65.456  1.00  0.00    -0.507 A  
HETATM   14  C   UNL     1     -11.633  12.824  64.126  1.00  0.00    -0.456 A  
HETATM   15  C   UNL     1     -10.763  11.810  63.734  1.00  0.00    -0.480 A  
HETATM   16  C   UNL     1     -10.295  10.872  64.656  1.00  0.00    -0.407 A  
HETATM   17  C   UNL     1     -10.724  10.979  65.991  1.00  0.00    -0.177 A  
HETATM   18  S   UNL     1     -10.321   9.996  67.344  1.00  0.00    -0.255 SA 
ENDBRANCH   9  10
ENDBRANCH   7   9
ENDBRANCH   4   7
TORSDOF 3
ENDMDL
MODEL       33
REMARK 921   NORMALIZED FREE ENERGY PREDICTED BY IDOCK:   -5.21 KCAL/MOL
REMARK 922        TOTAL FREE ENERGY PREDICTED BY IDOCK:   -6.39 KCAL/MOL
REMARK 923 INTER-LIGAND FREE ENERGY PREDICTED BY IDOCK:   -6.01 KCAL/MOL
REMARK 924 INTRA-LIGAND FREE ENERGY PREDICTED BY IDOCK:   -0.38 KCAL/MOL
REMARK 927      BINDING AFFINITY PREDICTED BY RF-SCORE:    0.00 PKD
ROOT
HETATM    1  C   UNL     1     -14.268   8.813  72.140  1.00  0.00    -0.504 C  
HETATM    2  C   UNL     1     -13.046   9.687  71.863  1.00  0.00    -0.530 C  
HETATM    3  C   UNL     1     -11.737   8.935  72.114  1.00  0.00    -0.411 C  
HETATM    4  C   UNL     1     -11.651   7.591  71.363  1.00  0.00    -0.275 C  
HETATM    5  C   UNL     1     -12.902   6.750  71.686  1.00  0.00    -0.328 C  
HETATM    6  C   UNL     1     -14.201   7.495  71.378  1.00  0.00    -0.523 C  
ENDROOT
BRANCH   4   7
HETATM    7  N   UNL     1     -11.505   7.821  69.919  1.00  0.00    -0.462 N  
HETATM    8  H   UNL     1     -12.308   7.686  69.304  1.00  0.00     0.000 HD 
BRANCH   7   9
HETATM    9  S   UNL     1     -10.044   8.300  69.270  1.00  0.00    -0.202 SA 
BRANCH   9  10
HETATM   10  C   UNL     1     -10.545   9.724  68.363  1.00  0.00    -0.226 A  
HETATM   11  N   UNL     1     -11.039  10.782  68.965  1.00  0.00    -0.233 NA 
HETATM   12  C   UNL     1     -11.331  11.751  68.017  1.00  0.00    -0.288 A  
HETATM   13  C   UNL     1     -11.872  13.026  68.280  1.00  0.00    -0.381 A  
HETATM   14  C   UNL     1     -12.126  13.906  67.224  1.00  0.00    -0.403 A  
HETATM   15  C   UNL     1     -11.842  13.535  65.913  1.00  0.00    -0.405 A  
HETATM   16  C   UNL     1     -11.302  12.280  65.625  1.00  0.00    -0.394 A  
HETATM   17  C   UNL     1     -11.050  11.402  66.694  1.00  0.00    -0.271 A  
HETATM   18  S   UNL     1     -10.388   9.815  66.663  1.00  0.00    -0.174 SA 
ENDBRANCH   9  10
ENDBRANCH   7   9
ENDBRANCH   4   7
TORSDOF 3
ENDMDL
MODEL       34
REMARK 921   NORMALIZED FREE ENERGY PREDICTED BY IDOCK:   -5.19 KCAL/MOL
REMARK 922        TOTAL FREE ENERGY PREDICTED BY IDOCK:   -6.37 KCAL/MOL
REMARK 923 INTER-LIGAND FREE ENERGY PREDICTED BY IDOCK:   -6.21 KCAL/MOL
REMARK 924 INTRA-LIGAND FREE ENERGY PREDICTED BY IDOCK:   -0.16 KCAL/MOL
REMARK 927      BINDING AFFINITY PREDICTED BY RF-SCORE:    0.00 PKD
ROOT
HETATM    1  C   UNL     1     -12.871  13.957  65.376  1.00  0.00    -0.466 C  
HETATM    2  C   UNL     1     -12.683  12.604  64.693  1.00  0.00    -0.458 C  
HETATM    3  C   UNL     1     -11.537  12.629  63.679  1.00  0.00    -0.575 C  
HETATM    4  C   UNL     1     -10.212  13.153  64.268  1.00  0.00    -0.261 C  
HETATM    5  C   UNL     1     -10.459  14.521  64.933  1.00  0.00    -0.435 C  
HETATM    6  C   UNL     1     -11.569  14.466  65.984  1.00  0.00    -0.364 C  
ENDROOT
BRANCH   4   7
HETATM    7  N   UNL     1      -9.652  12.177  65.215  1.00  0.00    -0.423 N  
HETATM    8  H   UNL     1      -8.988  12.488  65.924  1.00  0.00     0.000 HD 
BRANCH   7   9
HETATM    9  S   UNL     1     -10.088  10.568  65.145  1.00  0.00    -0.296 SA 
BRANCH   9  10
HETATM   10  C   UNL     1     -10.497  10.272  66.832  1.00  0.00    -0.229 A  
HETATM   11  N   UNL     1     -11.288  11.083  67.499  1.00  0.00    -0.452 NA 
HETATM   12  C   UNL     1     -11.449  10.603  68.789  1.00  0.00    -0.262 A  
HETATM   13  C   UNL     1     -12.230  11.199  69.800  1.00  0.00    -0.369 A  
HETATM   14  C   UNL     1     -12.300  10.610  71.066  1.00  0.00    -0.507 A  
HETATM   15  C   UNL     1     -11.607   9.433  71.335  1.00  0.00    -0.451 A  
HETATM   16  C   UNL     1     -10.829   8.819  70.351  1.00  0.00    -0.256 A  
HETATM   17  C   UNL     1     -10.766   9.419  69.082  1.00  0.00    -0.197 A  
HETATM   18  S   UNL     1      -9.915   8.905  67.678  1.00  0.00    -0.211 SA 
ENDBRANCH   9  10
ENDBRANCH   7   9
ENDBRANCH   4   7
TORSDOF 3
ENDMDL
MODEL       35
REMARK 921   NORMALIZED FREE ENERGY PREDICTED BY IDOCK:   -5.18 KCAL/MOL
REMARK 922        TOTAL FREE ENERGY PREDICTED BY IDOCK:   -6.36 KCAL/MOL
REMARK 923 INTER-LIGAND FREE ENERGY PREDICTED BY IDOCK:   -6.10 KCAL/MOL
REMARK 924 INTRA-LIGAND FREE ENERGY PREDICTED BY IDOCK:   -0.26 KCAL/MOL
REMARK 927      BINDING AFFINITY PREDICTED BY RF-SCORE:    0.00 PKD
ROOT
HETATM    1  C   UNL     1     -13.662   8.917  72.291  1.00  0.00    -0.527 C  
HETATM    2  C   UNL     1     -12.585   9.873  71.782  1.00  0.00    -0.506 C  
HETATM    3  C   UNL     1     -11.207   9.209  71.730  1.00  0.00    -0.451 C  
HETATM    4  C   UNL     1     -11.199   7.880  70.948  1.00  0.00    -0.270 C  
HETATM    5  C   UNL     1     -12.295   6.954  71.510  1.00  0.00    -0.420 C  
HETATM    6  C   UNL     1     -13.675   7.613  71.502  1.00  0.00    -0.440 C  
ENDROOT
BRANCH   4   7
HETATM    7  N   UNL     1     -11.379   8.133  69.511  1.00  0.00    -0.420 N  
HETATM    8  H   UNL     1     -12.279   8.470  69.169  1.00  0.00     0.000 HD 
BRANCH   7   9
HETATM    9  S   UNL     1     -10.133   7.876  68.432  1.00  0.00    -0.198 SA 
BRANCH   9  10
HETATM   10  C   UNL     1     -10.342   9.259  67.363  1.00  0.00    -0.263 A  
HETATM   11  N   UNL     1      -9.815   9.282  66.160  1.00  0.00    -0.281 NA 
HETATM   12  C   UNL     1     -10.149  10.476  65.539  1.00  0.00    -0.283 A  
HETATM   13  C   UNL     1      -9.770  10.864  64.237  1.00  0.00    -0.347 A  
HETATM   14  C   UNL     1     -10.172  12.104  63.735  1.00  0.00    -0.449 A  
HETATM   15  C   UNL     1     -10.951  12.959  64.508  1.00  0.00    -0.377 A  
HETATM   16  C   UNL     1     -11.345  12.599  65.799  1.00  0.00    -0.370 A  
HETATM   17  C   UNL     1     -10.935  11.349  66.295  1.00  0.00    -0.247 A  
HETATM   18  S   UNL     1     -11.263  10.625  67.821  1.00  0.00    -0.245 SA 
ENDBRANCH   9  10
ENDBRANCH   7   9
ENDBRANCH   4   7
TORSDOF 3
ENDMDL
MODEL       36
REMARK 921   NORMALIZED FREE ENERGY PREDICTED BY IDOCK:   -5.17 KCAL/MOL
REMARK 922        TOTAL FREE ENERGY PREDICTED BY IDOCK:   -6.35 KCAL/MOL
REMARK 923 INTER-LIGAND FREE ENERGY PREDICTED BY IDOCK:   -6.15 KCAL/MOL
REMARK 924 INTRA-LIGAND FREE ENERGY PREDICTED BY IDOCK:   -0.20 KCAL/MOL
REMARK 927      BINDING AFFINITY PREDICTED BY RF-SCORE:    0.00 PKD
ROOT
HETATM    1  C   UNL     1     -10.783   5.333  71.161  1.00  0.00    -0.189 C  
HETATM    2  C   UNL     1     -11.425   6.174  72.261  1.00  0.00    -0.360 C  
HETATM    3  C   UNL     1     -10.824   7.580  72.332  1.00  0.00    -0.323 C  
HETATM    4  C   UNL     1     -10.836   8.317  70.977  1.00  0.00    -0.233 C  
HETATM    5  C   UNL     1     -10.169   7.428  69.911  1.00  0.00    -0.212 C  
HETATM    6  C   UNL     1     -10.818   6.047  69.814  1.00  0.00    -0.433 C  
ENDROOT
BRANCH   4   7
HETATM    7  N   UNL     1     -12.211   8.680  70.606  1.00  0.00    -0.485 N  
HETATM    8  H   UNL     1     -12.563   8.437  69.680  1.00  0.00     0.000 HD 
BRANCH   7   9
HETATM    9  S   UNL     1     -13.205   9.485  71.677  1.00  0.00    -0.426 SA 
BRANCH   9  10
HETATM   10  C   UNL     1     -12.865  11.156  71.240  1.00  0.00    -0.412 A  
HETATM   11  N   UNL     1     -13.212  12.154  72.020  1.00  0.00    -0.471 NA 
HETATM   12  C   UNL     1     -12.810  13.348  71.440  1.00  0.00    -0.333 A  
HETATM   13  C   UNL     1     -13.003  14.635  71.982  1.00  0.00    -0.411 A  
HETATM   14  C   UNL     1     -12.552  15.759  71.285  1.00  0.00    -0.504 A  
HETATM   15  C   UNL     1     -11.907  15.617  70.060  1.00  0.00    -0.381 A  
HETATM   16  C   UNL     1     -11.699  14.354  69.502  1.00  0.00    -0.362 A  
HETATM   17  C   UNL     1     -12.157  13.230  70.211  1.00  0.00    -0.335 A  
HETATM   18  S   UNL     1     -12.042  11.564  69.797  1.00  0.00    -0.284 SA 
ENDBRANCH   9  10
ENDBRANCH   7   9
ENDBRANCH   4   7
TORSDOF 3
ENDMDL
MODEL       37
REMARK 921   NORMALIZED FREE ENERGY PREDICTED BY IDOCK:   -5.14 KCAL/MOL
REMARK 922        TOTAL FREE ENERGY PREDICTED BY IDOCK:   -6.31 KCAL/MOL
REMARK 923 INTER-LIGAND FREE ENERGY PREDICTED BY IDOCK:   -6.00 KCAL/MOL
REMARK 924 INTRA-LIGAND FREE ENERGY PREDICTED BY IDOCK:   -0.32 KCAL/MOL
REMARK 927      BINDING AFFINITY PREDICTED BY RF-SCORE:    0.00 PKD
ROOT
HETATM    1  C   UNL     1     -12.520  10.868  70.031  1.00  0.00    -0.332 C  
HETATM    2  C   UNL     1     -11.657  10.801  68.773  1.00  0.00    -0.350 C  
HETATM    3  C   UNL     1     -11.736  12.093  67.956  1.00  0.00    -0.409 C  
HETATM    4  C   UNL     1     -11.431  13.358  68.784  1.00  0.00    -0.305 C  
HETATM    5  C   UNL     1     -12.335  13.377  70.031  1.00  0.00    -0.294 C  
HETATM    6  C   UNL     1     -12.203  12.102  70.866  1.00  0.00    -0.310 C  
ENDROOT
BRANCH   4   7
HETATM    7  N   UNL     1     -10.006  13.404  69.139  1.00  0.00    -0.396 N  
HETATM    8  H   UNL     1      -9.718  13.184  70.093  1.00  0.00     0.000 HD 
BRANCH   7   9
HETATM    9  S   UNL     1      -8.852  13.813  68.006  1.00  0.00    -0.190 SA 
BRANCH   9  10
HETATM   10  C   UNL     1      -9.316  15.475  67.657  1.00  0.00    -0.203 A  
HETATM   11  N   UNL     1      -9.270  16.408  68.580  1.00  0.00    -0.222 NA 
HETATM   12  C   UNL     1      -9.673  17.615  68.029  1.00  0.00    -0.301 A  
HETATM   13  C   UNL     1      -9.751  18.848  68.708  1.00  0.00    -0.454 A  
HETATM   14  C   UNL     1     -10.182  19.991  68.030  1.00  0.00    -0.538 A  
HETATM   15  C   UNL     1     -10.528  19.924  66.684  1.00  0.00    -0.580 A  
HETATM   16  C   UNL     1     -10.456  18.717  65.985  1.00  0.00    -0.456 A  
HETATM   17  C   UNL     1     -10.022  17.573  66.676  1.00  0.00    -0.314 A  
HETATM   18  S   UNL     1      -9.819  15.965  66.098  1.00  0.00    -0.343 SA 
ENDBRANCH   9  10
ENDBRANCH   7   9
ENDBRANCH   4   7
TORSDOF 3
ENDMDL
MODEL       38
REMARK 921   NORMALIZED FREE ENERGY PREDICTED BY IDOCK:   -5.13 KCAL/MOL
REMARK 922        TOTAL FREE ENERGY PREDICTED BY IDOCK:   -6.31 KCAL/MOL
REMARK 923 INTER-LIGAND FREE ENERGY PREDICTED BY IDOCK:   -6.04 KCAL/MOL
REMARK 924 INTRA-LIGAND FREE ENERGY PREDICTED BY IDOCK:   -0.26 KCAL/MOL
REMARK 927      BINDING AFFINITY PREDICTED BY RF-SCORE:    0.00 PKD
ROOT
HETATM    1  C   UNL     1      -8.211  19.478  68.315  1.00  0.00    -0.373 C  
HETATM    2  C   UNL     1      -9.688  19.492  68.700  1.00  0.00    -0.514 C  
HETATM    3  C   UNL     1     -10.544  18.692  67.715  1.00  0.00    -0.433 C  
HETATM    4  C   UNL     1     -10.033  17.254  67.490  1.00  0.00    -0.296 C  
HETATM    5  C   UNL     1      -8.544  17.303  67.095  1.00  0.00    -0.222 C  
HETATM    6  C   UNL     1      -7.694  18.057  68.118  1.00  0.00    -0.274 C  
ENDROOT
BRANCH   4   7
HETATM    7  N   UNL     1     -10.255  16.440  68.693  1.00  0.00    -0.244 N  
HETATM    8  H   UNL     1     -10.818  16.814  69.457  1.00  0.00     0.000 HD 
BRANCH   7   9
HETATM    9  S   UNL     1      -9.599  14.911  68.827  1.00  0.00    -0.215 SA 
BRANCH   9  10
HETATM   10  C   UNL     1     -10.295  14.136  67.408  1.00  0.00    -0.256 A  
HETATM   11  N   UNL     1      -9.547  13.487  66.545  1.00  0.00    -0.276 NA 
HETATM   12  C   UNL     1     -10.353  12.968  65.543  1.00  0.00    -0.294 A  
HETATM   13  C   UNL     1      -9.912  12.207  64.441  1.00  0.00    -0.240 A  
HETATM   14  C   UNL     1     -10.836  11.751  63.496  1.00  0.00    -0.496 A  
HETATM   15  C   UNL     1     -12.190  12.036  63.639  1.00  0.00    -0.642 A  
HETATM   16  C   UNL     1     -12.655  12.784  64.723  1.00  0.00    -0.518 A  
HETATM   17  C   UNL     1     -11.718  13.239  65.667  1.00  0.00    -0.356 A  
HETATM   18  S   UNL     1     -11.976  14.160  67.097  1.00  0.00    -0.395 SA 
ENDBRANCH   9  10
ENDBRANCH   7   9
ENDBRANCH   4   7
TORSDOF 3
ENDMDL
MODEL       39
REMARK 921   NORMALIZED FREE ENERGY PREDICTED BY IDOCK:   -5.05 KCAL/MOL
REMARK 922        TOTAL FREE ENERGY PREDICTED BY IDOCK:   -6.20 KCAL/MOL
REMARK 923 INTER-LIGAND FREE ENERGY PREDICTED BY IDOCK:   -5.95 KCAL/MOL
REMARK 924 INTRA-LIGAND FREE ENERGY PREDICTED BY IDOCK:   -0.26 KCAL/MOL
REMARK 927      BINDING AFFINITY PREDICTED BY RF-SCORE:    0.00 PKD
ROOT
HETATM    1  C   UNL     1     -11.524   8.686  71.996  1.00  0.00    -0.437 C  
HETATM    2  C   UNL     1     -10.407   9.178  71.078  1.00  0.00    -0.363 C  
HETATM    3  C   UNL     1     -10.950   9.710  69.750  1.00  0.00    -0.266 C  
HETATM    4  C   UNL     1     -12.049  10.778  69.924  1.00  0.00    -0.337 C  
HETATM    5  C   UNL     1     -13.151  10.225  70.848  1.00  0.00    -0.423 C  
HETATM    6  C   UNL     1     -12.599   9.749  72.192  1.00  0.00    -0.367 C  
ENDROOT
BRANCH   4   7
HETATM    7  N   UNL     1     -11.471  12.025  70.445  1.00  0.00    -0.424 N  
HETATM    8  H   UNL     1     -10.473  12.068  70.654  1.00  0.00     0.000 HD 
BRANCH   7   9
HETATM    9  S   UNL     1     -12.424  13.370  70.702  1.00  0.00    -0.268 SA 
BRANCH   9  10
HETATM   10  C   UNL     1     -11.810  14.443  69.448  1.00  0.00    -0.325 A  
HETATM   11  N   UNL     1     -11.792  14.083  68.185  1.00  0.00    -0.357 NA 
HETATM   12  C   UNL     1     -11.276  15.120  67.422  1.00  0.00    -0.323 A  
HETATM   13  C   UNL     1     -11.104  15.109  66.023  1.00  0.00    -0.312 A  
HETATM   14  C   UNL     1     -10.562  16.225  65.379  1.00  0.00    -0.371 A  
HETATM   15  C   UNL     1     -10.197  17.352  66.109  1.00  0.00    -0.334 A  
HETATM   16  C   UNL     1     -10.361  17.392  67.495  1.00  0.00    -0.351 A  
HETATM   17  C   UNL     1     -10.906  16.264  68.134  1.00  0.00    -0.342 A  
HETATM   18  S   UNL     1     -11.237  16.015  69.803  1.00  0.00    -0.348 SA 
ENDBRANCH   9  10
ENDBRANCH   7   9
ENDBRANCH   4   7
TORSDOF 3
ENDMDL
MODEL       40
REMARK 921   NORMALIZED FREE ENERGY PREDICTED BY IDOCK:   -5.03 KCAL/MOL
REMARK 922        TOTAL FREE ENERGY PREDICTED BY IDOCK:   -6.19 KCAL/MOL
REMARK 923 INTER-LIGAND FREE ENERGY PREDICTED BY IDOCK:   -5.86 KCAL/MOL
REMARK 924 INTRA-LIGAND FREE ENERGY PREDICTED BY IDOCK:   -0.33 KCAL/MOL
REMARK 927      BINDING AFFINITY PREDICTED BY RF-SCORE:    0.00 PKD
ROOT
HETATM    1  C   UNL     1     -13.445  15.636  73.010  1.00  0.00    -0.654 C  
HETATM    2  C   UNL     1     -12.281  16.243  72.230  1.00  0.00    -0.503 C  
HETATM    3  C   UNL     1     -11.385  15.168  71.610  1.00  0.00    -0.394 C  
HETATM    4  C   UNL     1     -12.161  14.142  70.761  1.00  0.00    -0.365 C  
HETATM    5  C   UNL     1     -13.314  13.557  71.600  1.00  0.00    -0.420 C  
HETATM    6  C   UNL     1     -14.232  14.642  72.165  1.00  0.00    -0.608 C  
ENDROOT
BRANCH   4   7
HETATM    7  N   UNL     1     -12.648  14.768  69.523  1.00  0.00    -0.578 N  
HETATM    8  H   UNL     1     -13.646  14.752  69.310  1.00  0.00     0.000 HD 
BRANCH   7   9
HETATM    9  S   UNL     1     -11.592  15.502  68.461  1.00  0.00    -0.336 SA 
BRANCH   9  10
HETATM   10  C   UNL     1     -10.697  14.103  67.876  1.00  0.00    -0.240 A  
HETATM   11  N   UNL     1     -11.314  13.044  67.401  1.00  0.00    -0.289 NA 
HETATM   12  C   UNL     1     -10.371  12.109  67.002  1.00  0.00    -0.211 A  
HETATM   13  C   UNL     1     -10.648  10.847  66.438  1.00  0.00    -0.289 A  
HETATM   14  C   UNL     1      -9.597   9.996  66.085  1.00  0.00    -0.265 A  
HETATM   15  C   UNL     1      -8.276  10.388  66.280  1.00  0.00    -0.144 A  
HETATM   16  C   UNL     1      -7.973  11.634  66.832  1.00  0.00    -0.161 A  
HETATM   17  C   UNL     1      -9.037  12.483  67.184  1.00  0.00    -0.205 A  
HETATM   18  S   UNL     1      -8.988  14.062  67.865  1.00  0.00    -0.198 SA 
ENDBRANCH   9  10
ENDBRANCH   7   9
ENDBRANCH   4   7
TORSDOF 3
ENDMDL
MODEL       41
REMARK 921   NORMALIZED FREE ENERGY PREDICTED BY IDOCK:   -5.00 KCAL/MOL
REMARK 922        TOTAL FREE ENERGY PREDICTED BY IDOCK:   -6.15 KCAL/MOL
REMARK 923 INTER-LIGAND FREE ENERGY PREDICTED BY IDOCK:   -5.96 KCAL/MOL
REMARK 924 INTRA-LIGAND FREE ENERGY PREDICTED BY IDOCK:   -0.19 KCAL/MOL
REMARK 927      BINDING AFFINITY PREDICTED BY RF-SCORE:    0.00 PKD
ROOT
HETATM    1  C   UNL     1     -10.957  12.113  64.287  1.00  0.00    -0.391 C  
HETATM    2  C   UNL     1     -11.680  13.433  64.028  1.00  0.00    -0.465 C  
HETATM    3  C   UNL     1     -12.739  13.724  65.094  1.00  0.00    -0.439 C  
HETATM    4  C   UNL     1     -12.192  13.652  66.534  1.00  0.00    -0.404 C  
HETATM    5  C   UNL     1     -11.484  12.299  66.740  1.00  0.00    -0.421 C  
HETATM    6  C   UNL     1     -10.391  12.049  65.701  1.00  0.00    -0.288 C  
ENDROOT
BRANCH   4   7
HETATM    7  N   UNL     1     -11.294  14.786  66.796  1.00  0.00    -0.347 N  
HETATM    8  H   UNL     1     -10.710  15.149  66.042  1.00  0.00     0.000 HD 
BRANCH   7   9
HETATM    9  S   UNL     1     -11.215  15.487  68.308  1.00  0.00    -0.354 SA 
BRANCH   9  10
HETATM   10  C   UNL     1     -10.148  16.848  67.977  1.00  0.00    -0.293 A  
HETATM   11  N   UNL     1      -9.265  17.257  68.859  1.00  0.00    -0.228 NA 
HETATM   12  C   UNL     1      -8.557  18.327  68.332  1.00  0.00    -0.299 A  
HETATM   13  C   UNL     1      -7.522  19.031  68.981  1.00  0.00    -0.332 A  
HETATM   14  C   UNL     1      -6.894  20.099  68.334  1.00  0.00    -0.322 A  
HETATM   15  C   UNL     1      -7.279  20.469  67.049  1.00  0.00    -0.368 A  
HETATM   16  C   UNL     1      -8.298  19.786  66.381  1.00  0.00    -0.378 A  
HETATM   17  C   UNL     1      -8.923  18.714  67.041  1.00  0.00    -0.285 A  
HETATM   18  S   UNL     1     -10.184  17.684  66.486  1.00  0.00    -0.345 SA 
ENDBRANCH   9  10
ENDBRANCH   7   9
ENDBRANCH   4   7
TORSDOF 3
ENDMDL
MODEL       42
REMARK 921   NORMALIZED FREE ENERGY PREDICTED BY IDOCK:   -4.99 KCAL/MOL
REMARK 922        TOTAL FREE ENERGY PREDICTED BY IDOCK:   -6.13 KCAL/MOL
REMARK 923 INTER-LIGAND FREE ENERGY PREDICTED BY IDOCK:   -5.83 KCAL/MOL
REMARK 924 INTRA-LIGAND FREE ENERGY PREDICTED BY IDOCK:   -0.31 KCAL/MOL
REMARK 927      BINDING AFFINITY PREDICTED BY RF-SCORE:    0.00 PKD
ROOT
HETATM    1  C   UNL     1     -12.637  14.016  65.211  1.00  0.00    -0.495 C  
HETATM    2  C   UNL     1     -11.782  12.994  64.465  1.00  0.00    -0.419 C  
HETATM    3  C   UNL     1     -10.289  13.192  64.734  1.00  0.00    -0.369 C  
HETATM    4  C   UNL     1      -9.940  13.231  66.236  1.00  0.00    -0.291 C  
HETATM    5  C   UNL     1     -10.823  14.283  66.934  1.00  0.00    -0.298 C  
HETATM    6  C   UNL     1     -12.315  14.038  66.701  1.00  0.00    -0.408 C  
ENDROOT
BRANCH   4   7
HETATM    7  N   UNL     1     -10.100  11.897  66.832  1.00  0.00    -0.206 N  
HETATM    8  H   UNL     1     -10.891  11.315  66.555  1.00  0.00     0.000 HD 
BRANCH   7   9
HETATM    9  S   UNL     1      -9.009  11.322  67.955  1.00  0.00    -0.162 SA 
BRANCH   9  10
HETATM   10  C   UNL     1     -10.106  10.636  69.149  1.00  0.00    -0.216 A  
HETATM   11  N   UNL     1      -9.705   9.723  70.005  1.00  0.00    -0.243 NA 
HETATM   12  C   UNL     1     -10.763   9.376  70.830  1.00  0.00    -0.323 A  
HETATM   13  C   UNL     1     -10.718   8.431  71.876  1.00  0.00    -0.373 A  
HETATM   14  C   UNL     1     -11.867   8.171  72.629  1.00  0.00    -0.389 A  
HETATM   15  C   UNL     1     -13.055   8.844  72.359  1.00  0.00    -0.476 A  
HETATM   16  C   UNL     1     -13.126   9.788  71.332  1.00  0.00    -0.489 A  
HETATM   17  C   UNL     1     -11.966  10.042  70.580  1.00  0.00    -0.313 A  
HETATM   18  S   UNL     1     -11.735  11.140  69.276  1.00  0.00    -0.358 SA 
ENDBRANCH   9  10
ENDBRANCH   7   9
ENDBRANCH   4   7
TORSDOF 3
ENDMDL
MODEL       43
REMARK 921   NORMALIZED FREE ENERGY PREDICTED BY IDOCK:   -4.97 KCAL/MOL
REMARK 922        TOTAL FREE ENERGY PREDICTED BY IDOCK:   -6.12 KCAL/MOL
REMARK 923 INTER-LIGAND FREE ENERGY PREDICTED BY IDOCK:   -5.85 KCAL/MOL
REMARK 924 INTRA-LIGAND FREE ENERGY PREDICTED BY IDOCK:   -0.27 KCAL/MOL
REMARK 927      BINDING AFFINITY PREDICTED BY RF-SCORE:    0.00 PKD
ROOT
HETATM    1  C   UNL     1     -10.534   6.360  67.199  1.00  0.00    -0.342 C  
HETATM    2  C   UNL     1     -11.257   6.469  68.539  1.00  0.00    -0.287 C  
HETATM    3  C   UNL     1     -10.504   7.367  69.524  1.00  0.00    -0.236 C  
HETATM    4  C   UNL     1     -10.168   8.757  68.949  1.00  0.00    -0.207 C  
HETATM    5  C   UNL     1      -9.433   8.585  67.605  1.00  0.00    -0.173 C  
HETATM    6  C   UNL     1     -10.224   7.733  66.613  1.00  0.00    -0.288 C  
ENDROOT
BRANCH   4   7
HETATM    7  N   UNL     1     -11.391   9.560  68.805  1.00  0.00    -0.454 N  
HETATM    8  H   UNL     1     -12.137   9.233  68.190  1.00  0.00     0.000 HD 
BRANCH   7   9
HETATM    9  S   UNL     1     -11.577  10.996  69.633  1.00  0.00    -0.349 SA 
BRANCH   9  10
HETATM   10  C   UNL     1     -11.495  12.147  68.303  1.00  0.00    -0.305 A  
HETATM   11  N   UNL     1     -12.093  11.916  67.157  1.00  0.00    -0.522 NA 
HETATM   12  C   UNL     1     -11.876  12.988  66.305  1.00  0.00    -0.408 A  
HETATM   13  C   UNL     1     -12.363  13.106  64.987  1.00  0.00    -0.511 A  
HETATM   14  C   UNL     1     -12.062  14.244  64.233  1.00  0.00    -0.467 A  
HETATM   15  C   UNL     1     -11.288  15.266  64.776  1.00  0.00    -0.396 A  
HETATM   16  C   UNL     1     -10.796  15.176  66.079  1.00  0.00    -0.335 A  
HETATM   17  C   UNL     1     -11.105  14.028  66.830  1.00  0.00    -0.306 A  
HETATM   18  S   UNL     1     -10.662  13.634  68.444  1.00  0.00    -0.264 SA 
ENDBRANCH   9  10
ENDBRANCH   7   9
ENDBRANCH   4   7
TORSDOF 3
ENDMDL
MODEL       44
REMARK 921   NORMALIZED FREE ENERGY PREDICTED BY IDOCK:   -4.95 KCAL/MOL
REMARK 922        TOTAL FREE ENERGY PREDICTED BY IDOCK:   -6.09 KCAL/MOL
REMARK 923 INTER-LIGAND FREE ENERGY PREDICTED BY IDOCK:   -5.89 KCAL/MOL
REMARK 924 INTRA-LIGAND FREE ENERGY PREDICTED BY IDOCK:   -0.20 KCAL/MOL
REMARK 927      BINDING AFFINITY PREDICTED BY RF-SCORE:    0.00 PKD
ROOT
HETATM    1  C   UNL     1     -11.949  13.221  63.118  1.00  0.00    -0.179 C  
HETATM    2  C   UNL     1     -12.261  14.214  64.236  1.00  0.00    -0.449 C  
HETATM    3  C   UNL     1     -12.660  13.509  65.534  1.00  0.00    -0.531 C  
HETATM    4  C   UNL     1     -11.639  12.448  65.990  1.00  0.00    -0.401 C  
HETATM    5  C   UNL     1     -11.371  11.470  64.830  1.00  0.00    -0.206 C  
HETATM    6  C   UNL     1     -10.919  12.187  63.557  1.00  0.00    -0.521 C  
ENDROOT
BRANCH   4   7
HETATM    7  N   UNL     1     -10.405  13.095  66.458  1.00  0.00    -0.278 N  
HETATM    8  H   UNL     1      -9.555  13.020  65.898  1.00  0.00     0.000 HD 
BRANCH   7   9
HETATM    9  S   UNL     1     -10.373  13.949  67.890  1.00  0.00    -0.244 SA 
BRANCH   9  10
HETATM   10  C   UNL     1     -11.056  12.757  68.992  1.00  0.00    -0.233 A  
HETATM   11  N   UNL     1     -10.649  11.508  68.988  1.00  0.00    -0.200 NA 
HETATM   12  C   UNL     1     -11.341  10.801  69.960  1.00  0.00    -0.319 A  
HETATM   13  C   UNL     1     -11.176   9.434  70.260  1.00  0.00    -0.286 A  
HETATM   14  C   UNL     1     -11.948   8.843  71.265  1.00  0.00    -0.365 A  
HETATM   15  C   UNL     1     -12.874   9.598  71.978  1.00  0.00    -0.497 A  
HETATM   16  C   UNL     1     -13.054  10.955  71.706  1.00  0.00    -0.564 A  
HETATM   17  C   UNL     1     -12.274  11.540  70.693  1.00  0.00    -0.378 A  
HETATM   18  S   UNL     1     -12.256  13.168  70.138  1.00  0.00    -0.234 SA 
ENDBRANCH   9  10
ENDBRANCH   7   9
ENDBRANCH   4   7
TORSDOF 3
ENDMDL
MODEL       45
REMARK 921   NORMALIZED FREE ENERGY PREDICTED BY IDOCK:   -4.95 KCAL/MOL
REMARK 922        TOTAL FREE ENERGY PREDICTED BY IDOCK:   -6.09 KCAL/MOL
REMARK 923 INTER-LIGAND FREE ENERGY PREDICTED BY IDOCK:   -5.97 KCAL/MOL
REMARK 924 INTRA-LIGAND FREE ENERGY PREDICTED BY IDOCK:   -0.12 KCAL/MOL
REMARK 927      BINDING AFFINITY PREDICTED BY RF-SCORE:    0.00 PKD
ROOT
HETATM    1  C   UNL     1     -11.114  15.781  64.637  1.00  0.00    -0.376 C  
HETATM    2  C   UNL     1     -10.312  15.897  65.931  1.00  0.00    -0.383 C  
HETATM    3  C   UNL     1     -11.062  15.299  67.124  1.00  0.00    -0.323 C  
HETATM    4  C   UNL     1     -11.538  13.852  66.883  1.00  0.00    -0.378 C  
HETATM    5  C   UNL     1     -12.348  13.798  65.573  1.00  0.00    -0.507 C  
HETATM    6  C   UNL     1     -11.564  14.347  64.380  1.00  0.00    -0.346 C  
ENDROOT
BRANCH   4   7
HETATM    7  N   UNL     1     -10.391  12.934  66.857  1.00  0.00    -0.242 N  
HETATM    8  H   UNL     1      -9.457  13.291  67.061  1.00  0.00     0.000 HD 
BRANCH   7   9
HETATM    9  S   UNL     1     -10.593  11.318  66.497  1.00  0.00    -0.268 SA 
BRANCH   9  10
HETATM   10  C   UNL     1     -11.036  10.688  68.080  1.00  0.00    -0.301 A  
HETATM   11  N   UNL     1     -11.969  11.258  68.809  1.00  0.00    -0.506 NA 
HETATM   12  C   UNL     1     -12.120  10.549  69.991  1.00  0.00    -0.274 A  
HETATM   13  C   UNL     1     -13.029  10.854  71.025  1.00  0.00    -0.396 A  
HETATM   14  C   UNL     1     -13.073  10.056  72.171  1.00  0.00    -0.482 A  
HETATM   15  C   UNL     1     -12.229   8.956  72.298  1.00  0.00    -0.413 A  
HETATM   16  C   UNL     1     -11.322   8.629  71.287  1.00  0.00    -0.341 A  
HETATM   17  C   UNL     1     -11.286   9.438  70.138  1.00  0.00    -0.219 A  
HETATM   18  S   UNL     1     -10.301   9.290  68.735  1.00  0.00    -0.211 SA 
ENDBRANCH   9  10
ENDBRANCH   7   9
ENDBRANCH   4   7
TORSDOF 3
ENDMDL
MODEL       46
REMARK 921   NORMALIZED FREE ENERGY PREDICTED BY IDOCK:   -4.90 KCAL/MOL
REMARK 922        TOTAL FREE ENERGY PREDICTED BY IDOCK:   -6.03 KCAL/MOL
REMARK 923 INTER-LIGAND FREE ENERGY PREDICTED BY IDOCK:   -5.91 KCAL/MOL
REMARK 924 INTRA-LIGAND FREE ENERGY PREDICTED BY IDOCK:   -0.12 KCAL/MOL
REMARK 927      BINDING AFFINITY PREDICTED BY RF-SCORE:    0.00 PKD
ROOT
HETATM    1  C   UNL     1     -12.648   8.492  72.084  1.00  0.00    -0.431 C  
HETATM    2  C   UNL     1     -13.582   9.647  71.731  1.00  0.00    -0.424 C  
HETATM    3  C   UNL     1     -12.823  10.964  71.558  1.00  0.00    -0.560 C  
HETATM    4  C   UNL     1     -11.647  10.866  70.566  1.00  0.00    -0.300 C  
HETATM    5  C   UNL     1     -10.735   9.694  70.976  1.00  0.00    -0.393 C  
HETATM    6  C   UNL     1     -11.498   8.374  71.089  1.00  0.00    -0.314 C  
ENDROOT
BRANCH   4   7
HETATM    7  N   UNL     1     -12.149  10.715  69.193  1.00  0.00    -0.536 N  
HETATM    8  H   UNL     1     -13.154  10.650  69.029  1.00  0.00     0.000 HD 
BRANCH   7   9
HETATM    9  S   UNL     1     -11.099  10.649  67.898  1.00  0.00    -0.309 SA 
BRANCH   9  10
HETATM   10  C   UNL     1     -10.947  12.362  67.519  1.00  0.00    -0.252 A  
HETATM   11  N   UNL     1     -11.141  13.287  68.432  1.00  0.00    -0.257 NA 
HETATM   12  C   UNL     1     -10.941  14.536  67.865  1.00  0.00    -0.269 A  
HETATM   13  C   UNL     1     -11.055  15.773  68.532  1.00  0.00    -0.335 A  
HETATM   14  C   UNL     1     -10.833  16.964  67.835  1.00  0.00    -0.310 A  
HETATM   15  C   UNL     1     -10.493  16.938  66.485  1.00  0.00    -0.253 A  
HETATM   16  C   UNL     1     -10.369  15.727  65.801  1.00  0.00    -0.390 A  
HETATM   17  C   UNL     1     -10.595  14.535  66.511  1.00  0.00    -0.297 A  
HETATM   18  S   UNL     1     -10.510  12.908  65.958  1.00  0.00    -0.281 SA 
ENDBRANCH   9  10
ENDBRANCH   7   9
ENDBRANCH   4   7
TORSDOF 3
ENDMDL
MODEL       47
REMARK 921   NORMALIZED FREE ENERGY PREDICTED BY IDOCK:   -4.89 KCAL/MOL
REMARK 922        TOTAL FREE ENERGY PREDICTED BY IDOCK:   -6.01 KCAL/MOL
REMARK 923 INTER-LIGAND FREE ENERGY PREDICTED BY IDOCK:   -5.78 KCAL/MOL
REMARK 924 INTRA-LIGAND FREE ENERGY PREDICTED BY IDOCK:   -0.23 KCAL/MOL
REMARK 927      BINDING AFFINITY PREDICTED BY RF-SCORE:    0.00 PKD
ROOT
HETATM    1  C   UNL     1      -8.593   7.420  70.892  1.00  0.00    -0.135 C  
HETATM    2  C   UNL     1      -9.355   7.153  69.596  1.00  0.00    -0.149 C  
HETATM    3  C   UNL     1     -10.869   7.119  69.818  1.00  0.00    -0.261 C  
HETATM    4  C   UNL     1     -11.407   8.370  70.542  1.00  0.00    -0.216 C  
HETATM    5  C   UNL     1     -10.611   8.584  71.843  1.00  0.00    -0.392 C  
HETATM    6  C   UNL     1      -9.104   8.671  71.597  1.00  0.00    -0.318 C  
ENDROOT
BRANCH   4   7
HETATM    7  N   UNL     1     -11.337   9.541  69.657  1.00  0.00    -0.429 N  
HETATM    8  H   UNL     1     -10.824   9.477  68.778  1.00  0.00     0.000 HD 
BRANCH   7   9
HETATM    9  S   UNL     1     -12.083  10.975  70.071  1.00  0.00    -0.375 SA 
BRANCH   9  10
HETATM   10  C   UNL     1     -11.785  11.925  68.619  1.00  0.00    -0.323 A  
HETATM   11  N   UNL     1     -11.761  11.369  67.428  1.00  0.00    -0.598 NA 
HETATM   12  C   UNL     1     -11.524  12.346  66.474  1.00  0.00    -0.371 A  
HETATM   13  C   UNL     1     -11.432  12.135  65.083  1.00  0.00    -0.376 A  
HETATM   14  C   UNL     1     -11.180  13.213  64.230  1.00  0.00    -0.422 A  
HETATM   15  C   UNL     1     -11.025  14.498  64.744  1.00  0.00    -0.404 A  
HETATM   16  C   UNL     1     -11.115  14.735  66.117  1.00  0.00    -0.339 A  
HETATM   17  C   UNL     1     -11.368  13.644  66.966  1.00  0.00    -0.324 A  
HETATM   18  S   UNL     1     -11.544  13.616  68.677  1.00  0.00    -0.353 SA 
ENDBRANCH   9  10
ENDBRANCH   7   9
ENDBRANCH   4   7
TORSDOF 3
ENDMDL
MODEL       48
REMARK 921   NORMALIZED FREE ENERGY PREDICTED BY IDOCK:   -4.88 KCAL/MOL
REMARK 922        TOTAL FREE ENERGY PREDICTED BY IDOCK:   -6.01 KCAL/MOL
REMARK 923 INTER-LIGAND FREE ENERGY PREDICTED BY IDOCK:   -5.95 KCAL/MOL
REMARK 924 INTRA-LIGAND FREE ENERGY PREDICTED BY IDOCK:   -0.05 KCAL/MOL
REMARK 927      BINDING AFFINITY PREDICTED BY RF-SCORE:    0.00 PKD
ROOT
HETATM    1  C   UNL     1     -12.562   8.305  71.940  1.00  0.00    -0.379 C  
HETATM    2  C   UNL     1     -13.548   9.438  71.664  1.00  0.00    -0.437 C  
HETATM    3  C   UNL     1     -12.850  10.797  71.586  1.00  0.00    -0.562 C  
HETATM    4  C   UNL     1     -11.669  10.821  70.594  1.00  0.00    -0.342 C  
HETATM    5  C   UNL     1     -10.705   9.666  70.926  1.00  0.00    -0.402 C  
HETATM    6  C   UNL     1     -11.408   8.308  70.945  1.00  0.00    -0.292 C  
ENDROOT
BRANCH   4   7
HETATM    7  N   UNL     1     -12.162  10.743  69.211  1.00  0.00    -0.525 N  
HETATM    8  H   UNL     1     -13.165  10.665  69.039  1.00  0.00     0.000 HD 
BRANCH   7   9
HETATM    9  S   UNL     1     -11.106  10.781  67.920  1.00  0.00    -0.319 SA 
BRANCH   9  10
HETATM   10  C   UNL     1     -10.916  12.519  67.710  1.00  0.00    -0.234 A  
HETATM   11  N   UNL     1     -10.147  13.016  66.768  1.00  0.00    -0.242 NA 
HETATM   12  C   UNL     1     -10.195  14.400  66.823  1.00  0.00    -0.270 A  
HETATM   13  C   UNL     1      -9.505  15.285  65.970  1.00  0.00    -0.372 A  
HETATM   14  C   UNL     1      -9.638  16.666  66.142  1.00  0.00    -0.323 A  
HETATM   15  C   UNL     1     -10.455  17.175  67.147  1.00  0.00    -0.291 A  
HETATM   16  C   UNL     1     -11.154  16.322  68.004  1.00  0.00    -0.299 A  
HETATM   17  C   UNL     1     -11.012  14.935  67.823  1.00  0.00    -0.293 A  
HETATM   18  S   UNL     1     -11.742  13.645  68.697  1.00  0.00    -0.372 SA 
ENDBRANCH   9  10
ENDBRANCH   7   9
ENDBRANCH   4   7
TORSDOF 3
ENDMDL
MODEL       49
REMARK 921   NORMALIZED FREE ENERGY PREDICTED BY IDOCK:   -4.88 KCAL/MOL
REMARK 922        TOTAL FREE ENERGY PREDICTED BY IDOCK:   -6.00 KCAL/MOL
REMARK 923 INTER-LIGAND FREE ENERGY PREDICTED BY IDOCK:   -5.74 KCAL/MOL
REMARK 924 INTRA-LIGAND FREE ENERGY PREDICTED BY IDOCK:   -0.26 KCAL/MOL
REMARK 927      BINDING AFFINITY PREDICTED BY RF-SCORE:    0.00 PKD
ROOT
HETATM    1  C   UNL     1      -6.111  20.731  68.471  1.00  0.00    -0.373 C  
HETATM    2  C   UNL     1      -7.129  20.665  67.335  1.00  0.00    -0.399 C  
HETATM    3  C   UNL     1      -7.354  19.231  66.851  1.00  0.00    -0.225 C  
HETATM    4  C   UNL     1      -7.711  18.251  67.987  1.00  0.00    -0.260 C  
HETATM    5  C   UNL     1      -6.646  18.354  69.096  1.00  0.00    -0.280 C  
HETATM    6  C   UNL     1      -6.474  19.784  69.609  1.00  0.00    -0.389 C  
ENDROOT
BRANCH   4   7
HETATM    7  N   UNL     1      -9.061  18.530  68.496  1.00  0.00    -0.326 N  
HETATM    8  H   UNL     1      -9.186  18.788  69.475  1.00  0.00     0.000 HD 
BRANCH   7   9
HETATM    9  S   UNL     1     -10.393  18.429  67.495  1.00  0.00    -0.408 SA 
BRANCH   9  10
HETATM   10  C   UNL     1     -10.778  16.718  67.643  1.00  0.00    -0.305 A  
HETATM   11  N   UNL     1     -10.779  15.922  66.597  1.00  0.00    -0.303 NA 
HETATM   12  C   UNL     1     -11.100  14.636  67.004  1.00  0.00    -0.333 A  
HETATM   13  C   UNL     1     -11.195  13.506  66.167  1.00  0.00    -0.306 A  
HETATM   14  C   UNL     1     -11.536  12.264  66.709  1.00  0.00    -0.434 A  
HETATM   15  C   UNL     1     -11.776  12.132  68.074  1.00  0.00    -0.409 A  
HETATM   16  C   UNL     1     -11.684  13.234  68.927  1.00  0.00    -0.369 A  
HETATM   17  C   UNL     1     -11.341  14.479  68.371  1.00  0.00    -0.289 A  
HETATM   18  S   UNL     1     -11.140  15.999  69.151  1.00  0.00    -0.338 SA 
ENDBRANCH   9  10
ENDBRANCH   7   9
ENDBRANCH   4   7
TORSDOF 3
ENDMDL
MODEL       50
REMARK 921   NORMALIZED FREE ENERGY PREDICTED BY IDOCK:   -4.85 KCAL/MOL
REMARK 922        TOTAL FREE ENERGY PREDICTED BY IDOCK:   -5.97 KCAL/MOL
REMARK 923 INTER-LIGAND FREE ENERGY PREDICTED BY IDOCK:   -5.65 KCAL/MOL
REMARK 924 INTRA-LIGAND FREE ENERGY PREDICTED BY IDOCK:   -0.32 KCAL/MOL
REMARK 927      BINDING AFFINITY PREDICTED BY RF-SCORE:    0.00 PKD
ROOT
HETATM    1  C   UNL     1      -8.732  11.350  66.345  1.00  0.00    -0.185 C  
HETATM    2  C   UNL     1     -10.041  10.730  65.861  1.00  0.00    -0.314 C  
HETATM    3  C   UNL     1     -10.202   9.286  66.342  1.00  0.00    -0.298 C  
HETATM    4  C   UNL     1     -10.031   9.126  67.866  1.00  0.00    -0.186 C  
HETATM    5  C   UNL     1      -8.693   9.759  68.294  1.00  0.00    -0.119 C  
HETATM    6  C   UNL     1      -8.571  11.219  67.855  1.00  0.00    -0.134 C  
ENDROOT
BRANCH   4   7
HETATM    7  N   UNL     1     -11.171   9.726  68.573  1.00  0.00    -0.496 N  
HETATM    8  H   UNL     1     -11.840  10.297  68.055  1.00  0.00     0.000 HD 
BRANCH   7   9
HETATM    9  S   UNL     1     -11.388   9.486  70.209  1.00  0.00    -0.209 SA 
BRANCH   9  10
HETATM   10  C   UNL     1     -12.057  11.046  70.678  1.00  0.00    -0.373 A  
HETATM   11  N   UNL     1     -11.693  12.157  70.078  1.00  0.00    -0.291 NA 
HETATM   12  C   UNL     1     -12.384  13.223  70.633  1.00  0.00    -0.339 A  
HETATM   13  C   UNL     1     -12.265  14.574  70.249  1.00  0.00    -0.391 A  
HETATM   14  C   UNL     1     -13.020  15.553  70.902  1.00  0.00    -0.526 A  
HETATM   15  C   UNL     1     -13.895  15.203  71.925  1.00  0.00    -0.607 A  
HETATM   16  C   UNL     1     -14.036  13.872  72.323  1.00  0.00    -0.632 A  
HETATM   17  C   UNL     1     -13.273  12.895  71.661  1.00  0.00    -0.324 A  
HETATM   18  S   UNL     1     -13.233  11.193  71.911  1.00  0.00    -0.229 SA 
ENDBRANCH   9  10
ENDBRANCH   7   9
ENDBRANCH   4   7
TORSDOF 3
ENDMDL
MODEL       51
REMARK 921   NORMALIZED FREE ENERGY PREDICTED BY IDOCK:   -4.84 KCAL/MOL
REMARK 922        TOTAL FREE ENERGY PREDICTED BY IDOCK:   -5.96 KCAL/MOL
REMARK 923 INTER-LIGAND FREE ENERGY PREDICTED BY IDOCK:   -5.68 KCAL/MOL
REMARK 924 INTRA-LIGAND FREE ENERGY PREDICTED BY IDOCK:   -0.27 KCAL/MOL
REMARK 927      BINDING AFFINITY PREDICTED BY RF-SCORE:    0.00 PKD
ROOT
HETATM    1  C   UNL     1     -11.224  11.549  63.538  1.00  0.00    -0.412 C  
HETATM    2  C   UNL     1     -10.295  11.303  64.725  1.00  0.00    -0.366 C  
HETATM    3  C   UNL     1      -9.925  12.605  65.441  1.00  0.00    -0.230 C  
HETATM    4  C   UNL     1     -11.151  13.446  65.849  1.00  0.00    -0.280 C  
HETATM    5  C   UNL     1     -12.045  13.670  64.614  1.00  0.00    -0.449 C  
HETATM    6  C   UNL     1     -12.452  12.357  63.943  1.00  0.00    -0.573 C  
ENDROOT
BRANCH   4   7
HETATM    7  N   UNL     1     -11.881  12.789  66.942  1.00  0.00    -0.388 N  
HETATM    8  H   UNL     1     -12.457  11.971  66.741  1.00  0.00     0.000 HD 
BRANCH   7   9
HETATM    9  S   UNL     1     -11.782  13.361  68.506  1.00  0.00    -0.374 SA 
BRANCH   9  10
HETATM   10  C   UNL     1     -11.599  11.850  69.391  1.00  0.00    -0.325 A  
HETATM   11  N   UNL     1     -10.737  10.933  69.013  1.00  0.00    -0.211 NA 
HETATM   12  C   UNL     1     -10.794   9.863  69.893  1.00  0.00    -0.278 A  
HETATM   13  C   UNL     1     -10.014   8.691  69.819  1.00  0.00    -0.190 A  
HETATM   14  C   UNL     1     -10.179   7.683  70.773  1.00  0.00    -0.201 A  
HETATM   15  C   UNL     1     -11.103   7.831  71.802  1.00  0.00    -0.287 A  
HETATM   16  C   UNL     1     -11.885   8.984  71.903  1.00  0.00    -0.447 A  
HETATM   17  C   UNL     1     -11.713   9.991  70.938  1.00  0.00    -0.374 A  
HETATM   18  S   UNL     1     -12.507  11.511  70.800  1.00  0.00    -0.299 SA 
ENDBRANCH   9  10
ENDBRANCH   7   9
ENDBRANCH   4   7
TORSDOF 3
ENDMDL
MODEL       52
REMARK 921   NORMALIZED FREE ENERGY PREDICTED BY IDOCK:   -4.84 KCAL/MOL
REMARK 922        TOTAL FREE ENERGY PREDICTED BY IDOCK:   -5.96 KCAL/MOL
REMARK 923 INTER-LIGAND FREE ENERGY PREDICTED BY IDOCK:   -5.69 KCAL/MOL
REMARK 924 INTRA-LIGAND FREE ENERGY PREDICTED BY IDOCK:   -0.27 KCAL/MOL
REMARK 927      BINDING AFFINITY PREDICTED BY RF-SCORE:    0.00 PKD
ROOT
HETATM    1  C   UNL     1     -11.656  12.441  63.621  1.00  0.00    -0.580 C  
HETATM    2  C   UNL     1     -10.290  12.747  64.231  1.00  0.00    -0.402 C  
HETATM    3  C   UNL     1     -10.256  14.125  64.896  1.00  0.00    -0.371 C  
HETATM    4  C   UNL     1     -11.391  14.338  65.917  1.00  0.00    -0.328 C  
HETATM    5  C   UNL     1     -12.742  14.026  65.245  1.00  0.00    -0.468 C  
HETATM    6  C   UNL     1     -12.779  12.624  64.635  1.00  0.00    -0.458 C  
ENDROOT
BRANCH   4   7
HETATM    7  N   UNL     1     -11.167  13.509  67.110  1.00  0.00    -0.296 N  
HETATM    8  H   UNL     1     -10.827  12.553  67.001  1.00  0.00     0.000 HD 
BRANCH   7   9
HETATM    9  S   UNL     1     -11.461  14.107  68.639  1.00  0.00    -0.322 SA 
BRANCH   9  10
HETATM   10  C   UNL     1     -10.293  15.423  68.700  1.00  0.00    -0.234 A  
HETATM   11  N   UNL     1      -9.030  15.206  68.990  1.00  0.00    -0.208 NA 
HETATM   12  C   UNL     1      -8.341  16.409  68.952  1.00  0.00    -0.234 A  
HETATM   13  C   UNL     1      -6.964  16.579  69.203  1.00  0.00    -0.225 A  
HETATM   14  C   UNL     1      -6.396  17.855  69.137  1.00  0.00    -0.236 A  
HETATM   15  C   UNL     1      -7.180  18.960  68.818  1.00  0.00    -0.351 A  
HETATM   16  C   UNL     1      -8.545  18.819  68.560  1.00  0.00    -0.378 A  
HETATM   17  C   UNL     1      -9.107  17.532  68.630  1.00  0.00    -0.263 A  
HETATM   18  S   UNL     1     -10.732  17.040  68.357  1.00  0.00    -0.334 SA 
ENDBRANCH   9  10
ENDBRANCH   7   9
ENDBRANCH   4   7
TORSDOF 3
ENDMDL
MODEL       53
REMARK 921   NORMALIZED FREE ENERGY PREDICTED BY IDOCK:   -4.84 KCAL/MOL
REMARK 922        TOTAL FREE ENERGY PREDICTED BY IDOCK:   -5.95 KCAL/MOL
REMARK 923 INTER-LIGAND FREE ENERGY PREDICTED BY IDOCK:   -5.72 KCAL/MOL
REMARK 924 INTRA-LIGAND FREE ENERGY PREDICTED BY IDOCK:   -0.23 KCAL/MOL
REMARK 927      BINDING AFFINITY PREDICTED BY RF-SCORE:    0.00 PKD
ROOT
HETATM    1  C   UNL     1     -10.018   5.589  71.864  1.00  0.00    -0.227 C  
HETATM    2  C   UNL     1      -9.826   6.061  70.425  1.00  0.00    -0.222 C  
HETATM    3  C   UNL     1     -11.161   6.236  69.697  1.00  0.00    -0.506 C  
HETATM    4  C   UNL     1     -12.158   7.134  70.457  1.00  0.00    -0.172 C  
HETATM    5  C   UNL     1     -12.319   6.606  71.896  1.00  0.00    -0.364 C  
HETATM    6  C   UNL     1     -10.982   6.490  72.628  1.00  0.00    -0.287 C  
ENDROOT
BRANCH   4   7
HETATM    7  N   UNL     1     -11.705   8.532  70.434  1.00  0.00    -0.476 N  
HETATM    8  H   UNL     1     -10.803   8.761  70.017  1.00  0.00     0.000 HD 
BRANCH   7   9
HETATM    9  S   UNL     1     -12.646   9.749  71.080  1.00  0.00    -0.345 SA 
BRANCH   9  10
HETATM   10  C   UNL     1     -12.276  11.066  69.971  1.00  0.00    -0.343 A  
HETATM   11  N   UNL     1     -12.067  10.847  68.693  1.00  0.00    -0.516 NA 
HETATM   12  C   UNL     1     -11.815  12.055  68.060  1.00  0.00    -0.269 A  
HETATM   13  C   UNL     1     -11.548  12.226  66.686  1.00  0.00    -0.438 A  
HETATM   14  C   UNL     1     -11.303  13.505  66.178  1.00  0.00    -0.325 A  
HETATM   15  C   UNL     1     -11.328  14.614  67.019  1.00  0.00    -0.362 A  
HETATM   16  C   UNL     1     -11.594  14.474  68.383  1.00  0.00    -0.356 A  
HETATM   17  C   UNL     1     -11.838  13.183  68.883  1.00  0.00    -0.320 A  
HETATM   18  S   UNL     1     -12.201  12.693  70.492  1.00  0.00    -0.192 SA 
ENDBRANCH   9  10
ENDBRANCH   7   9
ENDBRANCH   4   7
TORSDOF 3
ENDMDL
MODEL       54
REMARK 921   NORMALIZED FREE ENERGY PREDICTED BY IDOCK:   -4.82 KCAL/MOL
REMARK 922        TOTAL FREE ENERGY PREDICTED BY IDOCK:   -5.93 KCAL/MOL
REMARK 923 INTER-LIGAND FREE ENERGY PREDICTED BY IDOCK:   -5.71 KCAL/MOL
REMARK 924 INTRA-LIGAND FREE ENERGY PREDICTED BY IDOCK:   -0.22 KCAL/MOL
REMARK 927      BINDING AFFINITY PREDICTED BY RF-SCORE:    0.00 PKD
ROOT
HETATM    1  C   UNL     1     -12.277  13.259  63.576  1.00  0.00    -0.513 C  
HETATM    2  C   UNL     1     -11.727  11.847  63.392  1.00  0.00    -0.500 C  
HETATM    3  C   UNL     1     -10.246  11.755  63.768  1.00  0.00    -0.434 C  
HETATM    4  C   UNL     1      -9.939  12.303  65.176  1.00  0.00    -0.215 C  
HETATM    5  C   UNL     1     -10.507  13.730  65.300  1.00  0.00    -0.376 C  
HETATM    6  C   UNL     1     -12.000  13.794  64.976  1.00  0.00    -0.401 C  
ENDROOT
BRANCH   4   7
HETATM    7  N   UNL     1     -10.486  11.405  66.204  1.00  0.00    -0.248 N  
HETATM    8  H   UNL     1     -11.450  11.527  66.517  1.00  0.00     0.000 HD 
BRANCH   7   9
HETATM    9  S   UNL     1      -9.554  10.190  66.866  1.00  0.00    -0.184 SA 
BRANCH   9  10
HETATM   10  C   UNL     1     -10.451   9.866  68.346  1.00  0.00    -0.208 A  
HETATM   11  N   UNL     1     -11.261  10.760  68.867  1.00  0.00    -0.247 NA 
HETATM   12  C   UNL     1     -11.841  10.236  70.012  1.00  0.00    -0.228 A  
HETATM   13  C   UNL     1     -12.769  10.897  70.843  1.00  0.00    -0.464 A  
HETATM   14  C   UNL     1     -13.272  10.252  71.976  1.00  0.00    -0.516 A  
HETATM   15  C   UNL     1     -12.867   8.957  72.289  1.00  0.00    -0.475 A  
HETATM   16  C   UNL     1     -11.953   8.278  71.481  1.00  0.00    -0.335 A  
HETATM   17  C   UNL     1     -11.453   8.936  70.344  1.00  0.00    -0.157 A  
HETATM   18  S   UNL     1     -10.338   8.368  69.163  1.00  0.00    -0.210 SA 
ENDBRANCH   9  10
ENDBRANCH   7   9
ENDBRANCH   4   7
TORSDOF 3
ENDMDL
MODEL       55
REMARK 921   NORMALIZED FREE ENERGY PREDICTED BY IDOCK:   -4.74 KCAL/MOL
REMARK 922        TOTAL FREE ENERGY PREDICTED BY IDOCK:   -5.84 KCAL/MOL
REMARK 923 INTER-LIGAND FREE ENERGY PREDICTED BY IDOCK:   -5.62 KCAL/MOL
REMARK 924 INTRA-LIGAND FREE ENERGY PREDICTED BY IDOCK:   -0.22 KCAL/MOL
REMARK 927      BINDING AFFINITY PREDICTED BY RF-SCORE:    0.00 PKD
ROOT
HETATM    1  C   UNL     1     -10.018   9.487  69.253  1.00  0.00    -0.191 C  
HETATM    2  C   UNL     1     -10.419  10.646  68.343  1.00  0.00    -0.212 C  
HETATM    3  C   UNL     1     -11.891  11.026  68.516  1.00  0.00    -0.286 C  
HETATM    4  C   UNL     1     -12.284  11.297  69.983  1.00  0.00    -0.314 C  
HETATM    5  C   UNL     1     -11.865  10.094  70.850  1.00  0.00    -0.468 C  
HETATM    6  C   UNL     1     -10.379   9.763  70.708  1.00  0.00    -0.298 C  
ENDROOT
BRANCH   4   7
HETATM    7  N   UNL     1     -11.673  12.549  70.451  1.00  0.00    -0.539 N  
HETATM    8  H   UNL     1     -10.680  12.567  70.684  1.00  0.00     0.000 HD 
BRANCH   7   9
HETATM    9  S   UNL     1     -12.580  13.941  70.608  1.00  0.00    -0.310 SA 
BRANCH   9  10
HETATM   10  C   UNL     1     -11.785  14.978  69.428  1.00  0.00    -0.326 A  
HETATM   11  N   UNL     1     -11.304  16.154  69.763  1.00  0.00    -0.335 NA 
HETATM   12  C   UNL     1     -10.723  16.743  68.650  1.00  0.00    -0.352 A  
HETATM   13  C   UNL     1     -10.097  18.006  68.617  1.00  0.00    -0.401 A  
HETATM   14  C   UNL     1      -9.557  18.484  67.420  1.00  0.00    -0.307 A  
HETATM   15  C   UNL     1      -9.626  17.718  66.260  1.00  0.00    -0.256 A  
HETATM   16  C   UNL     1     -10.236  16.462  66.265  1.00  0.00    -0.341 A  
HETATM   17  C   UNL     1     -10.777  15.991  67.474  1.00  0.00    -0.314 A  
HETATM   18  S   UNL     1     -11.570  14.500  67.801  1.00  0.00    -0.374 SA 
ENDBRANCH   9  10
ENDBRANCH   7   9
ENDBRANCH   4   7
TORSDOF 3
ENDMDL
MODEL       56
REMARK 921   NORMALIZED FREE ENERGY PREDICTED BY IDOCK:   -4.70 KCAL/MOL
REMARK 922        TOTAL FREE ENERGY PREDICTED BY IDOCK:   -5.80 KCAL/MOL
REMARK 923 INTER-LIGAND FREE ENERGY PREDICTED BY IDOCK:   -5.64 KCAL/MOL
REMARK 924 INTRA-LIGAND FREE ENERGY PREDICTED BY IDOCK:   -0.16 KCAL/MOL
REMARK 927      BINDING AFFINITY PREDICTED BY RF-SCORE:    0.00 PKD
ROOT
HETATM    1  C   UNL     1     -12.671  11.502  70.890  1.00  0.00    -0.372 C  
HETATM    2  C   UNL     1     -11.691  10.983  69.839  1.00  0.00    -0.424 C  
HETATM    3  C   UNL     1     -11.746  11.807  68.550  1.00  0.00    -0.390 C  
HETATM    4  C   UNL     1     -11.572  13.321  68.785  1.00  0.00    -0.312 C  
HETATM    5  C   UNL     1     -12.590  13.788  69.844  1.00  0.00    -0.147 C  
HETATM    6  C   UNL     1     -12.484  12.993  71.145  1.00  0.00    -0.364 C  
ENDROOT
BRANCH   4   7
HETATM    7  N   UNL     1     -10.190  13.621  69.184  1.00  0.00    -0.430 N  
HETATM    8  H   UNL     1      -9.935  13.596  70.172  1.00  0.00     0.000 HD 
BRANCH   7   9
HETATM    9  S   UNL     1      -9.031  14.001  68.046  1.00  0.00    -0.189 SA 
BRANCH   9  10
HETATM   10  C   UNL     1      -9.233  15.747  67.951  1.00  0.00    -0.191 A  
HETATM   11  N   UNL     1      -8.668  16.452  66.998  1.00  0.00    -0.188 NA 
HETATM   12  C   UNL     1      -9.005  17.788  67.158  1.00  0.00    -0.246 A  
HETATM   13  C   UNL     1      -8.592  18.849  66.326  1.00  0.00    -0.267 A  
HETATM   14  C   UNL     1      -9.001  20.155  66.608  1.00  0.00    -0.416 A  
HETATM   15  C   UNL     1      -9.822  20.416  67.701  1.00  0.00    -0.538 A  
HETATM   16  C   UNL     1     -10.250  19.384  68.539  1.00  0.00    -0.492 A  
HETATM   17  C   UNL     1      -9.832  18.074  68.247  1.00  0.00    -0.355 A  
HETATM   18  S   UNL     1     -10.195  16.609  69.072  1.00  0.00    -0.315 SA 
ENDBRANCH   9  10
ENDBRANCH   7   9
ENDBRANCH   4   7
TORSDOF 3
ENDMDL
MODEL       57
REMARK 921   NORMALIZED FREE ENERGY PREDICTED BY IDOCK:   -4.69 KCAL/MOL
REMARK 922        TOTAL FREE ENERGY PREDICTED BY IDOCK:   -5.78 KCAL/MOL
REMARK 923 INTER-LIGAND FREE ENERGY PREDICTED BY IDOCK:   -5.49 KCAL/MOL
REMARK 924 INTRA-LIGAND FREE ENERGY PREDICTED BY IDOCK:   -0.30 KCAL/MOL
REMARK 927      BINDING AFFINITY PREDICTED BY RF-SCORE:    0.00 PKD
ROOT
HETATM    1  C   UNL     1      -9.201  15.149  66.261  1.00  0.00    -0.336 C  
HETATM    2  C   UNL     1      -9.226  16.079  67.471  1.00  0.00    -0.214 C  
HETATM    3  C   UNL     1     -10.648  16.526  67.821  1.00  0.00    -0.332 C  
HETATM    4  C   UNL     1     -11.631  15.351  67.992  1.00  0.00    -0.292 C  
HETATM    5  C   UNL     1     -11.571  14.454  66.741  1.00  0.00    -0.399 C  
HETATM    6  C   UNL     1     -10.152  13.971  66.437  1.00  0.00    -0.299 C  
ENDROOT
BRANCH   4   7
HETATM    7  N   UNL     1     -11.324  14.602  69.219  1.00  0.00    -0.271 N  
HETATM    8  H   UNL     1     -10.377  14.252  69.370  1.00  0.00     0.000 HD 
BRANCH   7   9
HETATM    9  S   UNL     1     -12.500  14.314  70.366  1.00  0.00    -0.356 SA 
BRANCH   9  10
HETATM   10  C   UNL     1     -12.330  12.573  70.572  1.00  0.00    -0.262 A  
HETATM   11  N   UNL     1     -13.001  11.923  71.496  1.00  0.00    -0.387 NA 
HETATM   12  C   UNL     1     -12.689  10.574  71.422  1.00  0.00    -0.442 A  
HETATM   13  C   UNL     1     -13.213   9.559  72.248  1.00  0.00    -0.507 A  
HETATM   14  C   UNL     1     -12.805   8.235  72.068  1.00  0.00    -0.369 A  
HETATM   15  C   UNL     1     -11.887   7.908  71.074  1.00  0.00    -0.285 A  
HETATM   16  C   UNL     1     -11.355   8.893  70.239  1.00  0.00    -0.179 A  
HETATM   17  C   UNL     1     -11.772  10.222  70.428  1.00  0.00    -0.319 A  
HETATM   18  S   UNL     1     -11.313  11.638  69.565  1.00  0.00    -0.238 SA 
ENDBRANCH   9  10
ENDBRANCH   7   9
ENDBRANCH   4   7
TORSDOF 3
ENDMDL
MODEL       58
REMARK 921   NORMALIZED FREE ENERGY PREDICTED BY IDOCK:   -4.68 KCAL/MOL
REMARK 922        TOTAL FREE ENERGY PREDICTED BY IDOCK:   -5.77 KCAL/MOL
REMARK 923 INTER-LIGAND FREE ENERGY PREDICTED BY IDOCK:   -5.55 KCAL/MOL
REMARK 924 INTRA-LIGAND FREE ENERGY PREDICTED BY IDOCK:   -0.22 KCAL/MOL
REMARK 927      BINDING AFFINITY PREDICTED BY RF-SCORE:    0.00 PKD
ROOT
HETATM    1  C   UNL     1      -9.324   9.554  67.382  1.00  0.00    -0.153 C  
HETATM    2  C   UNL     1      -8.300  10.561  67.900  1.00  0.00    -0.115 C  
HETATM    3  C   UNL     1      -8.052  11.692  66.898  1.00  0.00    -0.164 C  
HETATM    4  C   UNL     1      -9.346  12.390  66.433  1.00  0.00    -0.219 C  
HETATM    5  C   UNL     1     -10.335  11.329  65.913  1.00  0.00    -0.304 C  
HETATM    6  C   UNL     1     -10.615  10.237  66.947  1.00  0.00    -0.282 C  
ENDROOT
BRANCH   4   7
HETATM    7  N   UNL     1      -9.920  13.184  67.529  1.00  0.00    -0.220 N  
HETATM    8  H   UNL     1      -9.431  13.233  68.423  1.00  0.00     0.000 HD 
BRANCH   7   9
HETATM    9  S   UNL     1     -11.358  14.006  67.331  1.00  0.00    -0.348 SA 
BRANCH   9  10
HETATM   10  C   UNL     1     -11.679  14.498  68.991  1.00  0.00    -0.311 A  
HETATM   11  N   UNL     1     -12.462  13.793  69.776  1.00  0.00    -0.241 NA 
HETATM   12  C   UNL     1     -12.523  14.400  71.021  1.00  0.00    -0.355 A  
HETATM   13  C   UNL     1     -13.260  13.935  72.130  1.00  0.00    -0.536 A  
HETATM   14  C   UNL     1     -13.239  14.651  73.330  1.00  0.00    -0.411 A  
HETATM   15  C   UNL     1     -12.489  15.818  73.442  1.00  0.00    -0.642 A  
HETATM   16  C   UNL     1     -11.746  16.298  72.361  1.00  0.00    -0.512 A  
HETATM   17  C   UNL     1     -11.774  15.571  71.158  1.00  0.00    -0.391 A  
HETATM   18  S   UNL     1     -10.968  15.895  69.674  1.00  0.00    -0.349 SA 
ENDBRANCH   9  10
ENDBRANCH   7   9
ENDBRANCH   4   7
TORSDOF 3
ENDMDL
MODEL       59
REMARK 921   NORMALIZED FREE ENERGY PREDICTED BY IDOCK:   -4.68 KCAL/MOL
REMARK 922        TOTAL FREE ENERGY PREDICTED BY IDOCK:   -5.77 KCAL/MOL
REMARK 923 INTER-LIGAND FREE ENERGY PREDICTED BY IDOCK:   -5.58 KCAL/MOL
REMARK 924 INTRA-LIGAND FREE ENERGY PREDICTED BY IDOCK:   -0.19 KCAL/MOL
REMARK 927      BINDING AFFINITY PREDICTED BY RF-SCORE:    0.00 PKD
ROOT
HETATM    1  C   UNL     1      -7.260  19.723  68.380  1.00  0.00    -0.352 C  
HETATM    2  C   UNL     1      -8.358  20.134  67.402  1.00  0.00    -0.390 C  
HETATM    3  C   UNL     1      -8.267  19.365  66.082  1.00  0.00    -0.319 C  
HETATM    4  C   UNL     1      -8.221  17.835  66.269  1.00  0.00    -0.217 C  
HETATM    5  C   UNL     1      -7.091  17.479  67.255  1.00  0.00    -0.190 C  
HETATM    6  C   UNL     1      -7.228  18.214  68.589  1.00  0.00    -0.288 C  
ENDROOT
BRANCH   4   7
HETATM    7  N   UNL     1      -9.526  17.337  66.729  1.00  0.00    -0.255 N  
HETATM    8  H   UNL     1      -9.931  17.708  67.589  1.00  0.00     0.000 HD 
BRANCH   7   9
HETATM    9  S   UNL     1     -10.353  16.174  65.865  1.00  0.00    -0.375 SA 
BRANCH   9  10
HETATM   10  C   UNL     1     -10.933  15.152  67.175  1.00  0.00    -0.326 A  
HETATM   11  N   UNL     1     -10.951  13.842  67.067  1.00  0.00    -0.292 NA 
HETATM   12  C   UNL     1     -11.438  13.294  68.244  1.00  0.00    -0.316 A  
HETATM   13  C   UNL     1     -11.601  11.919  68.509  1.00  0.00    -0.375 A  
HETATM   14  C   UNL     1     -12.112  11.503  69.741  1.00  0.00    -0.374 A  
HETATM   15  C   UNL     1     -12.456  12.437  70.714  1.00  0.00    -0.356 A  
HETATM   16  C   UNL     1     -12.301  13.805  70.480  1.00  0.00    -0.429 A  
HETATM   17  C   UNL     1     -11.786  14.213  69.237  1.00  0.00    -0.338 A  
HETATM   18  S   UNL     1     -11.472  15.803  68.661  1.00  0.00    -0.384 SA 
ENDBRANCH   9  10
ENDBRANCH   7   9
ENDBRANCH   4   7
TORSDOF 3
ENDMDL
MODEL       60
REMARK 921   NORMALIZED FREE ENERGY PREDICTED BY IDOCK:   -4.65 KCAL/MOL
REMARK 922        TOTAL FREE ENERGY PREDICTED BY IDOCK:   -5.74 KCAL/MOL
REMARK 923 INTER-LIGAND FREE ENERGY PREDICTED BY IDOCK:   -5.47 KCAL/MOL
REMARK 924 INTRA-LIGAND FREE ENERGY PREDICTED BY IDOCK:   -0.27 KCAL/MOL
REMARK 927      BINDING AFFINITY PREDICTED BY RF-SCORE:    0.00 PKD
ROOT
HETATM    1  C   UNL     1     -10.136  10.035  67.370  1.00  0.00    -0.256 C  
HETATM    2  C   UNL     1      -8.811  10.761  67.595  1.00  0.00    -0.132 C  
HETATM    3  C   UNL     1      -8.790  12.135  66.921  1.00  0.00    -0.202 C  
HETATM    4  C   UNL     1      -9.992  13.021  67.304  1.00  0.00    -0.232 C  
HETATM    5  C   UNL     1     -11.297  12.243  67.047  1.00  0.00    -0.395 C  
HETATM    6  C   UNL     1     -11.326  10.898  67.773  1.00  0.00    -0.366 C  
ENDROOT
BRANCH   4   7
HETATM    7  N   UNL     1      -9.880  13.457  68.703  1.00  0.00    -0.392 N  
HETATM    8  H   UNL     1      -9.107  13.116  69.275  1.00  0.00     0.000 HD 
BRANCH   7   9
HETATM    9  S   UNL     1     -10.999  14.499  69.369  1.00  0.00    -0.225 SA 
BRANCH   9  10
HETATM   10  C   UNL     1     -10.364  16.047  68.822  1.00  0.00    -0.237 A  
HETATM   11  N   UNL     1     -11.137  16.943  68.251  1.00  0.00    -0.299 NA 
HETATM   12  C   UNL     1     -10.382  18.064  67.939  1.00  0.00    -0.392 A  
HETATM   13  C   UNL     1     -10.862  19.236  67.320  1.00  0.00    -0.554 A  
HETATM   14  C   UNL     1      -9.987  20.292  67.054  1.00  0.00    -0.601 A  
HETATM   15  C   UNL     1      -8.643  20.199  67.403  1.00  0.00    -0.413 A  
HETATM   16  C   UNL     1      -8.141  19.052  68.021  1.00  0.00    -0.328 A  
HETATM   17  C   UNL     1      -9.030  17.994  68.283  1.00  0.00    -0.282 A  
HETATM   18  S   UNL     1      -8.722  16.477  69.032  1.00  0.00    -0.165 SA 
ENDBRANCH   9  10
ENDBRANCH   7   9
ENDBRANCH   4   7
TORSDOF 3
ENDMDL
MODEL       61
REMARK 921   NORMALIZED FREE ENERGY PREDICTED BY IDOCK:   -4.64 KCAL/MOL
REMARK 922        TOTAL FREE ENERGY PREDICTED BY IDOCK:   -5.73 KCAL/MOL
REMARK 923 INTER-LIGAND FREE ENERGY PREDICTED BY IDOCK:   -5.43 KCAL/MOL
REMARK 924 INTRA-LIGAND FREE ENERGY PREDICTED BY IDOCK:   -0.30 KCAL/MOL
REMARK 927      BINDING AFFINITY PREDICTED BY RF-SCORE:    0.00 PKD
ROOT
HETATM    1  C   UNL     1      -9.044  19.109  67.218  1.00  0.00    -0.334 C  
HETATM    2  C   UNL     1      -8.033  18.194  66.531  1.00  0.00    -0.290 C  
HETATM    3  C   UNL     1      -8.170  16.741  66.992  1.00  0.00    -0.224 C  
HETATM    4  C   UNL     1      -9.606  16.193  66.865  1.00  0.00    -0.230 C  
HETATM    5  C   UNL     1     -10.578  17.149  67.583  1.00  0.00    -0.343 C  
HETATM    6  C   UNL     1     -10.468  18.586  67.072  1.00  0.00    -0.440 C  
ENDROOT
BRANCH   4   7
HETATM    7  N   UNL     1      -9.960  16.013  65.449  1.00  0.00    -0.237 N  
HETATM    8  H   UNL     1      -9.312  16.325  64.725  1.00  0.00     0.000 HD 
BRANCH   7   9
HETATM    9  S   UNL     1     -11.407  15.309  65.010  1.00  0.00    -0.321 SA 
BRANCH   9  10
HETATM   10  C   UNL     1     -11.173  13.677  65.630  1.00  0.00    -0.297 A  
HETATM   11  N   UNL     1     -10.508  12.773  64.947  1.00  0.00    -0.309 NA 
HETATM   12  C   UNL     1     -10.465  11.593  65.675  1.00  0.00    -0.268 A  
HETATM   13  C   UNL     1      -9.836  10.398  65.271  1.00  0.00    -0.361 A  
HETATM   14  C   UNL     1      -9.876   9.275  66.103  1.00  0.00    -0.363 A  
HETATM   15  C   UNL     1     -10.527   9.330  67.332  1.00  0.00    -0.340 A  
HETATM   16  C   UNL     1     -11.154  10.503  67.758  1.00  0.00    -0.382 A  
HETATM   17  C   UNL     1     -11.109  11.626  66.914  1.00  0.00    -0.308 A  
HETATM   18  S   UNL     1     -11.768  13.196  67.159  1.00  0.00    -0.378 SA 
ENDBRANCH   9  10
ENDBRANCH   7   9
ENDBRANCH   4   7
TORSDOF 3
ENDMDL
MODEL       62
REMARK 921   NORMALIZED FREE ENERGY PREDICTED BY IDOCK:   -4.61 KCAL/MOL
REMARK 922        TOTAL FREE ENERGY PREDICTED BY IDOCK:   -5.68 KCAL/MOL
REMARK 923 INTER-LIGAND FREE ENERGY PREDICTED BY IDOCK:   -5.42 KCAL/MOL
REMARK 924 INTRA-LIGAND FREE ENERGY PREDICTED BY IDOCK:   -0.27 KCAL/MOL
REMARK 927      BINDING AFFINITY PREDICTED BY RF-SCORE:    0.00 PKD
ROOT
HETATM    1  C   UNL     1     -11.722   7.641  72.182  1.00  0.00    -0.355 C  
HETATM    2  C   UNL     1     -10.841   8.817  71.769  1.00  0.00    -0.416 C  
HETATM    3  C   UNL     1      -9.726   8.388  70.811  1.00  0.00    -0.207 C  
HETATM    4  C   UNL     1     -10.241   7.610  69.584  1.00  0.00    -0.204 C  
HETATM    5  C   UNL     1     -11.113   6.433  70.061  1.00  0.00    -0.442 C  
HETATM    6  C   UNL     1     -12.256   6.884  70.971  1.00  0.00    -0.427 C  
ENDROOT
BRANCH   4   7
HETATM    7  N   UNL     1     -10.977   8.508  68.683  1.00  0.00    -0.435 N  
HETATM    8  H   UNL     1     -11.864   8.909  68.988  1.00  0.00     0.000 HD 
BRANCH   7   9
HETATM    9  S   UNL     1     -10.384   8.878  67.168  1.00  0.00    -0.274 SA 
BRANCH   9  10
HETATM   10  C   UNL     1     -10.592  10.627  67.159  1.00  0.00    -0.260 A  
HETATM   11  N   UNL     1     -11.252  11.244  68.113  1.00  0.00    -0.261 NA 
HETATM   12  C   UNL     1     -11.247  12.608  67.862  1.00  0.00    -0.266 A  
HETATM   13  C   UNL     1     -11.849  13.597  68.666  1.00  0.00    -0.409 A  
HETATM   14  C   UNL     1     -11.773  14.941  68.290  1.00  0.00    -0.342 A  
HETATM   15  C   UNL     1     -11.099  15.312  67.130  1.00  0.00    -0.323 A  
HETATM   16  C   UNL     1     -10.489  14.354  66.319  1.00  0.00    -0.292 A  
HETATM   17  C   UNL     1     -10.572  13.004  66.705  1.00  0.00    -0.266 A  
HETATM   18  S   UNL     1      -9.923  11.611  65.932  1.00  0.00    -0.240 SA 
ENDBRANCH   9  10
ENDBRANCH   7   9
ENDBRANCH   4   7
TORSDOF 3
ENDMDL
MODEL       63
REMARK 921   NORMALIZED FREE ENERGY PREDICTED BY IDOCK:   -4.60 KCAL/MOL
REMARK 922        TOTAL FREE ENERGY PREDICTED BY IDOCK:   -5.68 KCAL/MOL
REMARK 923 INTER-LIGAND FREE ENERGY PREDICTED BY IDOCK:   -5.36 KCAL/MOL
REMARK 924 INTRA-LIGAND FREE ENERGY PREDICTED BY IDOCK:   -0.32 KCAL/MOL
REMARK 927      BINDING AFFINITY PREDICTED BY RF-SCORE:    0.00 PKD
ROOT
HETATM    1  C   UNL     1      -7.860  14.182  67.429  1.00  0.00    -0.195 C  
HETATM    2  C   UNL     1      -9.246  13.717  66.991  1.00  0.00    -0.256 C  
HETATM    3  C   UNL     1      -9.215  12.312  66.386  1.00  0.00    -0.203 C  
HETATM    4  C   UNL     1      -8.531  11.271  67.295  1.00  0.00    -0.144 C  
HETATM    5  C   UNL     1      -7.136  11.788  67.696  1.00  0.00    -0.107 C  
HETATM    6  C   UNL     1      -7.191  13.168  68.350  1.00  0.00    -0.107 C  
ENDROOT
BRANCH   4   7
HETATM    7  N   UNL     1      -9.369  10.990  68.469  1.00  0.00    -0.182 N  
HETATM    8  H   UNL     1      -8.959  11.034  69.402  1.00  0.00     0.000 HD 
BRANCH   7   9
HETATM    9  S   UNL     1     -10.982  10.599  68.298  1.00  0.00    -0.284 SA 
BRANCH   9  10
HETATM   10  C   UNL     1     -11.709  11.720  69.445  1.00  0.00    -0.341 A  
HETATM   11  N   UNL     1     -11.682  13.018  69.246  1.00  0.00    -0.304 NA 
HETATM   12  C   UNL     1     -12.337  13.653  70.290  1.00  0.00    -0.322 A  
HETATM   13  C   UNL     1     -12.517  15.045  70.426  1.00  0.00    -0.407 A  
HETATM   14  C   UNL     1     -13.194  15.554  71.539  1.00  0.00    -0.589 A  
HETATM   15  C   UNL     1     -13.698  14.695  72.511  1.00  0.00    -0.572 A  
HETATM   16  C   UNL     1     -13.538  13.313  72.399  1.00  0.00    -0.694 A  
HETATM   17  C   UNL     1     -12.855  12.811  71.277  1.00  0.00    -0.262 A  
HETATM   18  S   UNL     1     -12.511  11.179  70.854  1.00  0.00    -0.394 SA 
ENDBRANCH   9  10
ENDBRANCH   7   9
ENDBRANCH   4   7
TORSDOF 3
ENDMDL
MODEL       64
REMARK 921   NORMALIZED FREE ENERGY PREDICTED BY IDOCK:   -4.60 KCAL/MOL
REMARK 922        TOTAL FREE ENERGY PREDICTED BY IDOCK:   -5.68 KCAL/MOL
REMARK 923 INTER-LIGAND FREE ENERGY PREDICTED BY IDOCK:   -5.41 KCAL/MOL
REMARK 924 INTRA-LIGAND FREE ENERGY PREDICTED BY IDOCK:   -0.26 KCAL/MOL
REMARK 927      BINDING AFFINITY PREDICTED BY RF-SCORE:    0.00 PKD
ROOT
HETATM    1  C   UNL     1     -12.243  13.378  70.322  1.00  0.00    -0.405 C  
HETATM    2  C   UNL     1     -12.257  14.889  70.535  1.00  0.00    -0.388 C  
HETATM    3  C   UNL     1     -10.895  15.522  70.244  1.00  0.00    -0.358 C  
HETATM    4  C   UNL     1     -10.335  15.154  68.855  1.00  0.00    -0.243 C  
HETATM    5  C   UNL     1     -10.335  13.621  68.700  1.00  0.00    -0.223 C  
HETATM    6  C   UNL     1     -11.716  13.010  68.939  1.00  0.00    -0.371 C  
ENDROOT
BRANCH   4   7
HETATM    7  N   UNL     1     -11.118  15.811  67.798  1.00  0.00    -0.331 N  
HETATM    8  H   UNL     1     -12.052  16.164  68.010  1.00  0.00     0.000 HD 
BRANCH   7   9
HETATM    9  S   UNL     1     -10.503  15.987  66.258  1.00  0.00    -0.308 SA 
BRANCH   9  10
HETATM   10  C   UNL     1      -9.374  17.314  66.512  1.00  0.00    -0.264 A  
HETATM   11  N   UNL     1      -8.227  17.372  65.872  1.00  0.00    -0.552 NA 
HETATM   12  C   UNL     1      -7.552  18.522  66.250  1.00  0.00    -0.255 A  
HETATM   13  C   UNL     1      -6.289  18.931  65.775  1.00  0.00    -0.268 A  
HETATM   14  C   UNL     1      -5.717  20.116  66.248  1.00  0.00    -0.186 A  
HETATM   15  C   UNL     1      -6.389  20.899  67.181  1.00  0.00    -0.371 A  
HETATM   16  C   UNL     1      -7.643  20.520  67.666  1.00  0.00    -0.304 A  
HETATM   17  C   UNL     1      -8.209  19.327  67.184  1.00  0.00    -0.268 A  
HETATM   18  S   UNL     1      -9.722  18.608  67.575  1.00  0.00    -0.321 SA 
ENDBRANCH   9  10
ENDBRANCH   7   9
ENDBRANCH   4   7
TORSDOF 3
ENDMDL
MODEL       65
REMARK 921   NORMALIZED FREE ENERGY PREDICTED BY IDOCK:   -4.58 KCAL/MOL
REMARK 922        TOTAL FREE ENERGY PREDICTED BY IDOCK:   -5.65 KCAL/MOL
REMARK 923 INTER-LIGAND FREE ENERGY PREDICTED BY IDOCK:   -5.47 KCAL/MOL
REMARK 924 INTRA-LIGAND FREE ENERGY PREDICTED BY IDOCK:   -0.19 KCAL/MOL
REMARK 927      BINDING AFFINITY PREDICTED BY RF-SCORE:    0.00 PKD
ROOT
HETATM    1  C   UNL     1     -10.312  14.238  64.814  1.00  0.00    -0.373 C  
HETATM    2  C   UNL     1     -10.382  14.752  66.250  1.00  0.00    -0.305 C  
HETATM    3  C   UNL     1     -11.801  14.673  66.818  1.00  0.00    -0.334 C  
HETATM    4  C   UNL     1     -12.433  13.273  66.688  1.00  0.00    -0.066 C  
HETATM    5  C   UNL     1     -12.343  12.811  65.221  1.00  0.00    -0.546 C  
HETATM    6  C   UNL     1     -10.911  12.842  64.686  1.00  0.00    -0.357 C  
ENDROOT
BRANCH   4   7
HETATM    7  N   UNL     1     -11.774  12.328  67.601  1.00  0.00    -0.350 N  
HETATM    8  H   UNL     1     -11.493  11.409  67.257  1.00  0.00     0.000 HD 
BRANCH   7   9
HETATM    9  S   UNL     1     -11.480  12.736  69.192  1.00  0.00    -0.306 SA 
BRANCH   9  10
HETATM   10  C   UNL     1     -11.590  11.154  69.956  1.00  0.00    -0.338 A  
HETATM   11  N   UNL     1     -10.803  10.164  69.601  1.00  0.00    -0.245 NA 
HETATM   12  C   UNL     1     -11.097   9.049  70.372  1.00  0.00    -0.244 A  
HETATM   13  C   UNL     1     -10.459   7.795  70.286  1.00  0.00    -0.225 A  
HETATM   14  C   UNL     1     -10.861   6.750  71.123  1.00  0.00    -0.275 A  
HETATM   15  C   UNL     1     -11.883   6.941  72.048  1.00  0.00    -0.345 A  
HETATM   16  C   UNL     1     -12.529   8.174  72.158  1.00  0.00    -0.364 A  
HETATM   17  C   UNL     1     -12.117   9.218  71.311  1.00  0.00    -0.337 A  
HETATM   18  S   UNL     1     -12.702  10.834  71.215  1.00  0.00    -0.457 SA 
ENDBRANCH   9  10
ENDBRANCH   7   9
ENDBRANCH   4   7
TORSDOF 3
ENDMDL
MODEL       66
REMARK 921   NORMALIZED FREE ENERGY PREDICTED BY IDOCK:   -4.58 KCAL/MOL
REMARK 922        TOTAL FREE ENERGY PREDICTED BY IDOCK:   -5.65 KCAL/MOL
REMARK 923 INTER-LIGAND FREE ENERGY PREDICTED BY IDOCK:   -5.34 KCAL/MOL
REMARK 924 INTRA-LIGAND FREE ENERGY PREDICTED BY IDOCK:   -0.31 KCAL/MOL
REMARK 927      BINDING AFFINITY PREDICTED BY RF-SCORE:    0.00 PKD
ROOT
HETATM    1  C   UNL     1      -9.417   5.827  68.354  1.00  0.00    -0.137 C  
HETATM    2  C   UNL     1     -10.934   5.877  68.524  1.00  0.00    -0.277 C  
HETATM    3  C   UNL     1     -11.338   6.317  69.934  1.00  0.00    -0.504 C  
HETATM    4  C   UNL     1     -10.676   7.638  70.374  1.00  0.00    -0.236 C  
HETATM    5  C   UNL     1      -9.150   7.526  70.190  1.00  0.00    -0.147 C  
HETATM    6  C   UNL     1      -8.761   7.141  68.763  1.00  0.00    -0.124 C  
ENDROOT
BRANCH   4   7
HETATM    7  N   UNL     1     -11.237   8.767  69.618  1.00  0.00    -0.436 N  
HETATM    8  H   UNL     1     -12.007   8.604  68.969  1.00  0.00     0.000 HD 
BRANCH   7   9
HETATM    9  S   UNL     1     -10.632  10.311  69.805  1.00  0.00    -0.268 SA 
BRANCH   9  10
HETATM   10  C   UNL     1     -10.837  10.938  68.173  1.00  0.00    -0.234 A  
HETATM   11  N   UNL     1     -10.309  10.332  67.134  1.00  0.00    -0.225 NA 
HETATM   12  C   UNL     1     -10.640  11.030  65.982  1.00  0.00    -0.213 A  
HETATM   13  C   UNL     1     -10.259  10.684  64.669  1.00  0.00    -0.404 A  
HETATM   14  C   UNL     1     -10.658  11.484  63.595  1.00  0.00    -0.491 A  
HETATM   15  C   UNL     1     -11.436  12.618  63.811  1.00  0.00    -0.539 A  
HETATM   16  C   UNL     1     -11.831  12.981  65.100  1.00  0.00    -0.404 A  
HETATM   17  C   UNL     1     -11.424  12.170  66.173  1.00  0.00    -0.371 A  
HETATM   18  S   UNL     1     -11.755  12.344  67.853  1.00  0.00    -0.326 SA 
ENDBRANCH   9  10
ENDBRANCH   7   9
ENDBRANCH   4   7
TORSDOF 3
ENDMDL
MODEL       67
REMARK 921   NORMALIZED FREE ENERGY PREDICTED BY IDOCK:   -4.55 KCAL/MOL
REMARK 922        TOTAL FREE ENERGY PREDICTED BY IDOCK:   -5.62 KCAL/MOL
REMARK 923 INTER-LIGAND FREE ENERGY PREDICTED BY IDOCK:   -5.41 KCAL/MOL
REMARK 924 INTRA-LIGAND FREE ENERGY PREDICTED BY IDOCK:   -0.21 KCAL/MOL
REMARK 927      BINDING AFFINITY PREDICTED BY RF-SCORE:    0.00 PKD
ROOT
HETATM    1  C   UNL     1      -6.548  20.466  65.792  1.00  0.00    -0.272 C  
HETATM    2  C   UNL     1      -6.264  19.173  65.032  1.00  0.00    -0.317 C  
HETATM    3  C   UNL     1      -6.089  17.981  65.976  1.00  0.00    -0.266 C  
HETATM    4  C   UNL     1      -7.258  17.809  66.966  1.00  0.00    -0.182 C  
HETATM    5  C   UNL     1      -7.492  19.139  67.709  1.00  0.00    -0.283 C  
HETATM    6  C   UNL     1      -7.721  20.309  66.752  1.00  0.00    -0.333 C  
ENDROOT
BRANCH   4   7
HETATM    7  N   UNL     1      -8.465  17.358  66.258  1.00  0.00    -0.248 N  
HETATM    8  H   UNL     1      -8.465  17.322  65.238  1.00  0.00     0.000 HD 
BRANCH   7   9
HETATM    9  S   UNL     1      -9.833  16.905  67.097  1.00  0.00    -0.279 SA 
BRANCH   9  10
HETATM   10  C   UNL     1     -10.237  15.404  66.269  1.00  0.00    -0.290 A  
HETATM   11  N   UNL     1     -11.217  15.345  65.397  1.00  0.00    -0.308 NA 
HETATM   12  C   UNL     1     -11.301  14.055  64.893  1.00  0.00    -0.354 A  
HETATM   13  C   UNL     1     -12.227  13.604  63.931  1.00  0.00    -0.429 A  
HETATM   14  C   UNL     1     -12.206  12.270  63.515  1.00  0.00    -0.669 A  
HETATM   15  C   UNL     1     -11.270  11.383  64.040  1.00  0.00    -0.350 A  
HETATM   16  C   UNL     1     -10.338  11.804  64.990  1.00  0.00    -0.325 A  
HETATM   17  C   UNL     1     -10.369  13.148  65.402  1.00  0.00    -0.301 A  
HETATM   18  S   UNL     1      -9.359  13.961  66.534  1.00  0.00    -0.205 SA 
ENDBRANCH   9  10
ENDBRANCH   7   9
ENDBRANCH   4   7
TORSDOF 3
ENDMDL
MODEL       68
REMARK 921   NORMALIZED FREE ENERGY PREDICTED BY IDOCK:   -4.54 KCAL/MOL
REMARK 922        TOTAL FREE ENERGY PREDICTED BY IDOCK:   -5.60 KCAL/MOL
REMARK 923 INTER-LIGAND FREE ENERGY PREDICTED BY IDOCK:   -6.00 KCAL/MOL
REMARK 924 INTRA-LIGAND FREE ENERGY PREDICTED BY IDOCK:    0.40 KCAL/MOL
REMARK 927      BINDING AFFINITY PREDICTED BY RF-SCORE:    0.00 PKD
ROOT
HETATM    1  C   UNL     1     -13.198  16.020  73.214  1.00  0.00    -0.651 C  
HETATM    2  C   UNL     1     -12.080  16.346  72.226  1.00  0.00    -0.462 C  
HETATM    3  C   UNL     1     -11.325  15.091  71.781  1.00  0.00    -0.302 C  
HETATM    4  C   UNL     1     -12.249  13.982  71.241  1.00  0.00    -0.310 C  
HETATM    5  C   UNL     1     -13.348  13.688  72.281  1.00  0.00    -0.622 C  
HETATM    6  C   UNL     1     -14.130  14.942  72.672  1.00  0.00    -0.358 C  
ENDROOT
BRANCH   4   7
HETATM    7  N   UNL     1     -12.815  14.375  69.942  1.00  0.00    -0.481 N  
HETATM    8  H   UNL     1     -13.780  14.701  69.892  1.00  0.00     0.000 HD 
BRANCH   7   9
HETATM    9  S   UNL     1     -11.900  14.296  68.549  1.00  0.00    -0.330 SA 
BRANCH   9  10
HETATM   10  C   UNL     1     -11.443  12.596  68.559  1.00  0.00    -0.311 A  
HETATM   11  N   UNL     1     -11.603  11.849  69.628  1.00  0.00    -0.316 NA 
HETATM   12  C   UNL     1     -11.177  10.559  69.350  1.00  0.00    -0.269 A  
HETATM   13  C   UNL     1     -11.197   9.472  70.248  1.00  0.00    -0.307 A  
HETATM   14  C   UNL     1     -10.728   8.221  69.838  1.00  0.00    -0.234 A  
HETATM   15  C   UNL     1     -10.247   8.037  68.544  1.00  0.00    -0.231 A  
HETATM   16  C   UNL     1     -10.220   9.095  67.633  1.00  0.00    -0.293 A  
HETATM   17  C   UNL     1     -10.693  10.350  68.056  1.00  0.00    -0.249 A  
HETATM   18  S   UNL     1     -10.799  11.824  67.176  1.00  0.00    -0.273 SA 
ENDBRANCH   9  10
ENDBRANCH   7   9
ENDBRANCH   4   7
TORSDOF 3
ENDMDL
MODEL       69
REMARK 921   NORMALIZED FREE ENERGY PREDICTED BY IDOCK:   -4.53 KCAL/MOL
REMARK 922        TOTAL FREE ENERGY PREDICTED BY IDOCK:   -5.60 KCAL/MOL
REMARK 923 INTER-LIGAND FREE ENERGY PREDICTED BY IDOCK:   -5.52 KCAL/MOL
REMARK 924 INTRA-LIGAND FREE ENERGY PREDICTED BY IDOCK:   -0.08 KCAL/MOL
REMARK 927      BINDING AFFINITY PREDICTED BY RF-SCORE:    0.00 PKD
ROOT
HETATM    1  C   UNL     1     -11.429  12.107  68.399  1.00  0.00    -0.356 C  
HETATM    2  C   UNL     1      -9.910  12.209  68.283  1.00  0.00    -0.212 C  
HETATM    3  C   UNL     1      -9.431  11.996  66.845  1.00  0.00    -0.206 C  
HETATM    4  C   UNL     1     -10.138  12.910  65.824  1.00  0.00    -0.287 C  
HETATM    5  C   UNL     1     -11.664  12.758  65.981  1.00  0.00    -0.470 C  
HETATM    6  C   UNL     1     -12.133  13.029  67.410  1.00  0.00    -0.290 C  
ENDROOT
BRANCH   4   7
HETATM    7  N   UNL     1      -9.706  14.303  66.000  1.00  0.00    -0.406 N  
HETATM    8  H   UNL     1      -8.797  14.498  66.420  1.00  0.00     0.000 HD 
BRANCH   7   9
HETATM    9  S   UNL     1     -10.680  15.571  65.522  1.00  0.00    -0.393 SA 
BRANCH   9  10
HETATM   10  C   UNL     1      -9.686  16.941  66.006  1.00  0.00    -0.233 A  
HETATM   11  N   UNL     1      -8.375  16.898  65.933  1.00  0.00    -0.485 NA 
HETATM   12  C   UNL     1      -7.854  18.110  66.360  1.00  0.00    -0.262 A  
HETATM   13  C   UNL     1      -6.486  18.445  66.420  1.00  0.00    -0.235 A  
HETATM   14  C   UNL     1      -6.097  19.707  66.880  1.00  0.00    -0.180 A  
HETATM   15  C   UNL     1      -7.053  20.639  67.273  1.00  0.00    -0.385 A  
HETATM   16  C   UNL     1      -8.415  20.335  67.219  1.00  0.00    -0.415 A  
HETATM   17  C   UNL     1      -8.795  19.064  66.756  1.00  0.00    -0.310 A  
HETATM   18  S   UNL     1     -10.373  18.404  66.566  1.00  0.00    -0.392 SA 
ENDBRANCH   9  10
ENDBRANCH   7   9
ENDBRANCH   4   7
TORSDOF 3
ENDMDL
MODEL       70
REMARK 921   NORMALIZED FREE ENERGY PREDICTED BY IDOCK:   -4.51 KCAL/MOL
REMARK 922        TOTAL FREE ENERGY PREDICTED BY IDOCK:   -5.57 KCAL/MOL
REMARK 923 INTER-LIGAND FREE ENERGY PREDICTED BY IDOCK:   -5.48 KCAL/MOL
REMARK 924 INTRA-LIGAND FREE ENERGY PREDICTED BY IDOCK:   -0.09 KCAL/MOL
REMARK 927      BINDING AFFINITY PREDICTED BY RF-SCORE:    0.00 PKD
ROOT
HETATM    1  C   UNL     1      -9.255  19.997  66.675  1.00  0.00    -0.484 C  
HETATM    2  C   UNL     1      -8.322  18.827  66.373  1.00  0.00    -0.294 C  
HETATM    3  C   UNL     1      -7.924  18.069  67.642  1.00  0.00    -0.221 C  
HETATM    4  C   UNL     1      -9.133  17.623  68.490  1.00  0.00    -0.279 C  
HETATM    5  C   UNL     1     -10.031  18.843  68.772  1.00  0.00    -0.466 C  
HETATM    6  C   UNL     1     -10.465  19.555  67.490  1.00  0.00    -0.596 C  
ENDROOT
BRANCH   4   7
HETATM    7  N   UNL     1      -9.866  16.548  67.808  1.00  0.00    -0.237 N  
HETATM    8  H   UNL     1      -9.387  15.976  67.111  1.00  0.00     0.000 HD 
BRANCH   7   9
HETATM    9  S   UNL     1     -11.470  16.248  68.155  1.00  0.00    -0.055 SA 
BRANCH   9  10
HETATM   10  C   UNL     1     -11.380  14.566  68.667  1.00  0.00    -0.276 A  
HETATM   11  N   UNL     1     -12.062  14.126  69.701  1.00  0.00    -0.334 NA 
HETATM   12  C   UNL     1     -11.816  12.771  69.866  1.00  0.00    -0.301 A  
HETATM   13  C   UNL     1     -12.372  11.948  70.866  1.00  0.00    -0.400 A  
HETATM   14  C   UNL     1     -12.031  10.594  70.922  1.00  0.00    -0.469 A  
HETATM   15  C   UNL     1     -11.151  10.049  69.992  1.00  0.00    -0.350 A  
HETATM   16  C   UNL     1     -10.590  10.840  68.987  1.00  0.00    -0.250 A  
HETATM   17  C   UNL     1     -10.938  12.201  68.940  1.00  0.00    -0.224 A  
HETATM   18  S   UNL     1     -10.430  13.415  67.832  1.00  0.00    -0.245 SA 
ENDBRANCH   9  10
ENDBRANCH   7   9
ENDBRANCH   4   7
TORSDOF 3
ENDMDL
MODEL       71
REMARK 921   NORMALIZED FREE ENERGY PREDICTED BY IDOCK:   -4.50 KCAL/MOL
REMARK 922        TOTAL FREE ENERGY PREDICTED BY IDOCK:   -5.56 KCAL/MOL
REMARK 923 INTER-LIGAND FREE ENERGY PREDICTED BY IDOCK:   -5.37 KCAL/MOL
REMARK 924 INTRA-LIGAND FREE ENERGY PREDICTED BY IDOCK:   -0.19 KCAL/MOL
REMARK 927      BINDING AFFINITY PREDICTED BY RF-SCORE:    0.00 PKD
ROOT
HETATM    1  C   UNL     1     -10.566   6.200  72.881  1.00  0.00    -0.257 C  
HETATM    2  C   UNL     1     -10.867   5.667  71.482  1.00  0.00    -0.297 C  
HETATM    3  C   UNL     1     -11.892   6.534  70.748  1.00  0.00    -0.394 C  
HETATM    4  C   UNL     1     -11.515   8.029  70.713  1.00  0.00    -0.263 C  
HETATM    5  C   UNL     1     -11.233   8.512  72.149  1.00  0.00    -0.432 C  
HETATM    6  C   UNL     1     -10.165   7.670  72.849  1.00  0.00    -0.356 C  
ENDROOT
BRANCH   4   7
HETATM    7  N   UNL     1     -10.363   8.244  69.826  1.00  0.00    -0.212 N  
HETATM    8  H   UNL     1     -10.093   7.513  69.167  1.00  0.00     0.000 HD 
BRANCH   7   9
HETATM    9  S   UNL     1      -9.491   9.665  69.881  1.00  0.00    -0.241 SA 
BRANCH   9  10
HETATM   10  C   UNL     1     -10.126  10.488  68.460  1.00  0.00    -0.173 A  
HETATM   11  N   UNL     1      -9.689  10.208  67.253  1.00  0.00    -0.162 NA 
HETATM   12  C   UNL     1     -10.368  10.989  66.330  1.00  0.00    -0.250 A  
HETATM   13  C   UNL     1     -10.179  10.968  64.933  1.00  0.00    -0.373 A  
HETATM   14  C   UNL     1     -10.929  11.818  64.116  1.00  0.00    -0.437 A  
HETATM   15  C   UNL     1     -11.870  12.680  64.671  1.00  0.00    -0.437 A  
HETATM   16  C   UNL     1     -12.082  12.718  66.050  1.00  0.00    -0.458 A  
HETATM   17  C   UNL     1     -11.321  11.860  66.864  1.00  0.00    -0.330 A  
HETATM   18  S   UNL     1     -11.358  11.668  68.573  1.00  0.00    -0.305 SA 
ENDBRANCH   9  10
ENDBRANCH   7   9
ENDBRANCH   4   7
TORSDOF 3
ENDMDL
MODEL       72
REMARK 921   NORMALIZED FREE ENERGY PREDICTED BY IDOCK:   -4.50 KCAL/MOL
REMARK 922        TOTAL FREE ENERGY PREDICTED BY IDOCK:   -5.56 KCAL/MOL
REMARK 923 INTER-LIGAND FREE ENERGY PREDICTED BY IDOCK:   -5.37 KCAL/MOL
REMARK 924 INTRA-LIGAND FREE ENERGY PREDICTED BY IDOCK:   -0.18 KCAL/MOL
REMARK 927      BINDING AFFINITY PREDICTED BY RF-SCORE:    0.00 PKD
ROOT
HETATM    1  C   UNL     1     -11.379   7.871  72.812  1.00  0.00    -0.453 C  
HETATM    2  C   UNL     1     -12.516   8.580  72.081  1.00  0.00    -0.437 C  
HETATM    3  C   UNL     1     -12.030   9.826  71.338  1.00  0.00    -0.493 C  
HETATM    4  C   UNL     1     -10.840   9.551  70.397  1.00  0.00    -0.282 C  
HETATM    5  C   UNL     1      -9.722   8.846  71.189  1.00  0.00    -0.344 C  
HETATM    6  C   UNL     1     -10.211   7.572  71.880  1.00  0.00    -0.221 C  
ENDROOT
BRANCH   4   7
HETATM    7  N   UNL     1     -11.276   8.757  69.240  1.00  0.00    -0.419 N  
HETATM    8  H   UNL     1     -12.269   8.706  69.011  1.00  0.00     0.000 HD 
BRANCH   7   9
HETATM    9  S   UNL     1     -10.172   7.936  68.297  1.00  0.00    -0.201 SA 
BRANCH   9  10
HETATM   10  C   UNL     1     -10.096   8.996  66.893  1.00  0.00    -0.267 A  
HETATM   11  N   UNL     1     -10.757  10.131  66.854  1.00  0.00    -0.200 NA 
HETATM   12  C   UNL     1     -10.504  10.764  65.647  1.00  0.00    -0.186 A  
HETATM   13  C   UNL     1     -11.032  12.007  65.241  1.00  0.00    -0.356 A  
HETATM   14  C   UNL     1     -10.699  12.529  63.987  1.00  0.00    -0.449 A  
HETATM   15  C   UNL     1      -9.844  11.833  63.138  1.00  0.00    -0.363 A  
HETATM   16  C   UNL     1      -9.303  10.602  63.517  1.00  0.00    -0.319 A  
HETATM   17  C   UNL     1      -9.644  10.086  64.779  1.00  0.00    -0.308 A  
HETATM   18  S   UNL     1      -9.140   8.621  65.527  1.00  0.00    -0.074 SA 
ENDBRANCH   9  10
ENDBRANCH   7   9
ENDBRANCH   4   7
TORSDOF 3
ENDMDL
MODEL       73
REMARK 921   NORMALIZED FREE ENERGY PREDICTED BY IDOCK:   -4.49 KCAL/MOL
REMARK 922        TOTAL FREE ENERGY PREDICTED BY IDOCK:   -5.55 KCAL/MOL
REMARK 923 INTER-LIGAND FREE ENERGY PREDICTED BY IDOCK:   -5.32 KCAL/MOL
REMARK 924 INTRA-LIGAND FREE ENERGY PREDICTED BY IDOCK:   -0.23 KCAL/MOL
REMARK 927      BINDING AFFINITY PREDICTED BY RF-SCORE:    0.00 PKD
ROOT
HETATM    1  C   UNL     1      -6.514  20.247  66.305  1.00  0.00    -0.246 C  
HETATM    2  C   UNL     1      -6.527  18.788  65.854  1.00  0.00    -0.270 C  
HETATM    3  C   UNL     1      -6.501  17.822  67.040  1.00  0.00    -0.189 C  
HETATM    4  C   UNL     1      -7.606  18.101  68.079  1.00  0.00    -0.242 C  
HETATM    5  C   UNL     1      -7.538  19.581  68.504  1.00  0.00    -0.378 C  
HETATM    6  C   UNL     1      -7.622  20.534  67.311  1.00  0.00    -0.386 C  
ENDROOT
BRANCH   4   7
HETATM    7  N   UNL     1      -8.923  17.748  67.532  1.00  0.00    -0.242 N  
HETATM    8  H   UNL     1      -8.983  17.294  66.620  1.00  0.00     0.000 HD 
BRANCH   7   9
HETATM    9  S   UNL     1     -10.321  18.079  68.379  1.00  0.00    -0.333 SA 
BRANCH   9  10
HETATM   10  C   UNL     1     -10.814  16.451  68.836  1.00  0.00    -0.334 A  
HETATM   11  N   UNL     1     -11.409  16.211  69.982  1.00  0.00    -0.341 NA 
HETATM   12  C   UNL     1     -11.697  14.857  70.071  1.00  0.00    -0.294 A  
HETATM   13  C   UNL     1     -12.337  14.219  71.153  1.00  0.00    -0.440 A  
HETATM   14  C   UNL     1     -12.559  12.840  71.116  1.00  0.00    -0.365 A  
HETATM   15  C   UNL     1     -12.159  12.091  70.014  1.00  0.00    -0.355 A  
HETATM   16  C   UNL     1     -11.527  12.697  68.926  1.00  0.00    -0.354 A  
HETATM   17  C   UNL     1     -11.307  14.085  68.974  1.00  0.00    -0.281 A  
HETATM   18  S   UNL     1     -10.574  15.110  67.803  1.00  0.00    -0.270 SA 
ENDBRANCH   9  10
ENDBRANCH   7   9
ENDBRANCH   4   7
TORSDOF 3
ENDMDL
MODEL       74
REMARK 921   NORMALIZED FREE ENERGY PREDICTED BY IDOCK:   -4.47 KCAL/MOL
REMARK 922        TOTAL FREE ENERGY PREDICTED BY IDOCK:   -5.53 KCAL/MOL
REMARK 923 INTER-LIGAND FREE ENERGY PREDICTED BY IDOCK:   -5.27 KCAL/MOL
REMARK 924 INTRA-LIGAND FREE ENERGY PREDICTED BY IDOCK:   -0.26 KCAL/MOL
REMARK 927      BINDING AFFINITY PREDICTED BY RF-SCORE:    0.00 PKD
ROOT
HETATM    1  C   UNL     1     -12.742   7.879  71.845  1.00  0.00    -0.341 C  
HETATM    2  C   UNL     1     -13.655   9.062  71.533  1.00  0.00    -0.395 C  
HETATM    3  C   UNL     1     -12.903  10.394  71.581  1.00  0.00    -0.579 C  
HETATM    4  C   UNL     1     -11.636  10.412  70.702  1.00  0.00    -0.349 C  
HETATM    5  C   UNL     1     -10.750   9.204  71.067  1.00  0.00    -0.363 C  
HETATM    6  C   UNL     1     -11.501   7.877  70.959  1.00  0.00    -0.298 C  
ENDROOT
BRANCH   4   7
HETATM    7  N   UNL     1     -12.002  10.412  69.279  1.00  0.00    -0.528 N  
HETATM    8  H   UNL     1     -12.368   9.560  68.853  1.00  0.00     0.000 HD 
BRANCH   7   9
HETATM    9  S   UNL     1     -11.828  11.786  68.349  1.00  0.00    -0.205 SA 
BRANCH   9  10
HETATM   10  C   UNL     1     -10.924  11.139  66.984  1.00  0.00    -0.289 A  
HETATM   11  N   UNL     1     -10.294   9.989  67.061  1.00  0.00    -0.236 NA 
HETATM   12  C   UNL     1      -9.685   9.720  65.845  1.00  0.00    -0.266 A  
HETATM   13  C   UNL     1      -8.921   8.575  65.540  1.00  0.00    -0.182 A  
HETATM   14  C   UNL     1      -8.355   8.433  64.270  1.00  0.00    -0.091 A  
HETATM   15  C   UNL     1      -8.546   9.412  63.299  1.00  0.00    -0.218 A  
HETATM   16  C   UNL     1      -9.302  10.554  63.573  1.00  0.00    -0.326 A  
HETATM   17  C   UNL     1      -9.867  10.687  64.853  1.00  0.00    -0.302 A  
HETATM   18  S   UNL     1     -10.845  11.955  65.483  1.00  0.00    -0.301 SA 
ENDBRANCH   9  10
ENDBRANCH   7   9
ENDBRANCH   4   7
TORSDOF 3
ENDMDL
MODEL       75
REMARK 921   NORMALIZED FREE ENERGY PREDICTED BY IDOCK:   -4.47 KCAL/MOL
REMARK 922        TOTAL FREE ENERGY PREDICTED BY IDOCK:   -5.53 KCAL/MOL
REMARK 923 INTER-LIGAND FREE ENERGY PREDICTED BY IDOCK:   -5.32 KCAL/MOL
REMARK 924 INTRA-LIGAND FREE ENERGY PREDICTED BY IDOCK:   -0.21 KCAL/MOL
REMARK 927      BINDING AFFINITY PREDICTED BY RF-SCORE:    0.00 PKD
ROOT
HETATM    1  C   UNL     1      -7.734  20.595  67.279  1.00  0.00    -0.359 C  
HETATM    2  C   UNL     1      -9.222  20.252  67.262  1.00  0.00    -0.523 C  
HETATM    3  C   UNL     1      -9.537  19.114  66.289  1.00  0.00    -0.386 C  
HETATM    4  C   UNL     1      -8.671  17.859  66.517  1.00  0.00    -0.256 C  
HETATM    5  C   UNL     1      -7.183  18.262  66.513  1.00  0.00    -0.264 C  
HETATM    6  C   UNL     1      -6.875  19.361  67.531  1.00  0.00    -0.227 C  
ENDROOT
BRANCH   4   7
HETATM    7  N   UNL     1      -9.055  17.194  67.770  1.00  0.00    -0.231 N  
HETATM    8  H   UNL     1      -8.330  16.839  68.394  1.00  0.00     0.000 HD 
BRANCH   7   9
HETATM    9  S   UNL     1     -10.661  17.012  68.186  1.00  0.00    -0.372 SA 
BRANCH   9  10
HETATM   10  C   UNL     1     -10.820  15.261  68.096  1.00  0.00    -0.273 A  
HETATM   11  N   UNL     1     -10.262  14.570  67.128  1.00  0.00    -0.258 NA 
HETATM   12  C   UNL     1     -10.536  13.223  67.313  1.00  0.00    -0.247 A  
HETATM   13  C   UNL     1     -10.102  12.171  66.481  1.00  0.00    -0.229 A  
HETATM   14  C   UNL     1     -10.458  10.853  66.781  1.00  0.00    -0.302 A  
HETATM   15  C   UNL     1     -11.232  10.570  67.903  1.00  0.00    -0.358 A  
HETATM   16  C   UNL     1     -11.671  11.592  68.747  1.00  0.00    -0.397 A  
HETATM   17  C   UNL     1     -11.308  12.914  68.436  1.00  0.00    -0.294 A  
HETATM   18  S   UNL     1     -11.680  14.369  69.275  1.00  0.00    -0.337 SA 
ENDBRANCH   9  10
ENDBRANCH   7   9
ENDBRANCH   4   7
TORSDOF 3
ENDMDL
MODEL       76
REMARK 921   NORMALIZED FREE ENERGY PREDICTED BY IDOCK:   -4.46 KCAL/MOL
REMARK 922        TOTAL FREE ENERGY PREDICTED BY IDOCK:   -5.52 KCAL/MOL
REMARK 923 INTER-LIGAND FREE ENERGY PREDICTED BY IDOCK:   -5.28 KCAL/MOL
REMARK 924 INTRA-LIGAND FREE ENERGY PREDICTED BY IDOCK:   -0.24 KCAL/MOL
REMARK 927      BINDING AFFINITY PREDICTED BY RF-SCORE:    0.00 PKD
ROOT
HETATM    1  C   UNL     1     -11.133   5.865  71.079  1.00  0.00    -0.315 C  
HETATM    2  C   UNL     1     -11.921   7.144  70.806  1.00  0.00    -0.352 C  
HETATM    3  C   UNL     1     -11.004   8.357  70.637  1.00  0.00    -0.266 C  
HETATM    4  C   UNL     1      -9.895   8.142  69.587  1.00  0.00    -0.184 C  
HETATM    5  C   UNL     1      -9.128   6.847  69.919  1.00  0.00    -0.144 C  
HETATM    6  C   UNL     1     -10.054   5.634  70.029  1.00  0.00    -0.295 C  
ENDROOT
BRANCH   4   7
HETATM    7  N   UNL     1     -10.471   8.107  68.235  1.00  0.00    -0.318 N  
HETATM    8  H   UNL     1     -11.465   7.907  68.118  1.00  0.00     0.000 HD 
BRANCH   7   9
HETATM    9  S   UNL     1      -9.524   8.389  66.891  1.00  0.00    -0.202 SA 
BRANCH   9  10
HETATM   10  C   UNL     1     -10.247   9.879  66.294  1.00  0.00    -0.211 A  
HETATM   11  N   UNL     1     -10.265  10.166  65.012  1.00  0.00    -0.247 NA 
HETATM   12  C   UNL     1     -10.905  11.383  64.827  1.00  0.00    -0.273 A  
HETATM   13  C   UNL     1     -11.122  12.021  63.589  1.00  0.00    -0.525 A  
HETATM   14  C   UNL     1     -11.778  13.255  63.547  1.00  0.00    -0.390 A  
HETATM   15  C   UNL     1     -12.225  13.856  64.719  1.00  0.00    -0.441 A  
HETATM   16  C   UNL     1     -12.027  13.244  65.959  1.00  0.00    -0.473 A  
HETATM   17  C   UNL     1     -11.366  12.004  65.991  1.00  0.00    -0.343 A  
HETATM   18  S   UNL     1     -10.987  11.009  67.342  1.00  0.00    -0.297 SA 
ENDBRANCH   9  10
ENDBRANCH   7   9
ENDBRANCH   4   7
TORSDOF 3
ENDMDL
MODEL       77
REMARK 921   NORMALIZED FREE ENERGY PREDICTED BY IDOCK:   -4.45 KCAL/MOL
REMARK 922        TOTAL FREE ENERGY PREDICTED BY IDOCK:   -5.50 KCAL/MOL
REMARK 923 INTER-LIGAND FREE ENERGY PREDICTED BY IDOCK:   -5.24 KCAL/MOL
REMARK 924 INTRA-LIGAND FREE ENERGY PREDICTED BY IDOCK:   -0.26 KCAL/MOL
REMARK 927      BINDING AFFINITY PREDICTED BY RF-SCORE:    0.00 PKD
ROOT
HETATM    1  C   UNL     1     -11.666  13.469  66.374  1.00  0.00    -0.405 C  
HETATM    2  C   UNL     1     -11.482  11.999  66.005  1.00  0.00    -0.399 C  
HETATM    3  C   UNL     1     -10.422  11.319  66.874  1.00  0.00    -0.286 C  
HETATM    4  C   UNL     1     -10.666  11.496  68.386  1.00  0.00    -0.208 C  
HETATM    5  C   UNL     1     -10.834  12.995  68.700  1.00  0.00    -0.287 C  
HETATM    6  C   UNL     1     -11.935  13.647  67.864  1.00  0.00    -0.382 C  
ENDROOT
BRANCH   4   7
HETATM    7  N   UNL     1     -11.837  10.714  68.809  1.00  0.00    -0.505 N  
HETATM    8  H   UNL     1     -12.389  10.217  68.109  1.00  0.00     0.000 HD 
BRANCH   7   9
HETATM    9  S   UNL     1     -12.277  10.627  70.416  1.00  0.00    -0.363 SA 
BRANCH   9  10
HETATM   10  C   UNL     1     -11.742   8.997  70.809  1.00  0.00    -0.242 A  
HETATM   11  N   UNL     1     -11.144   8.238  69.919  1.00  0.00    -0.163 NA 
HETATM   12  C   UNL     1     -10.821   7.021  70.501  1.00  0.00    -0.251 A  
HETATM   13  C   UNL     1     -10.167   5.948  69.862  1.00  0.00    -0.280 A  
HETATM   14  C   UNL     1      -9.908   4.770  70.568  1.00  0.00    -0.301 A  
HETATM   15  C   UNL     1     -10.286   4.650  71.902  1.00  0.00    -0.254 A  
HETATM   16  C   UNL     1     -10.931   5.698  72.561  1.00  0.00    -0.313 A  
HETATM   17  C   UNL     1     -11.187   6.879  71.842  1.00  0.00    -0.254 A  
HETATM   18  S   UNL     1     -11.944   8.331  72.371  1.00  0.00    -0.348 SA 
ENDBRANCH   9  10
ENDBRANCH   7   9
ENDBRANCH   4   7
TORSDOF 3
ENDMDL
MODEL       78
REMARK 921   NORMALIZED FREE ENERGY PREDICTED BY IDOCK:   -4.43 KCAL/MOL
REMARK 922        TOTAL FREE ENERGY PREDICTED BY IDOCK:   -5.48 KCAL/MOL
REMARK 923 INTER-LIGAND FREE ENERGY PREDICTED BY IDOCK:   -5.22 KCAL/MOL
REMARK 924 INTRA-LIGAND FREE ENERGY PREDICTED BY IDOCK:   -0.26 KCAL/MOL
REMARK 927      BINDING AFFINITY PREDICTED BY RF-SCORE:    0.00 PKD
ROOT
HETATM    1  C   UNL     1     -11.802  12.271  63.606  1.00  0.00    -0.610 C  
HETATM    2  C   UNL     1     -10.427  12.711  64.102  1.00  0.00    -0.438 C  
HETATM    3  C   UNL     1     -10.436  14.156  64.608  1.00  0.00    -0.366 C  
HETATM    4  C   UNL     1     -11.529  14.426  65.661  1.00  0.00    -0.336 C  
HETATM    5  C   UNL     1     -12.893  13.973  65.104  1.00  0.00    -0.368 C  
HETATM    6  C   UNL     1     -12.882  12.511  64.655  1.00  0.00    -0.325 C  
ENDROOT
BRANCH   4   7
HETATM    7  N   UNL     1     -11.200  13.749  66.924  1.00  0.00    -0.305 N  
HETATM    8  H   UNL     1     -11.203  12.729  66.963  1.00  0.00     0.000 HD 
BRANCH   7   9
HETATM    9  S   UNL     1     -10.823  14.623  68.293  1.00  0.00    -0.253 SA 
BRANCH   9  10
HETATM   10  C   UNL     1      -9.550  15.667  67.669  1.00  0.00    -0.220 A  
HETATM   11  N   UNL     1      -9.793  16.909  67.316  1.00  0.00    -0.259 NA 
HETATM   12  C   UNL     1      -8.616  17.498  66.879  1.00  0.00    -0.247 A  
HETATM   13  C   UNL     1      -8.477  18.824  66.423  1.00  0.00    -0.296 A  
HETATM   14  C   UNL     1      -7.227  19.289  66.003  1.00  0.00    -0.296 A  
HETATM   15  C   UNL     1      -6.116  18.452  66.038  1.00  0.00    -0.232 A  
HETATM   16  C   UNL     1      -6.224  17.135  66.489  1.00  0.00    -0.248 A  
HETATM   17  C   UNL     1      -7.485  16.677  66.909  1.00  0.00    -0.228 A  
HETATM   18  S   UNL     1      -7.933  15.132  67.519  1.00  0.00    -0.189 SA 
ENDBRANCH   9  10
ENDBRANCH   7   9
ENDBRANCH   4   7
TORSDOF 3
ENDMDL
MODEL       79
REMARK 921   NORMALIZED FREE ENERGY PREDICTED BY IDOCK:   -4.43 KCAL/MOL
REMARK 922        TOTAL FREE ENERGY PREDICTED BY IDOCK:   -5.47 KCAL/MOL
REMARK 923 INTER-LIGAND FREE ENERGY PREDICTED BY IDOCK:   -5.20 KCAL/MOL
REMARK 924 INTRA-LIGAND FREE ENERGY PREDICTED BY IDOCK:   -0.27 KCAL/MOL
REMARK 927      BINDING AFFINITY PREDICTED BY RF-SCORE:    0.00 PKD
ROOT
HETATM    1  C   UNL     1      -6.014  17.006  67.780  1.00  0.00    -0.147 C  
HETATM    2  C   UNL     1      -6.967  16.013  68.441  1.00  0.00    -0.121 C  
HETATM    3  C   UNL     1      -8.424  16.471  68.350  1.00  0.00    -0.208 C  
HETATM    4  C   UNL     1      -8.869  16.808  66.913  1.00  0.00    -0.218 C  
HETATM    5  C   UNL     1      -7.879  17.819  66.301  1.00  0.00    -0.299 C  
HETATM    6  C   UNL     1      -6.434  17.322  66.349  1.00  0.00    -0.267 C  
ENDROOT
BRANCH   4   7
HETATM    7  N   UNL     1      -8.968  15.583  66.108  1.00  0.00    -0.381 N  
HETATM    8  H   UNL     1      -8.122  15.061  65.879  1.00  0.00     0.000 HD 
BRANCH   7   9
HETATM    9  S   UNL     1     -10.446  15.031  65.563  1.00  0.00    -0.399 SA 
BRANCH   9  10
HETATM   10  C   UNL     1     -10.982  14.108  66.962  1.00  0.00    -0.300 A  
HETATM   11  N   UNL     1     -11.469  14.700  68.029  1.00  0.00    -0.310 NA 
HETATM   12  C   UNL     1     -11.822  13.738  68.963  1.00  0.00    -0.357 A  
HETATM   13  C   UNL     1     -12.384  13.986  70.232  1.00  0.00    -0.425 A  
HETATM   14  C   UNL     1     -12.687  12.918  71.081  1.00  0.00    -0.366 A  
HETATM   15  C   UNL     1     -12.445  11.608  70.680  1.00  0.00    -0.386 A  
HETATM   16  C   UNL     1     -11.894  11.332  69.427  1.00  0.00    -0.424 A  
HETATM   17  C   UNL     1     -11.592  12.414  68.580  1.00  0.00    -0.319 A  
HETATM   18  S   UNL     1     -10.926  12.399  66.995  1.00  0.00    -0.274 SA 
ENDBRANCH   9  10
ENDBRANCH   7   9
ENDBRANCH   4   7
TORSDOF 3
ENDMDL
MODEL       80
REMARK 921   NORMALIZED FREE ENERGY PREDICTED BY IDOCK:   -4.39 KCAL/MOL
REMARK 922        TOTAL FREE ENERGY PREDICTED BY IDOCK:   -5.43 KCAL/MOL
REMARK 923 INTER-LIGAND FREE ENERGY PREDICTED BY IDOCK:   -5.11 KCAL/MOL
REMARK 924 INTRA-LIGAND FREE ENERGY PREDICTED BY IDOCK:   -0.32 KCAL/MOL
REMARK 927      BINDING AFFINITY PREDICTED BY RF-SCORE:    0.00 PKD
ROOT
HETATM    1  C   UNL     1     -10.872  11.414  66.212  1.00  0.00    -0.318 C  
HETATM    2  C   UNL     1     -10.311  12.055  67.479  1.00  0.00    -0.217 C  
HETATM    3  C   UNL     1      -9.514  13.326  67.173  1.00  0.00    -0.240 C  
HETATM    4  C   UNL     1     -10.296  14.347  66.323  1.00  0.00    -0.295 C  
HETATM    5  C   UNL     1     -10.828  13.648  65.056  1.00  0.00    -0.358 C  
HETATM    6  C   UNL     1     -11.669  12.413  65.382  1.00  0.00    -0.452 C  
ENDROOT
BRANCH   4   7
HETATM    7  N   UNL     1     -11.379  14.947  67.114  1.00  0.00    -0.345 N  
HETATM    8  H   UNL     1     -12.312  15.028  66.709  1.00  0.00     0.000 HD 
BRANCH   7   9
HETATM    9  S   UNL     1     -11.105  15.500  68.664  1.00  0.00    -0.318 SA 
BRANCH   9  10
HETATM   10  C   UNL     1      -9.938  16.780  68.349  1.00  0.00    -0.268 A  
HETATM   11  N   UNL     1      -8.669  16.644  68.662  1.00  0.00    -0.241 NA 
HETATM   12  C   UNL     1      -7.983  17.790  68.290  1.00  0.00    -0.282 A  
HETATM   13  C   UNL     1      -6.602  18.017  68.461  1.00  0.00    -0.217 A  
HETATM   14  C   UNL     1      -6.038  19.226  68.045  1.00  0.00    -0.228 A  
HETATM   15  C   UNL     1      -6.829  20.208  67.456  1.00  0.00    -0.281 A  
HETATM   16  C   UNL     1      -8.199  20.008  67.271  1.00  0.00    -0.368 A  
HETATM   17  C   UNL     1      -8.757  18.789  67.693  1.00  0.00    -0.280 A  
HETATM   18  S   UNL     1     -10.386  18.247  67.594  1.00  0.00    -0.409 SA 
ENDBRANCH   9  10
ENDBRANCH   7   9
ENDBRANCH   4   7
TORSDOF 3
ENDMDL
MODEL       81
REMARK 921   NORMALIZED FREE ENERGY PREDICTED BY IDOCK:   -4.37 KCAL/MOL
REMARK 922        TOTAL FREE ENERGY PREDICTED BY IDOCK:   -5.40 KCAL/MOL
REMARK 923 INTER-LIGAND FREE ENERGY PREDICTED BY IDOCK:   -5.18 KCAL/MOL
REMARK 924 INTRA-LIGAND FREE ENERGY PREDICTED BY IDOCK:   -0.22 KCAL/MOL
REMARK 927      BINDING AFFINITY PREDICTED BY RF-SCORE:    0.00 PKD
ROOT
HETATM    1  C   UNL     1     -12.343  13.624  64.820  1.00  0.00    -0.429 C  
HETATM    2  C   UNL     1     -11.652  12.332  64.391  1.00  0.00    -0.428 C  
HETATM    3  C   UNL     1     -10.267  12.185  65.026  1.00  0.00    -0.312 C  
HETATM    4  C   UNL     1     -10.281  12.336  66.560  1.00  0.00    -0.214 C  
HETATM    5  C   UNL     1     -10.979  13.658  66.933  1.00  0.00    -0.296 C  
HETATM    6  C   UNL     1     -12.383  13.764  66.337  1.00  0.00    -0.460 C  
ENDROOT
BRANCH   4   7
HETATM    7  N   UNL     1     -10.936  11.176  67.182  1.00  0.00    -0.280 N  
HETATM    8  H   UNL     1     -11.761  11.318  67.765  1.00  0.00     0.000 HD 
BRANCH   7   9
HETATM    9  S   UNL     1     -10.350   9.632  66.947  1.00  0.00    -0.219 SA 
BRANCH   9  10
HETATM   10  C   UNL     1     -10.531   8.968  68.567  1.00  0.00    -0.196 A  
HETATM   11  N   UNL     1     -10.455   7.676  68.792  1.00  0.00    -0.207 NA 
HETATM   12  C   UNL     1     -10.618   7.439  70.149  1.00  0.00    -0.230 A  
HETATM   13  C   UNL     1     -10.593   6.176  70.774  1.00  0.00    -0.299 A  
HETATM   14  C   UNL     1     -10.779   6.079  72.156  1.00  0.00    -0.270 A  
HETATM   15  C   UNL     1     -10.982   7.223  72.922  1.00  0.00    -0.381 A  
HETATM   16  C   UNL     1     -11.006   8.487  72.329  1.00  0.00    -0.426 A  
HETATM   17  C   UNL     1     -10.818   8.573  70.939  1.00  0.00    -0.232 A  
HETATM   18  S   UNL     1     -10.784   9.968  69.931  1.00  0.00    -0.305 SA 
ENDBRANCH   9  10
ENDBRANCH   7   9
ENDBRANCH   4   7
TORSDOF 3
ENDMDL
MODEL       82
REMARK 921   NORMALIZED FREE ENERGY PREDICTED BY IDOCK:   -4.35 KCAL/MOL
REMARK 922        TOTAL FREE ENERGY PREDICTED BY IDOCK:   -5.39 KCAL/MOL
REMARK 923 INTER-LIGAND FREE ENERGY PREDICTED BY IDOCK:   -5.16 KCAL/MOL
REMARK 924 INTRA-LIGAND FREE ENERGY PREDICTED BY IDOCK:   -0.22 KCAL/MOL
REMARK 927      BINDING AFFINITY PREDICTED BY RF-SCORE:    0.00 PKD
ROOT
HETATM    1  C   UNL     1     -10.993   6.160  72.709  1.00  0.00    -0.294 C  
HETATM    2  C   UNL     1     -11.370   7.638  72.664  1.00  0.00    -0.423 C  
HETATM    3  C   UNL     1     -10.273   8.490  72.023  1.00  0.00    -0.391 C  
HETATM    4  C   UNL     1      -9.833   7.977  70.637  1.00  0.00    -0.184 C  
HETATM    5  C   UNL     1      -9.455   6.487  70.745  1.00  0.00    -0.180 C  
HETATM    6  C   UNL     1     -10.584   5.641  71.335  1.00  0.00    -0.317 C  
ENDROOT
BRANCH   4   7
HETATM    7  N   UNL     1     -10.897   8.202  69.648  1.00  0.00    -0.372 N  
HETATM    8  H   UNL     1     -11.873   8.171  69.944  1.00  0.00     0.000 HD 
BRANCH   7   9
HETATM    9  S   UNL     1     -10.532   8.507  68.049  1.00  0.00    -0.152 SA 
BRANCH   9  10
HETATM   10  C   UNL     1     -10.922  10.221  67.951  1.00  0.00    -0.292 A  
HETATM   11  N   UNL     1     -11.061  10.828  66.793  1.00  0.00    -0.185 NA 
HETATM   12  C   UNL     1     -11.380  12.160  67.012  1.00  0.00    -0.337 A  
HETATM   13  C   UNL     1     -11.610  13.128  66.014  1.00  0.00    -0.393 A  
HETATM   14  C   UNL     1     -11.918  14.442  66.376  1.00  0.00    -0.402 A  
HETATM   15  C   UNL     1     -12.006  14.802  67.717  1.00  0.00    -0.247 A  
HETATM   16  C   UNL     1     -11.788  13.862  68.727  1.00  0.00    -0.396 A  
HETATM   17  C   UNL     1     -11.478  12.543  68.352  1.00  0.00    -0.312 A  
HETATM   18  S   UNL     1     -11.171  11.174  69.348  1.00  0.00    -0.286 SA 
ENDBRANCH   9  10
ENDBRANCH   7   9
ENDBRANCH   4   7
TORSDOF 3
ENDMDL
MODEL       83
REMARK 921   NORMALIZED FREE ENERGY PREDICTED BY IDOCK:   -4.34 KCAL/MOL
REMARK 922        TOTAL FREE ENERGY PREDICTED BY IDOCK:   -5.38 KCAL/MOL
REMARK 923 INTER-LIGAND FREE ENERGY PREDICTED BY IDOCK:   -5.07 KCAL/MOL
REMARK 924 INTRA-LIGAND FREE ENERGY PREDICTED BY IDOCK:   -0.31 KCAL/MOL
REMARK 927      BINDING AFFINITY PREDICTED BY RF-SCORE:    0.00 PKD
ROOT
HETATM    1  C   UNL     1     -11.846  14.039  64.409  1.00  0.00    -0.453 C  
HETATM    2  C   UNL     1     -11.779  14.236  65.922  1.00  0.00    -0.375 C  
HETATM    3  C   UNL     1     -12.020  12.930  66.681  1.00  0.00    -0.436 C  
HETATM    4  C   UNL     1     -11.104  11.778  66.221  1.00  0.00    -0.311 C  
HETATM    5  C   UNL     1     -11.219  11.619  64.692  1.00  0.00    -0.320 C  
HETATM    6  C   UNL     1     -10.920  12.920  63.946  1.00  0.00    -0.422 C  
ENDROOT
BRANCH   4   7
HETATM    7  N   UNL     1      -9.718  12.030  66.642  1.00  0.00    -0.204 N  
HETATM    8  H   UNL     1      -9.455  12.957  66.978  1.00  0.00     0.000 HD 
BRANCH   7   9
HETATM    9  S   UNL     1      -8.569  10.822  66.579  1.00  0.00    -0.156 SA 
BRANCH   9  10
HETATM   10  C   UNL     1      -9.362   9.572  67.532  1.00  0.00    -0.126 A  
HETATM   11  N   UNL     1      -9.781   9.805  68.756  1.00  0.00    -0.157 NA 
HETATM   12  C   UNL     1     -10.376   8.658  69.260  1.00  0.00    -0.221 A  
HETATM   13  C   UNL     1     -10.948   8.521  70.541  1.00  0.00    -0.263 A  
HETATM   14  C   UNL     1     -11.511   7.300  70.925  1.00  0.00    -0.321 A  
HETATM   15  C   UNL     1     -11.516   6.219  70.048  1.00  0.00    -0.460 A  
HETATM   16  C   UNL     1     -10.960   6.329  68.772  1.00  0.00    -0.424 A  
HETATM   17  C   UNL     1     -10.396   7.561  68.396  1.00  0.00    -0.195 A  
HETATM   18  S   UNL     1      -9.655   8.007  66.909  1.00  0.00    -0.224 SA 
ENDBRANCH   9  10
ENDBRANCH   7   9
ENDBRANCH   4   7
TORSDOF 3
ENDMDL
MODEL       84
REMARK 921   NORMALIZED FREE ENERGY PREDICTED BY IDOCK:   -4.32 KCAL/MOL
REMARK 922        TOTAL FREE ENERGY PREDICTED BY IDOCK:   -5.35 KCAL/MOL
REMARK 923 INTER-LIGAND FREE ENERGY PREDICTED BY IDOCK:   -5.05 KCAL/MOL
REMARK 924 INTRA-LIGAND FREE ENERGY PREDICTED BY IDOCK:   -0.30 KCAL/MOL
REMARK 927      BINDING AFFINITY PREDICTED BY RF-SCORE:    0.00 PKD
ROOT
HETATM    1  C   UNL     1     -12.234  13.960  65.129  1.00  0.00    -0.443 C  
HETATM    2  C   UNL     1     -11.346  15.084  64.601  1.00  0.00    -0.357 C  
HETATM    3  C   UNL     1     -10.874  16.015  65.721  1.00  0.00    -0.236 C  
HETATM    4  C   UNL     1     -10.205  15.269  66.893  1.00  0.00    -0.268 C  
HETATM    5  C   UNL     1     -11.148  14.156  67.390  1.00  0.00    -0.318 C  
HETATM    6  C   UNL     1     -11.565  13.202  66.270  1.00  0.00    -0.399 C  
ENDROOT
BRANCH   4   7
HETATM    7  N   UNL     1      -8.899  14.736  66.479  1.00  0.00    -0.433 N  
HETATM    8  H   UNL     1      -8.783  14.367  65.535  1.00  0.00     0.000 HD 
BRANCH   7   9
HETATM    9  S   UNL     1      -7.604  14.726  67.531  1.00  0.00    -0.200 SA 
BRANCH   9  10
HETATM   10  C   UNL     1      -7.240  16.447  67.611  1.00  0.00    -0.134 A  
HETATM   11  N   UNL     1      -6.981  17.041  68.753  1.00  0.00    -0.199 NA 
HETATM   12  C   UNL     1      -6.716  18.382  68.520  1.00  0.00    -0.244 A  
HETATM   13  C   UNL     1      -6.392  19.342  69.500  1.00  0.00    -0.339 A  
HETATM   14  C   UNL     1      -6.155  20.667  69.126  1.00  0.00    -0.322 A  
HETATM   15  C   UNL     1      -6.229  21.046  67.789  1.00  0.00    -0.414 A  
HETATM   16  C   UNL     1      -6.543  20.115  66.796  1.00  0.00    -0.247 A  
HETATM   17  C   UNL     1      -6.781  18.785  67.184  1.00  0.00    -0.197 A  
HETATM   18  S   UNL     1      -7.173  17.423  66.208  1.00  0.00    -0.304 SA 
ENDBRANCH   9  10
ENDBRANCH   7   9
ENDBRANCH   4   7
TORSDOF 3
ENDMDL
MODEL       85
REMARK 921   NORMALIZED FREE ENERGY PREDICTED BY IDOCK:   -4.31 KCAL/MOL
REMARK 922        TOTAL FREE ENERGY PREDICTED BY IDOCK:   -5.34 KCAL/MOL
REMARK 923 INTER-LIGAND FREE ENERGY PREDICTED BY IDOCK:   -5.15 KCAL/MOL
REMARK 924 INTRA-LIGAND FREE ENERGY PREDICTED BY IDOCK:   -0.19 KCAL/MOL
REMARK 927      BINDING AFFINITY PREDICTED BY RF-SCORE:    0.00 PKD
ROOT
HETATM    1  C   UNL     1     -11.534  11.244  68.015  1.00  0.00    -0.369 C  
HETATM    2  C   UNL     1     -11.193  11.904  66.681  1.00  0.00    -0.384 C  
HETATM    3  C   UNL     1     -11.908  13.246  66.507  1.00  0.00    -0.450 C  
HETATM    4  C   UNL     1     -11.688  14.213  67.687  1.00  0.00    -0.387 C  
HETATM    5  C   UNL     1     -12.057  13.499  69.002  1.00  0.00    -0.330 C  
HETATM    6  C   UNL     1     -11.292  12.188  69.188  1.00  0.00    -0.333 C  
ENDROOT
BRANCH   4   7
HETATM    7  N   UNL     1     -10.301  14.698  67.698  1.00  0.00    -0.233 N  
HETATM    8  H   UNL     1      -9.673  14.444  66.935  1.00  0.00     0.000 HD 
BRANCH   7   9
HETATM    9  S   UNL     1      -9.737  15.659  68.940  1.00  0.00    -0.236 SA 
BRANCH   9  10
HETATM   10  C   UNL     1      -8.857  16.881  68.028  1.00  0.00    -0.216 A  
HETATM   11  N   UNL     1      -8.963  18.159  68.314  1.00  0.00    -0.290 NA 
HETATM   12  C   UNL     1      -8.156  18.887  67.454  1.00  0.00    -0.261 A  
HETATM   13  C   UNL     1      -8.001  20.289  67.455  1.00  0.00    -0.366 A  
HETATM   14  C   UNL     1      -7.156  20.897  66.522  1.00  0.00    -0.193 A  
HETATM   15  C   UNL     1      -6.459  20.128  65.595  1.00  0.00    -0.268 A  
HETATM   16  C   UNL     1      -6.590  18.738  65.575  1.00  0.00    -0.307 A  
HETATM   17  C   UNL     1      -7.443  18.136  66.516  1.00  0.00    -0.236 A  
HETATM   18  S   UNL     1      -7.800  16.469  66.749  1.00  0.00    -0.290 SA 
ENDBRANCH   9  10
ENDBRANCH   7   9
ENDBRANCH   4   7
TORSDOF 3
ENDMDL
MODEL       86
REMARK 921   NORMALIZED FREE ENERGY PREDICTED BY IDOCK:   -4.30 KCAL/MOL
REMARK 922        TOTAL FREE ENERGY PREDICTED BY IDOCK:   -5.32 KCAL/MOL
REMARK 923 INTER-LIGAND FREE ENERGY PREDICTED BY IDOCK:   -4.98 KCAL/MOL
REMARK 924 INTRA-LIGAND FREE ENERGY PREDICTED BY IDOCK:   -0.34 KCAL/MOL
REMARK 927      BINDING AFFINITY PREDICTED BY RF-SCORE:    0.00 PKD
ROOT
HETATM    1  C   UNL     1     -12.487  13.977  70.913  1.00  0.00    -0.439 C  
HETATM    2  C   UNL     1     -12.641  15.492  71.024  1.00  0.00    -0.513 C  
HETATM    3  C   UNL     1     -11.294  16.212  70.928  1.00  0.00    -0.394 C  
HETATM    4  C   UNL     1     -10.479  15.818  69.680  1.00  0.00    -0.289 C  
HETATM    5  C   UNL     1     -10.348  14.283  69.625  1.00  0.00     0.184 C  
HETATM    6  C   UNL     1     -11.705  13.581  69.666  1.00  0.00    -0.378 C  
ENDROOT
BRANCH   4   7
HETATM    7  N   UNL     1     -11.109  16.358  68.467  1.00  0.00    -0.356 N  
HETATM    8  H   UNL     1     -12.122  16.473  68.435  1.00  0.00     0.000 HD 
BRANCH   7   9
HETATM    9  S   UNL     1     -10.191  16.784  67.140  1.00  0.00    -0.298 SA 
BRANCH   9  10
HETATM   10  C   UNL     1     -10.611  15.487  66.026  1.00  0.00    -0.325 A  
HETATM   11  N   UNL     1     -10.068  14.295  66.125  1.00  0.00    -0.301 NA 
HETATM   12  C   UNL     1     -10.589  13.473  65.137  1.00  0.00    -0.355 A  
HETATM   13  C   UNL     1     -10.253  12.121  64.927  1.00  0.00    -0.309 A  
HETATM   14  C   UNL     1     -10.852  11.408  63.884  1.00  0.00    -0.463 A  
HETATM   15  C   UNL     1     -11.785  12.023  63.055  1.00  0.00    -0.076 A  
HETATM   16  C   UNL     1     -12.140  13.360  63.244  1.00  0.00    -0.329 A  
HETATM   17  C   UNL     1     -11.532  14.068  64.295  1.00  0.00    -0.297 A  
HETATM   18  S   UNL     1     -11.765  15.701  64.783  1.00  0.00    -0.039 SA 
ENDBRANCH   9  10
ENDBRANCH   7   9
ENDBRANCH   4   7
TORSDOF 3
ENDMDL
MODEL       87
REMARK 921   NORMALIZED FREE ENERGY PREDICTED BY IDOCK:   -4.28 KCAL/MOL
REMARK 922        TOTAL FREE ENERGY PREDICTED BY IDOCK:   -5.31 KCAL/MOL
REMARK 923 INTER-LIGAND FREE ENERGY PREDICTED BY IDOCK:   -5.16 KCAL/MOL
REMARK 924 INTRA-LIGAND FREE ENERGY PREDICTED BY IDOCK:   -0.14 KCAL/MOL
REMARK 927      BINDING AFFINITY PREDICTED BY RF-SCORE:    0.00 PKD
ROOT
HETATM    1  C   UNL     1      -8.688   7.119  71.323  1.00  0.00    -0.128 C  
HETATM    2  C   UNL     1      -8.041   8.422  71.784  1.00  0.00    -0.192 C  
HETATM    3  C   UNL     1      -7.395   9.183  70.624  1.00  0.00    -0.114 C  
HETATM    4  C   UNL     1      -8.352   9.416  69.438  1.00  0.00    -0.125 C  
HETATM    5  C   UNL     1      -8.966   8.069  69.010  1.00  0.00    -0.145 C  
HETATM    6  C   UNL     1      -9.656   7.349  70.168  1.00  0.00    -0.165 C  
ENDROOT
BRANCH   4   7
HETATM    7  N   UNL     1      -9.385  10.398  69.802  1.00  0.00    -0.411 N  
HETATM    8  H   UNL     1      -9.245  10.995  70.617  1.00  0.00     0.000 HD 
BRANCH   7   9
HETATM    9  S   UNL     1     -10.781  10.548  68.901  1.00  0.00    -0.237 SA 
BRANCH   9  10
HETATM   10  C   UNL     1     -11.650  11.748  69.851  1.00  0.00    -0.274 A  
HETATM   11  N   UNL     1     -11.647  13.020  69.519  1.00  0.00    -0.288 NA 
HETATM   12  C   UNL     1     -12.419  13.729  70.427  1.00  0.00    -0.314 A  
HETATM   13  C   UNL     1     -12.658  15.118  70.398  1.00  0.00    -0.405 A  
HETATM   14  C   UNL     1     -13.453  15.709  71.384  1.00  0.00    -0.473 A  
HETATM   15  C   UNL     1     -14.019  14.933  72.391  1.00  0.00    -0.582 A  
HETATM   16  C   UNL     1     -13.803  13.554  72.441  1.00  0.00    -0.687 A  
HETATM   17  C   UNL     1     -13.001  12.970  71.445  1.00  0.00    -0.283 A  
HETATM   18  S   UNL     1     -12.565  11.320  71.231  1.00  0.00    -0.340 SA 
ENDBRANCH   9  10
ENDBRANCH   7   9
ENDBRANCH   4   7
TORSDOF 3
ENDMDL
MODEL       88
REMARK 921   NORMALIZED FREE ENERGY PREDICTED BY IDOCK:   -4.26 KCAL/MOL
REMARK 922        TOTAL FREE ENERGY PREDICTED BY IDOCK:   -5.28 KCAL/MOL
REMARK 923 INTER-LIGAND FREE ENERGY PREDICTED BY IDOCK:   -5.07 KCAL/MOL
REMARK 924 INTRA-LIGAND FREE ENERGY PREDICTED BY IDOCK:   -0.21 KCAL/MOL
REMARK 927      BINDING AFFINITY PREDICTED BY RF-SCORE:    0.00 PKD
ROOT
HETATM    1  C   UNL     1     -10.045   7.500  71.339  1.00  0.00    -0.201 C  
HETATM    2  C   UNL     1      -9.408   7.604  69.955  1.00  0.00    -0.150 C  
HETATM    3  C   UNL     1     -10.278   8.407  68.984  1.00  0.00    -0.217 C  
HETATM    4  C   UNL     1     -10.680   9.793  69.527  1.00  0.00    -0.233 C  
HETATM    5  C   UNL     1     -11.324   9.625  70.916  1.00  0.00    -0.431 C  
HETATM    6  C   UNL     1     -10.419   8.870  71.891  1.00  0.00    -0.415 C  
ENDROOT
BRANCH   4   7
HETATM    7  N   UNL     1      -9.511  10.683  69.569  1.00  0.00    -0.423 N  
HETATM    8  H   UNL     1      -9.332  11.238  70.406  1.00  0.00     0.000 HD 
BRANCH   7   9
HETATM    9  S   UNL     1      -8.475  10.800  68.267  1.00  0.00    -0.137 SA 
BRANCH   9  10
HETATM   10  C   UNL     1      -9.383  11.894  67.229  1.00  0.00    -0.177 A  
HETATM   11  N   UNL     1      -9.078  13.169  67.142  1.00  0.00    -0.222 NA 
HETATM   12  C   UNL     1      -9.941  13.784  66.248  1.00  0.00    -0.305 A  
HETATM   13  C   UNL     1      -9.923  15.148  65.889  1.00  0.00    -0.355 A  
HETATM   14  C   UNL     1     -10.860  15.640  64.976  1.00  0.00    -0.468 A  
HETATM   15  C   UNL     1     -11.808  14.791  64.411  1.00  0.00    -0.393 A  
HETATM   16  C   UNL     1     -11.845  13.436  64.745  1.00  0.00    -0.415 A  
HETATM   17  C   UNL     1     -10.899  12.951  65.665  1.00  0.00    -0.273 A  
HETATM   18  S   UNL     1     -10.683  11.351  66.260  1.00  0.00    -0.255 SA 
ENDBRANCH   9  10
ENDBRANCH   7   9
ENDBRANCH   4   7
TORSDOF 3
ENDMDL
MODEL       89
REMARK 921   NORMALIZED FREE ENERGY PREDICTED BY IDOCK:   -4.25 KCAL/MOL
REMARK 922        TOTAL FREE ENERGY PREDICTED BY IDOCK:   -5.27 KCAL/MOL
REMARK 923 INTER-LIGAND FREE ENERGY PREDICTED BY IDOCK:   -5.01 KCAL/MOL
REMARK 924 INTRA-LIGAND FREE ENERGY PREDICTED BY IDOCK:   -0.26 KCAL/MOL
REMARK 927      BINDING AFFINITY PREDICTED BY RF-SCORE:    0.00 PKD
ROOT
HETATM    1  C   UNL     1     -11.066  11.011  66.676  1.00  0.00    -0.201 C  
HETATM    2  C   UNL     1     -10.511  11.634  67.955  1.00  0.00    -0.217 C  
HETATM    3  C   UNL     1      -9.027  11.312  68.151  1.00  0.00    -0.166 C  
HETATM    4  C   UNL     1      -8.159  11.666  66.927  1.00  0.00    -0.164 C  
HETATM    5  C   UNL     1      -8.760  11.004  65.672  1.00  0.00    -0.162 C  
HETATM    6  C   UNL     1     -10.227  11.380  65.459  1.00  0.00    -0.312 C  
ENDROOT
BRANCH   4   7
HETATM    7  N   UNL     1      -8.054  13.125  66.780  1.00  0.00    -0.397 N  
HETATM    8  H   UNL     1      -8.329  13.562  65.900  1.00  0.00     0.000 HD 
BRANCH   7   9
HETATM    9  S   UNL     1      -7.493  14.075  68.031  1.00  0.00    -0.162 SA 
BRANCH   9  10
HETATM   10  C   UNL     1      -8.348  15.579  67.702  1.00  0.00    -0.155 A  
HETATM   11  N   UNL     1      -8.307  16.589  68.542  1.00  0.00    -0.200 NA 
HETATM   12  C   UNL     1      -9.050  17.640  68.027  1.00  0.00    -0.267 A  
HETATM   13  C   UNL     1      -9.238  18.896  68.639  1.00  0.00    -0.399 A  
HETATM   14  C   UNL     1     -10.021  19.867  68.010  1.00  0.00    -0.556 A  
HETATM   15  C   UNL     1     -10.613  19.607  66.777  1.00  0.00    -0.602 A  
HETATM   16  C   UNL     1     -10.439  18.373  66.146  1.00  0.00    -0.422 A  
HETATM   17  C   UNL     1      -9.650  17.403  66.787  1.00  0.00    -0.277 A  
HETATM   18  S   UNL     1      -9.245  15.814  66.266  1.00  0.00    -0.353 SA 
ENDBRANCH   9  10
ENDBRANCH   7   9
ENDBRANCH   4   7
TORSDOF 3
ENDMDL
MODEL       90
REMARK 921   NORMALIZED FREE ENERGY PREDICTED BY IDOCK:   -4.25 KCAL/MOL
REMARK 922        TOTAL FREE ENERGY PREDICTED BY IDOCK:   -5.27 KCAL/MOL
REMARK 923 INTER-LIGAND FREE ENERGY PREDICTED BY IDOCK:   -5.03 KCAL/MOL
REMARK 924 INTRA-LIGAND FREE ENERGY PREDICTED BY IDOCK:   -0.24 KCAL/MOL
REMARK 927      BINDING AFFINITY PREDICTED BY RF-SCORE:    0.00 PKD
ROOT
HETATM    1  C   UNL     1      -6.178  21.108  66.458  1.00  0.00    -0.347 C  
HETATM    2  C   UNL     1      -5.943  19.859  65.611  1.00  0.00    -0.209 C  
HETATM    3  C   UNL     1      -5.329  18.720  66.429  1.00  0.00    -0.163 C  
HETATM    4  C   UNL     1      -6.121  18.393  67.711  1.00  0.00    -0.184 C  
HETATM    5  C   UNL     1      -6.318  19.685  68.528  1.00  0.00    -0.288 C  
HETATM    6  C   UNL     1      -6.984  20.794  67.713  1.00  0.00    -0.339 C  
ENDROOT
BRANCH   4   7
HETATM    7  N   UNL     1      -7.403  17.759  67.371  1.00  0.00    -0.185 N  
HETATM    8  H   UNL     1      -7.641  17.600  66.392  1.00  0.00     0.000 HD 
BRANCH   7   9
HETATM    9  S   UNL     1      -8.474  17.297  68.564  1.00  0.00    -0.261 SA 
BRANCH   9  10
HETATM   10  C   UNL     1      -9.551  16.252  67.643  1.00  0.00    -0.227 A  
HETATM   11  N   UNL     1      -9.181  15.725  66.498  1.00  0.00    -0.256 NA 
HETATM   12  C   UNL     1     -10.212  14.940  66.004  1.00  0.00    -0.301 A  
HETATM   13  C   UNL     1     -10.188  14.210  64.798  1.00  0.00    -0.311 A  
HETATM   14  C   UNL     1     -11.305  13.462  64.414  1.00  0.00    -0.419 A  
HETATM   15  C   UNL     1     -12.440  13.427  65.219  1.00  0.00    -0.532 A  
HETATM   16  C   UNL     1     -12.490  14.137  66.420  1.00  0.00    -0.353 A  
HETATM   17  C   UNL     1     -11.362  14.886  66.796  1.00  0.00    -0.328 A  
HETATM   18  S   UNL     1     -11.114  15.845  68.203  1.00  0.00    -0.327 SA 
ENDBRANCH   9  10
ENDBRANCH   7   9
ENDBRANCH   4   7
TORSDOF 3
ENDMDL
MODEL       91
REMARK 921   NORMALIZED FREE ENERGY PREDICTED BY IDOCK:   -4.25 KCAL/MOL
REMARK 922        TOTAL FREE ENERGY PREDICTED BY IDOCK:   -5.26 KCAL/MOL
REMARK 923 INTER-LIGAND FREE ENERGY PREDICTED BY IDOCK:   -5.37 KCAL/MOL
REMARK 924 INTRA-LIGAND FREE ENERGY PREDICTED BY IDOCK:    0.10 KCAL/MOL
REMARK 927      BINDING AFFINITY PREDICTED BY RF-SCORE:    0.00 PKD
ROOT
HETATM    1  C   UNL     1      -8.152   7.698  72.627  1.00  0.00    -0.148 C  
HETATM    2  C   UNL     1      -8.818   6.917  71.496  1.00  0.00    -0.132 C  
HETATM    3  C   UNL     1      -9.440   5.610  71.993  1.00  0.00    -0.169 C  
HETATM    4  C   UNL     1     -10.397   5.803  73.186  1.00  0.00    -0.205 C  
HETATM    5  C   UNL     1      -9.670   6.586  74.297  1.00  0.00    -0.309 C  
HETATM    6  C   UNL     1      -9.103   7.916  73.798  1.00  0.00    -0.306 C  
ENDROOT
BRANCH   4   7
HETATM    7  N   UNL     1     -11.625   6.484  72.750  1.00  0.00    -0.482 N  
HETATM    8  H   UNL     1     -12.313   6.773  73.446  1.00  0.00     0.000 HD 
BRANCH   7   9
HETATM    9  S   UNL     1     -11.909   6.789  71.135  1.00  0.00    -0.370 SA 
BRANCH   9  10
HETATM   10  C   UNL     1     -12.160   8.531  71.176  1.00  0.00    -0.252 A  
HETATM   11  N   UNL     1     -11.526   9.335  70.352  1.00  0.00    -0.246 NA 
HETATM   12  C   UNL     1     -11.923  10.642  70.594  1.00  0.00    -0.367 A  
HETATM   13  C   UNL     1     -11.464  11.784  69.907  1.00  0.00    -0.285 A  
HETATM   14  C   UNL     1     -11.944  13.048  70.260  1.00  0.00    -0.360 A  
HETATM   15  C   UNL     1     -12.879  13.188  71.281  1.00  0.00    -0.384 A  
HETATM   16  C   UNL     1     -13.354  12.073  71.975  1.00  0.00    -0.447 A  
HETATM   17  C   UNL     1     -12.864  10.806  71.613  1.00  0.00    -0.457 A  
HETATM   18  S   UNL     1     -13.258   9.262  72.263  1.00  0.00    -0.447 SA 
ENDBRANCH   9  10
ENDBRANCH   7   9
ENDBRANCH   4   7
TORSDOF 3
ENDMDL
MODEL       92
REMARK 921   NORMALIZED FREE ENERGY PREDICTED BY IDOCK:   -4.24 KCAL/MOL
REMARK 922        TOTAL FREE ENERGY PREDICTED BY IDOCK:   -5.26 KCAL/MOL
REMARK 923 INTER-LIGAND FREE ENERGY PREDICTED BY IDOCK:   -4.91 KCAL/MOL
REMARK 924 INTRA-LIGAND FREE ENERGY PREDICTED BY IDOCK:   -0.35 KCAL/MOL
REMARK 927      BINDING AFFINITY PREDICTED BY RF-SCORE:    0.00 PKD
ROOT
HETATM    1  C   UNL     1     -10.095  10.573  68.959  1.00  0.00    -0.230 C  
HETATM    2  C   UNL     1      -9.637   9.337  69.730  1.00  0.00    -0.203 C  
HETATM    3  C   UNL     1     -10.097   9.371  71.190  1.00  0.00    -0.335 C  
HETATM    4  C   UNL     1     -11.612   9.606  71.347  1.00  0.00    -0.400 C  
HETATM    5  C   UNL     1     -12.014  10.867  70.559  1.00  0.00    -0.466 C  
HETATM    6  C   UNL     1     -11.598  10.793  69.089  1.00  0.00    -0.376 C  
ENDROOT
BRANCH   4   7
HETATM    7  N   UNL     1     -12.361   8.421  70.904  1.00  0.00    -0.494 N  
HETATM    8  H   UNL     1     -13.045   8.511  70.152  1.00  0.00     0.000 HD 
BRANCH   7   9
HETATM    9  S   UNL     1     -12.109   6.932  71.613  1.00  0.00    -0.367 SA 
BRANCH   9  10
HETATM   10  C   UNL     1     -11.180   6.128  70.353  1.00  0.00    -0.353 A  
HETATM   11  N   UNL     1     -11.388   6.380  69.080  1.00  0.00    -0.354 NA 
HETATM   12  C   UNL     1     -10.512   5.623  68.316  1.00  0.00    -0.192 A  
HETATM   13  C   UNL     1     -10.431   5.626  66.909  1.00  0.00    -0.349 A  
HETATM   14  C   UNL     1      -9.502   4.805  66.263  1.00  0.00    -0.160 A  
HETATM   15  C   UNL     1      -8.650   3.989  67.001  1.00  0.00    -0.105 A  
HETATM   16  C   UNL     1      -8.705   3.970  68.396  1.00  0.00    -0.126 A  
HETATM   17  C   UNL     1      -9.643   4.799  69.036  1.00  0.00    -0.165 A  
HETATM   18  S   UNL     1      -9.943   5.005  70.717  1.00  0.00    -0.230 SA 
ENDBRANCH   9  10
ENDBRANCH   7   9
ENDBRANCH   4   7
TORSDOF 3
ENDMDL
MODEL       93
REMARK 921   NORMALIZED FREE ENERGY PREDICTED BY IDOCK:   -4.24 KCAL/MOL
REMARK 922        TOTAL FREE ENERGY PREDICTED BY IDOCK:   -5.25 KCAL/MOL
REMARK 923 INTER-LIGAND FREE ENERGY PREDICTED BY IDOCK:   -4.91 KCAL/MOL
REMARK 924 INTRA-LIGAND FREE ENERGY PREDICTED BY IDOCK:   -0.34 KCAL/MOL
REMARK 927      BINDING AFFINITY PREDICTED BY RF-SCORE:    0.00 PKD
ROOT
HETATM    1  C   UNL     1     -13.204  15.693  72.517  1.00  0.00    -0.583 C  
HETATM    2  C   UNL     1     -11.993  16.206  71.741  1.00  0.00    -0.560 C  
HETATM    3  C   UNL     1     -11.195  15.065  71.105  1.00  0.00    -0.267 C  
HETATM    4  C   UNL     1     -12.059  14.122  70.244  1.00  0.00    -0.342 C  
HETATM    5  C   UNL     1     -13.257  13.629  71.080  1.00  0.00    -0.190 C  
HETATM    6  C   UNL     1     -14.076  14.782  71.662  1.00  0.00    -0.590 C  
ENDROOT
BRANCH   4   7
HETATM    7  N   UNL     1     -12.492  14.804  69.016  1.00  0.00    -0.578 N  
HETATM    8  H   UNL     1     -13.043  15.660  69.085  1.00  0.00     0.000 HD 
BRANCH   7   9
HETATM    9  S   UNL     1     -12.095  14.199  67.513  1.00  0.00    -0.239 SA 
BRANCH   9  10
HETATM   10  C   UNL     1     -10.363  14.511  67.487  1.00  0.00    -0.244 A  
HETATM   11  N   UNL     1      -9.887  15.728  67.354  1.00  0.00    -0.231 NA 
HETATM   12  C   UNL     1      -8.501  15.681  67.382  1.00  0.00    -0.172 A  
HETATM   13  C   UNL     1      -7.636  16.789  67.272  1.00  0.00    -0.204 A  
HETATM   14  C   UNL     1      -6.251  16.598  67.309  1.00  0.00    -0.206 A  
HETATM   15  C   UNL     1      -5.720  15.320  67.461  1.00  0.00     0.006 A  
HETATM   16  C   UNL     1      -6.554  14.206  67.576  1.00  0.00    -0.098 A  
HETATM   17  C   UNL     1      -7.944  14.409  67.538  1.00  0.00    -0.192 A  
HETATM   18  S   UNL     1      -9.215  13.256  67.664  1.00  0.00    -0.221 SA 
ENDBRANCH   9  10
ENDBRANCH   7   9
ENDBRANCH   4   7
TORSDOF 3
ENDMDL
MODEL       94
REMARK 921   NORMALIZED FREE ENERGY PREDICTED BY IDOCK:   -4.24 KCAL/MOL
REMARK 922        TOTAL FREE ENERGY PREDICTED BY IDOCK:   -5.25 KCAL/MOL
REMARK 923 INTER-LIGAND FREE ENERGY PREDICTED BY IDOCK:   -4.87 KCAL/MOL
REMARK 924 INTRA-LIGAND FREE ENERGY PREDICTED BY IDOCK:   -0.38 KCAL/MOL
REMARK 927      BINDING AFFINITY PREDICTED BY RF-SCORE:    0.00 PKD
ROOT
HETATM    1  C   UNL     1     -12.609   8.310  72.015  1.00  0.00    -0.387 C  
HETATM    2  C   UNL     1     -13.410   9.487  71.464  1.00  0.00    -0.470 C  
HETATM    3  C   UNL     1     -12.521  10.696  71.166  1.00  0.00    -0.523 C  
HETATM    4  C   UNL     1     -11.316  10.361  70.264  1.00  0.00    -0.328 C  
HETATM    5  C   UNL     1     -10.541   9.177  70.874  1.00  0.00    -0.341 C  
HETATM    6  C   UNL     1     -11.432   7.957  71.112  1.00  0.00    -0.297 C  
ENDROOT
BRANCH   4   7
HETATM    7  N   UNL     1     -11.768  10.073  68.895  1.00  0.00    -0.488 N  
HETATM    8  H   UNL     1     -12.664   9.608  68.749  1.00  0.00     0.000 HD 
BRANCH   7   9
HETATM    9  S   UNL     1     -10.836  10.497  67.578  1.00  0.00    -0.299 SA 
BRANCH   9  10
HETATM   10  C   UNL     1     -10.214   8.920  67.102  1.00  0.00    -0.269 A  
HETATM   11  N   UNL     1     -10.723   7.808  67.584  1.00  0.00    -0.199 NA 
HETATM   12  C   UNL     1     -10.057   6.725  67.030  1.00  0.00    -0.200 A  
HETATM   13  C   UNL     1     -10.323   5.367  67.300  1.00  0.00    -0.273 A  
HETATM   14  C   UNL     1      -9.567   4.371  66.675  1.00  0.00    -0.213 A  
HETATM   15  C   UNL     1      -8.556   4.711  65.781  1.00  0.00    -0.122 A  
HETATM   16  C   UNL     1      -8.274   6.047  65.492  1.00  0.00    -0.142 A  
HETATM   17  C   UNL     1      -9.040   7.041  66.126  1.00  0.00    -0.115 A  
HETATM   18  S   UNL     1      -8.943   8.752  65.971  1.00  0.00    -0.204 SA 
ENDBRANCH   9  10
ENDBRANCH   7   9
ENDBRANCH   4   7
TORSDOF 3
ENDMDL
MODEL       95
REMARK 921   NORMALIZED FREE ENERGY PREDICTED BY IDOCK:   -4.23 KCAL/MOL
REMARK 922        TOTAL FREE ENERGY PREDICTED BY IDOCK:   -5.24 KCAL/MOL
REMARK 923 INTER-LIGAND FREE ENERGY PREDICTED BY IDOCK:   -5.33 KCAL/MOL
REMARK 924 INTRA-LIGAND FREE ENERGY PREDICTED BY IDOCK:    0.09 KCAL/MOL
REMARK 927      BINDING AFFINITY PREDICTED BY RF-SCORE:    0.00 PKD
ROOT
HETATM    1  C   UNL     1     -12.071  15.501  70.448  1.00  0.00    -0.426 C  
HETATM    2  C   UNL     1     -11.863  16.274  69.148  1.00  0.00    -0.070 C  
HETATM    3  C   UNL     1     -10.869  15.575  68.218  1.00  0.00    -0.292 C  
HETATM    4  C   UNL     1     -11.222  14.098  67.947  1.00  0.00    -0.279 C  
HETATM    5  C   UNL     1     -11.409  13.367  69.291  1.00  0.00    -0.314 C  
HETATM    6  C   UNL     1     -12.446  14.047  70.185  1.00  0.00    -0.380 C  
ENDROOT
BRANCH   4   7
HETATM    7  N   UNL     1     -12.421  14.007  67.102  1.00  0.00    -0.510 N  
HETATM    8  H   UNL     1     -13.340  13.937  67.540  1.00  0.00     0.000 HD 
BRANCH   7   9
HETATM    9  S   UNL     1     -12.301  14.016  65.438  1.00  0.00    -0.492 SA 
BRANCH   9  10
HETATM   10  C   UNL     1     -11.298  12.592  65.180  1.00  0.00    -0.308 A  
HETATM   11  N   UNL     1     -11.106  11.706  66.131  1.00  0.00    -0.300 NA 
HETATM   12  C   UNL     1     -10.294  10.690  65.650  1.00  0.00    -0.216 A  
HETATM   13  C   UNL     1      -9.870   9.559  66.376  1.00  0.00    -0.320 A  
HETATM   14  C   UNL     1      -9.043   8.610  65.769  1.00  0.00    -0.242 A  
HETATM   15  C   UNL     1      -8.639   8.771  64.447  1.00  0.00    -0.110 A  
HETATM   16  C   UNL     1      -9.047   9.880  63.702  1.00  0.00    -0.294 A  
HETATM   17  C   UNL     1      -9.879  10.828  64.323  1.00  0.00    -0.326 A  
HETATM   18  S   UNL     1     -10.549  12.274  63.675  1.00  0.00    -0.454 SA 
ENDBRANCH   9  10
ENDBRANCH   7   9
ENDBRANCH   4   7
TORSDOF 3
ENDMDL
MODEL       96
REMARK 921   NORMALIZED FREE ENERGY PREDICTED BY IDOCK:   -4.22 KCAL/MOL
REMARK 922        TOTAL FREE ENERGY PREDICTED BY IDOCK:   -5.23 KCAL/MOL
REMARK 923 INTER-LIGAND FREE ENERGY PREDICTED BY IDOCK:   -5.01 KCAL/MOL
REMARK 924 INTRA-LIGAND FREE ENERGY PREDICTED BY IDOCK:   -0.22 KCAL/MOL
REMARK 927      BINDING AFFINITY PREDICTED BY RF-SCORE:    0.00 PKD
ROOT
HETATM    1  C   UNL     1      -7.573  20.161  66.373  1.00  0.00    -0.309 C  
HETATM    2  C   UNL     1      -7.210  18.694  66.155  1.00  0.00    -0.296 C  
HETATM    3  C   UNL     1      -7.306  17.883  67.450  1.00  0.00    -0.205 C  
HETATM    4  C   UNL     1      -8.665  18.029  68.163  1.00  0.00    -0.272 C  
HETATM    5  C   UNL     1      -8.973  19.525  68.364  1.00  0.00    -0.397 C  
HETATM    6  C   UNL     1      -8.929  20.311  67.053  1.00  0.00    -0.451 C  
ENDROOT
BRANCH   4   7
HETATM    7  N   UNL     1      -9.719  17.351  67.395  1.00  0.00    -0.263 N  
HETATM    8  H   UNL     1      -9.643  17.293  66.379  1.00  0.00     0.000 HD 
BRANCH   7   9
HETATM    9  S   UNL     1     -11.038  16.675  68.161  1.00  0.00    -0.198 SA 
BRANCH   9  10
HETATM   10  C   UNL     1     -10.831  14.981  67.728  1.00  0.00    -0.284 A  
HETATM   11  N   UNL     1     -11.381  14.020  68.434  1.00  0.00    -0.274 NA 
HETATM   12  C   UNL     1     -11.068  12.797  67.860  1.00  0.00    -0.246 A  
HETATM   13  C   UNL     1     -11.482  11.534  68.332  1.00  0.00    -0.364 A  
HETATM   14  C   UNL     1     -11.086  10.375  67.659  1.00  0.00    -0.361 A  
HETATM   15  C   UNL     1     -10.291  10.458  66.520  1.00  0.00    -0.287 A  
HETATM   16  C   UNL     1      -9.870  11.696  66.028  1.00  0.00    -0.258 A  
HETATM   17  C   UNL     1     -10.273  12.855  66.713  1.00  0.00    -0.241 A  
HETATM   18  S   UNL     1      -9.932  14.503  66.354  1.00  0.00    -0.305 SA 
ENDBRANCH   9  10
ENDBRANCH   7   9
ENDBRANCH   4   7
TORSDOF 3
ENDMDL
MODEL       97
REMARK 921   NORMALIZED FREE ENERGY PREDICTED BY IDOCK:   -4.21 KCAL/MOL
REMARK 922        TOTAL FREE ENERGY PREDICTED BY IDOCK:   -5.22 KCAL/MOL
REMARK 923 INTER-LIGAND FREE ENERGY PREDICTED BY IDOCK:   -4.96 KCAL/MOL
REMARK 924 INTRA-LIGAND FREE ENERGY PREDICTED BY IDOCK:   -0.26 KCAL/MOL
REMARK 927      BINDING AFFINITY PREDICTED BY RF-SCORE:    0.00 PKD
ROOT
HETATM    1  C   UNL     1      -9.437  12.140  66.639  1.00  0.00    -0.226 C  
HETATM    2  C   UNL     1      -9.060  12.925  67.893  1.00  0.00    -0.201 C  
HETATM    3  C   UNL     1     -10.228  13.766  68.414  1.00  0.00    -0.248 C  
HETATM    4  C   UNL     1     -11.520  12.952  68.625  1.00  0.00    -0.308 C  
HETATM    5  C   UNL     1     -11.856  12.190  67.329  1.00  0.00    -0.293 C  
HETATM    6  C   UNL     1     -10.699  11.311  66.852  1.00  0.00    -0.319 C  
ENDROOT
BRANCH   4   7
HETATM    7  N   UNL     1     -11.370  12.043  69.771  1.00  0.00    -0.490 N  
HETATM    8  H   UNL     1     -10.496  12.041  70.299  1.00  0.00     0.000 HD 
BRANCH   7   9
HETATM    9  S   UNL     1     -12.605  11.016  70.220  1.00  0.00    -0.195 SA 
BRANCH   9  10
HETATM   10  C   UNL     1     -11.707   9.817  71.145  1.00  0.00    -0.385 A  
HETATM   11  N   UNL     1     -10.405   9.692  71.025  1.00  0.00    -0.280 NA 
HETATM   12  C   UNL     1      -9.963   8.690  71.876  1.00  0.00    -0.322 A  
HETATM   13  C   UNL     1      -8.627   8.268  72.030  1.00  0.00    -0.238 A  
HETATM   14  C   UNL     1      -8.320   7.237  72.922  1.00  0.00    -0.132 A  
HETATM   15  C   UNL     1      -9.326   6.625  73.665  1.00  0.00    -0.173 A  
HETATM   16  C   UNL     1     -10.657   7.026  73.536  1.00  0.00    -0.405 A  
HETATM   17  C   UNL     1     -10.955   8.064  72.636  1.00  0.00    -0.382 A  
HETATM   18  S   UNL     1     -12.475   8.779  72.266  1.00  0.00    -0.364 SA 
ENDBRANCH   9  10
ENDBRANCH   7   9
ENDBRANCH   4   7
TORSDOF 3
ENDMDL
MODEL       98
REMARK 921   NORMALIZED FREE ENERGY PREDICTED BY IDOCK:   -4.20 KCAL/MOL
REMARK 922        TOTAL FREE ENERGY PREDICTED BY IDOCK:   -5.21 KCAL/MOL
REMARK 923 INTER-LIGAND FREE ENERGY PREDICTED BY IDOCK:   -4.95 KCAL/MOL
REMARK 924 INTRA-LIGAND FREE ENERGY PREDICTED BY IDOCK:   -0.26 KCAL/MOL
REMARK 927      BINDING AFFINITY PREDICTED BY RF-SCORE:    0.00 PKD
ROOT
HETATM    1  C   UNL     1     -10.645  16.341  67.555  1.00  0.00    -0.310 C  
HETATM    2  C   UNL     1     -10.778  15.851  68.995  1.00  0.00    -0.251 C  
HETATM    3  C   UNL     1     -11.952  14.883  69.164  1.00  0.00    -0.313 C  
HETATM    4  C   UNL     1     -11.922  13.707  68.167  1.00  0.00    -0.355 C  
HETATM    5  C   UNL     1     -11.797  14.261  66.734  1.00  0.00    -0.449 C  
HETATM    6  C   UNL     1     -10.587  15.181  66.569  1.00  0.00    -0.304 C  
ENDROOT
BRANCH   4   7
HETATM    7  N   UNL     1     -10.825  12.787  68.496  1.00  0.00    -0.246 N  
HETATM    8  H   UNL     1     -10.253  12.962  69.323  1.00  0.00     0.000 HD 
BRANCH   7   9
HETATM    9  S   UNL     1     -10.501  11.460  67.538  1.00  0.00    -0.211 SA 
BRANCH   9  10
HETATM   10  C   UNL     1     -10.775  10.156  68.689  1.00  0.00    -0.222 A  
HETATM   11  N   UNL     1     -11.170  10.399  69.919  1.00  0.00    -0.285 NA 
HETATM   12  C   UNL     1     -11.320   9.197  70.594  1.00  0.00    -0.273 A  
HETATM   13  C   UNL     1     -11.735   9.049  71.933  1.00  0.00    -0.445 A  
HETATM   14  C   UNL     1     -11.837   7.773  72.495  1.00  0.00    -0.354 A  
HETATM   15  C   UNL     1     -11.539   6.644  71.737  1.00  0.00    -0.347 A  
HETATM   16  C   UNL     1     -11.131   6.761  70.407  1.00  0.00    -0.357 A  
HETATM   17  C   UNL     1     -11.031   8.049  69.852  1.00  0.00    -0.172 A  
HETATM   18  S   UNL     1     -10.572   8.514  68.261  1.00  0.00    -0.057 SA 
ENDBRANCH   9  10
ENDBRANCH   7   9
ENDBRANCH   4   7
TORSDOF 3
ENDMDL
MODEL       99
REMARK 921   NORMALIZED FREE ENERGY PREDICTED BY IDOCK:   -4.20 KCAL/MOL
REMARK 922        TOTAL FREE ENERGY PREDICTED BY IDOCK:   -5.21 KCAL/MOL
REMARK 923 INTER-LIGAND FREE ENERGY PREDICTED BY IDOCK:   -4.92 KCAL/MOL
REMARK 924 INTRA-LIGAND FREE ENERGY PREDICTED BY IDOCK:   -0.28 KCAL/MOL
REMARK 927      BINDING AFFINITY PREDICTED BY RF-SCORE:    0.00 PKD
ROOT
HETATM    1  C   UNL     1     -12.842  13.808  65.466  1.00  0.00    -0.464 C  
HETATM    2  C   UNL     1     -11.673  13.707  64.490  1.00  0.00    -0.429 C  
HETATM    3  C   UNL     1     -10.508  14.613  64.897  1.00  0.00    -0.415 C  
HETATM    4  C   UNL     1     -10.048  14.398  66.353  1.00  0.00    -0.286 C  
HETATM    5  C   UNL     1     -11.264  14.521  67.291  1.00  0.00    -0.341 C  
HETATM    6  C   UNL     1     -12.397  13.570  66.905  1.00  0.00    -0.289 C  
ENDROOT
BRANCH   4   7
HETATM    7  N   UNL     1      -9.379  13.097  66.491  1.00  0.00    -0.347 N  
HETATM    8  H   UNL     1      -9.652  12.324  65.883  1.00  0.00     0.000 HD 
BRANCH   7   9
HETATM    9  S   UNL     1      -8.179  12.865  67.627  1.00  0.00    -0.191 SA 
BRANCH   9  10
HETATM   10  C   UNL     1      -8.952  11.679  68.674  1.00  0.00    -0.084 A  
HETATM   11  N   UNL     1     -10.235  11.741  68.951  1.00  0.00    -0.153 NA 
HETATM   12  C   UNL     1     -10.574  10.681  69.779  1.00  0.00    -0.184 A  
HETATM   13  C   UNL     1     -11.861  10.410  70.286  1.00  0.00    -0.399 A  
HETATM   14  C   UNL     1     -12.063   9.306  71.120  1.00  0.00    -0.389 A  
HETATM   15  C   UNL     1     -11.001   8.468  71.449  1.00  0.00    -0.329 A  
HETATM   16  C   UNL     1      -9.717   8.711  70.957  1.00  0.00    -0.266 A  
HETATM   17  C   UNL     1      -9.525   9.824  70.119  1.00  0.00    -0.229 A  
HETATM   18  S   UNL     1      -8.084  10.374  69.357  1.00  0.00    -0.128 SA 
ENDBRANCH   9  10
ENDBRANCH   7   9
ENDBRANCH   4   7
TORSDOF 3
ENDMDL
MODEL      100
REMARK 921   NORMALIZED FREE ENERGY PREDICTED BY IDOCK:   -4.20 KCAL/MOL
REMARK 922        TOTAL FREE ENERGY PREDICTED BY IDOCK:   -5.20 KCAL/MOL
REMARK 923 INTER-LIGAND FREE ENERGY PREDICTED BY IDOCK:   -5.00 KCAL/MOL
REMARK 924 INTRA-LIGAND FREE ENERGY PREDICTED BY IDOCK:   -0.20 KCAL/MOL
REMARK 927      BINDING AFFINITY PREDICTED BY RF-SCORE:    0.00 PKD
ROOT
HETATM    1  C   UNL     1      -8.253  17.322  67.296  1.00  0.00    -0.213 C  
HETATM    2  C   UNL     1      -8.948  17.005  68.618  1.00  0.00    -0.267 C  
HETATM    3  C   UNL     1     -10.472  17.047  68.488  1.00  0.00    -0.373 C  
HETATM    4  C   UNL     1     -11.011  16.167  67.342  1.00  0.00    -0.210 C  
HETATM    5  C   UNL     1     -10.283  16.536  66.035  1.00  0.00    -0.372 C  
HETATM    6  C   UNL     1      -8.763  16.435  66.166  1.00  0.00    -0.347 C  
ENDROOT
BRANCH   4   7
HETATM    7  N   UNL     1     -10.854  14.744  67.674  1.00  0.00    -0.278 N  
HETATM    8  H   UNL     1     -10.229  14.471  68.433  1.00  0.00     0.000 HD 
BRANCH   7   9
HETATM    9  S   UNL     1     -11.680  13.569  66.826  1.00  0.00    -0.413 SA 
BRANCH   9  10
HETATM   10  C   UNL     1     -11.549  12.214  67.942  1.00  0.00    -0.347 A  
HETATM   11  N   UNL     1     -11.000  11.076  67.579  1.00  0.00    -0.262 NA 
HETATM   12  C   UNL     1     -11.017  10.199  68.653  1.00  0.00    -0.230 A  
HETATM   13  C   UNL     1     -10.512   8.883  68.651  1.00  0.00    -0.223 A  
HETATM   14  C   UNL     1     -10.601   8.101  69.807  1.00  0.00    -0.231 A  
HETATM   15  C   UNL     1     -11.178   8.616  70.964  1.00  0.00    -0.321 A  
HETATM   16  C   UNL     1     -11.681   9.918  70.995  1.00  0.00    -0.466 A  
HETATM   17  C   UNL     1     -11.588  10.696  69.828  1.00  0.00    -0.309 A  
HETATM   18  S   UNL     1     -12.100  12.316  69.558  1.00  0.00    -0.137 SA 
ENDBRANCH   9  10
ENDBRANCH   7   9
ENDBRANCH   4   7
TORSDOF 3
ENDMDL
MODEL      101
REMARK 921   NORMALIZED FREE ENERGY PREDICTED BY IDOCK:   -4.16 KCAL/MOL
REMARK 922        TOTAL FREE ENERGY PREDICTED BY IDOCK:   -5.16 KCAL/MOL
REMARK 923 INTER-LIGAND FREE ENERGY PREDICTED BY IDOCK:   -4.92 KCAL/MOL
REMARK 924 INTRA-LIGAND FREE ENERGY PREDICTED BY IDOCK:   -0.24 KCAL/MOL
REMARK 927      BINDING AFFINITY PREDICTED BY RF-SCORE:    0.00 PKD
ROOT
HETATM    1  C   UNL     1     -11.861  14.600  64.921  1.00  0.00    -0.403 C  
HETATM    2  C   UNL     1     -10.373  14.292  64.773  1.00  0.00    -0.373 C  
HETATM    3  C   UNL     1      -9.729  13.921  66.110  1.00  0.00    -0.289 C  
HETATM    4  C   UNL     1     -10.469  12.789  66.851  1.00  0.00    -0.240 C  
HETATM    5  C   UNL     1     -11.960  13.158  66.980  1.00  0.00    -0.412 C  
HETATM    6  C   UNL     1     -12.602  13.471  65.628  1.00  0.00    -0.512 C  
ENDROOT
BRANCH   4   7
HETATM    7  N   UNL     1     -10.280  11.511  66.149  1.00  0.00    -0.225 N  
HETATM    8  H   UNL     1     -10.974  11.205  65.467  1.00  0.00     0.000 HD 
BRANCH   7   9
HETATM    9  S   UNL     1      -8.947  10.555  66.452  1.00  0.00    -0.163 SA 
BRANCH   9  10
HETATM   10  C   UNL     1      -9.562   9.550  67.761  1.00  0.00    -0.133 A  
HETATM   11  N   UNL     1      -9.977   8.322  67.546  1.00  0.00    -0.177 NA 
HETATM   12  C   UNL     1     -10.389   7.764  68.747  1.00  0.00    -0.204 A  
HETATM   13  C   UNL     1     -10.894   6.459  68.920  1.00  0.00    -0.382 A  
HETATM   14  C   UNL     1     -11.282   6.025  70.190  1.00  0.00    -0.412 A  
HETATM   15  C   UNL     1     -11.167   6.870  71.290  1.00  0.00    -0.306 A  
HETATM   16  C   UNL     1     -10.666   8.166  71.148  1.00  0.00    -0.258 A  
HETATM   17  C   UNL     1     -10.279   8.593  69.866  1.00  0.00    -0.203 A  
HETATM   18  S   UNL     1      -9.623  10.106  69.377  1.00  0.00    -0.225 SA 
ENDBRANCH   9  10
ENDBRANCH   7   9
ENDBRANCH   4   7
TORSDOF 3
ENDMDL
MODEL      102
REMARK 921   NORMALIZED FREE ENERGY PREDICTED BY IDOCK:   -4.15 KCAL/MOL
REMARK 922        TOTAL FREE ENERGY PREDICTED BY IDOCK:   -5.15 KCAL/MOL
REMARK 923 INTER-LIGAND FREE ENERGY PREDICTED BY IDOCK:   -4.90 KCAL/MOL
REMARK 924 INTRA-LIGAND FREE ENERGY PREDICTED BY IDOCK:   -0.25 KCAL/MOL
REMARK 927      BINDING AFFINITY PREDICTED BY RF-SCORE:    0.00 PKD
ROOT
HETATM    1  C   UNL     1     -11.627  12.387  68.029  1.00  0.00    -0.403 C  
HETATM    2  C   UNL     1     -10.388  11.947  67.252  1.00  0.00    -0.228 C  
HETATM    3  C   UNL     1     -10.601  12.035  65.738  1.00  0.00    -0.301 C  
HETATM    4  C   UNL     1     -11.099  13.417  65.271  1.00  0.00    -0.291 C  
HETATM    5  C   UNL     1     -12.353  13.804  66.080  1.00  0.00    -0.496 C  
HETATM    6  C   UNL     1     -12.107  13.766  67.589  1.00  0.00    -0.333 C  
ENDROOT
BRANCH   4   7
HETATM    7  N   UNL     1     -10.031  14.418  65.405  1.00  0.00    -0.499 N  
HETATM    8  H   UNL     1      -9.060  14.110  65.469  1.00  0.00     0.000 HD 
BRANCH   7   9
HETATM    9  S   UNL     1     -10.382  16.048  65.456  1.00  0.00    -0.360 SA 
BRANCH   9  10
HETATM   10  C   UNL     1      -9.185  16.600  66.623  1.00  0.00    -0.253 A  
HETATM   11  N   UNL     1      -8.607  15.767  67.459  1.00  0.00    -0.162 NA 
HETATM   12  C   UNL     1      -7.704  16.465  68.246  1.00  0.00    -0.162 A  
HETATM   13  C   UNL     1      -6.890  15.913  69.255  1.00  0.00    -0.189 A  
HETATM   14  C   UNL     1      -6.025  16.736  69.982  1.00  0.00    -0.187 A  
HETATM   15  C   UNL     1      -5.956  18.100  69.710  1.00  0.00    -0.231 A  
HETATM   16  C   UNL     1      -6.747  18.673  68.712  1.00  0.00    -0.288 A  
HETATM   17  C   UNL     1      -7.614  17.836  67.988  1.00  0.00    -0.236 A  
HETATM   18  S   UNL     1      -8.693  18.235  66.709  1.00  0.00    -0.279 SA 
ENDBRANCH   9  10
ENDBRANCH   7   9
ENDBRANCH   4   7
TORSDOF 3
ENDMDL
MODEL      103
REMARK 921   NORMALIZED FREE ENERGY PREDICTED BY IDOCK:   -4.12 KCAL/MOL
REMARK 922        TOTAL FREE ENERGY PREDICTED BY IDOCK:   -5.11 KCAL/MOL
REMARK 923 INTER-LIGAND FREE ENERGY PREDICTED BY IDOCK:   -4.97 KCAL/MOL
REMARK 924 INTRA-LIGAND FREE ENERGY PREDICTED BY IDOCK:   -0.14 KCAL/MOL
REMARK 927      BINDING AFFINITY PREDICTED BY RF-SCORE:    0.00 PKD
ROOT
HETATM    1  C   UNL     1     -10.920   6.432  72.831  1.00  0.00    -0.281 C  
HETATM    2  C   UNL     1     -10.913   5.854  71.418  1.00  0.00    -0.327 C  
HETATM    3  C   UNL     1     -11.768   6.683  70.456  1.00  0.00    -0.453 C  
HETATM    4  C   UNL     1     -11.405   8.182  70.455  1.00  0.00    -0.221 C  
HETATM    5  C   UNL     1     -11.438   8.712  71.902  1.00  0.00    -0.419 C  
HETATM    6  C   UNL     1     -10.535   7.907  72.838  1.00  0.00    -0.422 C  
ENDROOT
BRANCH   4   7
HETATM    7  N   UNL     1     -10.094   8.389  69.825  1.00  0.00    -0.193 N  
HETATM    8  H   UNL     1      -9.699   7.658  69.233  1.00  0.00     0.000 HD 
BRANCH   7   9
HETATM    9  S   UNL     1      -9.241   9.803  70.064  1.00  0.00    -0.189 SA 
BRANCH   9  10
HETATM   10  C   UNL     1      -9.686  10.697  68.614  1.00  0.00    -0.178 A  
HETATM   11  N   UNL     1      -9.344  11.955  68.452  1.00  0.00    -0.200 NA 
HETATM   12  C   UNL     1      -9.809  12.399  67.223  1.00  0.00    -0.207 A  
HETATM   13  C   UNL     1      -9.634  13.694  66.693  1.00  0.00    -0.289 A  
HETATM   14  C   UNL     1     -10.163  14.011  65.439  1.00  0.00    -0.368 A  
HETATM   15  C   UNL     1     -10.858  13.055  64.705  1.00  0.00    -0.373 A  
HETATM   16  C   UNL     1     -11.043  11.763  65.204  1.00  0.00    -0.341 A  
HETATM   17  C   UNL     1     -10.506  11.455  66.466  1.00  0.00    -0.249 A  
HETATM   18  S   UNL     1     -10.556   9.970  67.334  1.00  0.00    -0.264 SA 
ENDBRANCH   9  10
ENDBRANCH   7   9
ENDBRANCH   4   7
TORSDOF 3
ENDMDL
MODEL      104
REMARK 921   NORMALIZED FREE ENERGY PREDICTED BY IDOCK:   -4.11 KCAL/MOL
REMARK 922        TOTAL FREE ENERGY PREDICTED BY IDOCK:   -5.10 KCAL/MOL
REMARK 923 INTER-LIGAND FREE ENERGY PREDICTED BY IDOCK:   -4.86 KCAL/MOL
REMARK 924 INTRA-LIGAND FREE ENERGY PREDICTED BY IDOCK:   -0.24 KCAL/MOL
REMARK 927      BINDING AFFINITY PREDICTED BY RF-SCORE:    0.00 PKD
ROOT
HETATM    1  C   UNL     1     -11.383  14.148  66.716  1.00  0.00    -0.353 C  
HETATM    2  C   UNL     1     -11.552  14.341  68.221  1.00  0.00    -0.358 C  
HETATM    3  C   UNL     1     -12.235  13.140  68.880  1.00  0.00    -0.097 C  
HETATM    4  C   UNL     1     -11.552  11.797  68.556  1.00  0.00    -0.321 C  
HETATM    5  C   UNL     1     -11.418  11.652  67.028  1.00  0.00    -0.336 C  
HETATM    6  C   UNL     1     -10.683  12.834  66.393  1.00  0.00    -0.282 C  
ENDROOT
BRANCH   4   7
HETATM    7  N   UNL     1     -10.249  11.711  69.231  1.00  0.00    -0.425 N  
HETATM    8  H   UNL     1     -10.006  12.399  69.944  1.00  0.00     0.000 HD 
BRANCH   7   9
HETATM    9  S   UNL     1      -9.161  10.505  68.847  1.00  0.00    -0.184 SA 
BRANCH   9  10
HETATM   10  C   UNL     1      -9.637   9.263  70.000  1.00  0.00    -0.209 A  
HETATM   11  N   UNL     1      -9.262   9.316  71.259  1.00  0.00    -0.278 NA 
HETATM   12  C   UNL     1      -9.788   8.226  71.937  1.00  0.00    -0.232 A  
HETATM   13  C   UNL     1      -9.608   7.942  73.306  1.00  0.00    -0.351 A  
HETATM   14  C   UNL     1     -10.192   6.800  73.862  1.00  0.00    -0.396 A  
HETATM   15  C   UNL     1     -10.956   5.944  73.075  1.00  0.00    -0.303 A  
HETATM   16  C   UNL     1     -11.154   6.204  71.717  1.00  0.00    -0.327 A  
HETATM   17  C   UNL     1     -10.563   7.355  71.167  1.00  0.00    -0.222 A  
HETATM   18  S   UNL     1     -10.631   7.946  69.553  1.00  0.00    -0.190 SA 
ENDBRANCH   9  10
ENDBRANCH   7   9
ENDBRANCH   4   7
TORSDOF 3
ENDMDL
MODEL      105
REMARK 921   NORMALIZED FREE ENERGY PREDICTED BY IDOCK:   -4.05 KCAL/MOL
REMARK 922        TOTAL FREE ENERGY PREDICTED BY IDOCK:   -5.03 KCAL/MOL
REMARK 923 INTER-LIGAND FREE ENERGY PREDICTED BY IDOCK:   -4.81 KCAL/MOL
REMARK 924 INTRA-LIGAND FREE ENERGY PREDICTED BY IDOCK:   -0.22 KCAL/MOL
REMARK 927      BINDING AFFINITY PREDICTED BY RF-SCORE:    0.00 PKD
ROOT
HETATM    1  C   UNL     1     -11.338  14.784  66.836  1.00  0.00    -0.358 C  
HETATM    2  C   UNL     1     -11.164  14.989  68.339  1.00  0.00    -0.303 C  
HETATM    3  C   UNL     1     -11.884  13.909  69.151  1.00  0.00    -0.401 C  
HETATM    4  C   UNL     1     -11.508  12.475  68.728  1.00  0.00    -0.310 C  
HETATM    5  C   UNL     1     -11.712  12.325  67.209  1.00  0.00    -0.394 C  
HETATM    6  C   UNL     1     -10.941  13.376  66.410  1.00  0.00    -0.297 C  
ENDROOT
BRANCH   4   7
HETATM    7  N   UNL     1     -10.126  12.171  69.129  1.00  0.00    -0.404 N  
HETATM    8  H   UNL     1      -9.665  12.756  69.825  1.00  0.00     0.000 HD 
BRANCH   7   9
HETATM    9  S   UNL     1      -9.303  10.884  68.459  1.00  0.00    -0.187 SA 
BRANCH   9  10
HETATM   10  C   UNL     1      -9.649   9.629  69.644  1.00  0.00    -0.208 A  
HETATM   11  N   UNL     1     -10.803   9.002  69.663  1.00  0.00    -0.218 NA 
HETATM   12  C   UNL     1     -10.795   8.061  70.682  1.00  0.00    -0.234 A  
HETATM   13  C   UNL     1     -11.855   7.191  71.010  1.00  0.00    -0.373 A  
HETATM   14  C   UNL     1     -11.715   6.293  72.071  1.00  0.00    -0.374 A  
HETATM   15  C   UNL     1     -10.532   6.245  72.804  1.00  0.00    -0.236 A  
HETATM   16  C   UNL     1      -9.465   7.092  72.498  1.00  0.00    -0.167 A  
HETATM   17  C   UNL     1      -9.616   7.993  71.429  1.00  0.00    -0.154 A  
HETATM   18  S   UNL     1      -8.495   9.141  70.808  1.00  0.00    -0.197 SA 
ENDBRANCH   9  10
ENDBRANCH   7   9
ENDBRANCH   4   7
TORSDOF 3
ENDMDL
MODEL      106
REMARK 921   NORMALIZED FREE ENERGY PREDICTED BY IDOCK:   -4.03 KCAL/MOL
REMARK 922        TOTAL FREE ENERGY PREDICTED BY IDOCK:   -5.00 KCAL/MOL
REMARK 923 INTER-LIGAND FREE ENERGY PREDICTED BY IDOCK:   -4.75 KCAL/MOL
REMARK 924 INTRA-LIGAND FREE ENERGY PREDICTED BY IDOCK:   -0.26 KCAL/MOL
REMARK 927      BINDING AFFINITY PREDICTED BY RF-SCORE:    0.00 PKD
ROOT
HETATM    1  C   UNL     1     -10.695  11.425  63.966  1.00  0.00    -0.450 C  
HETATM    2  C   UNL     1     -10.929  12.926  64.116  1.00  0.00    -0.442 C  
HETATM    3  C   UNL     1     -11.195  13.321  65.571  1.00  0.00    -0.307 C  
HETATM    4  C   UNL     1     -10.113  12.817  66.548  1.00  0.00    -0.258 C  
HETATM    5  C   UNL     1      -9.928  11.299  66.359  1.00  0.00    -0.252 C  
HETATM    6  C   UNL     1      -9.607  10.927  64.911  1.00  0.00    -0.297 C  
ENDROOT
BRANCH   4   7
HETATM    7  N   UNL     1      -8.857  13.552  66.342  1.00  0.00    -0.449 N  
HETATM    8  H   UNL     1      -8.740  14.124  65.505  1.00  0.00     0.000 HD 
BRANCH   7   9
HETATM    9  S   UNL     1      -7.620  13.465  67.458  1.00  0.00    -0.148 SA 
BRANCH   9  10
HETATM   10  C   UNL     1      -7.472  15.161  67.908  1.00  0.00    -0.137 A  
HETATM   11  N   UNL     1      -8.312  16.065  67.460  1.00  0.00    -0.156 NA 
HETATM   12  C   UNL     1      -7.971  17.303  67.983  1.00  0.00    -0.215 A  
HETATM   13  C   UNL     1      -8.642  18.518  67.734  1.00  0.00    -0.286 A  
HETATM   14  C   UNL     1      -8.185  19.700  68.324  1.00  0.00    -0.357 A  
HETATM   15  C   UNL     1      -7.074  19.686  69.162  1.00  0.00    -0.378 A  
HETATM   16  C   UNL     1      -6.393  18.497  69.429  1.00  0.00    -0.271 A  
HETATM   17  C   UNL     1      -6.860  17.314  68.831  1.00  0.00    -0.226 A  
HETATM   18  S   UNL     1      -6.251  15.711  68.972  1.00  0.00    -0.118 SA 
ENDBRANCH   9  10
ENDBRANCH   7   9
ENDBRANCH   4   7
TORSDOF 3
ENDMDL
MODEL      107
REMARK 921   NORMALIZED FREE ENERGY PREDICTED BY IDOCK:   -4.02 KCAL/MOL
REMARK 922        TOTAL FREE ENERGY PREDICTED BY IDOCK:   -4.99 KCAL/MOL
REMARK 923 INTER-LIGAND FREE ENERGY PREDICTED BY IDOCK:   -4.69 KCAL/MOL
REMARK 924 INTRA-LIGAND FREE ENERGY PREDICTED BY IDOCK:   -0.31 KCAL/MOL
REMARK 927      BINDING AFFINITY PREDICTED BY RF-SCORE:    0.00 PKD
ROOT
HETATM    1  C   UNL     1     -12.029  12.570  63.263  1.00  0.00    -0.516 C  
HETATM    2  C   UNL     1     -12.117  13.701  64.285  1.00  0.00    -0.480 C  
HETATM    3  C   UNL     1     -12.119  13.175  65.722  1.00  0.00    -0.502 C  
HETATM    4  C   UNL     1     -10.941  12.228  66.027  1.00  0.00    -0.292 C  
HETATM    5  C   UNL     1     -10.907  11.105  64.973  1.00  0.00    -0.244 C  
HETATM    6  C   UNL     1     -10.849  11.648  63.545  1.00  0.00    -0.497 C  
ENDROOT
BRANCH   4   7
HETATM    7  N   UNL     1      -9.679  12.981  66.066  1.00  0.00    -0.378 N  
HETATM    8  H   UNL     1      -9.282  13.343  65.199  1.00  0.00     0.000 HD 
BRANCH   7   9
HETATM    9  S   UNL     1      -8.886  13.252  67.509  1.00  0.00    -0.219 SA 
BRANCH   9  10
HETATM   10  C   UNL     1      -9.100  11.690  68.293  1.00  0.00    -0.187 A  
HETATM   11  N   UNL     1      -9.954  11.527  69.277  1.00  0.00     0.077 NA 
HETATM   12  C   UNL     1      -9.927  10.204  69.691  1.00  0.00    -0.232 A  
HETATM   13  C   UNL     1     -10.708   9.646  70.723  1.00  0.00    -0.401 A  
HETATM   14  C   UNL     1     -10.575   8.292  71.043  1.00  0.00    -0.243 A  
HETATM   15  C   UNL     1      -9.680   7.487  70.345  1.00  0.00    -0.179 A  
HETATM   16  C   UNL     1      -8.896   8.013  69.316  1.00  0.00    -0.141 A  
HETATM   17  C   UNL     1      -9.038   9.376  69.001  1.00  0.00    -0.142 A  
HETATM   18  S   UNL     1      -8.233  10.302  67.795  1.00  0.00    -0.110 SA 
ENDBRANCH   9  10
ENDBRANCH   7   9
ENDBRANCH   4   7
TORSDOF 3
ENDMDL
MODEL      108
REMARK 921   NORMALIZED FREE ENERGY PREDICTED BY IDOCK:   -4.01 KCAL/MOL
REMARK 922        TOTAL FREE ENERGY PREDICTED BY IDOCK:   -4.98 KCAL/MOL
REMARK 923 INTER-LIGAND FREE ENERGY PREDICTED BY IDOCK:   -4.73 KCAL/MOL
REMARK 924 INTRA-LIGAND FREE ENERGY PREDICTED BY IDOCK:   -0.25 KCAL/MOL
REMARK 927      BINDING AFFINITY PREDICTED BY RF-SCORE:    0.00 PKD
ROOT
HETATM    1  C   UNL     1      -9.628   3.600  65.702  1.00  0.00    -0.142 C  
HETATM    2  C   UNL     1      -9.190   3.099  67.076  1.00  0.00    -0.198 C  
HETATM    3  C   UNL     1      -8.454   4.180  67.872  1.00  0.00    -0.102 C  
HETATM    4  C   UNL     1      -9.240   5.502  67.977  1.00  0.00    -0.108 C  
HETATM    5  C   UNL     1      -9.646   5.964  66.564  1.00  0.00    -0.180 C  
HETATM    6  C   UNL     1     -10.429   4.893  65.803  1.00  0.00    -0.227 C  
ENDROOT
BRANCH   4   7
HETATM    7  N   UNL     1     -10.408   5.334  68.854  1.00  0.00    -0.187 N  
HETATM    8  H   UNL     1     -11.328   5.177  68.442  1.00  0.00     0.000 HD 
BRANCH   7   9
HETATM    9  S   UNL     1     -10.250   5.397  70.514  1.00  0.00    -0.266 SA 
BRANCH   9  10
HETATM   10  C   UNL     1     -11.050   6.927  70.856  1.00  0.00    -0.272 A  
HETATM   11  N   UNL     1     -10.684   8.040  70.261  1.00  0.00    -0.236 NA 
HETATM   12  C   UNL     1     -11.488   9.079  70.705  1.00  0.00    -0.248 A  
HETATM   13  C   UNL     1     -11.402  10.424  70.290  1.00  0.00    -0.406 A  
HETATM   14  C   UNL     1     -12.275  11.375  70.826  1.00  0.00    -0.475 A  
HETATM   15  C   UNL     1     -13.235  11.003  71.763  1.00  0.00    -0.505 A  
HETATM   16  C   UNL     1     -13.345   9.678  72.188  1.00  0.00    -0.545 A  
HETATM   17  C   UNL     1     -12.462   8.729  71.643  1.00  0.00    -0.339 A  
HETATM   18  S   UNL     1     -12.357   7.040  71.952  1.00  0.00    -0.296 SA 
ENDBRANCH   9  10
ENDBRANCH   7   9
ENDBRANCH   4   7
TORSDOF 3
ENDMDL
MODEL      109
REMARK 921   NORMALIZED FREE ENERGY PREDICTED BY IDOCK:   -4.00 KCAL/MOL
REMARK 922        TOTAL FREE ENERGY PREDICTED BY IDOCK:   -4.98 KCAL/MOL
REMARK 923 INTER-LIGAND FREE ENERGY PREDICTED BY IDOCK:   -4.64 KCAL/MOL
REMARK 924 INTRA-LIGAND FREE ENERGY PREDICTED BY IDOCK:   -0.34 KCAL/MOL
REMARK 927      BINDING AFFINITY PREDICTED BY RF-SCORE:    0.00 PKD
ROOT
HETATM    1  C   UNL     1     -13.386  10.544  71.342  1.00  0.00    -0.339 C  
HETATM    2  C   UNL     1     -13.362   9.334  72.273  1.00  0.00    -0.547 C  
HETATM    3  C   UNL     1     -12.606   8.154  71.657  1.00  0.00    -0.347 C  
HETATM    4  C   UNL     1     -11.190   8.522  71.172  1.00  0.00    -0.267 C  
HETATM    5  C   UNL     1     -11.277   9.740  70.232  1.00  0.00    -0.347 C  
HETATM    6  C   UNL     1     -11.985  10.929  70.883  1.00  0.00    -0.416 C  
ENDROOT
BRANCH   4   7
HETATM    7  N   UNL     1     -10.308   8.778  72.320  1.00  0.00    -0.306 N  
HETATM    8  H   UNL     1     -10.596   9.445  73.037  1.00  0.00     0.000 HD 
BRANCH   7   9
HETATM    9  S   UNL     1      -8.843   7.993  72.469  1.00  0.00    -0.197 SA 
BRANCH   9  10
HETATM   10  C   UNL     1      -9.383   6.322  72.595  1.00  0.00    -0.145 A  
HETATM   11  N   UNL     1      -9.000   5.410  71.731  1.00  0.00    -0.135 NA 
HETATM   12  C   UNL     1      -9.560   4.190  72.078  1.00  0.00    -0.152 A  
HETATM   13  C   UNL     1      -9.376   2.973  71.390  1.00  0.00    -0.204 A  
HETATM   14  C   UNL     1     -10.009   1.813  71.847  1.00  0.00    -0.221 A  
HETATM   15  C   UNL     1     -10.814   1.849  72.981  1.00  0.00    -0.247 A  
HETATM   16  C   UNL     1     -11.010   3.040  73.684  1.00  0.00    -0.323 A  
HETATM   17  C   UNL     1     -10.370   4.201  73.216  1.00  0.00    -0.164 A  
HETATM   18  S   UNL     1     -10.405   5.795  73.861  1.00  0.00    -0.282 SA 
ENDBRANCH   9  10
ENDBRANCH   7   9
ENDBRANCH   4   7
TORSDOF 3
ENDMDL
MODEL      110
REMARK 921   NORMALIZED FREE ENERGY PREDICTED BY IDOCK:   -3.99 KCAL/MOL
REMARK 922        TOTAL FREE ENERGY PREDICTED BY IDOCK:   -4.96 KCAL/MOL
REMARK 923 INTER-LIGAND FREE ENERGY PREDICTED BY IDOCK:   -4.63 KCAL/MOL
REMARK 924 INTRA-LIGAND FREE ENERGY PREDICTED BY IDOCK:   -0.33 KCAL/MOL
REMARK 927      BINDING AFFINITY PREDICTED BY RF-SCORE:    0.00 PKD
ROOT
HETATM    1  C   UNL     1      -9.629   1.549  72.272  1.00  0.00    -0.152 C  
HETATM    2  C   UNL     1      -9.067   2.692  71.430  1.00  0.00    -0.171 C  
HETATM    3  C   UNL     1     -10.024   3.885  71.374  1.00  0.00    -0.198 C  
HETATM    4  C   UNL     1     -10.470   4.376  72.766  1.00  0.00    -0.186 C  
HETATM    5  C   UNL     1     -11.036   3.185  73.565  1.00  0.00    -0.316 C  
HETATM    6  C   UNL     1     -10.046   2.024  73.659  1.00  0.00    -0.156 C  
ENDROOT
BRANCH   4   7
HETATM    7  N   UNL     1      -9.349   5.020  73.464  1.00  0.00    -0.132 N  
HETATM    8  H   UNL     1      -8.414   4.619  73.391  1.00  0.00     0.000 HD 
BRANCH   7   9
HETATM    9  S   UNL     1      -9.583   6.399  74.374  1.00  0.00    -0.291 SA 
BRANCH   9  10
HETATM   10  C   UNL     1     -10.172   7.505  73.138  1.00  0.00    -0.327 A  
HETATM   11  N   UNL     1     -11.392   7.992  73.177  1.00  0.00    -0.245 NA 
HETATM   12  C   UNL     1     -11.578   8.841  72.097  1.00  0.00    -0.364 A  
HETATM   13  C   UNL     1     -12.758   9.554  71.802  1.00  0.00    -0.492 A  
HETATM   14  C   UNL     1     -12.813  10.374  70.671  1.00  0.00    -0.393 A  
HETATM   15  C   UNL     1     -11.707  10.497  69.836  1.00  0.00    -0.372 A  
HETATM   16  C   UNL     1     -10.524   9.806  70.106  1.00  0.00    -0.338 A  
HETATM   17  C   UNL     1     -10.479   8.984  71.246  1.00  0.00    -0.311 A  
HETATM   18  S   UNL     1      -9.182   8.027  71.845  1.00  0.00    -0.186 SA 
ENDBRANCH   9  10
ENDBRANCH   7   9
ENDBRANCH   4   7
TORSDOF 3
ENDMDL
MODEL      111
REMARK 921   NORMALIZED FREE ENERGY PREDICTED BY IDOCK:   -3.97 KCAL/MOL
REMARK 922        TOTAL FREE ENERGY PREDICTED BY IDOCK:   -4.94 KCAL/MOL
REMARK 923 INTER-LIGAND FREE ENERGY PREDICTED BY IDOCK:   -4.70 KCAL/MOL
REMARK 924 INTRA-LIGAND FREE ENERGY PREDICTED BY IDOCK:   -0.24 KCAL/MOL
REMARK 927      BINDING AFFINITY PREDICTED BY RF-SCORE:    0.00 PKD
ROOT
HETATM    1  C   UNL     1     -10.741  16.462  68.217  1.00  0.00    -0.337 C  
HETATM    2  C   UNL     1     -11.420  15.562  69.247  1.00  0.00    -0.349 C  
HETATM    3  C   UNL     1     -11.937  14.265  68.620  1.00  0.00    -0.348 C  
HETATM    4  C   UNL     1     -10.861  13.500  67.823  1.00  0.00    -0.253 C  
HETATM    5  C   UNL     1     -10.219  14.453  66.796  1.00  0.00    -0.270 C  
HETATM    6  C   UNL     1      -9.657  15.718  67.446  1.00  0.00    -0.217 C  
ENDROOT
BRANCH   4   7
HETATM    7  N   UNL     1      -9.863  12.925  68.736  1.00  0.00    -0.418 N  
HETATM    8  H   UNL     1      -9.917  13.131  69.734  1.00  0.00     0.000 HD 
BRANCH   7   9
HETATM    9  S   UNL     1      -8.643  11.942  68.164  1.00  0.00    -0.168 SA 
BRANCH   9  10
HETATM   10  C   UNL     1      -9.345  10.354  68.456  1.00  0.00    -0.160 A  
HETATM   11  N   UNL     1      -9.474   9.473  67.490  1.00  0.00    -0.130 NA 
HETATM   12  C   UNL     1     -10.038   8.314  68.002  1.00  0.00    -0.198 A  
HETATM   13  C   UNL     1     -10.327   7.144  67.270  1.00  0.00    -0.342 A  
HETATM   14  C   UNL     1     -10.906   6.046  67.913  1.00  0.00    -0.378 A  
HETATM   15  C   UNL     1     -11.192   6.096  69.274  1.00  0.00    -0.438 A  
HETATM   16  C   UNL     1     -10.912   7.241  70.023  1.00  0.00    -0.273 A  
HETATM   17  C   UNL     1     -10.331   8.340  69.367  1.00  0.00    -0.222 A  
HETATM   18  S   UNL     1      -9.864   9.866  70.010  1.00  0.00    -0.204 SA 
ENDBRANCH   9  10
ENDBRANCH   7   9
ENDBRANCH   4   7
TORSDOF 3
ENDMDL
MODEL      112
REMARK 921   NORMALIZED FREE ENERGY PREDICTED BY IDOCK:   -3.97 KCAL/MOL
REMARK 922        TOTAL FREE ENERGY PREDICTED BY IDOCK:   -4.94 KCAL/MOL
REMARK 923 INTER-LIGAND FREE ENERGY PREDICTED BY IDOCK:   -4.71 KCAL/MOL
REMARK 924 INTRA-LIGAND FREE ENERGY PREDICTED BY IDOCK:   -0.23 KCAL/MOL
REMARK 927      BINDING AFFINITY PREDICTED BY RF-SCORE:    0.00 PKD
ROOT
HETATM    1  C   UNL     1      -9.980   9.749  69.806  1.00  0.00    -0.265 C  
HETATM    2  C   UNL     1      -9.068  10.506  68.844  1.00  0.00    -0.180 C  
HETATM    3  C   UNL     1      -9.856  11.175  67.715  1.00  0.00    -0.186 C  
HETATM    4  C   UNL     1     -11.008  12.066  68.220  1.00  0.00    -0.234 C  
HETATM    5  C   UNL     1     -11.899  11.250  69.176  1.00  0.00    -0.423 C  
HETATM    6  C   UNL     1     -11.105  10.635  70.329  1.00  0.00    -0.310 C  
ENDROOT
BRANCH   4   7
HETATM    7  N   UNL     1     -10.474  13.274  68.866  1.00  0.00    -0.404 N  
HETATM    8  H   UNL     1      -9.523  13.267  69.236  1.00  0.00     0.000 HD 
BRANCH   7   9
HETATM    9  S   UNL     1     -11.399  14.655  69.003  1.00  0.00    -0.294 SA 
BRANCH   9  10
HETATM   10  C   UNL     1     -10.154  15.892  68.870  1.00  0.00    -0.225 A  
HETATM   11  N   UNL     1      -8.900  15.638  69.169  1.00  0.00    -0.235 NA 
HETATM   12  C   UNL     1      -8.142  16.780  68.960  1.00  0.00    -0.179 A  
HETATM   13  C   UNL     1      -6.752  16.897  69.167  1.00  0.00    -0.232 A  
HETATM   14  C   UNL     1      -6.112  18.115  68.923  1.00  0.00    -0.209 A  
HETATM   15  C   UNL     1      -6.835  19.214  68.469  1.00  0.00    -0.310 A  
HETATM   16  C   UNL     1      -8.212  19.125  68.251  1.00  0.00    -0.369 A  
HETATM   17  C   UNL     1      -8.847  17.896  68.500  1.00  0.00    -0.289 A  
HETATM   18  S   UNL     1     -10.504  17.472  68.319  1.00  0.00    -0.367 SA 
ENDBRANCH   9  10
ENDBRANCH   7   9
ENDBRANCH   4   7
TORSDOF 3
ENDMDL
MODEL      113
REMARK 921   NORMALIZED FREE ENERGY PREDICTED BY IDOCK:   -3.97 KCAL/MOL
REMARK 922        TOTAL FREE ENERGY PREDICTED BY IDOCK:   -4.93 KCAL/MOL
REMARK 923 INTER-LIGAND FREE ENERGY PREDICTED BY IDOCK:   -4.62 KCAL/MOL
REMARK 924 INTRA-LIGAND FREE ENERGY PREDICTED BY IDOCK:   -0.31 KCAL/MOL
REMARK 927      BINDING AFFINITY PREDICTED BY RF-SCORE:    0.00 PKD
ROOT
HETATM    1  C   UNL     1      -9.730   5.985  72.441  1.00  0.00    -0.172 C  
HETATM    2  C   UNL     1      -9.773   6.241  70.936  1.00  0.00    -0.197 C  
HETATM    3  C   UNL     1     -11.168   6.662  70.467  1.00  0.00    -0.388 C  
HETATM    4  C   UNL     1     -11.744   7.853  71.258  1.00  0.00    -0.287 C  
HETATM    5  C   UNL     1     -11.685   7.535  72.765  1.00  0.00    -0.232 C  
HETATM    6  C   UNL     1     -10.274   7.171  73.229  1.00  0.00    -0.342 C  
ENDROOT
BRANCH   4   7
HETATM    7  N   UNL     1     -11.016   9.086  70.929  1.00  0.00    -0.248 N  
HETATM    8  H   UNL     1     -10.003   9.119  71.051  1.00  0.00     0.000 HD 
BRANCH   7   9
HETATM    9  S   UNL     1     -11.820  10.432  70.360  1.00  0.00    -0.349 SA 
BRANCH   9  10
HETATM   10  C   UNL     1     -11.232  10.482  68.701  1.00  0.00    -0.270 A  
HETATM   11  N   UNL     1     -10.427   9.556  68.231  1.00  0.00    -0.214 NA 
HETATM   12  C   UNL     1     -10.138   9.835  66.903  1.00  0.00    -0.226 A  
HETATM   13  C   UNL     1      -9.311   9.066  66.060  1.00  0.00    -0.305 A  
HETATM   14  C   UNL     1      -9.098   9.468  64.738  1.00  0.00    -0.271 A  
HETATM   15  C   UNL     1      -9.705  10.619  64.245  1.00  0.00    -0.372 A  
HETATM   16  C   UNL     1     -10.533  11.397  65.057  1.00  0.00    -0.361 A  
HETATM   17  C   UNL     1     -10.739  10.985  66.385  1.00  0.00    -0.227 A  
HETATM   18  S   UNL     1     -11.700  11.714  67.612  1.00  0.00    -0.159 SA 
ENDBRANCH   9  10
ENDBRANCH   7   9
ENDBRANCH   4   7
TORSDOF 3
ENDMDL
MODEL      114
REMARK 921   NORMALIZED FREE ENERGY PREDICTED BY IDOCK:   -3.96 KCAL/MOL
REMARK 922        TOTAL FREE ENERGY PREDICTED BY IDOCK:   -4.92 KCAL/MOL
REMARK 923 INTER-LIGAND FREE ENERGY PREDICTED BY IDOCK:   -4.68 KCAL/MOL
REMARK 924 INTRA-LIGAND FREE ENERGY PREDICTED BY IDOCK:   -0.25 KCAL/MOL
REMARK 927      BINDING AFFINITY PREDICTED BY RF-SCORE:    0.00 PKD
ROOT
HETATM    1  C   UNL     1      -7.179  10.849  66.929  1.00  0.00    -0.124 C  
HETATM    2  C   UNL     1      -8.603  10.317  66.790  1.00  0.00    -0.129 C  
HETATM    3  C   UNL     1      -8.973   9.367  67.931  1.00  0.00    -0.126 C  
HETATM    4  C   UNL     1      -8.729   9.968  69.330  1.00  0.00    -0.177 C  
HETATM    5  C   UNL     1      -7.277  10.477  69.415  1.00  0.00    -0.117 C  
HETATM    6  C   UNL     1      -6.941  11.469  68.301  1.00  0.00    -0.073 C  
ENDROOT
BRANCH   4   7
HETATM    7  N   UNL     1      -9.701  11.036  69.603  1.00  0.00    -0.364 N  
HETATM    8  H   UNL     1      -9.417  11.845  70.157  1.00  0.00     0.000 HD 
BRANCH   7   9
HETATM    9  S   UNL     1     -11.262  10.944  69.022  1.00  0.00    -0.291 SA 
BRANCH   9  10
HETATM   10  C   UNL     1     -11.256  12.277  67.871  1.00  0.00    -0.274 A  
HETATM   11  N   UNL     1     -11.975  12.237  66.772  1.00  0.00    -0.605 NA 
HETATM   12  C   UNL     1     -11.793  13.416  66.065  1.00  0.00    -0.383 A  
HETATM   13  C   UNL     1     -12.402  13.744  64.837  1.00  0.00    -0.435 A  
HETATM   14  C   UNL     1     -12.123  14.971  64.227  1.00  0.00    -0.323 A  
HETATM   15  C   UNL     1     -11.252  15.875  64.827  1.00  0.00    -0.364 A  
HETATM   16  C   UNL     1     -10.638  15.577  66.046  1.00  0.00    -0.333 A  
HETATM   17  C   UNL     1     -10.925  14.341  66.651  1.00  0.00    -0.310 A  
HETATM   18  S   UNL     1     -10.344  13.698  68.137  1.00  0.00    -0.251 SA 
ENDBRANCH   9  10
ENDBRANCH   7   9
ENDBRANCH   4   7
TORSDOF 3
ENDMDL
MODEL      115
REMARK 921   NORMALIZED FREE ENERGY PREDICTED BY IDOCK:   -3.96 KCAL/MOL
REMARK 922        TOTAL FREE ENERGY PREDICTED BY IDOCK:   -4.92 KCAL/MOL
REMARK 923 INTER-LIGAND FREE ENERGY PREDICTED BY IDOCK:   -4.85 KCAL/MOL
REMARK 924 INTRA-LIGAND FREE ENERGY PREDICTED BY IDOCK:   -0.07 KCAL/MOL
REMARK 927      BINDING AFFINITY PREDICTED BY RF-SCORE:    0.00 PKD
ROOT
HETATM    1  C   UNL     1     -11.420  15.959  64.336  1.00  0.00    -0.268 C  
HETATM    2  C   UNL     1     -11.849  14.493  64.308  1.00  0.00    -0.368 C  
HETATM    3  C   UNL     1     -10.682  13.549  64.604  1.00  0.00    -0.429 C  
HETATM    4  C   UNL     1      -9.934  13.893  65.908  1.00  0.00    -0.300 C  
HETATM    5  C   UNL     1      -9.518  15.376  65.877  1.00  0.00    -0.369 C  
HETATM    6  C   UNL     1     -10.705  16.310  65.636  1.00  0.00    -0.297 C  
ENDROOT
BRANCH   4   7
HETATM    7  N   UNL     1     -10.774  13.584  67.074  1.00  0.00    -0.275 N  
HETATM    8  H   UNL     1     -10.662  14.126  67.932  1.00  0.00     0.000 HD 
BRANCH   7   9
HETATM    9  S   UNL     1     -11.905  12.359  67.016  1.00  0.00    -0.204 SA 
BRANCH   9  10
HETATM   10  C   UNL     1     -11.289  11.291  68.272  1.00  0.00    -0.289 A  
HETATM   11  N   UNL     1     -10.179  10.607  68.107  1.00  0.00    -0.162 NA 
HETATM   12  C   UNL     1      -9.925   9.867  69.252  1.00  0.00    -0.207 A  
HETATM   13  C   UNL     1      -8.823   9.012  69.454  1.00  0.00    -0.144 A  
HETATM   14  C   UNL     1      -8.692   8.317  70.660  1.00  0.00    -0.144 A  
HETATM   15  C   UNL     1      -9.641   8.468  71.667  1.00  0.00    -0.319 A  
HETATM   16  C   UNL     1     -10.740   9.312  71.495  1.00  0.00    -0.425 A  
HETATM   17  C   UNL     1     -10.862  10.006  70.279  1.00  0.00    -0.313 A  
HETATM   18  S   UNL     1     -12.081  11.112  69.777  1.00  0.00    -0.335 SA 
ENDBRANCH   9  10
ENDBRANCH   7   9
ENDBRANCH   4   7
TORSDOF 3
ENDMDL
MODEL      116
REMARK 921   NORMALIZED FREE ENERGY PREDICTED BY IDOCK:   -3.91 KCAL/MOL
REMARK 922        TOTAL FREE ENERGY PREDICTED BY IDOCK:   -4.87 KCAL/MOL
REMARK 923 INTER-LIGAND FREE ENERGY PREDICTED BY IDOCK:   -4.73 KCAL/MOL
REMARK 924 INTRA-LIGAND FREE ENERGY PREDICTED BY IDOCK:   -0.15 KCAL/MOL
REMARK 927      BINDING AFFINITY PREDICTED BY RF-SCORE:    0.00 PKD
ROOT
HETATM    1  C   UNL     1      -6.997  15.145  68.437  1.00  0.00    -0.108 C  
HETATM    2  C   UNL     1      -7.743  13.872  68.827  1.00  0.00    -0.096 C  
HETATM    3  C   UNL     1      -9.258  14.026  68.672  1.00  0.00    -0.119 C  
HETATM    4  C   UNL     1      -9.681  14.523  67.275  1.00  0.00    -0.232 C  
HETATM    5  C   UNL     1      -8.906  15.812  66.940  1.00  0.00    -0.273 C  
HETATM    6  C   UNL     1      -7.392  15.625  67.045  1.00  0.00    -0.203 C  
ENDROOT
BRANCH   4   7
HETATM    7  N   UNL     1      -9.459  13.473  66.271  1.00  0.00    -0.424 N  
HETATM    8  H   UNL     1      -8.543  13.383  65.831  1.00  0.00     0.000 HD 
BRANCH   7   9
HETATM    9  S   UNL     1     -10.685  12.427  65.838  1.00  0.00    -0.275 SA 
BRANCH   9  10
HETATM   10  C   UNL     1     -10.930  11.572  67.357  1.00  0.00    -0.265 A  
HETATM   11  N   UNL     1     -11.968  11.821  68.124  1.00  0.00    -0.557 NA 
HETATM   12  C   UNL     1     -11.917  10.999  69.240  1.00  0.00    -0.339 A  
HETATM   13  C   UNL     1     -12.859  10.971  70.288  1.00  0.00    -0.178 A  
HETATM   14  C   UNL     1     -12.682  10.094  71.362  1.00  0.00    -0.530 A  
HETATM   15  C   UNL     1     -11.583   9.240  71.401  1.00  0.00    -0.437 A  
HETATM   16  C   UNL     1     -10.637   9.243  70.374  1.00  0.00    -0.298 A  
HETATM   17  C   UNL     1     -10.825  10.130  69.299  1.00  0.00    -0.235 A  
HETATM   18  S   UNL     1      -9.854  10.358  67.897  1.00  0.00    -0.157 SA 
ENDBRANCH   9  10
ENDBRANCH   7   9
ENDBRANCH   4   7
TORSDOF 3
ENDMDL
MODEL      117
REMARK 921   NORMALIZED FREE ENERGY PREDICTED BY IDOCK:   -3.87 KCAL/MOL
REMARK 922        TOTAL FREE ENERGY PREDICTED BY IDOCK:   -4.82 KCAL/MOL
REMARK 923 INTER-LIGAND FREE ENERGY PREDICTED BY IDOCK:   -4.58 KCAL/MOL
REMARK 924 INTRA-LIGAND FREE ENERGY PREDICTED BY IDOCK:   -0.24 KCAL/MOL
REMARK 927      BINDING AFFINITY PREDICTED BY RF-SCORE:    0.00 PKD
ROOT
HETATM    1  C   UNL     1      -8.585   4.516  73.219  1.00  0.00    -0.101 C  
HETATM    2  C   UNL     1      -8.661   4.839  71.728  1.00  0.00    -0.129 C  
HETATM    3  C   UNL     1     -10.098   4.794  71.205  1.00  0.00    -0.258 C  
HETATM    4  C   UNL     1     -11.073   5.667  72.022  1.00  0.00    -0.230 C  
HETATM    5  C   UNL     1     -10.961   5.291  73.512  1.00  0.00    -0.353 C  
HETATM    6  C   UNL     1      -9.527   5.395  74.034  1.00  0.00    -0.136 C  
ENDROOT
BRANCH   4   7
HETATM    7  N   UNL     1     -10.796   7.092  71.794  1.00  0.00    -0.224 N  
HETATM    8  H   UNL     1      -9.920   7.369  71.348  1.00  0.00     0.000 HD 
BRANCH   7   9
HETATM    9  S   UNL     1     -11.892   8.263  72.253  1.00  0.00    -0.396 SA 
BRANCH   9  10
HETATM   10  C   UNL     1     -11.731   9.397  70.915  1.00  0.00    -0.308 A  
HETATM   11  N   UNL     1     -11.016   9.107  69.852  1.00  0.00    -0.229 NA 
HETATM   12  C   UNL     1     -11.077  10.165  68.958  1.00  0.00    -0.205 A  
HETATM   13  C   UNL     1     -10.441  10.223  67.702  1.00  0.00    -0.285 A  
HETATM   14  C   UNL     1     -10.581  11.360  66.901  1.00  0.00    -0.292 A  
HETATM   15  C   UNL     1     -11.352  12.435  67.332  1.00  0.00    -0.381 A  
HETATM   16  C   UNL     1     -11.997  12.403  68.570  1.00  0.00    -0.273 A  
HETATM   17  C   UNL     1     -11.849  11.256  69.368  1.00  0.00    -0.355 A  
HETATM   18  S   UNL     1     -12.519  10.915  70.916  1.00  0.00    -0.426 SA 
ENDBRANCH   9  10
ENDBRANCH   7   9
ENDBRANCH   4   7
TORSDOF 3
ENDMDL
MODEL      118
REMARK 921   NORMALIZED FREE ENERGY PREDICTED BY IDOCK:   -3.86 KCAL/MOL
REMARK 922        TOTAL FREE ENERGY PREDICTED BY IDOCK:   -4.81 KCAL/MOL
REMARK 923 INTER-LIGAND FREE ENERGY PREDICTED BY IDOCK:   -4.59 KCAL/MOL
REMARK 924 INTRA-LIGAND FREE ENERGY PREDICTED BY IDOCK:   -0.22 KCAL/MOL
REMARK 927      BINDING AFFINITY PREDICTED BY RF-SCORE:    0.00 PKD
ROOT
HETATM    1  C   UNL     1     -12.538   8.940  71.980  1.00  0.00    -0.460 C  
HETATM    2  C   UNL     1     -13.298  10.037  71.239  1.00  0.00    -0.410 C  
HETATM    3  C   UNL     1     -12.376  11.178  70.803  1.00  0.00    -0.504 C  
HETATM    4  C   UNL     1     -11.150  10.700  70.000  1.00  0.00    -0.289 C  
HETATM    5  C   UNL     1     -10.418   9.604  70.799  1.00  0.00    -0.375 C  
HETATM    6  C   UNL     1     -11.340   8.444  71.178  1.00  0.00    -0.310 C  
ENDROOT
BRANCH   4   7
HETATM    7  N   UNL     1     -11.563  10.226  68.672  1.00  0.00    -0.520 N  
HETATM    8  H   UNL     1     -11.878   9.262  68.557  1.00  0.00     0.000 HD 
BRANCH   7   9
HETATM    9  S   UNL     1     -11.524  11.241  67.348  1.00  0.00    -0.133 SA 
BRANCH   9  10
HETATM   10  C   UNL     1     -10.369  12.448  67.902  1.00  0.00    -0.210 A  
HETATM   11  N   UNL     1      -9.079  12.201  67.932  1.00  0.00    -0.178 NA 
HETATM   12  C   UNL     1      -8.410  13.325  68.393  1.00  0.00    -0.131 A  
HETATM   13  C   UNL     1      -7.015  13.445  68.558  1.00  0.00    -0.102 A  
HETATM   14  C   UNL     1      -6.470  14.638  69.041  1.00  0.00    -0.097 A  
HETATM   15  C   UNL     1      -7.296  15.714  69.353  1.00  0.00    -0.216 A  
HETATM   16  C   UNL     1      -8.681  15.625  69.194  1.00  0.00    -0.251 A  
HETATM   17  C   UNL     1      -9.218  14.420  68.709  1.00  0.00    -0.144 A  
HETATM   18  S   UNL     1     -10.860  14.009  68.399  1.00  0.00    -0.257 SA 
ENDBRANCH   9  10
ENDBRANCH   7   9
ENDBRANCH   4   7
TORSDOF 3
ENDMDL
MODEL      119
REMARK 921   NORMALIZED FREE ENERGY PREDICTED BY IDOCK:   -3.84 KCAL/MOL
REMARK 922        TOTAL FREE ENERGY PREDICTED BY IDOCK:   -4.79 KCAL/MOL
REMARK 923 INTER-LIGAND FREE ENERGY PREDICTED BY IDOCK:   -4.56 KCAL/MOL
REMARK 924 INTRA-LIGAND FREE ENERGY PREDICTED BY IDOCK:   -0.23 KCAL/MOL
REMARK 927      BINDING AFFINITY PREDICTED BY RF-SCORE:    0.00 PKD
ROOT
HETATM    1  C   UNL     1      -7.979   4.333  64.843  1.00  0.00    -0.093 C  
HETATM    2  C   UNL     1      -7.842   5.102  66.155  1.00  0.00    -0.103 C  
HETATM    3  C   UNL     1      -7.124   6.440  65.961  1.00  0.00    -0.067 C  
HETATM    4  C   UNL     1      -7.750   7.314  64.857  1.00  0.00    -0.117 C  
HETATM    5  C   UNL     1      -7.854   6.492  63.558  1.00  0.00    -0.110 C  
HETATM    6  C   UNL     1      -8.623   5.185  63.755  1.00  0.00    -0.084 C  
ENDROOT
BRANCH   4   7
HETATM    7  N   UNL     1      -9.059   7.824  65.289  1.00  0.00    -0.365 N  
HETATM    8  H   UNL     1      -9.891   7.602  64.742  1.00  0.00     0.000 HD 
BRANCH   7   9
HETATM    9  S   UNL     1      -9.204   8.759  66.663  1.00  0.00    -0.192 SA 
BRANCH   9  10
HETATM   10  C   UNL     1     -10.024  10.172  66.006  1.00  0.00    -0.256 A  
HETATM   11  N   UNL     1     -10.704  10.991  66.776  1.00  0.00    -0.267 NA 
HETATM   12  C   UNL     1     -11.227  12.016  66.002  1.00  0.00    -0.335 A  
HETATM   13  C   UNL     1     -12.011  13.088  66.474  1.00  0.00    -0.457 A  
HETATM   14  C   UNL     1     -12.482  14.054  65.579  1.00  0.00    -0.533 A  
HETATM   15  C   UNL     1     -12.176  13.968  64.224  1.00  0.00    -0.453 A  
HETATM   16  C   UNL     1     -11.397  12.919  63.730  1.00  0.00    -0.490 A  
HETATM   17  C   UNL     1     -10.929  11.953  64.638  1.00  0.00    -0.316 A  
HETATM   18  S   UNL     1      -9.953  10.567  64.344  1.00  0.00    -0.319 SA 
ENDBRANCH   9  10
ENDBRANCH   7   9
ENDBRANCH   4   7
TORSDOF 3
ENDMDL
MODEL      120
REMARK 921   NORMALIZED FREE ENERGY PREDICTED BY IDOCK:   -3.82 KCAL/MOL
REMARK 922        TOTAL FREE ENERGY PREDICTED BY IDOCK:   -4.76 KCAL/MOL
REMARK 923 INTER-LIGAND FREE ENERGY PREDICTED BY IDOCK:   -4.55 KCAL/MOL
REMARK 924 INTRA-LIGAND FREE ENERGY PREDICTED BY IDOCK:   -0.22 KCAL/MOL
REMARK 927      BINDING AFFINITY PREDICTED BY RF-SCORE:    0.00 PKD
ROOT
HETATM    1  C   UNL     1     -10.489  14.445  64.794  1.00  0.00    -0.394 C  
HETATM    2  C   UNL     1      -9.827  14.482  66.169  1.00  0.00    -0.339 C  
HETATM    3  C   UNL     1     -10.786  14.981  67.253  1.00  0.00    -0.298 C  
HETATM    4  C   UNL     1     -12.121  14.211  67.289  1.00  0.00    -0.372 C  
HETATM    5  C   UNL     1     -12.747  14.216  65.881  1.00  0.00    -0.387 C  
HETATM    6  C   UNL     1     -11.796  13.662  64.819  1.00  0.00    -0.414 C  
ENDROOT
BRANCH   4   7
HETATM    7  N   UNL     1     -11.910  12.846  67.790  1.00  0.00    -0.354 N  
HETATM    8  H   UNL     1     -11.761  12.084  67.127  1.00  0.00     0.000 HD 
BRANCH   7   9
HETATM    9  S   UNL     1     -11.909  12.522  69.426  1.00  0.00    -0.280 SA 
BRANCH   9  10
HETATM   10  C   UNL     1     -10.992  11.020  69.458  1.00  0.00    -0.243 A  
HETATM   11  N   UNL     1     -11.494   9.920  69.972  1.00  0.00    -0.239 NA 
HETATM   12  C   UNL     1     -10.567   8.896  69.851  1.00  0.00    -0.221 A  
HETATM   13  C   UNL     1     -10.745   7.566  70.283  1.00  0.00    -0.247 A  
HETATM   14  C   UNL     1      -9.721   6.632  70.104  1.00  0.00    -0.174 A  
HETATM   15  C   UNL     1      -8.526   7.004  69.495  1.00  0.00    -0.134 A  
HETATM   16  C   UNL     1      -8.324   8.313  69.053  1.00  0.00    -0.120 A  
HETATM   17  C   UNL     1      -9.361   9.245  69.238  1.00  0.00    -0.160 A  
HETATM   18  S   UNL     1      -9.418  10.907  68.798  1.00  0.00    -0.173 SA 
ENDBRANCH   9  10
ENDBRANCH   7   9
ENDBRANCH   4   7
TORSDOF 3
ENDMDL
MODEL      121
REMARK 921   NORMALIZED FREE ENERGY PREDICTED BY IDOCK:   -3.81 KCAL/MOL
REMARK 922        TOTAL FREE ENERGY PREDICTED BY IDOCK:   -4.74 KCAL/MOL
REMARK 923 INTER-LIGAND FREE ENERGY PREDICTED BY IDOCK:   -4.51 KCAL/MOL
REMARK 924 INTRA-LIGAND FREE ENERGY PREDICTED BY IDOCK:   -0.24 KCAL/MOL
REMARK 927      BINDING AFFINITY PREDICTED BY RF-SCORE:    0.00 PKD
ROOT
HETATM    1  C   UNL     1      -7.124  14.734  67.521  1.00  0.00    -0.209 C  
HETATM    2  C   UNL     1      -8.611  14.709  67.866  1.00  0.00    -0.165 C  
HETATM    3  C   UNL     1      -9.346  13.576  67.146  1.00  0.00    -0.240 C  
HETATM    4  C   UNL     1      -8.694  12.194  67.357  1.00  0.00    -0.177 C  
HETATM    5  C   UNL     1      -7.201  12.277  66.986  1.00  0.00    -0.039 C  
HETATM    6  C   UNL     1      -6.469  13.378  67.755  1.00  0.00    -0.165 C  
ENDROOT
BRANCH   4   7
HETATM    7  N   UNL     1      -8.890  11.744  68.743  1.00  0.00    -0.370 N  
HETATM    8  H   UNL     1      -9.414  12.331  69.393  1.00  0.00     0.000 HD 
BRANCH   7   9
HETATM    9  S   UNL     1      -8.266  10.288  69.268  1.00  0.00    -0.162 SA 
BRANCH   9  10
HETATM   10  C   UNL     1      -9.723   9.519  69.888  1.00  0.00    -0.224 A  
HETATM   11  N   UNL     1     -10.753  10.226  70.296  1.00  0.00    -0.285 NA 
HETATM   12  C   UNL     1     -11.758   9.368  70.715  1.00  0.00    -0.282 A  
HETATM   13  C   UNL     1     -13.018   9.755  71.216  1.00  0.00    -0.470 A  
HETATM   14  C   UNL     1     -13.940   8.782  71.611  1.00  0.00    -0.450 A  
HETATM   15  C   UNL     1     -13.626   7.430  71.506  1.00  0.00    -0.454 A  
HETATM   16  C   UNL     1     -12.387   7.018  71.009  1.00  0.00    -0.402 A  
HETATM   17  C   UNL     1     -11.467   8.005  70.615  1.00  0.00    -0.232 A  
HETATM   18  S   UNL     1      -9.886   7.818  69.962  1.00  0.00    -0.182 SA 
ENDBRANCH   9  10
ENDBRANCH   7   9
ENDBRANCH   4   7
TORSDOF 3
ENDMDL
MODEL      122
REMARK 921   NORMALIZED FREE ENERGY PREDICTED BY IDOCK:   -3.80 KCAL/MOL
REMARK 922        TOTAL FREE ENERGY PREDICTED BY IDOCK:   -4.74 KCAL/MOL
REMARK 923 INTER-LIGAND FREE ENERGY PREDICTED BY IDOCK:   -4.56 KCAL/MOL
REMARK 924 INTRA-LIGAND FREE ENERGY PREDICTED BY IDOCK:   -0.18 KCAL/MOL
REMARK 927      BINDING AFFINITY PREDICTED BY RF-SCORE:    0.00 PKD
ROOT
HETATM    1  C   UNL     1      -6.288   9.804  68.276  1.00  0.00    -0.055 C  
HETATM    2  C   UNL     1      -7.003  10.590  67.179  1.00  0.00    -0.089 C  
HETATM    3  C   UNL     1      -8.256   9.867  66.680  1.00  0.00    -0.121 C  
HETATM    4  C   UNL     1      -9.223   9.470  67.813  1.00  0.00    -0.124 C  
HETATM    5  C   UNL     1      -8.452   8.673  68.882  1.00  0.00    -0.129 C  
HETATM    6  C   UNL     1      -7.235   9.434  69.411  1.00  0.00    -0.066 C  
ENDROOT
BRANCH   4   7
HETATM    7  N   UNL     1      -9.866  10.666  68.378  1.00  0.00    -0.156 N  
HETATM    8  H   UNL     1      -9.378  11.209  69.090  1.00  0.00     0.000 HD 
BRANCH   7   9
HETATM    9  S   UNL     1     -11.381  11.146  67.870  1.00  0.00    -0.297 SA 
BRANCH   9  10
HETATM   10  C   UNL     1     -11.717  12.428  69.030  1.00  0.00    -0.323 A  
HETATM   11  N   UNL     1     -12.281  12.174  70.188  1.00  0.00    -0.270 NA 
HETATM   12  C   UNL     1     -12.412  13.357  70.901  1.00  0.00    -0.359 A  
HETATM   13  C   UNL     1     -12.969  13.486  72.189  1.00  0.00    -0.410 A  
HETATM   14  C   UNL     1     -13.046  14.746  72.791  1.00  0.00    -0.569 A  
HETATM   15  C   UNL     1     -12.570  15.874  72.129  1.00  0.00    -0.522 A  
HETATM   16  C   UNL     1     -12.010  15.773  70.854  1.00  0.00    -0.453 A  
HETATM   17  C   UNL     1     -11.938  14.503  70.258  1.00  0.00    -0.314 A  
HETATM   18  S   UNL     1     -11.301  14.058  68.722  1.00  0.00    -0.299 SA 
ENDBRANCH   9  10
ENDBRANCH   7   9
ENDBRANCH   4   7
TORSDOF 3
ENDMDL
MODEL      123
REMARK 921   NORMALIZED FREE ENERGY PREDICTED BY IDOCK:   -3.79 KCAL/MOL
REMARK 922        TOTAL FREE ENERGY PREDICTED BY IDOCK:   -4.73 KCAL/MOL
REMARK 923 INTER-LIGAND FREE ENERGY PREDICTED BY IDOCK:   -4.51 KCAL/MOL
REMARK 924 INTRA-LIGAND FREE ENERGY PREDICTED BY IDOCK:   -0.22 KCAL/MOL
REMARK 927      BINDING AFFINITY PREDICTED BY RF-SCORE:    0.00 PKD
ROOT
HETATM    1  C   UNL     1     -12.239  12.681  63.438  1.00  0.00    -0.610 C  
HETATM    2  C   UNL     1     -10.755  12.433  63.695  1.00  0.00    -0.497 C  
HETATM    3  C   UNL     1     -10.191  13.382  64.756  1.00  0.00    -0.339 C  
HETATM    4  C   UNL     1     -11.000  13.378  66.069  1.00  0.00    -0.271 C  
HETATM    5  C   UNL     1     -12.484  13.643  65.750  1.00  0.00    -0.524 C  
HETATM    6  C   UNL     1     -13.047  12.652  64.730  1.00  0.00     0.023 C  
ENDROOT
BRANCH   4   7
HETATM    7  N   UNL     1     -10.811  12.107  66.782  1.00  0.00    -0.238 N  
HETATM    8  H   UNL     1     -11.585  11.444  66.841  1.00  0.00     0.000 HD 
BRANCH   7   9
HETATM    9  S   UNL     1      -9.350  11.732  67.495  1.00  0.00    -0.178 SA 
BRANCH   9  10
HETATM   10  C   UNL     1      -9.642  10.062  67.969  1.00  0.00    -0.138 A  
HETATM   11  N   UNL     1      -9.168   9.575  69.093  1.00  0.00    -0.156 NA 
HETATM   12  C   UNL     1      -9.560   8.251  69.218  1.00  0.00    -0.164 A  
HETATM   13  C   UNL     1      -9.248   7.396  70.294  1.00  0.00    -0.154 A  
HETATM   14  C   UNL     1      -9.703   6.074  70.289  1.00  0.00    -0.201 A  
HETATM   15  C   UNL     1     -10.471   5.597  69.230  1.00  0.00    -0.356 A  
HETATM   16  C   UNL     1     -10.798   6.424  68.153  1.00  0.00    -0.386 A  
HETATM   17  C   UNL     1     -10.335   7.751  68.168  1.00  0.00    -0.200 A  
HETATM   18  S   UNL     1     -10.577   9.000  67.010  1.00  0.00    -0.120 SA 
ENDBRANCH   9  10
ENDBRANCH   7   9
ENDBRANCH   4   7
TORSDOF 3
ENDMDL
MODEL      124
REMARK 921   NORMALIZED FREE ENERGY PREDICTED BY IDOCK:   -3.79 KCAL/MOL
REMARK 922        TOTAL FREE ENERGY PREDICTED BY IDOCK:   -4.73 KCAL/MOL
REMARK 923 INTER-LIGAND FREE ENERGY PREDICTED BY IDOCK:   -4.48 KCAL/MOL
REMARK 924 INTRA-LIGAND FREE ENERGY PREDICTED BY IDOCK:   -0.25 KCAL/MOL
REMARK 927      BINDING AFFINITY PREDICTED BY RF-SCORE:    0.00 PKD
ROOT
HETATM    1  C   UNL     1      -7.523   6.509  64.597  1.00  0.00    -0.089 C  
HETATM    2  C   UNL     1      -8.603   6.406  65.672  1.00  0.00    -0.138 C  
HETATM    3  C   UNL     1      -8.498   7.536  66.699  1.00  0.00    -0.130 C  
HETATM    4  C   UNL     1      -8.468   8.940  66.061  1.00  0.00    -0.129 C  
HETATM    5  C   UNL     1      -7.356   8.988  64.995  1.00  0.00    -0.096 C  
HETATM    6  C   UNL     1      -7.508   7.887  63.945  1.00  0.00    -0.110 C  
ENDROOT
BRANCH   4   7
HETATM    7  N   UNL     1      -9.783   9.272  65.496  1.00  0.00    -0.448 N  
HETATM    8  H   UNL     1     -10.500   8.548  65.432  1.00  0.00     0.000 HD 
BRANCH   7   9
HETATM    9  S   UNL     1     -10.122  10.814  64.958  1.00  0.00    -0.321 SA 
BRANCH   9  10
HETATM   10  C   UNL     1     -10.772  11.533  66.428  1.00  0.00    -0.273 A  
HETATM   11  N   UNL     1     -11.121  10.795  67.457  1.00  0.00    -0.308 NA 
HETATM   12  C   UNL     1     -11.582  11.617  68.473  1.00  0.00    -0.317 A  
HETATM   13  C   UNL     1     -12.041  11.191  69.736  1.00  0.00    -0.414 A  
HETATM   14  C   UNL     1     -12.487  12.131  70.669  1.00  0.00    -0.330 A  
HETATM   15  C   UNL     1     -12.474  13.488  70.364  1.00  0.00    -0.345 A  
HETATM   16  C   UNL     1     -12.020  13.939  69.122  1.00  0.00    -0.404 A  
HETATM   17  C   UNL     1     -11.574  12.986  68.191  1.00  0.00    -0.341 A  
HETATM   18  S   UNL     1     -10.955  13.224  66.603  1.00  0.00    -0.287 SA 
ENDBRANCH   9  10
ENDBRANCH   7   9
ENDBRANCH   4   7
TORSDOF 3
ENDMDL
MODEL      125
REMARK 921   NORMALIZED FREE ENERGY PREDICTED BY IDOCK:   -3.78 KCAL/MOL
REMARK 922        TOTAL FREE ENERGY PREDICTED BY IDOCK:   -4.71 KCAL/MOL
REMARK 923 INTER-LIGAND FREE ENERGY PREDICTED BY IDOCK:   -4.46 KCAL/MOL
REMARK 924 INTRA-LIGAND FREE ENERGY PREDICTED BY IDOCK:   -0.26 KCAL/MOL
REMARK 927      BINDING AFFINITY PREDICTED BY RF-SCORE:    0.00 PKD
ROOT
HETATM    1  C   UNL     1     -11.098  12.694  64.980  1.00  0.00    -0.326 C  
HETATM    2  C   UNL     1     -10.222  11.515  64.563  1.00  0.00    -0.338 C  
HETATM    3  C   UNL     1      -9.154  11.197  65.612  1.00  0.00    -0.221 C  
HETATM    4  C   UNL     1      -9.729  11.000  67.029  1.00  0.00    -0.182 C  
HETATM    5  C   UNL     1     -10.593  12.221  67.399  1.00  0.00    -0.247 C  
HETATM    6  C   UNL     1     -11.691  12.491  66.369  1.00  0.00    -0.458 C  
ENDROOT
BRANCH   4   7
HETATM    7  N   UNL     1     -10.493   9.746  67.100  1.00  0.00    -0.254 N  
HETATM    8  H   UNL     1     -11.505   9.780  67.227  1.00  0.00     0.000 HD 
BRANCH   7   9
HETATM    9  S   UNL     1      -9.730   8.268  66.975  1.00  0.00    -0.235 SA 
BRANCH   9  10
HETATM   10  C   UNL     1     -10.112   7.574  68.548  1.00  0.00    -0.184 A  
HETATM   11  N   UNL     1     -10.166   8.317  69.630  1.00  0.00    -0.204 NA 
HETATM   12  C   UNL     1     -10.500   7.519  70.714  1.00  0.00    -0.213 A  
HETATM   13  C   UNL     1     -10.657   7.958  72.045  1.00  0.00    -0.296 A  
HETATM   14  C   UNL     1     -10.990   7.042  73.046  1.00  0.00    -0.327 A  
HETATM   15  C   UNL     1     -11.176   5.697  72.738  1.00  0.00    -0.347 A  
HETATM   16  C   UNL     1     -11.032   5.236  71.428  1.00  0.00    -0.076 A  
HETATM   17  C   UNL     1     -10.696   6.165  70.428  1.00  0.00    -0.284 A  
HETATM   18  S   UNL     1     -10.461   5.912  68.743  1.00  0.00    -0.265 SA 
ENDBRANCH   9  10
ENDBRANCH   7   9
ENDBRANCH   4   7
TORSDOF 3
ENDMDL
MODEL      126
REMARK 921   NORMALIZED FREE ENERGY PREDICTED BY IDOCK:   -3.78 KCAL/MOL
REMARK 922        TOTAL FREE ENERGY PREDICTED BY IDOCK:   -4.71 KCAL/MOL
REMARK 923 INTER-LIGAND FREE ENERGY PREDICTED BY IDOCK:   -4.48 KCAL/MOL
REMARK 924 INTRA-LIGAND FREE ENERGY PREDICTED BY IDOCK:   -0.23 KCAL/MOL
REMARK 927      BINDING AFFINITY PREDICTED BY RF-SCORE:    0.00 PKD
ROOT
HETATM    1  C   UNL     1      -9.693   3.010  73.033  1.00  0.00    -0.165 C  
HETATM    2  C   UNL     1      -9.083   3.595  71.761  1.00  0.00    -0.166 C  
HETATM    3  C   UNL     1     -10.095   4.430  70.973  1.00  0.00    -0.195 C  
HETATM    4  C   UNL     1     -10.782   5.518  71.822  1.00  0.00    -0.226 C  
HETATM    5  C   UNL     1     -11.386   4.870  73.083  1.00  0.00    -0.395 C  
HETATM    6  C   UNL     1     -10.350   4.086  73.889  1.00  0.00    -0.241 C  
ENDROOT
BRANCH   4   7
HETATM    7  N   UNL     1      -9.827   6.583  72.158  1.00  0.00    -0.159 N  
HETATM    8  H   UNL     1      -8.834   6.448  71.963  1.00  0.00     0.000 HD 
BRANCH   7   9
HETATM    9  S   UNL     1     -10.341   8.009  72.854  1.00  0.00    -0.270 SA 
BRANCH   9  10
HETATM   10  C   UNL     1     -10.406   9.054  71.439  1.00  0.00    -0.326 A  
HETATM   11  N   UNL     1     -11.453   9.808  71.189  1.00  0.00    -0.373 NA 
HETATM   12  C   UNL     1     -11.228  10.532  70.029  1.00  0.00    -0.315 A  
HETATM   13  C   UNL     1     -12.121  11.453  69.444  1.00  0.00    -0.358 A  
HETATM   14  C   UNL     1     -11.768  12.112  68.263  1.00  0.00    -0.401 A  
HETATM   15  C   UNL     1     -10.536  11.871  67.663  1.00  0.00    -0.232 A  
HETATM   16  C   UNL     1      -9.630  10.968  68.223  1.00  0.00    -0.172 A  
HETATM   17  C   UNL     1      -9.995  10.310  69.410  1.00  0.00    -0.233 A  
HETATM   18  S   UNL     1      -9.104   9.166  70.336  1.00  0.00    -0.252 SA 
ENDBRANCH   9  10
ENDBRANCH   7   9
ENDBRANCH   4   7
TORSDOF 3
ENDMDL
MODEL      127
REMARK 921   NORMALIZED FREE ENERGY PREDICTED BY IDOCK:   -3.78 KCAL/MOL
REMARK 922        TOTAL FREE ENERGY PREDICTED BY IDOCK:   -4.71 KCAL/MOL
REMARK 923 INTER-LIGAND FREE ENERGY PREDICTED BY IDOCK:   -4.47 KCAL/MOL
REMARK 924 INTRA-LIGAND FREE ENERGY PREDICTED BY IDOCK:   -0.25 KCAL/MOL
REMARK 927      BINDING AFFINITY PREDICTED BY RF-SCORE:    0.00 PKD
ROOT
HETATM    1  C   UNL     1      -6.881  10.471  68.878  1.00  0.00    -0.063 C  
HETATM    2  C   UNL     1      -5.923  11.658  68.945  1.00  0.00    -0.050 C  
HETATM    3  C   UNL     1      -6.252  12.721  67.894  1.00  0.00    -0.115 C  
HETATM    4  C   UNL     1      -7.724  13.180  67.931  1.00  0.00    -0.147 C  
HETATM    5  C   UNL     1      -8.642  11.946  67.850  1.00  0.00    -0.162 C  
HETATM    6  C   UNL     1      -8.337  10.919  68.942  1.00  0.00    -0.139 C  
ENDROOT
BRANCH   4   7
HETATM    7  N   UNL     1      -7.979  13.975  69.141  1.00  0.00    -0.339 N  
HETATM    8  H   UNL     1      -8.818  13.794  69.693  1.00  0.00     0.000 HD 
BRANCH   7   9
HETATM    9  S   UNL     1      -6.919  15.169  69.624  1.00  0.00    -0.182 SA 
BRANCH   9  10
HETATM   10  C   UNL     1      -7.677  16.585  68.902  1.00  0.00    -0.236 A  
HETATM   11  N   UNL     1      -8.947  16.587  68.566  1.00  0.00    -0.222 NA 
HETATM   12  C   UNL     1      -9.277  17.826  68.039  1.00  0.00    -0.273 A  
HETATM   13  C   UNL     1     -10.550  18.211  67.571  1.00  0.00    -0.419 A  
HETATM   14  C   UNL     1     -10.744  19.496  67.056  1.00  0.00    -0.592 A  
HETATM   15  C   UNL     1      -9.689  20.402  67.007  1.00  0.00    -0.588 A  
HETATM   16  C   UNL     1      -8.419  20.049  67.468  1.00  0.00    -0.393 A  
HETATM   17  C   UNL     1      -8.235  18.754  67.984  1.00  0.00    -0.291 A  
HETATM   18  S   UNL     1      -6.812  18.034  68.630  1.00  0.00    -0.256 SA 
ENDBRANCH   9  10
ENDBRANCH   7   9
ENDBRANCH   4   7
TORSDOF 3
ENDMDL
MODEL      128
REMARK 921   NORMALIZED FREE ENERGY PREDICTED BY IDOCK:   -3.73 KCAL/MOL
REMARK 922        TOTAL FREE ENERGY PREDICTED BY IDOCK:   -4.66 KCAL/MOL
REMARK 923 INTER-LIGAND FREE ENERGY PREDICTED BY IDOCK:   -4.36 KCAL/MOL
REMARK 924 INTRA-LIGAND FREE ENERGY PREDICTED BY IDOCK:   -0.30 KCAL/MOL
REMARK 927      BINDING AFFINITY PREDICTED BY RF-SCORE:    0.00 PKD
ROOT
HETATM    1  C   UNL     1      -8.960   7.343  74.002  1.00  0.00    -0.284 C  
HETATM    2  C   UNL     1      -7.851   7.061  72.991  1.00  0.00    -0.102 C  
HETATM    3  C   UNL     1      -8.276   6.023  71.949  1.00  0.00    -0.115 C  
HETATM    4  C   UNL     1      -9.604   6.370  71.248  1.00  0.00    -0.170 C  
HETATM    5  C   UNL     1     -10.686   6.634  72.313  1.00  0.00    -0.250 C  
HETATM    6  C   UNL     1     -10.268   7.714  73.313  1.00  0.00    -0.398 C  
ENDROOT
BRANCH   4   7
HETATM    7  N   UNL     1      -9.423   7.523  70.354  1.00  0.00    -0.162 N  
HETATM    8  H   UNL     1      -8.833   8.301  70.650  1.00  0.00     0.000 HD 
BRANCH   7   9
HETATM    9  S   UNL     1     -10.170   7.578  68.863  1.00  0.00    -0.211 SA 
BRANCH   9  10
HETATM   10  C   UNL     1     -10.707   9.254  68.833  1.00  0.00    -0.156 A  
HETATM   11  N   UNL     1     -10.947   9.877  67.701  1.00  0.00    -0.264 NA 
HETATM   12  C   UNL     1     -11.367  11.170  67.973  1.00  0.00    -0.312 A  
HETATM   13  C   UNL     1     -11.722  12.142  67.015  1.00  0.00    -0.373 A  
HETATM   14  C   UNL     1     -12.123  13.415  67.429  1.00  0.00    -0.338 A  
HETATM   15  C   UNL     1     -12.182  13.730  68.784  1.00  0.00    -0.221 A  
HETATM   16  C   UNL     1     -11.840  12.786  69.754  1.00  0.00    -0.380 A  
HETATM   17  C   UNL     1     -11.438  11.508  69.327  1.00  0.00    -0.305 A  
HETATM   18  S   UNL     1     -10.972  10.145  70.268  1.00  0.00    -0.320 SA 
ENDBRANCH   9  10
ENDBRANCH   7   9
ENDBRANCH   4   7
TORSDOF 3
ENDMDL
MODEL      129
REMARK 921   NORMALIZED FREE ENERGY PREDICTED BY IDOCK:   -3.73 KCAL/MOL
REMARK 922        TOTAL FREE ENERGY PREDICTED BY IDOCK:   -4.65 KCAL/MOL
REMARK 923 INTER-LIGAND FREE ENERGY PREDICTED BY IDOCK:   -4.45 KCAL/MOL
REMARK 924 INTRA-LIGAND FREE ENERGY PREDICTED BY IDOCK:   -0.20 KCAL/MOL
REMARK 927      BINDING AFFINITY PREDICTED BY RF-SCORE:    0.00 PKD
ROOT
HETATM    1  C   UNL     1      -7.470   7.269  66.845  1.00  0.00    -0.097 C  
HETATM    2  C   UNL     1      -6.974   8.339  67.814  1.00  0.00    -0.078 C  
HETATM    3  C   UNL     1      -6.778   9.691  67.124  1.00  0.00    -0.075 C  
HETATM    4  C   UNL     1      -8.022  10.166  66.347  1.00  0.00    -0.120 C  
HETATM    5  C   UNL     1      -8.471   9.053  65.380  1.00  0.00    -0.175 C  
HETATM    6  C   UNL     1      -8.717   7.724  66.094  1.00  0.00    -0.177 C  
ENDROOT
BRANCH   4   7
HETATM    7  N   UNL     1      -9.093  10.545  67.280  1.00  0.00    -0.143 N  
HETATM    8  H   UNL     1      -8.897  10.583  68.281  1.00  0.00     0.000 HD 
BRANCH   7   9
HETATM    9  S   UNL     1     -10.623  10.912  66.727  1.00  0.00    -0.247 SA 
BRANCH   9  10
HETATM   10  C   UNL     1     -11.300  11.698  68.150  1.00  0.00    -0.292 A  
HETATM   11  N   UNL     1     -11.831  11.003  69.131  1.00  0.00    -0.325 NA 
HETATM   12  C   UNL     1     -12.268  11.870  70.120  1.00  0.00    -0.241 A  
HETATM   13  C   UNL     1     -12.887  11.497  71.330  1.00  0.00    -0.489 A  
HETATM   14  C   UNL     1     -13.286  12.480  72.240  1.00  0.00    -0.475 A  
HETATM   15  C   UNL     1     -13.070  13.827  71.964  1.00  0.00    -0.485 A  
HETATM   16  C   UNL     1     -12.454  14.224  70.775  1.00  0.00    -0.428 A  
HETATM   17  C   UNL     1     -12.057  13.228  69.866  1.00  0.00    -0.308 A  
HETATM   18  S   UNL     1     -11.275  13.396  68.343  1.00  0.00    -0.300 SA 
ENDBRANCH   9  10
ENDBRANCH   7   9
ENDBRANCH   4   7
TORSDOF 3
ENDMDL
MODEL      130
REMARK 921   NORMALIZED FREE ENERGY PREDICTED BY IDOCK:   -3.71 KCAL/MOL
REMARK 922        TOTAL FREE ENERGY PREDICTED BY IDOCK:   -4.63 KCAL/MOL
REMARK 923 INTER-LIGAND FREE ENERGY PREDICTED BY IDOCK:   -4.32 KCAL/MOL
REMARK 924 INTRA-LIGAND FREE ENERGY PREDICTED BY IDOCK:   -0.31 KCAL/MOL
REMARK 927      BINDING AFFINITY PREDICTED BY RF-SCORE:    0.00 PKD
ROOT
HETATM    1  C   UNL     1      -9.231   4.680  65.723  1.00  0.00    -0.147 C  
HETATM    2  C   UNL     1      -8.573   6.054  65.628  1.00  0.00    -0.154 C  
HETATM    3  C   UNL     1      -9.314   7.103  66.461  1.00  0.00    -0.208 C  
HETATM    4  C   UNL     1      -9.524   6.678  67.929  1.00  0.00    -0.117 C  
HETATM    5  C   UNL     1     -10.199   5.293  67.963  1.00  0.00    -0.204 C  
HETATM    6  C   UNL     1      -9.416   4.244  67.172  1.00  0.00    -0.204 C  
ENDROOT
BRANCH   4   7
HETATM    7  N   UNL     1      -8.244   6.683  68.650  1.00  0.00    -0.119 N  
HETATM    8  H   UNL     1      -7.673   5.837  68.666  1.00  0.00     0.000 HD 
BRANCH   7   9
HETATM    9  S   UNL     1      -7.710   8.050  69.443  1.00  0.00    -0.106 SA 
BRANCH   9  10
HETATM   10  C   UNL     1      -9.232   8.672  70.073  1.00  0.00    -0.157 A  
HETATM   11  N   UNL     1      -9.854   8.082  71.069  1.00  0.00    -0.173 NA 
HETATM   12  C   UNL     1     -11.010   8.788  71.367  1.00  0.00    -0.289 A  
HETATM   13  C   UNL     1     -11.937   8.465  72.378  1.00  0.00    -0.451 A  
HETATM   14  C   UNL     1     -13.069   9.263  72.566  1.00  0.00    -0.416 A  
HETATM   15  C   UNL     1     -13.285  10.381  71.766  1.00  0.00    -0.529 A  
HETATM   16  C   UNL     1     -12.381  10.727  70.760  1.00  0.00    -0.480 A  
HETATM   17  C   UNL     1     -11.246   9.917  70.578  1.00  0.00    -0.330 A  
HETATM   18  S   UNL     1      -9.961  10.086  69.447  1.00  0.00    -0.235 SA 
ENDBRANCH   9  10
ENDBRANCH   7   9
ENDBRANCH   4   7
TORSDOF 3
ENDMDL
MODEL      131
REMARK 921   NORMALIZED FREE ENERGY PREDICTED BY IDOCK:   -3.70 KCAL/MOL
REMARK 922        TOTAL FREE ENERGY PREDICTED BY IDOCK:   -4.63 KCAL/MOL
REMARK 923 INTER-LIGAND FREE ENERGY PREDICTED BY IDOCK:   -4.39 KCAL/MOL
REMARK 924 INTRA-LIGAND FREE ENERGY PREDICTED BY IDOCK:   -0.23 KCAL/MOL
REMARK 927      BINDING AFFINITY PREDICTED BY RF-SCORE:    0.00 PKD
ROOT
HETATM    1  C   UNL     1      -9.123  18.936  68.676  1.00  0.00    -0.386 C  
HETATM    2  C   UNL     1     -10.561  18.677  68.231  1.00  0.00    -0.212 C  
HETATM    3  C   UNL     1     -10.626  17.749  67.016  1.00  0.00    -0.266 C  
HETATM    4  C   UNL     1      -9.849  16.431  67.213  1.00  0.00    -0.245 C  
HETATM    5  C   UNL     1      -8.407  16.754  67.650  1.00  0.00    -0.191 C  
HETATM    6  C   UNL     1      -8.360  17.636  68.898  1.00  0.00    -0.139 C  
ENDROOT
BRANCH   4   7
HETATM    7  N   UNL     1     -10.538  15.573  68.187  1.00  0.00    -0.259 N  
HETATM    8  H   UNL     1     -10.157  15.476  69.129  1.00  0.00     0.000 HD 
BRANCH   7   9
HETATM    9  S   UNL     1     -11.933  14.755  67.775  1.00  0.00    -0.105 SA 
BRANCH   9  10
HETATM   10  C   UNL     1     -11.253  13.326  67.004  1.00  0.00    -0.292 A  
HETATM   11  N   UNL     1     -11.101  12.199  67.660  1.00  0.00    -0.251 NA 
HETATM   12  C   UNL     1     -10.562  11.245  66.810  1.00  0.00    -0.260 A  
HETATM   13  C   UNL     1     -10.260   9.911  67.152  1.00  0.00    -0.285 A  
HETATM   14  C   UNL     1      -9.711   9.054  66.194  1.00  0.00    -0.354 A  
HETATM   15  C   UNL     1      -9.466   9.506  64.901  1.00  0.00    -0.230 A  
HETATM   16  C   UNL     1      -9.760  10.821  64.534  1.00  0.00    -0.351 A  
HETATM   17  C   UNL     1     -10.311  11.675  65.505  1.00  0.00    -0.264 A  
HETATM   18  S   UNL     1     -10.785  13.322  65.359  1.00  0.00    -0.306 SA 
ENDBRANCH   9  10
ENDBRANCH   7   9
ENDBRANCH   4   7
TORSDOF 3
ENDMDL
MODEL      132
REMARK 921   NORMALIZED FREE ENERGY PREDICTED BY IDOCK:   -3.70 KCAL/MOL
REMARK 922        TOTAL FREE ENERGY PREDICTED BY IDOCK:   -4.62 KCAL/MOL
REMARK 923 INTER-LIGAND FREE ENERGY PREDICTED BY IDOCK:   -4.50 KCAL/MOL
REMARK 924 INTRA-LIGAND FREE ENERGY PREDICTED BY IDOCK:   -0.13 KCAL/MOL
REMARK 927      BINDING AFFINITY PREDICTED BY RF-SCORE:    0.00 PKD
ROOT
HETATM    1  C   UNL     1      -8.619   5.339  70.236  1.00  0.00    -0.126 C  
HETATM    2  C   UNL     1      -7.705   6.123  69.298  1.00  0.00    -0.099 C  
HETATM    3  C   UNL     1      -8.405   6.487  67.987  1.00  0.00    -0.116 C  
HETATM    4  C   UNL     1      -9.753   7.208  68.195  1.00  0.00    -0.139 C  
HETATM    5  C   UNL     1     -10.636   6.368  69.138  1.00  0.00    -0.305 C  
HETATM    6  C   UNL     1      -9.942   6.061  70.466  1.00  0.00    -0.233 C  
ENDROOT
BRANCH   4   7
HETATM    7  N   UNL     1      -9.531   8.565  68.714  1.00  0.00    -0.143 N  
HETATM    8  H   UNL     1      -8.634   9.024  68.554  1.00  0.00     0.000 HD 
BRANCH   7   9
HETATM    9  S   UNL     1     -10.724   9.364  69.562  1.00  0.00    -0.205 SA 
BRANCH   9  10
HETATM   10  C   UNL     1     -11.107  10.662  68.436  1.00  0.00    -0.272 A  
HETATM   11  N   UNL     1     -11.041  10.483  67.136  1.00  0.00    -0.247 NA 
HETATM   12  C   UNL     1     -11.407  11.657  66.495  1.00  0.00    -0.263 A  
HETATM   13  C   UNL     1     -11.464  11.853  65.100  1.00  0.00    -0.304 A  
HETATM   14  C   UNL     1     -11.844  13.095  64.586  1.00  0.00    -0.417 A  
HETATM   15  C   UNL     1     -12.175  14.141  65.442  1.00  0.00    -0.441 A  
HETATM   16  C   UNL     1     -12.132  13.974  66.828  1.00  0.00    -0.480 A  
HETATM   17  C   UNL     1     -11.748  12.720  67.335  1.00  0.00    -0.366 A  
HETATM   18  S   UNL     1     -11.611  12.205  68.971  1.00  0.00    -0.338 SA 
ENDBRANCH   9  10
ENDBRANCH   7   9
ENDBRANCH   4   7
TORSDOF 3
ENDMDL
MODEL      133
REMARK 921   NORMALIZED FREE ENERGY PREDICTED BY IDOCK:   -3.68 KCAL/MOL
REMARK 922        TOTAL FREE ENERGY PREDICTED BY IDOCK:   -4.60 KCAL/MOL
REMARK 923 INTER-LIGAND FREE ENERGY PREDICTED BY IDOCK:   -5.60 KCAL/MOL
REMARK 924 INTRA-LIGAND FREE ENERGY PREDICTED BY IDOCK:    1.00 KCAL/MOL
REMARK 927      BINDING AFFINITY PREDICTED BY RF-SCORE:    0.00 PKD
ROOT
HETATM    1  C   UNL     1     -10.410  16.654  65.467  1.00  0.00    -0.268 C  
HETATM    2  C   UNL     1     -10.473  15.252  66.069  1.00  0.00    -0.328 C  
HETATM    3  C   UNL     1      -9.211  14.914  66.867  1.00  0.00    -0.265 C  
HETATM    4  C   UNL     1      -8.863  15.971  67.934  1.00  0.00    -0.180 C  
HETATM    5  C   UNL     1      -8.804  17.361  67.270  1.00  0.00    -0.238 C  
HETATM    6  C   UNL     1     -10.093  17.706  66.524  1.00  0.00    -0.350 C  
ENDROOT
BRANCH   4   7
HETATM    7  N   UNL     1      -9.840  15.930  69.032  1.00  0.00    -0.220 N  
HETATM    8  H   UNL     1      -9.514  15.976  69.997  1.00  0.00     0.000 HD 
BRANCH   7   9
HETATM    9  S   UNL     1     -11.475  15.809  68.721  1.00  0.00    -0.398 SA 
BRANCH   9  10
HETATM   10  C   UNL     1     -11.848  14.297  69.542  1.00  0.00    -0.329 A  
HETATM   11  N   UNL     1     -11.344  13.153  69.137  1.00  0.00    -0.279 NA 
HETATM   12  C   UNL     1     -11.790  12.138  69.970  1.00  0.00    -0.306 A  
HETATM   13  C   UNL     1     -11.460  10.773  69.856  1.00  0.00    -0.398 A  
HETATM   14  C   UNL     1     -11.988   9.850  70.763  1.00  0.00    -0.410 A  
HETATM   15  C   UNL     1     -12.834  10.271  71.785  1.00  0.00    -0.565 A  
HETATM   16  C   UNL     1     -13.175  11.618  71.924  1.00  0.00    -0.475 A  
HETATM   17  C   UNL     1     -12.638  12.538  71.006  1.00  0.00    -0.256 A  
HETATM   18  S   UNL     1     -12.857  14.242  70.922  1.00  0.00    -0.335 SA 
ENDBRANCH   9  10
ENDBRANCH   7   9
ENDBRANCH   4   7
TORSDOF 3
ENDMDL
MODEL      134
REMARK 921   NORMALIZED FREE ENERGY PREDICTED BY IDOCK:   -3.67 KCAL/MOL
REMARK 922        TOTAL FREE ENERGY PREDICTED BY IDOCK:   -4.58 KCAL/MOL
REMARK 923 INTER-LIGAND FREE ENERGY PREDICTED BY IDOCK:   -4.56 KCAL/MOL
REMARK 924 INTRA-LIGAND FREE ENERGY PREDICTED BY IDOCK:   -0.02 KCAL/MOL
REMARK 927      BINDING AFFINITY PREDICTED BY RF-SCORE:    0.00 PKD
ROOT
HETATM    1  C   UNL     1     -11.563  12.887  63.477  1.00  0.00    -0.528 C  
HETATM    2  C   UNL     1     -11.600  13.386  64.919  1.00  0.00    -0.354 C  
HETATM    3  C   UNL     1     -11.554  12.233  65.925  1.00  0.00    -0.450 C  
HETATM    4  C   UNL     1     -10.376  11.267  65.693  1.00  0.00    -0.256 C  
HETATM    5  C   UNL     1     -10.395  10.789  64.228  1.00  0.00    -0.401 C  
HETATM    6  C   UNL     1     -10.383  11.952  63.235  1.00  0.00    -0.432 C  
ENDROOT
BRANCH   4   7
HETATM    7  N   UNL     1      -9.105  11.918  66.041  1.00  0.00    -0.357 N  
HETATM    8  H   UNL     1      -8.891  12.839  65.658  1.00  0.00     0.000 HD 
BRANCH   7   9
HETATM    9  S   UNL     1      -8.008  11.173  67.052  1.00  0.00    -0.151 SA 
BRANCH   9  10
HETATM   10  C   UNL     1      -8.440   9.484  66.809  1.00  0.00    -0.127 A  
HETATM   11  N   UNL     1      -9.431   8.927  67.469  1.00  0.00    -0.139 NA 
HETATM   12  C   UNL     1      -9.557   7.605  67.072  1.00  0.00    -0.175 A  
HETATM   13  C   UNL     1     -10.511   6.686  67.554  1.00  0.00    -0.299 A  
HETATM   14  C   UNL     1     -10.522   5.374  67.070  1.00  0.00    -0.319 A  
HETATM   15  C   UNL     1      -9.601   4.970  66.108  1.00  0.00    -0.178 A  
HETATM   16  C   UNL     1      -8.648   5.861  65.609  1.00  0.00    -0.155 A  
HETATM   17  C   UNL     1      -8.645   7.177  66.103  1.00  0.00    -0.146 A  
HETATM   18  S   UNL     1      -7.618   8.492  65.684  1.00  0.00    -0.092 SA 
ENDBRANCH   9  10
ENDBRANCH   7   9
ENDBRANCH   4   7
TORSDOF 3
ENDMDL
MODEL      135
REMARK 921   NORMALIZED FREE ENERGY PREDICTED BY IDOCK:   -3.66 KCAL/MOL
REMARK 922        TOTAL FREE ENERGY PREDICTED BY IDOCK:   -4.57 KCAL/MOL
REMARK 923 INTER-LIGAND FREE ENERGY PREDICTED BY IDOCK:   -4.36 KCAL/MOL
REMARK 924 INTRA-LIGAND FREE ENERGY PREDICTED BY IDOCK:   -0.21 KCAL/MOL
REMARK 927      BINDING AFFINITY PREDICTED BY RF-SCORE:    0.00 PKD
ROOT
HETATM    1  C   UNL     1      -6.127   9.294  68.654  1.00  0.00    -0.044 C  
HETATM    2  C   UNL     1      -7.281   8.859  67.754  1.00  0.00    -0.084 C  
HETATM    3  C   UNL     1      -8.037   7.660  68.332  1.00  0.00    -0.124 C  
HETATM    4  C   UNL     1      -8.505   7.875  69.785  1.00  0.00    -0.132 C  
HETATM    5  C   UNL     1      -7.301   8.302  70.646  1.00  0.00    -0.057 C  
HETATM    6  C   UNL     1      -6.591   9.535  70.086  1.00  0.00    -0.073 C  
ENDROOT
BRANCH   4   7
HETATM    7  N   UNL     1      -9.589   8.867  69.830  1.00  0.00    -0.172 N  
HETATM    8  H   UNL     1      -9.408   9.825  69.530  1.00  0.00     0.000 HD 
BRANCH   7   9
HETATM    9  S   UNL     1     -11.113   8.448  70.367  1.00  0.00    -0.198 SA 
BRANCH   9  10
HETATM   10  C   UNL     1     -11.777  10.038  70.726  1.00  0.00    -0.350 A  
HETATM   11  N   UNL     1     -11.385  11.109  70.073  1.00  0.00    -0.270 NA 
HETATM   12  C   UNL     1     -12.079  12.211  70.548  1.00  0.00    -0.293 A  
HETATM   13  C   UNL     1     -11.935  13.537  70.089  1.00  0.00    -0.399 A  
HETATM   14  C   UNL     1     -12.695  14.559  70.664  1.00  0.00    -0.421 A  
HETATM   15  C   UNL     1     -13.600  14.277  71.683  1.00  0.00    -0.461 A  
HETATM   16  C   UNL     1     -13.766  12.973  72.153  1.00  0.00    -0.547 A  
HETATM   17  C   UNL     1     -12.996  11.952  71.569  1.00  0.00    -0.323 A  
HETATM   18  S   UNL     1     -12.982  10.267  71.918  1.00  0.00    -0.416 SA 
ENDBRANCH   9  10
ENDBRANCH   7   9
ENDBRANCH   4   7
TORSDOF 3
ENDMDL
MODEL      136
REMARK 921   NORMALIZED FREE ENERGY PREDICTED BY IDOCK:   -3.66 KCAL/MOL
REMARK 922        TOTAL FREE ENERGY PREDICTED BY IDOCK:   -4.57 KCAL/MOL
REMARK 923 INTER-LIGAND FREE ENERGY PREDICTED BY IDOCK:   -4.30 KCAL/MOL
REMARK 924 INTRA-LIGAND FREE ENERGY PREDICTED BY IDOCK:   -0.27 KCAL/MOL
REMARK 927      BINDING AFFINITY PREDICTED BY RF-SCORE:    0.00 PKD
ROOT
HETATM    1  C   UNL     1      -9.041   8.754  71.873  1.00  0.00    -0.291 C  
HETATM    2  C   UNL     1      -7.832   8.401  71.010  1.00  0.00    -0.106 C  
HETATM    3  C   UNL     1      -8.106   7.196  70.107  1.00  0.00    -0.130 C  
HETATM    4  C   UNL     1      -9.382   7.349  69.255  1.00  0.00    -0.154 C  
HETATM    5  C   UNL     1     -10.568   7.695  70.177  1.00  0.00    -0.239 C  
HETATM    6  C   UNL     1     -10.299   8.934  71.032  1.00  0.00    -0.321 C  
ENDROOT
BRANCH   4   7
HETATM    7  N   UNL     1      -9.182   8.368  68.215  1.00  0.00    -0.135 N  
HETATM    8  H   UNL     1      -8.353   8.962  68.246  1.00  0.00     0.000 HD 
BRANCH   7   9
HETATM    9  S   UNL     1     -10.292   8.567  66.985  1.00  0.00    -0.293 SA 
BRANCH   9  10
HETATM   10  C   UNL     1     -10.388  10.324  66.919  1.00  0.00    -0.239 A  
HETATM   11  N   UNL     1     -11.508  10.960  67.178  1.00  0.00    -0.406 NA 
HETATM   12  C   UNL     1     -11.293  12.325  67.068  1.00  0.00    -0.334 A  
HETATM   13  C   UNL     1     -12.258  13.332  67.277  1.00  0.00    -0.258 A  
HETATM   14  C   UNL     1     -11.906  14.676  67.124  1.00  0.00    -0.367 A  
HETATM   15  C   UNL     1     -10.607  15.029  66.773  1.00  0.00    -0.301 A  
HETATM   16  C   UNL     1      -9.630  14.053  66.565  1.00  0.00    -0.307 A  
HETATM   17  C   UNL     1      -9.994  12.704  66.720  1.00  0.00    -0.234 A  
HETATM   18  S   UNL     1      -9.028  11.291  66.546  1.00  0.00    -0.188 SA 
ENDBRANCH   9  10
ENDBRANCH   7   9
ENDBRANCH   4   7
TORSDOF 3
ENDMDL
MODEL      137
REMARK 921   NORMALIZED FREE ENERGY PREDICTED BY IDOCK:   -3.66 KCAL/MOL
REMARK 922        TOTAL FREE ENERGY PREDICTED BY IDOCK:   -4.57 KCAL/MOL
REMARK 923 INTER-LIGAND FREE ENERGY PREDICTED BY IDOCK:   -4.27 KCAL/MOL
REMARK 924 INTRA-LIGAND FREE ENERGY PREDICTED BY IDOCK:   -0.29 KCAL/MOL
REMARK 927      BINDING AFFINITY PREDICTED BY RF-SCORE:    0.00 PKD
ROOT
HETATM    1  C   UNL     1      -8.680  18.280  66.339  1.00  0.00    -0.260 C  
HETATM    2  C   UNL     1     -10.205  18.235  66.269  1.00  0.00    -0.414 C  
HETATM    3  C   UNL     1     -10.711  16.944  65.622  1.00  0.00    -0.173 C  
HETATM    4  C   UNL     1     -10.138  15.670  66.273  1.00  0.00    -0.299 C  
HETATM    5  C   UNL     1      -8.600  15.766  66.307  1.00  0.00    -0.307 C  
HETATM    6  C   UNL     1      -8.111  17.034  67.007  1.00  0.00    -0.234 C  
ENDROOT
BRANCH   4   7
HETATM    7  N   UNL     1     -10.705  15.484  67.616  1.00  0.00    -0.295 N  
HETATM    8  H   UNL     1     -10.483  16.154  68.353  1.00  0.00     0.000 HD 
BRANCH   7   9
HETATM    9  S   UNL     1     -11.706  14.192  67.954  1.00  0.00    -0.376 SA 
BRANCH   9  10
HETATM   10  C   UNL     1     -10.711  12.856  67.384  1.00  0.00    -0.237 A  
HETATM   11  N   UNL     1     -10.898  12.318  66.200  1.00  0.00    -0.269 NA 
HETATM   12  C   UNL     1      -9.972  11.305  66.008  1.00  0.00    -0.231 A  
HETATM   13  C   UNL     1      -9.855  10.500  64.857  1.00  0.00    -0.379 A  
HETATM   14  C   UNL     1      -8.876   9.504  64.798  1.00  0.00    -0.244 A  
HETATM   15  C   UNL     1      -8.008   9.306  65.868  1.00  0.00    -0.106 A  
HETATM   16  C   UNL     1      -8.098  10.091  67.019  1.00  0.00    -0.117 A  
HETATM   17  C   UNL     1      -9.086  11.090  67.068  1.00  0.00    -0.147 A  
HETATM   18  S   UNL     1      -9.437  12.212  68.324  1.00  0.00    -0.184 SA 
ENDBRANCH   9  10
ENDBRANCH   7   9
ENDBRANCH   4   7
TORSDOF 3
ENDMDL
MODEL      138
REMARK 921   NORMALIZED FREE ENERGY PREDICTED BY IDOCK:   -3.65 KCAL/MOL
REMARK 922        TOTAL FREE ENERGY PREDICTED BY IDOCK:   -4.56 KCAL/MOL
REMARK 923 INTER-LIGAND FREE ENERGY PREDICTED BY IDOCK:   -4.34 KCAL/MOL
REMARK 924 INTRA-LIGAND FREE ENERGY PREDICTED BY IDOCK:   -0.23 KCAL/MOL
REMARK 927      BINDING AFFINITY PREDICTED BY RF-SCORE:    0.00 PKD
ROOT
HETATM    1  C   UNL     1      -6.192   7.804  71.441  1.00  0.00    -0.035 C  
HETATM    2  C   UNL     1      -6.733   8.048  70.034  1.00  0.00    -0.040 C  
HETATM    3  C   UNL     1      -8.119   7.428  69.839  1.00  0.00    -0.126 C  
HETATM    4  C   UNL     1      -9.136   7.854  70.917  1.00  0.00    -0.151 C  
HETATM    5  C   UNL     1      -8.541   7.576  72.311  1.00  0.00    -0.141 C  
HETATM    6  C   UNL     1      -7.182   8.249  72.510  1.00  0.00    -0.130 C  
ENDROOT
BRANCH   4   7
HETATM    7  N   UNL     1      -9.497   9.269  70.747  1.00  0.00    -0.267 N  
HETATM    8  H   UNL     1      -8.767   9.954  70.551  1.00  0.00     0.000 HD 
BRANCH   7   9
HETATM    9  S   UNL     1     -11.083   9.770  70.871  1.00  0.00    -0.361 SA 
BRANCH   9  10
HETATM   10  C   UNL     1     -11.230  10.742  69.411  1.00  0.00    -0.276 A  
HETATM   11  N   UNL     1     -11.624  11.994  69.457  1.00  0.00    -0.313 NA 
HETATM   12  C   UNL     1     -11.633  12.517  68.173  1.00  0.00    -0.340 A  
HETATM   13  C   UNL     1     -11.996  13.833  67.820  1.00  0.00    -0.391 A  
HETATM   14  C   UNL     1     -11.966  14.228  66.480  1.00  0.00    -0.448 A  
HETATM   15  C   UNL     1     -11.575  13.333  65.489  1.00  0.00    -0.351 A  
HETATM   16  C   UNL     1     -11.206  12.025  65.811  1.00  0.00    -0.383 A  
HETATM   17  C   UNL     1     -11.240  11.637  67.161  1.00  0.00    -0.309 A  
HETATM   18  S   UNL     1     -10.839  10.120  67.867  1.00  0.00    -0.275 SA 
ENDBRANCH   9  10
ENDBRANCH   7   9
ENDBRANCH   4   7
TORSDOF 3
ENDMDL
MODEL      139
REMARK 921   NORMALIZED FREE ENERGY PREDICTED BY IDOCK:   -3.65 KCAL/MOL
REMARK 922        TOTAL FREE ENERGY PREDICTED BY IDOCK:   -4.56 KCAL/MOL
REMARK 923 INTER-LIGAND FREE ENERGY PREDICTED BY IDOCK:   -4.25 KCAL/MOL
REMARK 924 INTRA-LIGAND FREE ENERGY PREDICTED BY IDOCK:   -0.31 KCAL/MOL
REMARK 927      BINDING AFFINITY PREDICTED BY RF-SCORE:    0.00 PKD
ROOT
HETATM    1  C   UNL     1      -7.670   3.325  66.521  1.00  0.00    -0.077 C  
HETATM    2  C   UNL     1      -7.173   4.159  67.699  1.00  0.00    -0.067 C  
HETATM    3  C   UNL     1      -8.039   5.400  67.928  1.00  0.00    -0.100 C  
HETATM    4  C   UNL     1      -9.541   5.081  68.057  1.00  0.00    -0.141 C  
HETATM    5  C   UNL     1      -9.989   4.249  66.839  1.00  0.00    -0.178 C  
HETATM    6  C   UNL     1      -9.150   2.984  66.658  1.00  0.00    -0.171 C  
ENDROOT
BRANCH   4   7
HETATM    7  N   UNL     1      -9.808   4.385  69.324  1.00  0.00    -0.183 N  
HETATM    8  H   UNL     1     -10.349   3.520  69.318  1.00  0.00     0.000 HD 
BRANCH   7   9
HETATM    9  S   UNL     1      -9.241   4.990  70.771  1.00  0.00    -0.151 SA 
BRANCH   9  10
HETATM   10  C   UNL     1     -10.363   6.322  71.027  1.00  0.00    -0.211 A  
HETATM   11  N   UNL     1     -11.655   6.116  71.147  1.00  0.00    -0.267 NA 
HETATM   12  C   UNL     1     -12.293   7.330  71.354  1.00  0.00    -0.368 A  
HETATM   13  C   UNL     1     -13.679   7.514  71.533  1.00  0.00    -0.460 A  
HETATM   14  C   UNL     1     -14.192   8.800  71.726  1.00  0.00    -0.443 A  
HETATM   15  C   UNL     1     -13.341   9.902  71.750  1.00  0.00    -0.501 A  
HETATM   16  C   UNL     1     -11.964   9.748  71.580  1.00  0.00    -0.488 A  
HETATM   17  C   UNL     1     -11.459   8.451  71.386  1.00  0.00    -0.277 A  
HETATM   18  S   UNL     1      -9.831   7.941  71.162  1.00  0.00    -0.166 SA 
ENDBRANCH   9  10
ENDBRANCH   7   9
ENDBRANCH   4   7
TORSDOF 3
ENDMDL
MODEL      140
REMARK 921   NORMALIZED FREE ENERGY PREDICTED BY IDOCK:   -3.64 KCAL/MOL
REMARK 922        TOTAL FREE ENERGY PREDICTED BY IDOCK:   -4.55 KCAL/MOL
REMARK 923 INTER-LIGAND FREE ENERGY PREDICTED BY IDOCK:   -4.25 KCAL/MOL
REMARK 924 INTRA-LIGAND FREE ENERGY PREDICTED BY IDOCK:   -0.30 KCAL/MOL
REMARK 927      BINDING AFFINITY PREDICTED BY RF-SCORE:    0.00 PKD
ROOT
HETATM    1  C   UNL     1      -8.430   3.469  67.999  1.00  0.00    -0.109 C  
HETATM    2  C   UNL     1      -7.492   4.674  67.990  1.00  0.00    -0.073 C  
HETATM    3  C   UNL     1      -8.222   5.970  68.348  1.00  0.00    -0.110 C  
HETATM    4  C   UNL     1      -9.013   5.881  69.668  1.00  0.00    -0.130 C  
HETATM    5  C   UNL     1      -9.947   4.656  69.617  1.00  0.00    -0.281 C  
HETATM    6  C   UNL     1      -9.194   3.361  69.314  1.00  0.00    -0.221 C  
ENDROOT
BRANCH   4   7
HETATM    7  N   UNL     1      -8.092   5.820  70.812  1.00  0.00    -0.116 N  
HETATM    8  H   UNL     1      -7.672   4.927  71.072  1.00  0.00     0.000 HD 
BRANCH   7   9
HETATM    9  S   UNL     1      -7.722   7.189  71.690  1.00  0.00    -0.089 SA 
BRANCH   9  10
HETATM   10  C   UNL     1      -9.300   7.968  71.752  1.00  0.00    -0.165 A  
HETATM   11  N   UNL     1      -9.590   8.991  70.980  1.00  0.00    -0.255 NA 
HETATM   12  C   UNL     1     -10.895   9.392  71.226  1.00  0.00    -0.361 A  
HETATM   13  C   UNL     1     -11.566  10.455  70.588  1.00  0.00    -0.440 A  
HETATM   14  C   UNL     1     -12.885  10.757  70.939  1.00  0.00    -0.443 A  
HETATM   15  C   UNL     1     -13.545  10.009  71.910  1.00  0.00    -0.354 A  
HETATM   16  C   UNL     1     -12.906   8.948  72.554  1.00  0.00    -0.401 A  
HETATM   17  C   UNL     1     -11.579   8.653  72.195  1.00  0.00    -0.370 A  
HETATM   18  S   UNL     1     -10.541   7.417  72.791  1.00  0.00    -0.331 SA 
ENDBRANCH   9  10
ENDBRANCH   7   9
ENDBRANCH   4   7
TORSDOF 3
ENDMDL
MODEL      141
REMARK 921   NORMALIZED FREE ENERGY PREDICTED BY IDOCK:   -3.62 KCAL/MOL
REMARK 922        TOTAL FREE ENERGY PREDICTED BY IDOCK:   -4.53 KCAL/MOL
REMARK 923 INTER-LIGAND FREE ENERGY PREDICTED BY IDOCK:   -4.31 KCAL/MOL
REMARK 924 INTRA-LIGAND FREE ENERGY PREDICTED BY IDOCK:   -0.22 KCAL/MOL
REMARK 927      BINDING AFFINITY PREDICTED BY RF-SCORE:    0.00 PKD
ROOT
HETATM    1  C   UNL     1     -10.464  10.304  68.399  1.00  0.00    -0.228 C  
HETATM    2  C   UNL     1      -9.341  10.342  67.365  1.00  0.00    -0.163 C  
HETATM    3  C   UNL     1      -9.832  10.840  66.004  1.00  0.00    -0.285 C  
HETATM    4  C   UNL     1     -10.576  12.188  66.080  1.00  0.00    -0.257 C  
HETATM    5  C   UNL     1     -11.701  12.088  67.127  1.00  0.00    -0.344 C  
HETATM    6  C   UNL     1     -11.185  11.643  68.496  1.00  0.00    -0.312 C  
ENDROOT
BRANCH   4   7
HETATM    7  N   UNL     1      -9.634  13.274  66.389  1.00  0.00    -0.306 N  
HETATM    8  H   UNL     1      -8.768  13.062  66.885  1.00  0.00     0.000 HD 
BRANCH   7   9
HETATM    9  S   UNL     1      -9.961  14.847  65.941  1.00  0.00    -0.351 SA 
BRANCH   9  10
HETATM   10  C   UNL     1      -8.869  15.721  67.010  1.00  0.00    -0.216 A  
HETATM   11  N   UNL     1      -8.959  17.022  67.169  1.00  0.00    -0.218 NA 
HETATM   12  C   UNL     1      -7.992  17.439  68.071  1.00  0.00    -0.224 A  
HETATM   13  C   UNL     1      -7.780  18.766  68.499  1.00  0.00    -0.357 A  
HETATM   14  C   UNL     1      -6.760  19.049  69.412  1.00  0.00    -0.300 A  
HETATM   15  C   UNL     1      -5.955  18.028  69.908  1.00  0.00    -0.204 A  
HETATM   16  C   UNL     1      -6.146  16.704  69.505  1.00  0.00    -0.214 A  
HETATM   17  C   UNL     1      -7.174  16.431  68.586  1.00  0.00    -0.178 A  
HETATM   18  S   UNL     1      -7.658  14.922  67.916  1.00  0.00    -0.152 SA 
ENDBRANCH   9  10
ENDBRANCH   7   9
ENDBRANCH   4   7
TORSDOF 3
ENDMDL
MODEL      142
REMARK 921   NORMALIZED FREE ENERGY PREDICTED BY IDOCK:   -3.58 KCAL/MOL
REMARK 922        TOTAL FREE ENERGY PREDICTED BY IDOCK:   -4.48 KCAL/MOL
REMARK 923 INTER-LIGAND FREE ENERGY PREDICTED BY IDOCK:   -4.19 KCAL/MOL
REMARK 924 INTRA-LIGAND FREE ENERGY PREDICTED BY IDOCK:   -0.29 KCAL/MOL
REMARK 927      BINDING AFFINITY PREDICTED BY RF-SCORE:    0.00 PKD
ROOT
HETATM    1  C   UNL     1      -6.849   9.333  70.517  1.00  0.00    -0.087 C  
HETATM    2  C   UNL     1      -7.214  10.541  69.657  1.00  0.00    -0.148 C  
HETATM    3  C   UNL     1      -8.213  10.178  68.556  1.00  0.00    -0.111 C  
HETATM    4  C   UNL     1      -9.471   9.460  69.085  1.00  0.00    -0.163 C  
HETATM    5  C   UNL     1      -9.043   8.248  69.934  1.00  0.00    -0.147 C  
HETATM    6  C   UNL     1      -8.089   8.636  71.065  1.00  0.00    -0.164 C  
ENDROOT
BRANCH   4   7
HETATM    7  N   UNL     1     -10.309  10.396  69.848  1.00  0.00    -0.398 N  
HETATM    8  H   UNL     1      -9.970  10.764  70.738  1.00  0.00     0.000 HD 
BRANCH   7   9
HETATM    9  S   UNL     1     -11.808  10.863  69.283  1.00  0.00    -0.305 SA 
BRANCH   9  10
HETATM   10  C   UNL     1     -11.482  12.541  68.857  1.00  0.00    -0.307 A  
HETATM   11  N   UNL     1     -10.956  12.864  67.698  1.00  0.00    -0.241 NA 
HETATM   12  C   UNL     1     -10.825  14.243  67.625  1.00  0.00    -0.268 A  
HETATM   13  C   UNL     1     -10.304  14.966  66.534  1.00  0.00    -0.295 A  
HETATM   14  C   UNL     1     -10.222  16.360  66.597  1.00  0.00    -0.296 A  
HETATM   15  C   UNL     1     -10.659  17.042  67.729  1.00  0.00    -0.350 A  
HETATM   16  C   UNL     1     -11.185  16.351  68.823  1.00  0.00    -0.313 A  
HETATM   17  C   UNL     1     -11.262  14.949  68.749  1.00  0.00    -0.275 A  
HETATM   18  S   UNL     1     -11.862  13.832  69.912  1.00  0.00    -0.321 SA 
ENDBRANCH   9  10
ENDBRANCH   7   9
ENDBRANCH   4   7
TORSDOF 3
ENDMDL
MODEL      143
REMARK 921   NORMALIZED FREE ENERGY PREDICTED BY IDOCK:   -3.53 KCAL/MOL
REMARK 922        TOTAL FREE ENERGY PREDICTED BY IDOCK:   -4.41 KCAL/MOL
REMARK 923 INTER-LIGAND FREE ENERGY PREDICTED BY IDOCK:   -4.17 KCAL/MOL
REMARK 924 INTRA-LIGAND FREE ENERGY PREDICTED BY IDOCK:   -0.24 KCAL/MOL
REMARK 927      BINDING AFFINITY PREDICTED BY RF-SCORE:    0.00 PKD
ROOT
HETATM    1  C   UNL     1      -8.390   4.263  70.408  1.00  0.00    -0.081 C  
HETATM    2  C   UNL     1      -7.644   5.550  70.066  1.00  0.00    -0.077 C  
HETATM    3  C   UNL     1      -7.372   5.673  68.564  1.00  0.00    -0.076 C  
HETATM    4  C   UNL     1      -8.638   5.506  67.699  1.00  0.00    -0.108 C  
HETATM    5  C   UNL     1      -9.342   4.190  68.080  1.00  0.00    -0.212 C  
HETATM    6  C   UNL     1      -9.657   4.108  69.574  1.00  0.00    -0.274 C  
ENDROOT
BRANCH   4   7
HETATM    7  N   UNL     1      -9.523   6.668  67.862  1.00  0.00    -0.118 N  
HETATM    8  H   UNL     1     -10.532   6.527  67.919  1.00  0.00     0.000 HD 
BRANCH   7   9
HETATM    9  S   UNL     1      -8.903   8.214  67.954  1.00  0.00    -0.130 SA 
BRANCH   9  10
HETATM   10  C   UNL     1     -10.091   8.977  69.006  1.00  0.00    -0.195 A  
HETATM   11  N   UNL     1     -10.827   8.271  69.834  1.00  0.00    -0.240 NA 
HETATM   12  C   UNL     1     -11.659   9.124  70.544  1.00  0.00    -0.197 A  
HETATM   13  C   UNL     1     -12.591   8.737  71.528  1.00  0.00    -0.372 A  
HETATM   14  C   UNL     1     -13.374   9.704  72.164  1.00  0.00    -0.545 A  
HETATM   15  C   UNL     1     -13.236  11.050  71.838  1.00  0.00    -0.503 A  
HETATM   16  C   UNL     1     -12.317  11.462  70.870  1.00  0.00    -0.483 A  
HETATM   17  C   UNL     1     -11.535  10.481  70.236  1.00  0.00    -0.333 A  
HETATM   18  S   UNL     1     -10.325  10.670  69.027  1.00  0.00    -0.228 SA 
ENDBRANCH   9  10
ENDBRANCH   7   9
ENDBRANCH   4   7
TORSDOF 3
ENDMDL
MODEL      144
REMARK 921   NORMALIZED FREE ENERGY PREDICTED BY IDOCK:   -3.52 KCAL/MOL
REMARK 922        TOTAL FREE ENERGY PREDICTED BY IDOCK:   -4.41 KCAL/MOL
REMARK 923 INTER-LIGAND FREE ENERGY PREDICTED BY IDOCK:   -4.21 KCAL/MOL
REMARK 924 INTRA-LIGAND FREE ENERGY PREDICTED BY IDOCK:   -0.20 KCAL/MOL
REMARK 927      BINDING AFFINITY PREDICTED BY RF-SCORE:    0.00 PKD
ROOT
HETATM    1  C   UNL     1      -8.831   7.811  70.607  1.00  0.00    -0.144 C  
HETATM    2  C   UNL     1      -9.252   8.363  69.247  1.00  0.00    -0.154 C  
HETATM    3  C   UNL     1     -10.772   8.482  69.123  1.00  0.00    -0.128 C  
HETATM    4  C   UNL     1     -11.419   9.273  70.278  1.00  0.00    -0.162 C  
HETATM    5  C   UNL     1     -10.969   8.667  71.621  1.00  0.00    -0.378 C  
HETATM    6  C   UNL     1      -9.446   8.608  71.752  1.00  0.00    -0.354 C  
ENDROOT
BRANCH   4   7
HETATM    7  N   UNL     1     -11.074  10.698  70.176  1.00  0.00    -0.388 N  
HETATM    8  H   UNL     1     -10.093  10.978  70.154  1.00  0.00     0.000 HD 
BRANCH   7   9
HETATM    9  S   UNL     1     -12.264  11.865  70.096  1.00  0.00    -0.195 SA 
BRANCH   9  10
HETATM   10  C   UNL     1     -11.477  13.057  69.066  1.00  0.00    -0.303 A  
HETATM   11  N   UNL     1     -10.685  13.979  69.566  1.00  0.00    -0.056 NA 
HETATM   12  C   UNL     1     -10.195  14.766  68.535  1.00  0.00    -0.232 A  
HETATM   13  C   UNL     1      -9.311  15.855  68.676  1.00  0.00    -0.212 A  
HETATM   14  C   UNL     1      -8.901  16.571  67.548  1.00  0.00    -0.198 A  
HETATM   15  C   UNL     1      -9.353  16.211  66.282  1.00  0.00    -0.351 A  
HETATM   16  C   UNL     1     -10.226  15.134  66.112  1.00  0.00    -0.310 A  
HETATM   17  C   UNL     1     -10.633  14.422  67.253  1.00  0.00    -0.279 A  
HETATM   18  S   UNL     1     -11.677  13.059  67.368  1.00  0.00    -0.368 SA 
ENDBRANCH   9  10
ENDBRANCH   7   9
ENDBRANCH   4   7
TORSDOF 3
ENDMDL
MODEL      145
REMARK 921   NORMALIZED FREE ENERGY PREDICTED BY IDOCK:   -3.50 KCAL/MOL
REMARK 922        TOTAL FREE ENERGY PREDICTED BY IDOCK:   -4.39 KCAL/MOL
REMARK 923 INTER-LIGAND FREE ENERGY PREDICTED BY IDOCK:   -4.17 KCAL/MOL
REMARK 924 INTRA-LIGAND FREE ENERGY PREDICTED BY IDOCK:   -0.22 KCAL/MOL
REMARK 927      BINDING AFFINITY PREDICTED BY RF-SCORE:    0.00 PKD
ROOT
HETATM    1  C   UNL     1     -12.270  12.359  63.892  1.00  0.00    -0.603 C  
HETATM    2  C   UNL     1     -12.470  13.028  65.250  1.00  0.00    -0.555 C  
HETATM    3  C   UNL     1     -11.625  12.369  66.342  1.00  0.00    -0.442 C  
HETATM    4  C   UNL     1     -10.130  12.265  65.978  1.00  0.00    -0.248 C  
HETATM    5  C   UNL     1      -9.990  11.575  64.608  1.00  0.00    -0.305 C  
HETATM    6  C   UNL     1     -10.795  12.279  63.515  1.00  0.00    -0.508 C  
ENDROOT
BRANCH   4   7
HETATM    7  N   UNL     1      -9.508  13.597  65.988  1.00  0.00    -0.488 N  
HETATM    8  H   UNL     1      -9.714  14.253  65.234  1.00  0.00     0.000 HD 
BRANCH   7   9
HETATM    9  S   UNL     1      -8.471  14.051  67.213  1.00  0.00    -0.191 SA 
BRANCH   9  10
HETATM   10  C   UNL     1      -7.949  12.473  67.795  1.00  0.00    -0.163 A  
HETATM   11  N   UNL     1      -8.503  11.912  68.846  1.00  0.00     0.051 NA 
HETATM   12  C   UNL     1      -7.913  10.677  69.067  1.00  0.00    -0.140 A  
HETATM   13  C   UNL     1      -8.244   9.778  70.101  1.00  0.00    -0.202 A  
HETATM   14  C   UNL     1      -7.561   8.563  70.214  1.00  0.00    -0.075 A  
HETATM   15  C   UNL     1      -6.559   8.232  69.307  1.00  0.00    -0.039 A  
HETATM   16  C   UNL     1      -6.213   9.102  68.271  1.00  0.00    -0.054 A  
HETATM   17  C   UNL     1      -6.906  10.320  68.166  1.00  0.00    -0.066 A  
HETATM   18  S   UNL     1      -6.721  11.580  67.009  1.00  0.00    -0.142 SA 
ENDBRANCH   9  10
ENDBRANCH   7   9
ENDBRANCH   4   7
TORSDOF 3
ENDMDL
MODEL      146
REMARK 921   NORMALIZED FREE ENERGY PREDICTED BY IDOCK:   -3.50 KCAL/MOL
REMARK 922        TOTAL FREE ENERGY PREDICTED BY IDOCK:   -4.39 KCAL/MOL
REMARK 923 INTER-LIGAND FREE ENERGY PREDICTED BY IDOCK:   -4.14 KCAL/MOL
REMARK 924 INTRA-LIGAND FREE ENERGY PREDICTED BY IDOCK:   -0.25 KCAL/MOL
REMARK 927      BINDING AFFINITY PREDICTED BY RF-SCORE:    0.00 PKD
ROOT
HETATM    1  C   UNL     1      -6.881  11.589  66.854  1.00  0.00    -0.138 C  
HETATM    2  C   UNL     1      -8.201  11.022  66.338  1.00  0.00    -0.166 C  
HETATM    3  C   UNL     1      -8.191   9.492  66.298  1.00  0.00    -0.115 C  
HETATM    4  C   UNL     1      -7.786   8.849  67.640  1.00  0.00    -0.101 C  
HETATM    5  C   UNL     1      -6.446   9.450  68.106  1.00  0.00    -0.054 C  
HETATM    6  C   UNL     1      -6.491  10.976  68.194  1.00  0.00    -0.057 C  
ENDROOT
BRANCH   4   7
HETATM    7  N   UNL     1      -8.848   9.040  68.638  1.00  0.00    -0.136 N  
HETATM    8  H   UNL     1      -8.600   9.298  69.594  1.00  0.00     0.000 HD 
BRANCH   7   9
HETATM    9  S   UNL     1     -10.454   8.840  68.231  1.00  0.00    -0.149 SA 
BRANCH   9  10
HETATM   10  C   UNL     1     -11.177  10.189  69.101  1.00  0.00    -0.183 A  
HETATM   11  N   UNL     1     -11.820  10.010  70.233  1.00  0.00    -0.241 NA 
HETATM   12  C   UNL     1     -12.268  11.236  70.702  1.00  0.00    -0.393 A  
HETATM   13  C   UNL     1     -12.995  11.449  71.891  1.00  0.00    -0.466 A  
HETATM   14  C   UNL     1     -13.392  12.742  72.242  1.00  0.00    -0.563 A  
HETATM   15  C   UNL     1     -13.070  13.824  71.428  1.00  0.00    -0.413 A  
HETATM   16  C   UNL     1     -12.347  13.642  70.247  1.00  0.00    -0.392 A  
HETATM   17  C   UNL     1     -11.952  12.338  69.903  1.00  0.00    -0.306 A  
HETATM   18  S   UNL     1     -11.055  11.799  68.538  1.00  0.00    -0.262 SA 
ENDBRANCH   9  10
ENDBRANCH   7   9
ENDBRANCH   4   7
TORSDOF 3
ENDMDL
MODEL      147
REMARK 921   NORMALIZED FREE ENERGY PREDICTED BY IDOCK:   -3.50 KCAL/MOL
REMARK 922        TOTAL FREE ENERGY PREDICTED BY IDOCK:   -4.38 KCAL/MOL
REMARK 923 INTER-LIGAND FREE ENERGY PREDICTED BY IDOCK:   -4.17 KCAL/MOL
REMARK 924 INTRA-LIGAND FREE ENERGY PREDICTED BY IDOCK:   -0.21 KCAL/MOL
REMARK 927      BINDING AFFINITY PREDICTED BY RF-SCORE:    0.00 PKD
ROOT
HETATM    1  C   UNL     1      -9.209   7.022  74.078  1.00  0.00    -0.261 C  
HETATM    2  C   UNL     1      -8.120   6.843  73.023  1.00  0.00    -0.115 C  
HETATM    3  C   UNL     1      -8.367   5.611  72.148  1.00  0.00    -0.115 C  
HETATM    4  C   UNL     1      -9.774   5.582  71.518  1.00  0.00    -0.156 C  
HETATM    5  C   UNL     1     -10.829   5.756  72.627  1.00  0.00    -0.296 C  
HETATM    6  C   UNL     1     -10.601   7.021  73.456  1.00  0.00    -0.405 C  
ENDROOT
BRANCH   4   7
HETATM    7  N   UNL     1      -9.891   6.619  70.483  1.00  0.00    -0.176 N  
HETATM    8  H   UNL     1     -10.419   7.469  70.680  1.00  0.00     0.000 HD 
BRANCH   7   9
HETATM    9  S   UNL     1      -9.174   6.424  68.989  1.00  0.00    -0.128 SA 
BRANCH   9  10
HETATM   10  C   UNL     1      -9.677   7.912  68.193  1.00  0.00    -0.159 A  
HETATM   11  N   UNL     1      -9.416   8.134  66.925  1.00  0.00    -0.176 NA 
HETATM   12  C   UNL     1      -9.938   9.366  66.561  1.00  0.00    -0.269 A  
HETATM   13  C   UNL     1      -9.861   9.949  65.280  1.00  0.00    -0.373 A  
HETATM   14  C   UNL     1     -10.427  11.206  65.051  1.00  0.00    -0.357 A  
HETATM   15  C   UNL     1     -11.072  11.886  66.080  1.00  0.00    -0.369 A  
HETATM   16  C   UNL     1     -11.167  11.331  67.357  1.00  0.00    -0.370 A  
HETATM   17  C   UNL     1     -10.594  10.066  67.577  1.00  0.00    -0.280 A  
HETATM   18  S   UNL     1     -10.556   9.126  69.017  1.00  0.00    -0.162 SA 
ENDBRANCH   9  10
ENDBRANCH   7   9
ENDBRANCH   4   7
TORSDOF 3
ENDMDL
MODEL      148
REMARK 921   NORMALIZED FREE ENERGY PREDICTED BY IDOCK:   -3.45 KCAL/MOL
REMARK 922        TOTAL FREE ENERGY PREDICTED BY IDOCK:   -4.33 KCAL/MOL
REMARK 923 INTER-LIGAND FREE ENERGY PREDICTED BY IDOCK:   -4.23 KCAL/MOL
REMARK 924 INTRA-LIGAND FREE ENERGY PREDICTED BY IDOCK:   -0.10 KCAL/MOL
REMARK 927      BINDING AFFINITY PREDICTED BY RF-SCORE:    0.00 PKD
ROOT
HETATM    1  C   UNL     1      -6.703   7.362  62.441  1.00  0.00    -0.070 C  
HETATM    2  C   UNL     1      -7.941   6.774  63.115  1.00  0.00    -0.077 C  
HETATM    3  C   UNL     1      -8.179   7.379  64.501  1.00  0.00    -0.023 C  
HETATM    4  C   UNL     1      -8.217   8.920  64.497  1.00  0.00    -0.166 C  
HETATM    5  C   UNL     1      -6.943   9.456  63.816  1.00  0.00    -0.095 C  
HETATM    6  C   UNL     1      -6.749   8.886  62.410  1.00  0.00    -0.094 C  
ENDROOT
BRANCH   4   7
HETATM    7  N   UNL     1      -9.437   9.399  63.831  1.00  0.00    -0.373 N  
HETATM    8  H   UNL     1     -10.236   8.772  63.734  1.00  0.00     0.000 HD 
BRANCH   7   9
HETATM    9  S   UNL     1      -9.534  10.953  63.233  1.00  0.00    -0.360 SA 
BRANCH   9  10
HETATM   10  C   UNL     1     -10.250  11.785  64.610  1.00  0.00    -0.284 A  
HETATM   11  N   UNL     1     -10.336  11.211  65.789  1.00  0.00    -0.254 NA 
HETATM   12  C   UNL     1     -10.923  12.093  66.683  1.00  0.00    -0.282 A  
HETATM   13  C   UNL     1     -11.180  11.839  68.045  1.00  0.00    -0.324 A  
HETATM   14  C   UNL     1     -11.788  12.819  68.835  1.00  0.00    -0.351 A  
HETATM   15  C   UNL     1     -12.136  14.050  68.287  1.00  0.00    -0.312 A  
HETATM   16  C   UNL     1     -11.889  14.331  66.942  1.00  0.00    -0.458 A  
HETATM   17  C   UNL     1     -11.278  13.338  66.156  1.00  0.00    -0.296 A  
HETATM   18  S   UNL     1     -10.840  13.385  64.493  1.00  0.00    -0.408 SA 
ENDBRANCH   9  10
ENDBRANCH   7   9
ENDBRANCH   4   7
TORSDOF 3
ENDMDL
MODEL      149
REMARK 921   NORMALIZED FREE ENERGY PREDICTED BY IDOCK:   -3.45 KCAL/MOL
REMARK 922        TOTAL FREE ENERGY PREDICTED BY IDOCK:   -4.33 KCAL/MOL
REMARK 923 INTER-LIGAND FREE ENERGY PREDICTED BY IDOCK:   -4.05 KCAL/MOL
REMARK 924 INTRA-LIGAND FREE ENERGY PREDICTED BY IDOCK:   -0.28 KCAL/MOL
REMARK 927      BINDING AFFINITY PREDICTED BY RF-SCORE:    0.00 PKD
ROOT
HETATM    1  C   UNL     1     -12.176  12.325  63.442  1.00  0.00    -0.630 C  
HETATM    2  C   UNL     1     -11.056  11.648  64.229  1.00  0.00    -0.406 C  
HETATM    3  C   UNL     1     -10.351  12.622  65.176  1.00  0.00    -0.312 C  
HETATM    4  C   UNL     1     -11.320  13.376  66.108  1.00  0.00    -0.303 C  
HETATM    5  C   UNL     1     -12.419  14.046  65.262  1.00  0.00    -0.495 C  
HETATM    6  C   UNL     1     -13.152  13.049  64.363  1.00  0.00     0.147 C  
ENDROOT
BRANCH   4   7
HETATM    7  N   UNL     1     -11.883  12.458  67.110  1.00  0.00    -0.348 N  
HETATM    8  H   UNL     1     -12.789  12.022  66.939  1.00  0.00     0.000 HD 
BRANCH   7   9
HETATM    9  S   UNL     1     -11.060  12.121  68.522  1.00  0.00    -0.273 SA 
BRANCH   9  10
HETATM   10  C   UNL     1     -10.088  10.746  68.008  1.00  0.00    -0.176 A  
HETATM   11  N   UNL     1     -10.640   9.604  67.665  1.00  0.00    -0.262 NA 
HETATM   12  C   UNL     1      -9.647   8.711  67.292  1.00  0.00    -0.167 A  
HETATM   13  C   UNL     1      -9.851   7.385  66.858  1.00  0.00    -0.284 A  
HETATM   14  C   UNL     1      -8.754   6.588  66.518  1.00  0.00    -0.135 A  
HETATM   15  C   UNL     1      -7.461   7.096  66.598  1.00  0.00    -0.088 A  
HETATM   16  C   UNL     1      -7.231   8.407  67.021  1.00  0.00    -0.080 A  
HETATM   17  C   UNL     1      -8.340   9.200  67.361  1.00  0.00    -0.115 A  
HETATM   18  S   UNL     1      -8.384  10.834  67.898  1.00  0.00    -0.120 SA 
ENDBRANCH   9  10
ENDBRANCH   7   9
ENDBRANCH   4   7
TORSDOF 3
ENDMDL
MODEL      150
REMARK 921   NORMALIZED FREE ENERGY PREDICTED BY IDOCK:   -3.45 KCAL/MOL
REMARK 922        TOTAL FREE ENERGY PREDICTED BY IDOCK:   -4.32 KCAL/MOL
REMARK 923 INTER-LIGAND FREE ENERGY PREDICTED BY IDOCK:   -4.08 KCAL/MOL
REMARK 924 INTRA-LIGAND FREE ENERGY PREDICTED BY IDOCK:   -0.24 KCAL/MOL
REMARK 927      BINDING AFFINITY PREDICTED BY RF-SCORE:    0.00 PKD
ROOT
HETATM    1  C   UNL     1     -12.477   9.427  71.886  1.00  0.00    -0.468 C  
HETATM    2  C   UNL     1     -12.961  10.596  71.032  1.00  0.00    -0.456 C  
HETATM    3  C   UNL     1     -11.801  11.462  70.537  1.00  0.00    -0.394 C  
HETATM    4  C   UNL     1     -10.700  10.656  69.819  1.00  0.00    -0.230 C  
HETATM    5  C   UNL     1     -10.244   9.500  70.729  1.00  0.00    -0.363 C  
HETATM    6  C   UNL     1     -11.408   8.611  71.169  1.00  0.00    -0.329 C  
ENDROOT
BRANCH   4   7
HETATM    7  N   UNL     1     -11.187  10.171  68.520  1.00  0.00    -0.448 N  
HETATM    8  H   UNL     1     -11.642   9.260  68.462  1.00  0.00     0.000 HD 
BRANCH   7   9
HETATM    9  S   UNL     1     -11.008  11.090  67.139  1.00  0.00    -0.261 SA 
BRANCH   9  10
HETATM   10  C   UNL     1      -9.531  10.396  66.479  1.00  0.00    -0.167 A  
HETATM   11  N   UNL     1      -9.542   9.258  65.822  1.00  0.00    -0.271 NA 
HETATM   12  C   UNL     1      -8.253   8.959  65.406  1.00  0.00    -0.129 A  
HETATM   13  C   UNL     1      -7.867   7.821  64.669  1.00  0.00    -0.130 A  
HETATM   14  C   UNL     1      -6.525   7.640  64.320  1.00  0.00    -0.049 A  
HETATM   15  C   UNL     1      -5.567   8.579  64.689  1.00  0.00    -0.047 A  
HETATM   16  C   UNL     1      -5.923   9.718  65.415  1.00  0.00    -0.072 A  
HETATM   17  C   UNL     1      -7.274   9.891  65.762  1.00  0.00    -0.110 A  
HETATM   18  S   UNL     1      -8.017  11.176  66.631  1.00  0.00    -0.157 SA 
ENDBRANCH   9  10
ENDBRANCH   7   9
ENDBRANCH   4   7
TORSDOF 3
ENDMDL
MODEL      151
REMARK 921   NORMALIZED FREE ENERGY PREDICTED BY IDOCK:   -3.44 KCAL/MOL
REMARK 922        TOTAL FREE ENERGY PREDICTED BY IDOCK:   -4.32 KCAL/MOL
REMARK 923 INTER-LIGAND FREE ENERGY PREDICTED BY IDOCK:   -3.99 KCAL/MOL
REMARK 924 INTRA-LIGAND FREE ENERGY PREDICTED BY IDOCK:   -0.33 KCAL/MOL
REMARK 927      BINDING AFFINITY PREDICTED BY RF-SCORE:    0.00 PKD
ROOT
HETATM    1  C   UNL     1      -9.237   8.416  65.428  1.00  0.00     0.023 C  
HETATM    2  C   UNL     1     -10.271   8.397  66.551  1.00  0.00    -0.277 C  
HETATM    3  C   UNL     1     -10.093   9.575  67.512  1.00  0.00    -0.257 C  
HETATM    4  C   UNL     1     -10.056  10.942  66.802  1.00  0.00    -0.216 C  
HETATM    5  C   UNL     1      -8.992  10.906  65.688  1.00  0.00    -0.209 C  
HETATM    6  C   UNL     1      -9.216   9.757  64.704  1.00  0.00    -0.312 C  
ENDROOT
BRANCH   4   7
HETATM    7  N   UNL     1     -11.387  11.281  66.276  1.00  0.00    -0.101 N  
HETATM    8  H   UNL     1     -12.126  10.577  66.288  1.00  0.00     0.000 HD 
BRANCH   7   9
HETATM    9  S   UNL     1     -11.706  12.798  65.660  1.00  0.00    -0.421 SA 
BRANCH   9  10
HETATM   10  C   UNL     1     -11.583  13.772  67.122  1.00  0.00    -0.364 A  
HETATM   11  N   UNL     1     -12.441  13.639  68.109  1.00  0.00     0.104 NA 
HETATM   12  C   UNL     1     -12.099  14.512  69.130  1.00  0.00    -0.264 A  
HETATM   13  C   UNL     1     -12.781  14.656  70.356  1.00  0.00    -0.370 A  
HETATM   14  C   UNL     1     -12.331  15.584  71.299  1.00  0.00    -0.468 A  
HETATM   15  C   UNL     1     -11.207  16.364  71.040  1.00  0.00    -0.129 A  
HETATM   16  C   UNL     1     -10.510  16.239  69.836  1.00  0.00    -0.222 A  
HETATM   17  C   UNL     1     -10.971  15.303  68.894  1.00  0.00    -0.261 A  
HETATM   18  S   UNL     1     -10.330  14.913  67.346  1.00  0.00    -0.245 SA 
ENDBRANCH   9  10
ENDBRANCH   7   9
ENDBRANCH   4   7
TORSDOF 3
ENDMDL
MODEL      152
REMARK 921   NORMALIZED FREE ENERGY PREDICTED BY IDOCK:   -3.44 KCAL/MOL
REMARK 922        TOTAL FREE ENERGY PREDICTED BY IDOCK:   -4.31 KCAL/MOL
REMARK 923 INTER-LIGAND FREE ENERGY PREDICTED BY IDOCK:   -4.10 KCAL/MOL
REMARK 924 INTRA-LIGAND FREE ENERGY PREDICTED BY IDOCK:   -0.21 KCAL/MOL
REMARK 927      BINDING AFFINITY PREDICTED BY RF-SCORE:    0.00 PKD
ROOT
HETATM    1  C   UNL     1      -6.607  19.555  69.168  1.00  0.00    -0.362 C  
HETATM    2  C   UNL     1      -7.815  19.642  68.238  1.00  0.00    -0.355 C  
HETATM    3  C   UNL     1      -7.843  18.491  67.229  1.00  0.00    -0.240 C  
HETATM    4  C   UNL     1      -7.735  17.100  67.886  1.00  0.00    -0.184 C  
HETATM    5  C   UNL     1      -6.497  17.068  68.802  1.00  0.00    -0.181 C  
HETATM    6  C   UNL     1      -6.511  18.191  69.841  1.00  0.00     0.026 C  
ENDROOT
BRANCH   4   7
HETATM    7  N   UNL     1      -8.969  16.785  68.620  1.00  0.00    -0.244 N  
HETATM    8  H   UNL     1      -9.357  17.471  69.268  1.00  0.00     0.000 HD 
BRANCH   7   9
HETATM    9  S   UNL     1      -9.742  15.322  68.409  1.00  0.00    -0.218 SA 
BRANCH   9  10
HETATM   10  C   UNL     1     -10.905  15.379  69.730  1.00  0.00    -0.288 A  
HETATM   11  N   UNL     1     -10.574  15.835  70.916  1.00  0.00    -0.016 NA 
HETATM   12  C   UNL     1     -11.679  15.779  71.751  1.00  0.00    -0.478 A  
HETATM   13  C   UNL     1     -11.716  16.185  73.101  1.00  0.00    -0.326 A  
HETATM   14  C   UNL     1     -12.901  16.067  73.832  1.00  0.00    -0.652 A  
HETATM   15  C   UNL     1     -14.050  15.556  73.235  1.00  0.00     0.505 A  
HETATM   16  C   UNL     1     -14.043  15.151  71.899  1.00  0.00    -0.649 A  
HETATM   17  C   UNL     1     -12.846  15.273  71.173  1.00  0.00    -0.427 A  
HETATM   18  S   UNL     1     -12.527  14.876  69.529  1.00  0.00    -0.007 SA 
ENDBRANCH   9  10
ENDBRANCH   7   9
ENDBRANCH   4   7
TORSDOF 3
ENDMDL
MODEL      153
REMARK 921   NORMALIZED FREE ENERGY PREDICTED BY IDOCK:   -3.43 KCAL/MOL
REMARK 922        TOTAL FREE ENERGY PREDICTED BY IDOCK:   -4.31 KCAL/MOL
REMARK 923 INTER-LIGAND FREE ENERGY PREDICTED BY IDOCK:   -4.02 KCAL/MOL
REMARK 924 INTRA-LIGAND FREE ENERGY PREDICTED BY IDOCK:   -0.29 KCAL/MOL
REMARK 927      BINDING AFFINITY PREDICTED BY RF-SCORE:    0.00 PKD
ROOT
HETATM    1  C   UNL     1      -8.507   2.216  70.447  1.00  0.00    -0.084 C  
HETATM    2  C   UNL     1      -8.565   3.502  69.626  1.00  0.00    -0.111 C  
HETATM    3  C   UNL     1      -9.779   4.359  69.990  1.00  0.00    -0.286 C  
HETATM    4  C   UNL     1      -9.893   4.648  71.500  1.00  0.00    -0.190 C  
HETATM    5  C   UNL     1      -9.839   3.318  72.275  1.00  0.00    -0.232 C  
HETATM    6  C   UNL     1      -8.591   2.499  71.943  1.00  0.00    -0.093 C  
ENDROOT
BRANCH   4   7
HETATM    7  N   UNL     1      -8.832   5.573  71.924  1.00  0.00    -0.135 N  
HETATM    8  H   UNL     1      -7.912   5.517  71.486  1.00  0.00     0.000 HD 
BRANCH   7   9
HETATM    9  S   UNL     1      -9.110   6.712  73.111  1.00  0.00    -0.128 SA 
BRANCH   9  10
HETATM   10  C   UNL     1      -9.995   7.925  72.192  1.00  0.00    -0.207 A  
HETATM   11  N   UNL     1      -9.409   8.640  71.258  1.00  0.00    -0.201 NA 
HETATM   12  C   UNL     1     -10.339   9.500  70.692  1.00  0.00    -0.302 A  
HETATM   13  C   UNL     1     -10.088  10.420  69.654  1.00  0.00    -0.226 A  
HETATM   14  C   UNL     1     -11.120  11.235  69.181  1.00  0.00    -0.312 A  
HETATM   15  C   UNL     1     -12.398  11.140  69.722  1.00  0.00    -0.315 A  
HETATM   16  C   UNL     1     -12.676  10.234  70.747  1.00  0.00    -0.434 A  
HETATM   17  C   UNL     1     -11.631   9.419  71.217  1.00  0.00    -0.364 A  
HETATM   18  S   UNL     1     -11.661   8.214  72.445  1.00  0.00    -0.402 SA 
ENDBRANCH   9  10
ENDBRANCH   7   9
ENDBRANCH   4   7
TORSDOF 3
ENDMDL
MODEL      154
REMARK 921   NORMALIZED FREE ENERGY PREDICTED BY IDOCK:   -3.43 KCAL/MOL
REMARK 922        TOTAL FREE ENERGY PREDICTED BY IDOCK:   -4.31 KCAL/MOL
REMARK 923 INTER-LIGAND FREE ENERGY PREDICTED BY IDOCK:   -4.40 KCAL/MOL
REMARK 924 INTRA-LIGAND FREE ENERGY PREDICTED BY IDOCK:    0.10 KCAL/MOL
REMARK 927      BINDING AFFINITY PREDICTED BY RF-SCORE:    0.00 PKD
ROOT
HETATM    1  C   UNL     1      -7.007  16.842  68.707  1.00  0.00    -0.197 C  
HETATM    2  C   UNL     1      -7.798  15.731  69.395  1.00  0.00    -0.210 C  
HETATM    3  C   UNL     1      -9.308  15.959  69.296  1.00  0.00    -0.259 C  
HETATM    4  C   UNL     1      -9.798  16.190  67.852  1.00  0.00    -0.235 C  
HETATM    5  C   UNL     1      -8.973  17.324  67.213  1.00  0.00    -0.233 C  
HETATM    6  C   UNL     1      -7.469  17.055  67.270  1.00  0.00    -0.190 C  
ENDROOT
BRANCH   4   7
HETATM    7  N   UNL     1      -9.708  14.944  67.077  1.00  0.00    -0.230 N  
HETATM    8  H   UNL     1      -8.791  14.569  66.833  1.00  0.00     0.000 HD 
BRANCH   7   9
HETATM    9  S   UNL     1     -11.084  14.134  66.592  1.00  0.00    -0.320 SA 
BRANCH   9  10
HETATM   10  C   UNL     1     -11.625  13.469  68.130  1.00  0.00    -0.333 A  
HETATM   11  N   UNL     1     -11.437  12.205  68.434  1.00  0.00    -0.279 NA 
HETATM   12  C   UNL     1     -11.945  11.961  69.701  1.00  0.00    -0.298 A  
HETATM   13  C   UNL     1     -11.925  10.722  70.374  1.00  0.00    -0.448 A  
HETATM   14  C   UNL     1     -12.482  10.614  71.652  1.00  0.00    -0.416 A  
HETATM   15  C   UNL     1     -13.051  11.724  72.269  1.00  0.00    -0.086 A  
HETATM   16  C   UNL     1     -13.080  12.964  71.628  1.00  0.00    -0.430 A  
HETATM   17  C   UNL     1     -12.518  13.062  70.343  1.00  0.00    -0.194 A  
HETATM   18  S   UNL     1     -12.393  14.435  69.313  1.00  0.00    -0.044 SA 
ENDBRANCH   9  10
ENDBRANCH   7   9
ENDBRANCH   4   7
TORSDOF 3
ENDMDL
MODEL      155
REMARK 921   NORMALIZED FREE ENERGY PREDICTED BY IDOCK:   -3.42 KCAL/MOL
REMARK 922        TOTAL FREE ENERGY PREDICTED BY IDOCK:   -4.29 KCAL/MOL
REMARK 923 INTER-LIGAND FREE ENERGY PREDICTED BY IDOCK:   -4.34 KCAL/MOL
REMARK 924 INTRA-LIGAND FREE ENERGY PREDICTED BY IDOCK:    0.05 KCAL/MOL
REMARK 927      BINDING AFFINITY PREDICTED BY RF-SCORE:    0.00 PKD
ROOT
HETATM    1  C   UNL     1      -5.686   6.394  63.761  1.00  0.00    -0.022 C  
HETATM    2  C   UNL     1      -7.119   5.869  63.795  1.00  0.00    -0.052 C  
HETATM    3  C   UNL     1      -7.965   6.583  64.852  1.00  0.00    -0.124 C  
HETATM    4  C   UNL     1      -7.929   8.119  64.728  1.00  0.00    -0.147 C  
HETATM    5  C   UNL     1      -6.463   8.592  64.709  1.00  0.00    -0.065 C  
HETATM    6  C   UNL     1      -5.645   7.911  63.610  1.00  0.00    -0.053 C  
ENDROOT
BRANCH   4   7
HETATM    7  N   UNL     1      -8.660   8.552  63.528  1.00  0.00    -0.422 N  
HETATM    8  H   UNL     1      -9.366   7.938  63.121  1.00  0.00     0.000 HD 
BRANCH   7   9
HETATM    9  S   UNL     1      -8.351  10.031  62.822  1.00  0.00    -0.181 SA 
BRANCH   9  10
HETATM   10  C   UNL     1      -9.397  11.072  63.783  1.00  0.00    -0.226 A  
HETATM   11  N   UNL     1     -10.319  11.823  63.223  1.00  0.00    -0.417 NA 
HETATM   12  C   UNL     1     -10.999  12.520  64.210  1.00  0.00    -0.360 A  
HETATM   13  C   UNL     1     -12.060  13.424  63.999  1.00  0.00    -0.506 A  
HETATM   14  C   UNL     1     -12.654  14.068  65.088  1.00  0.00    -0.453 A  
HETATM   15  C   UNL     1     -12.210  13.817  66.383  1.00  0.00    -0.480 A  
HETATM   16  C   UNL     1     -11.164  12.923  66.622  1.00  0.00    -0.342 A  
HETATM   17  C   UNL     1     -10.573  12.282  65.519  1.00  0.00    -0.269 A  
HETATM   18  S   UNL     1      -9.291  11.135  65.488  1.00  0.00    -0.221 SA 
ENDBRANCH   9  10
ENDBRANCH   7   9
ENDBRANCH   4   7
TORSDOF 3
ENDMDL
MODEL      156
REMARK 921   NORMALIZED FREE ENERGY PREDICTED BY IDOCK:   -3.42 KCAL/MOL
REMARK 922        TOTAL FREE ENERGY PREDICTED BY IDOCK:   -4.29 KCAL/MOL
REMARK 923 INTER-LIGAND FREE ENERGY PREDICTED BY IDOCK:   -4.01 KCAL/MOL
REMARK 924 INTRA-LIGAND FREE ENERGY PREDICTED BY IDOCK:   -0.28 KCAL/MOL
REMARK 927      BINDING AFFINITY PREDICTED BY RF-SCORE:    0.00 PKD
ROOT
HETATM    1  C   UNL     1     -10.405  10.991  63.559  1.00  0.00    -0.402 C  
HETATM    2  C   UNL     1     -10.307  12.242  64.429  1.00  0.00    -0.358 C  
HETATM    3  C   UNL     1     -10.162  11.896  65.914  1.00  0.00    -0.270 C  
HETATM    4  C   UNL     1      -9.008  10.915  66.202  1.00  0.00    -0.183 C  
HETATM    5  C   UNL     1      -9.165   9.672  65.305  1.00  0.00    -0.295 C  
HETATM    6  C   UNL     1      -9.252  10.030  63.821  1.00  0.00    -0.314 C  
ENDROOT
BRANCH   4   7
HETATM    7  N   UNL     1      -7.712  11.577  65.999  1.00  0.00    -0.367 N  
HETATM    8  H   UNL     1      -7.480  11.957  65.081  1.00  0.00     0.000 HD 
BRANCH   7   9
HETATM    9  S   UNL     1      -6.614  11.715  67.248  1.00  0.00    -0.136 SA 
BRANCH   9  10
HETATM   10  C   UNL     1      -6.724  13.440  67.584  1.00  0.00    -0.167 A  
HETATM   11  N   UNL     1      -5.721  14.252  67.336  1.00  0.00    -0.307 NA 
HETATM   12  C   UNL     1      -6.086  15.545  67.680  1.00  0.00    -0.133 A  
HETATM   13  C   UNL     1      -5.277  16.692  67.554  1.00  0.00    -0.153 A  
HETATM   14  C   UNL     1      -5.770  17.939  67.948  1.00  0.00    -0.156 A  
HETATM   15  C   UNL     1      -7.059  18.059  68.458  1.00  0.00    -0.257 A  
HETATM   16  C   UNL     1      -7.884  16.940  68.590  1.00  0.00    -0.244 A  
HETATM   17  C   UNL     1      -7.378  15.690  68.192  1.00  0.00    -0.118 A  
HETATM   18  S   UNL     1      -8.144  14.149  68.220  1.00  0.00    -0.154 SA 
ENDBRANCH   9  10
ENDBRANCH   7   9
ENDBRANCH   4   7
TORSDOF 3
ENDMDL
MODEL      157
REMARK 921   NORMALIZED FREE ENERGY PREDICTED BY IDOCK:   -3.39 KCAL/MOL
REMARK 922        TOTAL FREE ENERGY PREDICTED BY IDOCK:   -4.25 KCAL/MOL
REMARK 923 INTER-LIGAND FREE ENERGY PREDICTED BY IDOCK:   -3.95 KCAL/MOL
REMARK 924 INTRA-LIGAND FREE ENERGY PREDICTED BY IDOCK:   -0.31 KCAL/MOL
REMARK 927      BINDING AFFINITY PREDICTED BY RF-SCORE:    0.00 PKD
ROOT
HETATM    1  C   UNL     1     -12.149  12.493  64.664  1.00  0.00    -0.496 C  
HETATM    2  C   UNL     1     -11.438  13.702  64.059  1.00  0.00    -0.303 C  
HETATM    3  C   UNL     1     -11.232  14.817  65.086  1.00  0.00    -0.384 C  
HETATM    4  C   UNL     1     -10.534  14.339  66.376  1.00  0.00    -0.282 C  
HETATM    5  C   UNL     1     -11.298  13.128  66.945  1.00  0.00    -0.355 C  
HETATM    6  C   UNL     1     -11.447  11.999  65.923  1.00  0.00    -0.392 C  
ENDROOT
BRANCH   4   7
HETATM    7  N   UNL     1      -9.125  14.020  66.105  1.00  0.00    -0.495 N  
HETATM    8  H   UNL     1      -8.804  13.941  65.140  1.00  0.00     0.000 HD 
BRANCH   7   9
HETATM    9  S   UNL     1      -8.044  13.784  67.354  1.00  0.00    -0.154 SA 
BRANCH   9  10
HETATM   10  C   UNL     1      -7.940  12.026  67.362  1.00  0.00    -0.165 A  
HETATM   11  N   UNL     1      -8.192  11.319  66.284  1.00  0.00    -0.157 NA 
HETATM   12  C   UNL     1      -8.020   9.973  66.571  1.00  0.00    -0.115 A  
HETATM   13  C   UNL     1      -8.195   8.907  65.666  1.00  0.00    -0.126 A  
HETATM   14  C   UNL     1      -7.994   7.591  66.092  1.00  0.00    -0.111 A  
HETATM   15  C   UNL     1      -7.615   7.325  67.404  1.00  0.00    -0.105 A  
HETATM   16  C   UNL     1      -7.430   8.362  68.321  1.00  0.00    -0.096 A  
HETATM   17  C   UNL     1      -7.635   9.681  67.883  1.00  0.00    -0.083 A  
HETATM   18  S   UNL     1      -7.478  11.154  68.758  1.00  0.00    -0.125 SA 
ENDBRANCH   9  10
ENDBRANCH   7   9
ENDBRANCH   4   7
TORSDOF 3
ENDMDL
MODEL      158
REMARK 921   NORMALIZED FREE ENERGY PREDICTED BY IDOCK:   -3.39 KCAL/MOL
REMARK 922        TOTAL FREE ENERGY PREDICTED BY IDOCK:   -4.25 KCAL/MOL
REMARK 923 INTER-LIGAND FREE ENERGY PREDICTED BY IDOCK:   -4.00 KCAL/MOL
REMARK 924 INTRA-LIGAND FREE ENERGY PREDICTED BY IDOCK:   -0.25 KCAL/MOL
REMARK 927      BINDING AFFINITY PREDICTED BY RF-SCORE:    0.00 PKD
ROOT
HETATM    1  C   UNL     1     -11.527  13.967  65.545  1.00  0.00    -0.319 C  
HETATM    2  C   UNL     1     -11.900  12.619  64.932  1.00  0.00    -0.436 C  
HETATM    3  C   UNL     1     -10.745  11.618  65.005  1.00  0.00    -0.351 C  
HETATM    4  C   UNL     1     -10.169  11.452  66.426  1.00  0.00    -0.230 C  
HETATM    5  C   UNL     1      -9.802  12.839  66.988  1.00  0.00    -0.231 C  
HETATM    6  C   UNL     1     -10.983  13.810  66.960  1.00  0.00    -0.297 C  
ENDROOT
BRANCH   4   7
HETATM    7  N   UNL     1     -11.129  10.748  67.287  1.00  0.00    -0.303 N  
HETATM    8  H   UNL     1     -12.004  10.405  66.889  1.00  0.00     0.000 HD 
BRANCH   7   9
HETATM    9  S   UNL     1     -10.811  10.502  68.906  1.00  0.00    -0.253 SA 
BRANCH   9  10
HETATM   10  C   UNL     1     -10.519   8.765  68.917  1.00  0.00    -0.197 A  
HETATM   11  N   UNL     1      -9.853   8.175  67.950  1.00  0.00    -0.161 NA 
HETATM   12  C   UNL     1      -9.761   6.819  68.222  1.00  0.00    -0.126 A  
HETATM   13  C   UNL     1      -9.116   5.858  67.417  1.00  0.00    -0.110 A  
HETATM   14  C   UNL     1      -9.104   4.516  67.808  1.00  0.00    -0.142 A  
HETATM   15  C   UNL     1      -9.720   4.122  68.992  1.00  0.00    -0.188 A  
HETATM   16  C   UNL     1     -10.362   5.053  69.811  1.00  0.00    -0.286 A  
HETATM   17  C   UNL     1     -10.369   6.400  69.408  1.00  0.00    -0.209 A  
HETATM   18  S   UNL     1     -11.057   7.766  70.195  1.00  0.00    -0.158 SA 
ENDBRANCH   9  10
ENDBRANCH   7   9
ENDBRANCH   4   7
TORSDOF 3
ENDMDL
MODEL      159
REMARK 921   NORMALIZED FREE ENERGY PREDICTED BY IDOCK:   -3.38 KCAL/MOL
REMARK 922        TOTAL FREE ENERGY PREDICTED BY IDOCK:   -4.24 KCAL/MOL
REMARK 923 INTER-LIGAND FREE ENERGY PREDICTED BY IDOCK:   -4.07 KCAL/MOL
REMARK 924 INTRA-LIGAND FREE ENERGY PREDICTED BY IDOCK:   -0.17 KCAL/MOL
REMARK 927      BINDING AFFINITY PREDICTED BY RF-SCORE:    0.00 PKD
ROOT
HETATM    1  C   UNL     1     -10.754  15.145  66.807  1.00  0.00    -0.311 C  
HETATM    2  C   UNL     1     -11.750  14.173  67.435  1.00  0.00    -0.422 C  
HETATM    3  C   UNL     1     -12.272  13.153  66.420  1.00  0.00    -0.396 C  
HETATM    4  C   UNL     1     -11.150  12.406  65.672  1.00  0.00    -0.306 C  
HETATM    5  C   UNL     1     -10.183  13.434  65.052  1.00  0.00    -0.325 C  
HETATM    6  C   UNL     1      -9.627  14.410  66.090  1.00  0.00    -0.309 C  
ENDROOT
BRANCH   4   7
HETATM    7  N   UNL     1     -10.458  11.482  66.582  1.00  0.00    -0.229 N  
HETATM    8  H   UNL     1     -10.862  11.281  67.496  1.00  0.00     0.000 HD 
BRANCH   7   9
HETATM    9  S   UNL     1      -9.020  10.759  66.140  1.00  0.00    -0.183 SA 
BRANCH   9  10
HETATM   10  C   UNL     1      -9.357   9.085  66.567  1.00  0.00    -0.191 A  
HETATM   11  N   UNL     1      -8.890   8.087  65.851  1.00  0.00    -0.164 NA 
HETATM   12  C   UNL     1      -9.294   6.889  66.421  1.00  0.00    -0.141 A  
HETATM   13  C   UNL     1      -8.984   5.601  65.940  1.00  0.00    -0.160 A  
HETATM   14  C   UNL     1      -9.465   4.472  66.610  1.00  0.00    -0.183 A  
HETATM   15  C   UNL     1     -10.243   4.611  67.756  1.00  0.00    -0.027 A  
HETATM   16  C   UNL     1     -10.561   5.875  68.257  1.00  0.00    -0.310 A  
HETATM   17  C   UNL     1     -10.073   7.003  67.575  1.00  0.00    -0.185 A  
HETATM   18  S   UNL     1     -10.280   8.671  67.945  1.00  0.00    -0.225 SA 
ENDBRANCH   9  10
ENDBRANCH   7   9
ENDBRANCH   4   7
TORSDOF 3
ENDMDL
MODEL      160
REMARK 921   NORMALIZED FREE ENERGY PREDICTED BY IDOCK:   -3.36 KCAL/MOL
REMARK 922        TOTAL FREE ENERGY PREDICTED BY IDOCK:   -4.22 KCAL/MOL
REMARK 923 INTER-LIGAND FREE ENERGY PREDICTED BY IDOCK:   -3.91 KCAL/MOL
REMARK 924 INTRA-LIGAND FREE ENERGY PREDICTED BY IDOCK:   -0.31 KCAL/MOL
REMARK 927      BINDING AFFINITY PREDICTED BY RF-SCORE:    0.00 PKD
ROOT
HETATM    1  C   UNL     1     -12.614   8.363  72.169  1.00  0.00    -0.412 C  
HETATM    2  C   UNL     1     -13.498   9.343  71.401  1.00  0.00    -0.403 C  
HETATM    3  C   UNL     1     -12.770  10.654  71.096  1.00  0.00    -0.522 C  
HETATM    4  C   UNL     1     -11.412  10.450  70.395  1.00  0.00    -0.337 C  
HETATM    5  C   UNL     1     -10.561   9.463  71.217  1.00  0.00    -0.400 C  
HETATM    6  C   UNL     1     -11.281   8.137  71.464  1.00  0.00    -0.307 C  
ENDROOT
BRANCH   4   7
HETATM    7  N   UNL     1     -11.615   9.981  69.016  1.00  0.00    -0.489 N  
HETATM    8  H   UNL     1     -12.409   9.377  68.803  1.00  0.00     0.000 HD 
BRANCH   7   9
HETATM    9  S   UNL     1     -10.567  10.424  67.797  1.00  0.00    -0.271 SA 
BRANCH   9  10
HETATM   10  C   UNL     1      -9.320   9.195  67.982  1.00  0.00    -0.137 A  
HETATM   11  N   UNL     1      -8.057   9.518  68.145  1.00  0.00    -0.102 NA 
HETATM   12  C   UNL     1      -7.304   8.361  68.279  1.00  0.00    -0.095 A  
HETATM   13  C   UNL     1      -5.909   8.302  68.475  1.00  0.00    -0.040 A  
HETATM   14  C   UNL     1      -5.273   7.063  68.586  1.00  0.00    -0.017 A  
HETATM   15  C   UNL     1      -6.009   5.884  68.513  1.00  0.00    -0.020 A  
HETATM   16  C   UNL     1      -7.392   5.913  68.324  1.00  0.00    -0.081 A  
HETATM   17  C   UNL     1      -8.022   7.164  68.212  1.00  0.00    -0.123 A  
HETATM   18  S   UNL     1      -9.689   7.525  67.989  1.00  0.00    -0.150 SA 
ENDBRANCH   9  10
ENDBRANCH   7   9
ENDBRANCH   4   7
TORSDOF 3
ENDMDL
MODEL      161
REMARK 921   NORMALIZED FREE ENERGY PREDICTED BY IDOCK:   -3.35 KCAL/MOL
REMARK 922        TOTAL FREE ENERGY PREDICTED BY IDOCK:   -4.20 KCAL/MOL
REMARK 923 INTER-LIGAND FREE ENERGY PREDICTED BY IDOCK:   -4.01 KCAL/MOL
REMARK 924 INTRA-LIGAND FREE ENERGY PREDICTED BY IDOCK:   -0.19 KCAL/MOL
REMARK 927      BINDING AFFINITY PREDICTED BY RF-SCORE:    0.00 PKD
ROOT
HETATM    1  C   UNL     1     -13.868   9.592  71.841  1.00  0.00    -0.338 C  
HETATM    2  C   UNL     1     -13.259   8.221  72.128  1.00  0.00    -0.297 C  
HETATM    3  C   UNL     1     -12.248   7.807  71.056  1.00  0.00    -0.236 C  
HETATM    4  C   UNL     1     -11.158   8.868  70.803  1.00  0.00    -0.261 C  
HETATM    5  C   UNL     1     -11.829  10.224  70.509  1.00  0.00    -0.419 C  
HETATM    6  C   UNL     1     -12.793  10.649  71.617  1.00  0.00    -0.570 C  
ENDROOT
BRANCH   4   7
HETATM    7  N   UNL     1     -10.245   8.946  71.953  1.00  0.00    -0.343 N  
HETATM    8  H   UNL     1     -10.598   9.273  72.853  1.00  0.00     0.000 HD 
BRANCH   7   9
HETATM    9  S   UNL     1      -8.642   8.509  71.806  1.00  0.00    -0.185 SA 
BRANCH   9  10
HETATM   10  C   UNL     1      -8.741   7.358  70.478  1.00  0.00    -0.147 A  
HETATM   11  N   UNL     1      -9.140   6.121  70.670  1.00  0.00    -0.149 NA 
HETATM   12  C   UNL     1      -9.136   5.447  69.458  1.00  0.00    -0.112 A  
HETATM   13  C   UNL     1      -9.506   4.101  69.261  1.00  0.00    -0.258 A  
HETATM   14  C   UNL     1      -9.449   3.543  67.981  1.00  0.00    -0.217 A  
HETATM   15  C   UNL     1      -9.035   4.310  66.896  1.00  0.00    -0.128 A  
HETATM   16  C   UNL     1      -8.667   5.647  67.061  1.00  0.00    -0.108 A  
HETATM   17  C   UNL     1      -8.728   6.198  68.353  1.00  0.00    -0.115 A  
HETATM   18  S   UNL     1      -8.356   7.796  68.871  1.00  0.00    -0.128 SA 
ENDBRANCH   9  10
ENDBRANCH   7   9
ENDBRANCH   4   7
TORSDOF 3
ENDMDL
MODEL      162
REMARK 921   NORMALIZED FREE ENERGY PREDICTED BY IDOCK:   -3.34 KCAL/MOL
REMARK 922        TOTAL FREE ENERGY PREDICTED BY IDOCK:   -4.19 KCAL/MOL
REMARK 923 INTER-LIGAND FREE ENERGY PREDICTED BY IDOCK:   -3.96 KCAL/MOL
REMARK 924 INTRA-LIGAND FREE ENERGY PREDICTED BY IDOCK:   -0.23 KCAL/MOL
REMARK 927      BINDING AFFINITY PREDICTED BY RF-SCORE:    0.00 PKD
ROOT
HETATM    1  C   UNL     1     -10.791  13.030  68.516  1.00  0.00    -0.282 C  
HETATM    2  C   UNL     1     -11.508  11.689  68.660  1.00  0.00    -0.349 C  
HETATM    3  C   UNL     1     -11.265  10.778  67.454  1.00  0.00    -0.315 C  
HETATM    4  C   UNL     1      -9.771  10.588  67.125  1.00  0.00    -0.171 C  
HETATM    5  C   UNL     1      -9.103  11.969  66.982  1.00  0.00    -0.191 C  
HETATM    6  C   UNL     1      -9.308  12.846  68.218  1.00  0.00    -0.194 C  
ENDROOT
BRANCH   4   7
HETATM    7  N   UNL     1      -9.120   9.769  68.159  1.00  0.00    -0.125 N  
HETATM    8  H   UNL     1      -8.667  10.227  68.950  1.00  0.00     0.000 HD 
BRANCH   7   9
HETATM    9  S   UNL     1      -9.113   8.104  68.056  1.00  0.00    -0.132 SA 
BRANCH   9  10
HETATM   10  C   UNL     1      -9.422   7.676  69.735  1.00  0.00    -0.156 A  
HETATM   11  N   UNL     1     -10.072   6.580  70.055  1.00  0.00    -0.172 NA 
HETATM   12  C   UNL     1     -10.157   6.487  71.436  1.00  0.00    -0.191 A  
HETATM   13  C   UNL     1     -10.779   5.447  72.157  1.00  0.00    -0.286 A  
HETATM   14  C   UNL     1     -10.798   5.482  73.554  1.00  0.00    -0.321 A  
HETATM   15  C   UNL     1     -10.200   6.535  74.241  1.00  0.00    -0.373 A  
HETATM   16  C   UNL     1      -9.573   7.576  73.553  1.00  0.00    -0.339 A  
HETATM   17  C   UNL     1      -9.560   7.531  72.148  1.00  0.00    -0.152 A  
HETATM   18  S   UNL     1      -8.867   8.643  71.032  1.00  0.00    -0.210 SA 
ENDBRANCH   9  10
ENDBRANCH   7   9
ENDBRANCH   4   7
TORSDOF 3
ENDMDL
MODEL      163
REMARK 921   NORMALIZED FREE ENERGY PREDICTED BY IDOCK:   -3.33 KCAL/MOL
REMARK 922        TOTAL FREE ENERGY PREDICTED BY IDOCK:   -4.18 KCAL/MOL
REMARK 923 INTER-LIGAND FREE ENERGY PREDICTED BY IDOCK:   -3.88 KCAL/MOL
REMARK 924 INTRA-LIGAND FREE ENERGY PREDICTED BY IDOCK:   -0.30 KCAL/MOL
REMARK 927      BINDING AFFINITY PREDICTED BY RF-SCORE:    0.00 PKD
ROOT
HETATM    1  C   UNL     1     -10.525  14.120  64.485  1.00  0.00    -0.232 C  
HETATM    2  C   UNL     1      -9.861  14.011  65.856  1.00  0.00    -0.302 C  
HETATM    3  C   UNL     1     -10.855  14.256  66.994  1.00  0.00    -0.297 C  
HETATM    4  C   UNL     1     -12.115  13.372  66.905  1.00  0.00    -0.354 C  
HETATM    5  C   UNL     1     -12.747  13.530  65.509  1.00  0.00    -0.493 C  
HETATM    6  C   UNL     1     -11.756  13.227  64.384  1.00  0.00    -0.433 C  
ENDROOT
BRANCH   4   7
HETATM    7  N   UNL     1     -11.778  11.972  67.200  1.00  0.00    -0.314 N  
HETATM    8  H   UNL     1     -11.611  11.323  66.430  1.00  0.00     0.000 HD 
BRANCH   7   9
HETATM    9  S   UNL     1     -11.667  11.429  68.773  1.00  0.00    -0.339 SA 
BRANCH   9  10
HETATM   10  C   UNL     1     -10.308  10.317  68.635  1.00  0.00    -0.184 A  
HETATM   11  N   UNL     1      -9.226  10.637  67.962  1.00  0.00    -0.145 NA 
HETATM   12  C   UNL     1      -8.320   9.590  68.032  1.00  0.00    -0.118 A  
HETATM   13  C   UNL     1      -7.042   9.564  67.437  1.00  0.00    -0.086 A  
HETATM   14  C   UNL     1      -6.229   8.436  67.581  1.00  0.00    -0.053 A  
HETATM   15  C   UNL     1      -6.671   7.338  68.314  1.00  0.00    -0.054 A  
HETATM   16  C   UNL     1      -7.930   7.339  68.918  1.00  0.00    -0.123 A  
HETATM   17  C   UNL     1      -8.739   8.478  68.767  1.00  0.00    -0.139 A  
HETATM   18  S   UNL     1     -10.313   8.784  69.390  1.00  0.00    -0.215 SA 
ENDBRANCH   9  10
ENDBRANCH   7   9
ENDBRANCH   4   7
TORSDOF 3
ENDMDL
MODEL      164
REMARK 921   NORMALIZED FREE ENERGY PREDICTED BY IDOCK:   -3.29 KCAL/MOL
REMARK 922        TOTAL FREE ENERGY PREDICTED BY IDOCK:   -4.13 KCAL/MOL
REMARK 923 INTER-LIGAND FREE ENERGY PREDICTED BY IDOCK:   -3.93 KCAL/MOL
REMARK 924 INTRA-LIGAND FREE ENERGY PREDICTED BY IDOCK:   -0.20 KCAL/MOL
REMARK 927      BINDING AFFINITY PREDICTED BY RF-SCORE:    0.00 PKD
ROOT
HETATM    1  C   UNL     1     -11.587   6.106  72.208  1.00  0.00    -0.362 C  
HETATM    2  C   UNL     1     -12.182   6.906  71.052  1.00  0.00    -0.427 C  
HETATM    3  C   UNL     1     -12.294   8.396  71.384  1.00  0.00    -0.328 C  
HETATM    4  C   UNL     1     -10.969   9.013  71.875  1.00  0.00    -0.353 C  
HETATM    5  C   UNL     1     -10.422   8.172  73.045  1.00  0.00    -0.237 C  
HETATM    6  C   UNL     1     -10.263   6.696  72.678  1.00  0.00    -0.206 C  
ENDROOT
BRANCH   4   7
HETATM    7  N   UNL     1     -10.007   9.102  70.767  1.00  0.00    -0.246 N  
HETATM    8  H   UNL     1      -9.007   9.044  70.964  1.00  0.00     0.000 HD 
BRANCH   7   9
HETATM    9  S   UNL     1     -10.525   9.299  69.194  1.00  0.00    -0.211 SA 
BRANCH   9  10
HETATM   10  C   UNL     1     -10.012   7.769  68.491  1.00  0.00    -0.182 A  
HETATM   11  N   UNL     1     -10.674   7.212  67.502  1.00  0.00    -0.271 NA 
HETATM   12  C   UNL     1     -10.044   6.031  67.140  1.00  0.00    -0.173 A  
HETATM   13  C   UNL     1     -10.457   5.157  66.114  1.00  0.00    -0.301 A  
HETATM   14  C   UNL     1      -9.729   3.991  65.858  1.00  0.00    -0.193 A  
HETATM   15  C   UNL     1      -8.593   3.690  66.604  1.00  0.00    -0.111 A  
HETATM   16  C   UNL     1      -8.159   4.541  67.622  1.00  0.00    -0.099 A  
HETATM   17  C   UNL     1      -8.898   5.711  67.873  1.00  0.00    -0.105 A  
HETATM   18  S   UNL     1      -8.616   6.946  69.036  1.00  0.00    -0.128 SA 
ENDBRANCH   9  10
ENDBRANCH   7   9
ENDBRANCH   4   7
TORSDOF 3
ENDMDL
MODEL      165
REMARK 921   NORMALIZED FREE ENERGY PREDICTED BY IDOCK:   -3.26 KCAL/MOL
REMARK 922        TOTAL FREE ENERGY PREDICTED BY IDOCK:   -4.10 KCAL/MOL
REMARK 923 INTER-LIGAND FREE ENERGY PREDICTED BY IDOCK:   -4.06 KCAL/MOL
REMARK 924 INTRA-LIGAND FREE ENERGY PREDICTED BY IDOCK:   -0.04 KCAL/MOL
REMARK 927      BINDING AFFINITY PREDICTED BY RF-SCORE:    0.00 PKD
ROOT
HETATM    1  C   UNL     1     -10.520   7.099  73.168  1.00  0.00    -0.361 C  
HETATM    2  C   UNL     1     -11.656   6.423  72.403  1.00  0.00    -0.308 C  
HETATM    3  C   UNL     1     -12.616   7.442  71.785  1.00  0.00    -0.367 C  
HETATM    4  C   UNL     1     -11.907   8.504  70.922  1.00  0.00    -0.217 C  
HETATM    5  C   UNL     1     -10.781   9.158  71.746  1.00  0.00    -0.405 C  
HETATM    6  C   UNL     1      -9.798   8.130  72.308  1.00  0.00    -0.329 C  
ENDROOT
BRANCH   4   7
HETATM    7  N   UNL     1     -11.398   7.898  69.683  1.00  0.00    -0.444 N  
HETATM    8  H   UNL     1     -11.868   7.080  69.293  1.00  0.00     0.000 HD 
BRANCH   7   9
HETATM    9  S   UNL     1     -10.062   8.526  68.906  1.00  0.00    -0.206 SA 
BRANCH   9  10
HETATM   10  C   UNL     1      -9.805   7.303  67.666  1.00  0.00    -0.151 A  
HETATM   11  N   UNL     1      -8.890   7.451  66.735  1.00  0.00    -0.131 NA 
HETATM   12  C   UNL     1      -8.897   6.338  65.908  1.00  0.00    -0.139 A  
HETATM   13  C   UNL     1      -8.053   6.130  64.798  1.00  0.00    -0.132 A  
HETATM   14  C   UNL     1      -8.171   4.960  64.043  1.00  0.00    -0.122 A  
HETATM   15  C   UNL     1      -9.113   3.993  64.383  1.00  0.00    -0.142 A  
HETATM   16  C   UNL     1      -9.958   4.172  65.480  1.00  0.00    -0.209 A  
HETATM   17  C   UNL     1      -9.832   5.352  66.233  1.00  0.00    -0.164 A  
HETATM   18  S   UNL     1     -10.707   5.851  67.627  1.00  0.00    -0.237 SA 
ENDBRANCH   9  10
ENDBRANCH   7   9
ENDBRANCH   4   7
TORSDOF 3
ENDMDL
MODEL      166
REMARK 921   NORMALIZED FREE ENERGY PREDICTED BY IDOCK:   -3.26 KCAL/MOL
REMARK 922        TOTAL FREE ENERGY PREDICTED BY IDOCK:   -4.10 KCAL/MOL
REMARK 923 INTER-LIGAND FREE ENERGY PREDICTED BY IDOCK:   -3.84 KCAL/MOL
REMARK 924 INTRA-LIGAND FREE ENERGY PREDICTED BY IDOCK:   -0.26 KCAL/MOL
REMARK 927      BINDING AFFINITY PREDICTED BY RF-SCORE:    0.00 PKD
ROOT
HETATM    1  C   UNL     1      -9.094   3.151  69.644  1.00  0.00    -0.204 C  
HETATM    2  C   UNL     1      -8.952   3.580  68.186  1.00  0.00    -0.176 C  
HETATM    3  C   UNL     1      -9.987   4.638  67.797  1.00  0.00    -0.150 C  
HETATM    4  C   UNL     1     -10.003   5.854  68.745  1.00  0.00    -0.152 C  
HETATM    5  C   UNL     1     -10.159   5.362  70.197  1.00  0.00    -0.322 C  
HETATM    6  C   UNL     1      -9.083   4.348  70.587  1.00  0.00    -0.176 C  
ENDROOT
BRANCH   4   7
HETATM    7  N   UNL     1      -8.785   6.657  68.566  1.00  0.00    -0.124 N  
HETATM    8  H   UNL     1      -8.125   6.748  69.339  1.00  0.00     0.000 HD 
BRANCH   7   9
HETATM    9  S   UNL     1      -8.467   7.423  67.119  1.00  0.00    -0.119 SA 
BRANCH   9  10
HETATM   10  C   UNL     1      -9.348   8.930  67.351  1.00  0.00    -0.136 A  
HETATM   11  N   UNL     1      -9.926   9.548  66.346  1.00  0.00    -0.256 NA 
HETATM   12  C   UNL     1     -10.555  10.692  66.816  1.00  0.00    -0.237 A  
HETATM   13  C   UNL     1     -11.285  11.611  66.036  1.00  0.00    -0.299 A  
HETATM   14  C   UNL     1     -11.864  12.731  66.639  1.00  0.00    -0.462 A  
HETATM   15  C   UNL     1     -11.731  12.942  68.009  1.00  0.00    -0.401 A  
HETATM   16  C   UNL     1     -11.018  12.044  68.806  1.00  0.00    -0.282 A  
HETATM   17  C   UNL     1     -10.439  10.922  68.189  1.00  0.00    -0.182 A  
HETATM   18  S   UNL     1      -9.522   9.648  68.893  1.00  0.00    -0.163 SA 
ENDBRANCH   9  10
ENDBRANCH   7   9
ENDBRANCH   4   7
TORSDOF 3
ENDMDL
MODEL      167
REMARK 921   NORMALIZED FREE ENERGY PREDICTED BY IDOCK:   -3.25 KCAL/MOL
REMARK 922        TOTAL FREE ENERGY PREDICTED BY IDOCK:   -4.09 KCAL/MOL
REMARK 923 INTER-LIGAND FREE ENERGY PREDICTED BY IDOCK:   -3.86 KCAL/MOL
REMARK 924 INTRA-LIGAND FREE ENERGY PREDICTED BY IDOCK:   -0.23 KCAL/MOL
REMARK 927      BINDING AFFINITY PREDICTED BY RF-SCORE:    0.00 PKD
ROOT
HETATM    1  C   UNL     1     -10.423  14.187  64.715  1.00  0.00    -0.432 C  
HETATM    2  C   UNL     1      -9.600  14.282  65.998  1.00  0.00    -0.271 C  
HETATM    3  C   UNL     1     -10.463  14.088  67.247  1.00  0.00    -0.268 C  
HETATM    4  C   UNL     1     -11.309  12.799  67.211  1.00  0.00    -0.314 C  
HETATM    5  C   UNL     1     -12.123  12.763  65.903  1.00  0.00    -0.485 C  
HETATM    6  C   UNL     1     -11.239  12.901  64.663  1.00  0.00    -0.353 C  
ENDROOT
BRANCH   4   7
HETATM    7  N   UNL     1     -10.445  11.618  67.352  1.00  0.00    -0.204 N  
HETATM    8  H   UNL     1      -9.556  11.584  66.852  1.00  0.00     0.000 HD 
BRANCH   7   9
HETATM    9  S   UNL     1     -10.897  10.334  68.316  1.00  0.00    -0.261 SA 
BRANCH   9  10
HETATM   10  C   UNL     1     -10.221   8.990  67.401  1.00  0.00    -0.245 A  
HETATM   11  N   UNL     1      -9.205   9.158  66.585  1.00  0.00    -0.155 NA 
HETATM   12  C   UNL     1      -8.874   7.939  66.013  1.00  0.00    -0.158 A  
HETATM   13  C   UNL     1      -7.833   7.717  65.089  1.00  0.00    -0.124 A  
HETATM   14  C   UNL     1      -7.612   6.432  64.584  1.00  0.00    -0.099 A  
HETATM   15  C   UNL     1      -8.409   5.367  64.994  1.00  0.00    -0.145 A  
HETATM   16  C   UNL     1      -9.443   5.557  65.912  1.00  0.00    -0.115 A  
HETATM   17  C   UNL     1      -9.658   6.853  66.413  1.00  0.00    -0.095 A  
HETATM   18  S   UNL     1     -10.829   7.399  67.549  1.00  0.00    -0.132 SA 
ENDBRANCH   9  10
ENDBRANCH   7   9
ENDBRANCH   4   7
TORSDOF 3
ENDMDL
MODEL      168
REMARK 921   NORMALIZED FREE ENERGY PREDICTED BY IDOCK:   -3.24 KCAL/MOL
REMARK 922        TOTAL FREE ENERGY PREDICTED BY IDOCK:   -4.08 KCAL/MOL
REMARK 923 INTER-LIGAND FREE ENERGY PREDICTED BY IDOCK:   -3.79 KCAL/MOL
REMARK 924 INTRA-LIGAND FREE ENERGY PREDICTED BY IDOCK:   -0.29 KCAL/MOL
REMARK 927      BINDING AFFINITY PREDICTED BY RF-SCORE:    0.00 PKD
ROOT
HETATM    1  C   UNL     1      -7.728   5.997  66.778  1.00  0.00    -0.100 C  
HETATM    2  C   UNL     1      -7.078   6.830  67.880  1.00  0.00    -0.085 C  
HETATM    3  C   UNL     1      -6.199   7.947  67.312  1.00  0.00    -0.054 C  
HETATM    4  C   UNL     1      -6.931   8.838  66.288  1.00  0.00    -0.081 C  
HETATM    5  C   UNL     1      -7.556   7.947  65.197  1.00  0.00    -0.092 C  
HETATM    6  C   UNL     1      -8.476   6.873  65.778  1.00  0.00    -0.150 C  
ENDROOT
BRANCH   4   7
HETATM    7  N   UNL     1      -7.939   9.668  66.963  1.00  0.00    -0.108 N  
HETATM    8  H   UNL     1      -8.876   9.742  66.566  1.00  0.00     0.000 HD 
BRANCH   7   9
HETATM    9  S   UNL     1      -7.572  10.491  68.367  1.00  0.00    -0.102 SA 
BRANCH   9  10
HETATM   10  C   UNL     1      -9.051  10.233  69.287  1.00  0.00    -0.194 A  
HETATM   11  N   UNL     1      -9.086   9.415  70.314  1.00  0.00    -0.228 NA 
HETATM   12  C   UNL     1     -10.362   9.417  70.856  1.00  0.00    -0.310 A  
HETATM   13  C   UNL     1     -10.787   8.667  71.971  1.00  0.00    -0.430 A  
HETATM   14  C   UNL     1     -12.111   8.759  72.409  1.00  0.00    -0.379 A  
HETATM   15  C   UNL     1     -13.014   9.593  71.756  1.00  0.00    -0.514 A  
HETATM   16  C   UNL     1     -12.619  10.351  70.651  1.00  0.00    -0.435 A  
HETATM   17  C   UNL     1     -11.285  10.251  70.218  1.00  0.00    -0.323 A  
HETATM   18  S   UNL     1     -10.504  11.054  68.913  1.00  0.00    -0.207 SA 
ENDBRANCH   9  10
ENDBRANCH   7   9
ENDBRANCH   4   7
TORSDOF 3
ENDMDL
MODEL      169
REMARK 921   NORMALIZED FREE ENERGY PREDICTED BY IDOCK:   -3.24 KCAL/MOL
REMARK 922        TOTAL FREE ENERGY PREDICTED BY IDOCK:   -4.08 KCAL/MOL
REMARK 923 INTER-LIGAND FREE ENERGY PREDICTED BY IDOCK:   -3.85 KCAL/MOL
REMARK 924 INTRA-LIGAND FREE ENERGY PREDICTED BY IDOCK:   -0.23 KCAL/MOL
REMARK 927      BINDING AFFINITY PREDICTED BY RF-SCORE:    0.00 PKD
ROOT
HETATM    1  C   UNL     1      -7.198   7.606  64.480  1.00  0.00    -0.076 C  
HETATM    2  C   UNL     1      -8.008   7.535  65.773  1.00  0.00    -0.117 C  
HETATM    3  C   UNL     1      -7.873   8.814  66.603  1.00  0.00    -0.100 C  
HETATM    4  C   UNL     1      -8.191  10.096  65.807  1.00  0.00    -0.144 C  
HETATM    5  C   UNL     1      -7.340  10.118  64.522  1.00  0.00    -0.121 C  
HETATM    6  C   UNL     1      -7.529   8.858  63.676  1.00  0.00    -0.105 C  
ENDROOT
BRANCH   4   7
HETATM    7  N   UNL     1      -9.629  10.170  65.513  1.00  0.00    -0.229 N  
HETATM    8  H   UNL     1     -10.274   9.539  65.991  1.00  0.00     0.000 HD 
BRANCH   7   9
HETATM    9  S   UNL     1     -10.223  11.270  64.408  1.00  0.00    -0.348 SA 
BRANCH   9  10
HETATM   10  C   UNL     1     -10.270  12.726  65.397  1.00  0.00    -0.283 A  
HETATM   11  N   UNL     1     -10.066  13.916  64.877  1.00  0.00    -0.336 NA 
HETATM   12  C   UNL     1     -10.176  14.874  65.873  1.00  0.00    -0.314 A  
HETATM   13  C   UNL     1     -10.026  16.265  65.700  1.00  0.00    -0.306 A  
HETATM   14  C   UNL     1     -10.156  17.121  66.797  1.00  0.00    -0.303 A  
HETATM   15  C   UNL     1     -10.440  16.611  68.060  1.00  0.00    -0.320 A  
HETATM   16  C   UNL     1     -10.598  15.237  68.259  1.00  0.00    -0.244 A  
HETATM   17  C   UNL     1     -10.465  14.385  67.150  1.00  0.00    -0.263 A  
HETATM   18  S   UNL     1     -10.612  12.673  67.071  1.00  0.00    -0.241 SA 
ENDBRANCH   9  10
ENDBRANCH   7   9
ENDBRANCH   4   7
TORSDOF 3
ENDMDL
MODEL      170
REMARK 921   NORMALIZED FREE ENERGY PREDICTED BY IDOCK:   -3.22 KCAL/MOL
REMARK 922        TOTAL FREE ENERGY PREDICTED BY IDOCK:   -4.05 KCAL/MOL
REMARK 923 INTER-LIGAND FREE ENERGY PREDICTED BY IDOCK:   -3.82 KCAL/MOL
REMARK 924 INTRA-LIGAND FREE ENERGY PREDICTED BY IDOCK:   -0.23 KCAL/MOL
REMARK 927      BINDING AFFINITY PREDICTED BY RF-SCORE:    0.00 PKD
ROOT
HETATM    1  C   UNL     1      -9.634   7.550  71.599  1.00  0.00    -0.171 C  
HETATM    2  C   UNL     1      -8.501   7.759  70.596  1.00  0.00    -0.126 C  
HETATM    3  C   UNL     1      -9.027   8.146  69.212  1.00  0.00    -0.148 C  
HETATM    4  C   UNL     1      -9.988   9.352  69.239  1.00  0.00    -0.181 C  
HETATM    5  C   UNL     1     -11.112   9.081  70.257  1.00  0.00    -0.263 C  
HETATM    6  C   UNL     1     -10.570   8.751  71.649  1.00  0.00    -0.401 C  
ENDROOT
BRANCH   4   7
HETATM    7  N   UNL     1      -9.251  10.585  69.551  1.00  0.00    -0.396 N  
HETATM    8  H   UNL     1      -9.538  11.154  70.347  1.00  0.00     0.000 HD 
BRANCH   7   9
HETATM    9  S   UNL     1      -7.952  11.067  68.621  1.00  0.00    -0.149 SA 
BRANCH   9  10
HETATM   10  C   UNL     1      -8.517  12.640  68.068  1.00  0.00    -0.177 A  
HETATM   11  N   UNL     1      -9.463  12.750  67.163  1.00  0.00    -0.216 NA 
HETATM   12  C   UNL     1      -9.718  14.093  66.931  1.00  0.00    -0.269 A  
HETATM   13  C   UNL     1     -10.671  14.608  66.029  1.00  0.00    -0.313 A  
HETATM   14  C   UNL     1     -10.820  15.991  65.887  1.00  0.00    -0.210 A  
HETATM   15  C   UNL     1     -10.038  16.865  66.637  1.00  0.00    -0.306 A  
HETATM   16  C   UNL     1      -9.089  16.382  67.541  1.00  0.00    -0.196 A  
HETATM   17  C   UNL     1      -8.947  14.990  67.676  1.00  0.00    -0.178 A  
HETATM   18  S   UNL     1      -7.889  14.099  68.699  1.00  0.00    -0.118 SA 
ENDBRANCH   9  10
ENDBRANCH   7   9
ENDBRANCH   4   7
TORSDOF 3
ENDMDL
MODEL      171
REMARK 921   NORMALIZED FREE ENERGY PREDICTED BY IDOCK:   -3.21 KCAL/MOL
REMARK 922        TOTAL FREE ENERGY PREDICTED BY IDOCK:   -4.04 KCAL/MOL
REMARK 923 INTER-LIGAND FREE ENERGY PREDICTED BY IDOCK:   -3.77 KCAL/MOL
REMARK 924 INTRA-LIGAND FREE ENERGY PREDICTED BY IDOCK:   -0.27 KCAL/MOL
REMARK 927      BINDING AFFINITY PREDICTED BY RF-SCORE:    0.00 PKD
ROOT
HETATM    1  C   UNL     1      -7.955   5.923  63.911  1.00  0.00    -0.119 C  
HETATM    2  C   UNL     1      -8.753   4.651  64.190  1.00  0.00    -0.145 C  
HETATM    3  C   UNL     1      -8.212   3.890  65.402  1.00  0.00    -0.101 C  
HETATM    4  C   UNL     1      -8.084   4.765  66.665  1.00  0.00    -0.107 C  
HETATM    5  C   UNL     1      -7.263   6.025  66.328  1.00  0.00    -0.076 C  
HETATM    6  C   UNL     1      -7.849   6.804  65.150  1.00  0.00    -0.119 C  
ENDROOT
BRANCH   4   7
HETATM    7  N   UNL     1      -9.415   5.103  67.189  1.00  0.00    -0.124 N  
HETATM    8  H   UNL     1     -10.057   5.650  66.616  1.00  0.00     0.000 HD 
BRANCH   7   9
HETATM    9  S   UNL     1      -9.890   4.605  68.709  1.00  0.00    -0.090 SA 
BRANCH   9  10
HETATM   10  C   UNL     1     -10.495   6.120  69.370  1.00  0.00    -0.256 A  
HETATM   11  N   UNL     1     -11.293   6.143  70.414  1.00  0.00    -0.357 NA 
HETATM   12  C   UNL     1     -11.598   7.460  70.726  1.00  0.00    -0.290 A  
HETATM   13  C   UNL     1     -12.423   7.887  71.786  1.00  0.00    -0.352 A  
HETATM   14  C   UNL     1     -12.654   9.251  71.983  1.00  0.00    -0.465 A  
HETATM   15  C   UNL     1     -12.068  10.194  71.143  1.00  0.00    -0.485 A  
HETATM   16  C   UNL     1     -11.242   9.799  70.088  1.00  0.00    -0.324 A  
HETATM   17  C   UNL     1     -11.017   8.425  69.898  1.00  0.00    -0.166 A  
HETATM   18  S   UNL     1     -10.055   7.635  68.711  1.00  0.00    -0.198 SA 
ENDBRANCH   9  10
ENDBRANCH   7   9
ENDBRANCH   4   7
TORSDOF 3
ENDMDL
MODEL      172
REMARK 921   NORMALIZED FREE ENERGY PREDICTED BY IDOCK:   -3.16 KCAL/MOL
REMARK 922        TOTAL FREE ENERGY PREDICTED BY IDOCK:   -3.98 KCAL/MOL
REMARK 923 INTER-LIGAND FREE ENERGY PREDICTED BY IDOCK:   -3.74 KCAL/MOL
REMARK 924 INTRA-LIGAND FREE ENERGY PREDICTED BY IDOCK:   -0.25 KCAL/MOL
REMARK 927      BINDING AFFINITY PREDICTED BY RF-SCORE:    0.00 PKD
ROOT
HETATM    1  C   UNL     1      -6.128   5.535  68.073  1.00  0.00    -0.022 C  
HETATM    2  C   UNL     1      -5.932   6.977  68.536  1.00  0.00    -0.025 C  
HETATM    3  C   UNL     1      -6.037   7.970  67.377  1.00  0.00    -0.051 C  
HETATM    4  C   UNL     1      -7.331   7.813  66.553  1.00  0.00    -0.087 C  
HETATM    5  C   UNL     1      -7.470   6.345  66.105  1.00  0.00    -0.082 C  
HETATM    6  C   UNL     1      -7.420   5.369  67.281  1.00  0.00    -0.084 C  
ENDROOT
BRANCH   4   7
HETATM    7  N   UNL     1      -8.492   8.259  67.336  1.00  0.00    -0.124 N  
HETATM    8  H   UNL     1      -8.347   8.679  68.255  1.00  0.00     0.000 HD 
BRANCH   7   9
HETATM    9  S   UNL     1     -10.042   8.090  66.744  1.00  0.00    -0.273 SA 
BRANCH   9  10
HETATM   10  C   UNL     1     -10.380   9.744  66.247  1.00  0.00    -0.165 A  
HETATM   11  N   UNL     1     -11.143  10.535  66.968  1.00  0.00    -0.215 NA 
HETATM   12  C   UNL     1     -11.224  11.775  66.352  1.00  0.00    -0.323 A  
HETATM   13  C   UNL     1     -11.948  12.887  66.828  1.00  0.00    -0.418 A  
HETATM   14  C   UNL     1     -11.951  14.080  66.100  1.00  0.00    -0.440 A  
HETATM   15  C   UNL     1     -11.237  14.182  64.910  1.00  0.00    -0.373 A  
HETATM   16  C   UNL     1     -10.507  13.098  64.417  1.00  0.00    -0.427 A  
HETATM   17  C   UNL     1     -10.512  11.902  65.156  1.00  0.00    -0.287 A  
HETATM   18  S   UNL     1      -9.713  10.415  64.822  1.00  0.00    -0.340 SA 
ENDBRANCH   9  10
ENDBRANCH   7   9
ENDBRANCH   4   7
TORSDOF 3
ENDMDL
MODEL      173
REMARK 921   NORMALIZED FREE ENERGY PREDICTED BY IDOCK:   -3.16 KCAL/MOL
REMARK 922        TOTAL FREE ENERGY PREDICTED BY IDOCK:   -3.98 KCAL/MOL
REMARK 923 INTER-LIGAND FREE ENERGY PREDICTED BY IDOCK:   -4.90 KCAL/MOL
REMARK 924 INTRA-LIGAND FREE ENERGY PREDICTED BY IDOCK:    0.92 KCAL/MOL
REMARK 927      BINDING AFFINITY PREDICTED BY RF-SCORE:    0.00 PKD
ROOT
HETATM    1  C   UNL     1     -10.846  10.356  65.665  1.00  0.00     0.141 C  
HETATM    2  C   UNL     1     -10.356  11.028  64.385  1.00  0.00    -0.424 C  
HETATM    3  C   UNL     1     -11.141  12.304  64.072  1.00  0.00    -0.446 C  
HETATM    4  C   UNL     1     -11.185  13.298  65.250  1.00  0.00    -0.295 C  
HETATM    5  C   UNL     1     -11.695  12.569  66.508  1.00  0.00    -0.454 C  
HETATM    6  C   UNL     1     -10.865  11.328  66.839  1.00  0.00    -0.333 C  
ENDROOT
BRANCH   4   7
HETATM    7  N   UNL     1      -9.860  13.896  65.463  1.00  0.00    -0.515 N  
HETATM    8  H   UNL     1      -9.029  13.306  65.420  1.00  0.00     0.000 HD 
BRANCH   7   9
HETATM    9  S   UNL     1      -9.695  15.527  65.773  1.00  0.00    -0.331 SA 
BRANCH   9  10
HETATM   10  C   UNL     1     -10.424  15.626  67.373  1.00  0.00    -0.291 A  
HETATM   11  N   UNL     1     -11.588  15.074  67.632  1.00  0.00    -0.336 NA 
HETATM   12  C   UNL     1     -11.910  15.293  68.963  1.00  0.00    -0.318 A  
HETATM   13  C   UNL     1     -13.079  14.848  69.612  1.00  0.00     0.535 A  
HETATM   14  C   UNL     1     -13.282  15.146  70.963  1.00  0.00    -0.510 A  
HETATM   15  C   UNL     1     -12.333  15.873  71.674  1.00  0.00    -0.519 A  
HETATM   16  C   UNL     1     -11.163  16.322  71.057  1.00  0.00    -0.227 A  
HETATM   17  C   UNL     1     -10.969  16.018  69.699  1.00  0.00    -0.326 A  
HETATM   18  S   UNL     1      -9.645  16.415  68.675  1.00  0.00    -0.249 SA 
ENDBRANCH   9  10
ENDBRANCH   7   9
ENDBRANCH   4   7
TORSDOF 3
ENDMDL
MODEL      174
REMARK 921   NORMALIZED FREE ENERGY PREDICTED BY IDOCK:   -3.15 KCAL/MOL
REMARK 922        TOTAL FREE ENERGY PREDICTED BY IDOCK:   -3.97 KCAL/MOL
REMARK 923 INTER-LIGAND FREE ENERGY PREDICTED BY IDOCK:   -3.86 KCAL/MOL
REMARK 924 INTRA-LIGAND FREE ENERGY PREDICTED BY IDOCK:   -0.11 KCAL/MOL
REMARK 927      BINDING AFFINITY PREDICTED BY RF-SCORE:    0.00 PKD
ROOT
HETATM    1  C   UNL     1     -12.774   7.321  71.757  1.00  0.00    -0.370 C  
HETATM    2  C   UNL     1     -13.446   8.666  71.489  1.00  0.00    -0.344 C  
HETATM    3  C   UNL     1     -12.452   9.828  71.566  1.00  0.00    -0.495 C  
HETATM    4  C   UNL     1     -11.210   9.629  70.674  1.00  0.00    -0.320 C  
HETATM    5  C   UNL     1     -10.570   8.264  70.994  1.00  0.00    -0.243 C  
HETATM    6  C   UNL     1     -11.562   7.108  70.858  1.00  0.00    -0.350 C  
ENDROOT
BRANCH   4   7
HETATM    7  N   UNL     1     -11.577   9.742  69.256  1.00  0.00    -0.453 N  
HETATM    8  H   UNL     1     -12.415  10.263  68.993  1.00  0.00     0.000 HD 
BRANCH   7   9
HETATM    9  S   UNL     1     -10.645   9.032  68.068  1.00  0.00    -0.139 SA 
BRANCH   9  10
HETATM   10  C   UNL     1      -9.359  10.224  67.912  1.00  0.00    -0.138 A  
HETATM   11  N   UNL     1      -9.519  11.464  68.317  1.00  0.00    -0.181 NA 
HETATM   12  C   UNL     1      -8.350  12.173  68.088  1.00  0.00    -0.170 A  
HETATM   13  C   UNL     1      -8.136  13.532  68.395  1.00  0.00    -0.145 A  
HETATM   14  C   UNL     1      -6.905  14.127  68.103  1.00  0.00    -0.129 A  
HETATM   15  C   UNL     1      -5.884  13.383  67.518  1.00  0.00    -0.026 A  
HETATM   16  C   UNL     1      -6.067  12.034  67.208  1.00  0.00    -0.147 A  
HETATM   17  C   UNL     1      -7.309  11.446  67.505  1.00  0.00    -0.112 A  
HETATM   18  S   UNL     1      -7.830   9.825  67.258  1.00  0.00    -0.098 SA 
ENDBRANCH   9  10
ENDBRANCH   7   9
ENDBRANCH   4   7
TORSDOF 3
ENDMDL
MODEL      175
REMARK 921   NORMALIZED FREE ENERGY PREDICTED BY IDOCK:   -3.14 KCAL/MOL
REMARK 922        TOTAL FREE ENERGY PREDICTED BY IDOCK:   -3.96 KCAL/MOL
REMARK 923 INTER-LIGAND FREE ENERGY PREDICTED BY IDOCK:   -3.75 KCAL/MOL
REMARK 924 INTRA-LIGAND FREE ENERGY PREDICTED BY IDOCK:   -0.21 KCAL/MOL
REMARK 927      BINDING AFFINITY PREDICTED BY RF-SCORE:    0.00 PKD
ROOT
HETATM    1  C   UNL     1     -12.984  11.508  71.117  1.00  0.00    -0.329 C  
HETATM    2  C   UNL     1     -12.550  10.250  71.865  1.00  0.00    -0.414 C  
HETATM    3  C   UNL     1     -12.131   9.131  70.909  1.00  0.00    -0.270 C  
HETATM    4  C   UNL     1     -11.069   9.571  69.882  1.00  0.00    -0.216 C  
HETATM    5  C   UNL     1     -11.564  10.835  69.152  1.00  0.00    -0.376 C  
HETATM    6  C   UNL     1     -11.925  11.963  70.119  1.00  0.00    -0.413 C  
ENDROOT
BRANCH   4   7
HETATM    7  N   UNL     1      -9.777   9.793  70.547  1.00  0.00    -0.353 N  
HETATM    8  H   UNL     1      -9.724  10.429  71.343  1.00  0.00     0.000 HD 
BRANCH   7   9
HETATM    9  S   UNL     1      -8.396   9.020  70.018  1.00  0.00    -0.158 SA 
BRANCH   9  10
HETATM   10  C   UNL     1      -8.528   7.495  70.887  1.00  0.00    -0.125 A  
HETATM   11  N   UNL     1      -9.530   6.671  70.681  1.00  0.00    -0.169 NA 
HETATM   12  C   UNL     1      -9.373   5.551  71.482  1.00  0.00    -0.147 A  
HETATM   13  C   UNL     1     -10.246   4.445  71.536  1.00  0.00    -0.167 A  
HETATM   14  C   UNL     1      -9.969   3.380  72.398  1.00  0.00    -0.235 A  
HETATM   15  C   UNL     1      -8.832   3.400  73.201  1.00  0.00    -0.086 A  
HETATM   16  C   UNL     1      -7.948   4.480  73.165  1.00  0.00    -0.095 A  
HETATM   17  C   UNL     1      -8.236   5.546  72.294  1.00  0.00    -0.111 A  
HETATM   18  S   UNL     1      -7.347   6.993  72.018  1.00  0.00    -0.082 SA 
ENDBRANCH   9  10
ENDBRANCH   7   9
ENDBRANCH   4   7
TORSDOF 3
ENDMDL
MODEL      176
REMARK 921   NORMALIZED FREE ENERGY PREDICTED BY IDOCK:   -3.11 KCAL/MOL
REMARK 922        TOTAL FREE ENERGY PREDICTED BY IDOCK:   -3.93 KCAL/MOL
REMARK 923 INTER-LIGAND FREE ENERGY PREDICTED BY IDOCK:   -3.66 KCAL/MOL
REMARK 924 INTRA-LIGAND FREE ENERGY PREDICTED BY IDOCK:   -0.27 KCAL/MOL
REMARK 927      BINDING AFFINITY PREDICTED BY RF-SCORE:    0.00 PKD
ROOT
HETATM    1  C   UNL     1      -8.386  10.647  67.503  1.00  0.00    -0.115 C  
HETATM    2  C   UNL     1      -7.138  11.357  68.022  1.00  0.00    -0.074 C  
HETATM    3  C   UNL     1      -6.975  12.750  67.409  1.00  0.00    -0.132 C  
HETATM    4  C   UNL     1      -8.231  13.633  67.558  1.00  0.00    -0.184 C  
HETATM    5  C   UNL     1      -9.453  12.871  67.011  1.00  0.00    -0.235 C  
HETATM    6  C   UNL     1      -9.634  11.505  67.674  1.00  0.00    -0.176 C  
ENDROOT
BRANCH   4   7
HETATM    7  N   UNL     1      -8.414  14.026  68.963  1.00  0.00    -0.359 N  
HETATM    8  H   UNL     1      -9.280  13.783  69.444  1.00  0.00     0.000 HD 
BRANCH   7   9
HETATM    9  S   UNL     1      -7.226  14.865  69.781  1.00  0.00    -0.053 SA 
BRANCH   9  10
HETATM   10  C   UNL     1      -7.407  16.462  69.062  1.00  0.00    -0.221 A  
HETATM   11  N   UNL     1      -6.363  17.202  68.764  1.00  0.00    -0.167 NA 
HETATM   12  C   UNL     1      -6.795  18.394  68.202  1.00  0.00    -0.228 A  
HETATM   13  C   UNL     1      -5.966  19.441  67.750  1.00  0.00    -0.214 A  
HETATM   14  C   UNL     1      -6.537  20.597  67.208  1.00  0.00    -0.340 A  
HETATM   15  C   UNL     1      -7.919  20.718  67.104  1.00  0.00    -0.258 A  
HETATM   16  C   UNL     1      -8.764  19.694  67.539  1.00  0.00    -0.364 A  
HETATM   17  C   UNL     1      -8.180  18.537  68.083  1.00  0.00    -0.295 A  
HETATM   18  S   UNL     1      -8.941  17.118  68.689  1.00  0.00    -0.245 SA 
ENDBRANCH   9  10
ENDBRANCH   7   9
ENDBRANCH   4   7
TORSDOF 3
ENDMDL
MODEL      177
REMARK 921   NORMALIZED FREE ENERGY PREDICTED BY IDOCK:   -3.11 KCAL/MOL
REMARK 922        TOTAL FREE ENERGY PREDICTED BY IDOCK:   -3.93 KCAL/MOL
REMARK 923 INTER-LIGAND FREE ENERGY PREDICTED BY IDOCK:   -3.73 KCAL/MOL
REMARK 924 INTRA-LIGAND FREE ENERGY PREDICTED BY IDOCK:   -0.20 KCAL/MOL
REMARK 927      BINDING AFFINITY PREDICTED BY RF-SCORE:    0.00 PKD
ROOT
HETATM    1  C   UNL     1     -10.994   6.159  72.762  1.00  0.00    -0.294 C  
HETATM    2  C   UNL     1     -10.672   5.705  71.340  1.00  0.00    -0.310 C  
HETATM    3  C   UNL     1     -11.508   6.451  70.298  1.00  0.00    -0.468 C  
HETATM    4  C   UNL     1     -11.426   7.984  70.433  1.00  0.00    -0.135 C  
HETATM    5  C   UNL     1     -11.769   8.384  71.880  1.00  0.00    -0.398 C  
HETATM    6  C   UNL     1     -10.887   7.673  72.907  1.00  0.00    -0.446 C  
ENDROOT
BRANCH   4   7
HETATM    7  N   UNL     1     -10.094   8.461  70.034  1.00  0.00    -0.189 N  
HETATM    8  H   UNL     1      -9.289   7.841  70.126  1.00  0.00     0.000 HD 
BRANCH   7   9
HETATM    9  S   UNL     1      -9.879  10.002  69.432  1.00  0.00    -0.235 SA 
BRANCH   9  10
HETATM   10  C   UNL     1      -9.171   9.640  67.862  1.00  0.00    -0.124 A  
HETATM   11  N   UNL     1      -9.569  10.255  66.771  1.00  0.00    -0.167 NA 
HETATM   12  C   UNL     1      -8.836   9.788  65.691  1.00  0.00    -0.154 A  
HETATM   13  C   UNL     1      -8.974  10.214  64.354  1.00  0.00    -0.264 A  
HETATM   14  C   UNL     1      -8.172   9.652  63.357  1.00  0.00    -0.160 A  
HETATM   15  C   UNL     1      -7.231   8.677  63.676  1.00  0.00    -0.094 A  
HETATM   16  C   UNL     1      -7.070   8.240  64.992  1.00  0.00    -0.075 A  
HETATM   17  C   UNL     1      -7.882   8.812  65.987  1.00  0.00    -0.105 A  
HETATM   18  S   UNL     1      -7.914   8.496  67.678  1.00  0.00    -0.107 SA 
ENDBRANCH   9  10
ENDBRANCH   7   9
ENDBRANCH   4   7
TORSDOF 3
ENDMDL
MODEL      178
REMARK 921   NORMALIZED FREE ENERGY PREDICTED BY IDOCK:   -3.09 KCAL/MOL
REMARK 922        TOTAL FREE ENERGY PREDICTED BY IDOCK:   -3.90 KCAL/MOL
REMARK 923 INTER-LIGAND FREE ENERGY PREDICTED BY IDOCK:   -3.62 KCAL/MOL
REMARK 924 INTRA-LIGAND FREE ENERGY PREDICTED BY IDOCK:   -0.29 KCAL/MOL
REMARK 927      BINDING AFFINITY PREDICTED BY RF-SCORE:    0.00 PKD
ROOT
HETATM    1  C   UNL     1      -6.280   9.882  68.328  1.00  0.00    -0.050 C  
HETATM    2  C   UNL     1      -7.249  10.292  67.221  1.00  0.00    -0.089 C  
HETATM    3  C   UNL     1      -8.497   9.407  67.195  1.00  0.00    -0.128 C  
HETATM    4  C   UNL     1      -9.207   9.313  68.560  1.00  0.00    -0.135 C  
HETATM    5  C   UNL     1      -8.187   8.887  69.634  1.00  0.00    -0.114 C  
HETATM    6  C   UNL     1      -6.973   9.815  69.685  1.00  0.00    -0.078 C  
ENDROOT
BRANCH   4   7
HETATM    7  N   UNL     1      -9.848  10.594  68.891  1.00  0.00    -0.194 N  
HETATM    8  H   UNL     1      -9.428  11.199  69.597  1.00  0.00     0.000 HD 
BRANCH   7   9
HETATM    9  S   UNL     1     -11.253  11.072  68.129  1.00  0.00    -0.320 SA 
BRANCH   9  10
HETATM   10  C   UNL     1     -10.862  12.747  67.753  1.00  0.00    -0.225 A  
HETATM   11  N   UNL     1     -10.903  13.684  68.674  1.00  0.00    -0.257 NA 
HETATM   12  C   UNL     1     -10.537  14.895  68.107  1.00  0.00    -0.244 A  
HETATM   13  C   UNL     1     -10.457  16.131  68.781  1.00  0.00    -0.264 A  
HETATM   14  C   UNL     1     -10.079  17.282  68.084  1.00  0.00    -0.325 A  
HETATM   15  C   UNL     1      -9.773  17.216  66.728  1.00  0.00    -0.277 A  
HETATM   16  C   UNL     1      -9.838  16.005  66.037  1.00  0.00    -0.365 A  
HETATM   17  C   UNL     1     -10.220  14.853  66.747  1.00  0.00    -0.259 A  
HETATM   18  S   UNL     1     -10.381  13.235  66.187  1.00  0.00    -0.294 SA 
ENDBRANCH   9  10
ENDBRANCH   7   9
ENDBRANCH   4   7
TORSDOF 3
ENDMDL
MODEL      179
REMARK 921   NORMALIZED FREE ENERGY PREDICTED BY IDOCK:   -3.09 KCAL/MOL
REMARK 922        TOTAL FREE ENERGY PREDICTED BY IDOCK:   -3.90 KCAL/MOL
REMARK 923 INTER-LIGAND FREE ENERGY PREDICTED BY IDOCK:   -3.71 KCAL/MOL
REMARK 924 INTRA-LIGAND FREE ENERGY PREDICTED BY IDOCK:   -0.20 KCAL/MOL
REMARK 927      BINDING AFFINITY PREDICTED BY RF-SCORE:    0.00 PKD
ROOT
HETATM    1  C   UNL     1     -11.199   6.123  69.329  1.00  0.00    -0.438 C  
HETATM    2  C   UNL     1     -10.775   7.327  70.166  1.00  0.00    -0.260 C  
HETATM    3  C   UNL     1      -9.256   7.515  70.170  1.00  0.00    -0.154 C  
HETATM    4  C   UNL     1      -8.643   7.565  68.756  1.00  0.00    -0.129 C  
HETATM    5  C   UNL     1      -9.096   6.324  67.963  1.00  0.00    -0.112 C  
HETATM    6  C   UNL     1     -10.618   6.183  67.921  1.00  0.00    -0.331 C  
ENDROOT
BRANCH   4   7
HETATM    7  N   UNL     1      -9.021   8.815  68.080  1.00  0.00    -0.141 N  
HETATM    8  H   UNL     1     -10.007   9.067  68.005  1.00  0.00     0.000 HD 
BRANCH   7   9
HETATM    9  S   UNL     1      -7.861   9.826  67.435  1.00  0.00    -0.098 SA 
BRANCH   9  10
HETATM   10  C   UNL     1      -8.868  11.164  66.889  1.00  0.00    -0.157 A  
HETATM   11  N   UNL     1      -9.527  11.917  67.739  1.00  0.00    -0.178 NA 
HETATM   12  C   UNL     1     -10.219  12.895  67.040  1.00  0.00    -0.243 A  
HETATM   13  C   UNL     1     -11.036  13.894  67.608  1.00  0.00    -0.278 A  
HETATM   14  C   UNL     1     -11.684  14.817  66.783  1.00  0.00    -0.309 A  
HETATM   15  C   UNL     1     -11.522  14.762  65.402  1.00  0.00    -0.341 A  
HETATM   16  C   UNL     1     -10.715  13.787  64.812  1.00  0.00    -0.429 A  
HETATM   17  C   UNL     1     -10.068  12.863  65.652  1.00  0.00    -0.272 A  
HETATM   18  S   UNL     1      -9.014  11.569  65.234  1.00  0.00     0.164 SA 
ENDBRANCH   9  10
ENDBRANCH   7   9
ENDBRANCH   4   7
TORSDOF 3
ENDMDL
MODEL      180
REMARK 921   NORMALIZED FREE ENERGY PREDICTED BY IDOCK:   -3.04 KCAL/MOL
REMARK 922        TOTAL FREE ENERGY PREDICTED BY IDOCK:   -3.85 KCAL/MOL
REMARK 923 INTER-LIGAND FREE ENERGY PREDICTED BY IDOCK:   -3.50 KCAL/MOL
REMARK 924 INTRA-LIGAND FREE ENERGY PREDICTED BY IDOCK:   -0.35 KCAL/MOL
REMARK 927      BINDING AFFINITY PREDICTED BY RF-SCORE:    0.00 PKD
ROOT
HETATM    1  C   UNL     1      -9.547   9.002  71.572  1.00  0.00    -0.340 C  
HETATM    2  C   UNL     1     -11.042   9.116  71.285  1.00  0.00    -0.405 C  
HETATM    3  C   UNL     1     -11.328  10.031  70.091  1.00  0.00    -0.357 C  
HETATM    4  C   UNL     1     -10.537   9.647  68.825  1.00  0.00    -0.216 C  
HETATM    5  C   UNL     1      -9.038   9.557  69.171  1.00  0.00    -0.152 C  
HETATM    6  C   UNL     1      -8.765   8.596  70.328  1.00  0.00    -0.151 C  
ENDROOT
BRANCH   4   7
HETATM    7  N   UNL     1     -11.048   8.387  68.267  1.00  0.00    -0.340 N  
HETATM    8  H   UNL     1     -11.926   8.002  68.616  1.00  0.00     0.000 HD 
BRANCH   7   9
HETATM    9  S   UNL     1     -10.211   7.576  67.072  1.00  0.00    -0.312 SA 
BRANCH   9  10
HETATM   10  C   UNL     1      -9.811   6.083  67.915  1.00  0.00    -0.120 A  
HETATM   11  N   UNL     1      -8.863   5.284  67.481  1.00  0.00    -0.106 NA 
HETATM   12  C   UNL     1      -8.753   4.200  68.339  1.00  0.00    -0.099 A  
HETATM   13  C   UNL     1      -7.843   3.132  68.206  1.00  0.00    -0.058 A  
HETATM   14  C   UNL     1      -7.844   2.095  69.143  1.00  0.00    -0.052 A  
HETATM   15  C   UNL     1      -8.733   2.113  70.214  1.00  0.00    -0.118 A  
HETATM   16  C   UNL     1      -9.642   3.161  70.372  1.00  0.00    -0.192 A  
HETATM   17  C   UNL     1      -9.634   4.198  69.424  1.00  0.00    -0.194 A  
HETATM   18  S   UNL     1     -10.609   5.614  69.352  1.00  0.00    -0.287 SA 
ENDBRANCH   9  10
ENDBRANCH   7   9
ENDBRANCH   4   7
TORSDOF 3
ENDMDL
MODEL      181
REMARK 921   NORMALIZED FREE ENERGY PREDICTED BY IDOCK:   -3.04 KCAL/MOL
REMARK 922        TOTAL FREE ENERGY PREDICTED BY IDOCK:   -3.84 KCAL/MOL
REMARK 923 INTER-LIGAND FREE ENERGY PREDICTED BY IDOCK:   -4.14 KCAL/MOL
REMARK 924 INTRA-LIGAND FREE ENERGY PREDICTED BY IDOCK:    0.30 KCAL/MOL
REMARK 927      BINDING AFFINITY PREDICTED BY RF-SCORE:    0.00 PKD
ROOT
HETATM    1  C   UNL     1      -8.231   1.640  70.424  1.00  0.00    -0.058 C  
HETATM    2  C   UNL     1      -8.403   2.686  69.325  1.00  0.00    -0.087 C  
HETATM    3  C   UNL     1      -9.551   3.651  69.628  1.00  0.00    -0.211 C  
HETATM    4  C   UNL     1      -9.447   4.306  71.020  1.00  0.00    -0.166 C  
HETATM    5  C   UNL     1      -9.286   3.206  72.087  1.00  0.00    -0.163 C  
HETATM    6  C   UNL     1      -8.100   2.285  71.799  1.00  0.00    -0.048 C  
ENDROOT
BRANCH   4   7
HETATM    7  N   UNL     1      -8.335   5.266  71.051  1.00  0.00    -0.119 N  
HETATM    8  H   UNL     1      -7.546   5.102  71.677  1.00  0.00     0.000 HD 
BRANCH   7   9
HETATM    9  S   UNL     1      -8.343   6.620  70.076  1.00  0.00    -0.136 SA 
BRANCH   9  10
HETATM   10  C   UNL     1      -9.832   7.393  70.610  1.00  0.00    -0.179 A  
HETATM   11  N   UNL     1     -10.938   6.706  70.782  1.00  0.00    -0.254 NA 
HETATM   12  C   UNL     1     -11.941   7.558  71.218  1.00  0.00    -0.307 A  
HETATM   13  C   UNL     1     -13.269   7.187  71.514  1.00  0.00    -0.419 A  
HETATM   14  C   UNL     1     -14.184   8.154  71.940  1.00  0.00    -0.530 A  
HETATM   15  C   UNL     1     -13.793   9.482  72.080  1.00  0.00    -0.365 A  
HETATM   16  C   UNL     1     -12.483   9.877  71.797  1.00  0.00    -0.487 A  
HETATM   17  C   UNL     1     -11.571   8.897  71.370  1.00  0.00    -0.312 A  
HETATM   18  S   UNL     1      -9.908   9.065  70.962  1.00  0.00    -0.301 SA 
ENDBRANCH   9  10
ENDBRANCH   7   9
ENDBRANCH   4   7
TORSDOF 3
ENDMDL
MODEL      182
REMARK 921   NORMALIZED FREE ENERGY PREDICTED BY IDOCK:   -3.02 KCAL/MOL
REMARK 922        TOTAL FREE ENERGY PREDICTED BY IDOCK:   -3.82 KCAL/MOL
REMARK 923 INTER-LIGAND FREE ENERGY PREDICTED BY IDOCK:   -3.50 KCAL/MOL
REMARK 924 INTRA-LIGAND FREE ENERGY PREDICTED BY IDOCK:   -0.32 KCAL/MOL
REMARK 927      BINDING AFFINITY PREDICTED BY RF-SCORE:    0.00 PKD
ROOT
HETATM    1  C   UNL     1     -10.361   6.863  69.983  1.00  0.00    -0.219 C  
HETATM    2  C   UNL     1     -10.730   8.327  69.756  1.00  0.00    -0.221 C  
HETATM    3  C   UNL     1     -10.041   9.254  70.761  1.00  0.00    -0.358 C  
HETATM    4  C   UNL     1      -8.513   9.060  70.822  1.00  0.00    -0.200 C  
HETATM    5  C   UNL     1      -8.201   7.570  71.062  1.00  0.00    -0.108 C  
HETATM    6  C   UNL     1      -8.850   6.662  70.016  1.00  0.00    -0.141 C  
ENDROOT
BRANCH   4   7
HETATM    7  N   UNL     1      -7.885   9.559  69.590  1.00  0.00    -0.102 N  
HETATM    8  H   UNL     1      -7.385   8.910  68.981  1.00  0.00     0.000 HD 
BRANCH   7   9
HETATM    9  S   UNL     1      -7.979  11.172  69.172  1.00  0.00     0.026 SA 
BRANCH   9  10
HETATM   10  C   UNL     1      -8.524  11.042  67.504  1.00  0.00    -0.127 A  
HETATM   11  N   UNL     1      -9.263  11.976  66.948  1.00  0.00    -0.191 NA 
HETATM   12  C   UNL     1      -9.531  11.625  65.634  1.00  0.00    -0.209 A  
HETATM   13  C   UNL     1     -10.290  12.379  64.717  1.00  0.00    -0.324 A  
HETATM   14  C   UNL     1     -10.490  11.901  63.419  1.00  0.00    -0.487 A  
HETATM   15  C   UNL     1      -9.938  10.686  63.022  1.00  0.00    -0.239 A  
HETATM   16  C   UNL     1      -9.178   9.921  63.909  1.00  0.00    -0.295 A  
HETATM   17  C   UNL     1      -8.983  10.410  65.212  1.00  0.00    -0.187 A  
HETATM   18  S   UNL     1      -8.099   9.715  66.513  1.00  0.00    -0.120 SA 
ENDBRANCH   9  10
ENDBRANCH   7   9
ENDBRANCH   4   7
TORSDOF 3
ENDMDL
MODEL      183
REMARK 921   NORMALIZED FREE ENERGY PREDICTED BY IDOCK:   -2.99 KCAL/MOL
REMARK 922        TOTAL FREE ENERGY PREDICTED BY IDOCK:   -3.79 KCAL/MOL
REMARK 923 INTER-LIGAND FREE ENERGY PREDICTED BY IDOCK:   -3.89 KCAL/MOL
REMARK 924 INTRA-LIGAND FREE ENERGY PREDICTED BY IDOCK:    0.10 KCAL/MOL
REMARK 927      BINDING AFFINITY PREDICTED BY RF-SCORE:    0.00 PKD
ROOT
HETATM    1  C   UNL     1      -8.260   8.622  64.068  1.00  0.00    -0.149 C  
HETATM    2  C   UNL     1      -8.469   9.839  63.171  1.00  0.00    -0.179 C  
HETATM    3  C   UNL     1      -9.859  10.454  63.355  1.00  0.00    -0.251 C  
HETATM    4  C   UNL     1     -10.196  10.771  64.826  1.00  0.00    -0.334 C  
HETATM    5  C   UNL     1      -9.977   9.507  65.680  1.00  0.00    -0.269 C  
HETATM    6  C   UNL     1      -8.566   8.939  65.527  1.00  0.00    -0.191 C  
ENDROOT
BRANCH   4   7
HETATM    7  N   UNL     1      -9.387  11.902  65.302  1.00  0.00    -0.430 N  
HETATM    8  H   UNL     1      -9.201  12.686  64.677  1.00  0.00     0.000 HD 
BRANCH   7   9
HETATM    9  S   UNL     1      -8.766  11.920  66.851  1.00  0.00    -0.193 SA 
BRANCH   9  10
HETATM   10  C   UNL     1      -8.821  13.645  67.199  1.00  0.00    -0.230 A  
HETATM   11  N   UNL     1      -8.997  14.533  66.247  1.00  0.00    -0.135 NA 
HETATM   12  C   UNL     1      -9.013  15.802  66.804  1.00  0.00    -0.260 A  
HETATM   13  C   UNL     1      -9.185  17.011  66.098  1.00  0.00    -0.244 A  
HETATM   14  C   UNL     1      -9.174  18.227  66.786  1.00  0.00    -0.288 A  
HETATM   15  C   UNL     1      -9.002  18.254  68.167  1.00  0.00    -0.314 A  
HETATM   16  C   UNL     1      -8.835  17.072  68.892  1.00  0.00    -0.206 A  
HETATM   17  C   UNL     1      -8.847  15.854  68.190  1.00  0.00    -0.176 A  
HETATM   18  S   UNL     1      -8.680  14.251  68.792  1.00  0.00    -0.036 SA 
ENDBRANCH   9  10
ENDBRANCH   7   9
ENDBRANCH   4   7
TORSDOF 3
ENDMDL
MODEL      184
REMARK 921   NORMALIZED FREE ENERGY PREDICTED BY IDOCK:   -2.99 KCAL/MOL
REMARK 922        TOTAL FREE ENERGY PREDICTED BY IDOCK:   -3.79 KCAL/MOL
REMARK 923 INTER-LIGAND FREE ENERGY PREDICTED BY IDOCK:   -3.55 KCAL/MOL
REMARK 924 INTRA-LIGAND FREE ENERGY PREDICTED BY IDOCK:   -0.24 KCAL/MOL
REMARK 927      BINDING AFFINITY PREDICTED BY RF-SCORE:    0.00 PKD
ROOT
HETATM    1  C   UNL     1      -9.891   6.912  71.782  1.00  0.00    -0.170 C  
HETATM    2  C   UNL     1      -9.317   6.942  70.368  1.00  0.00    -0.159 C  
HETATM    3  C   UNL     1     -10.080   7.911  69.461  1.00  0.00    -0.195 C  
HETATM    4  C   UNL     1     -10.203   9.330  70.051  1.00  0.00    -0.215 C  
HETATM    5  C   UNL     1     -10.795   9.239  71.470  1.00  0.00    -0.442 C  
HETATM    6  C   UNL     1      -9.989   8.311  72.380  1.00  0.00    -0.379 C  
ENDROOT
BRANCH   4   7
HETATM    7  N   UNL     1      -8.895  10.001  70.044  1.00  0.00    -0.363 N  
HETATM    8  H   UNL     1      -8.484  10.309  70.926  1.00  0.00     0.000 HD 
BRANCH   7   9
HETATM    9  S   UNL     1      -8.074  10.266  68.617  1.00  0.00    -0.121 SA 
BRANCH   9  10
HETATM   10  C   UNL     1      -8.280  12.006  68.444  1.00  0.00    -0.151 A  
HETATM   11  N   UNL     1      -7.403  12.853  68.932  1.00  0.00    -0.062 NA 
HETATM   12  C   UNL     1      -7.806  14.147  68.639  1.00  0.00    -0.137 A  
HETATM   13  C   UNL     1      -7.120  15.326  68.996  1.00  0.00    -0.141 A  
HETATM   14  C   UNL     1      -7.645  16.571  68.641  1.00  0.00    -0.213 A  
HETATM   15  C   UNL     1      -8.840  16.657  67.932  1.00  0.00    -0.205 A  
HETATM   16  C   UNL     1      -9.538  15.506  67.562  1.00  0.00    -0.212 A  
HETATM   17  C   UNL     1      -9.001  14.258  67.924  1.00  0.00    -0.186 A  
HETATM   18  S   UNL     1      -9.611  12.680  67.609  1.00  0.00    -0.193 SA 
ENDBRANCH   9  10
ENDBRANCH   7   9
ENDBRANCH   4   7
TORSDOF 3
ENDMDL
MODEL      185
REMARK 921   NORMALIZED FREE ENERGY PREDICTED BY IDOCK:   -2.99 KCAL/MOL
REMARK 922        TOTAL FREE ENERGY PREDICTED BY IDOCK:   -3.78 KCAL/MOL
REMARK 923 INTER-LIGAND FREE ENERGY PREDICTED BY IDOCK:   -3.62 KCAL/MOL
REMARK 924 INTRA-LIGAND FREE ENERGY PREDICTED BY IDOCK:   -0.16 KCAL/MOL
REMARK 927      BINDING AFFINITY PREDICTED BY RF-SCORE:    0.00 PKD
ROOT
HETATM    1  C   UNL     1     -11.266   8.133  72.568  1.00  0.00    -0.459 C  
HETATM    2  C   UNL     1     -11.599   6.709  72.131  1.00  0.00    -0.335 C  
HETATM    3  C   UNL     1     -11.905   6.626  70.634  1.00  0.00    -0.443 C  
HETATM    4  C   UNL     1     -10.803   7.245  69.751  1.00  0.00    -0.235 C  
HETATM    5  C   UNL     1     -10.517   8.681  70.230  1.00  0.00    -0.229 C  
HETATM    6  C   UNL     1     -10.158   8.739  71.715  1.00  0.00    -0.403 C  
ENDROOT
BRANCH   4   7
HETATM    7  N   UNL     1      -9.596   6.407  69.779  1.00  0.00    -0.151 N  
HETATM    8  H   UNL     1      -8.677   6.847  69.731  1.00  0.00     0.000 HD 
BRANCH   7   9
HETATM    9  S   UNL     1      -9.707   4.746  69.888  1.00  0.00    -0.220 SA 
BRANCH   9  10
HETATM   10  C   UNL     1      -9.384   4.291  68.218  1.00  0.00    -0.152 A  
HETATM   11  N   UNL     1     -10.270   4.492  67.269  1.00  0.00    -0.087 NA 
HETATM   12  C   UNL     1      -9.749   4.057  66.059  1.00  0.00    -0.187 A  
HETATM   13  C   UNL     1     -10.403   4.112  64.812  1.00  0.00    -0.206 A  
HETATM   14  C   UNL     1      -9.763   3.629  63.667  1.00  0.00    -0.154 A  
HETATM   15  C   UNL     1      -8.478   3.099  63.749  1.00  0.00    -0.090 A  
HETATM   16  C   UNL     1      -7.806   3.036  64.971  1.00  0.00    -0.082 A  
HETATM   17  C   UNL     1      -8.459   3.524  66.116  1.00  0.00    -0.112 A  
HETATM   18  S   UNL     1      -7.897   3.594  67.741  1.00  0.00    -0.077 SA 
ENDBRANCH   9  10
ENDBRANCH   7   9
ENDBRANCH   4   7
TORSDOF 3
ENDMDL
MODEL      186
REMARK 921   NORMALIZED FREE ENERGY PREDICTED BY IDOCK:   -2.90 KCAL/MOL
REMARK 922        TOTAL FREE ENERGY PREDICTED BY IDOCK:   -3.68 KCAL/MOL
REMARK 923 INTER-LIGAND FREE ENERGY PREDICTED BY IDOCK:   -3.32 KCAL/MOL
REMARK 924 INTRA-LIGAND FREE ENERGY PREDICTED BY IDOCK:   -0.36 KCAL/MOL
REMARK 927      BINDING AFFINITY PREDICTED BY RF-SCORE:    0.00 PKD
ROOT
HETATM    1  C   UNL     1      -9.094  11.729  66.974  1.00  0.00    -0.187 C  
HETATM    2  C   UNL     1     -10.251  11.240  66.107  1.00  0.00    -0.291 C  
HETATM    3  C   UNL     1      -9.956   9.877  65.474  1.00  0.00    -0.363 C  
HETATM    4  C   UNL     1      -9.527   8.809  66.499  1.00  0.00    -0.219 C  
HETATM    5  C   UNL     1      -8.353   9.353  67.336  1.00  0.00    -0.125 C  
HETATM    6  C   UNL     1      -8.684  10.686  68.007  1.00  0.00    -0.126 C  
ENDROOT
BRANCH   4   7
HETATM    7  N   UNL     1     -10.667   8.422  67.342  1.00  0.00    -0.479 N  
HETATM    8  H   UNL     1     -11.517   8.986  67.327  1.00  0.00     0.000 HD 
BRANCH   7   9
HETATM    9  S   UNL     1     -10.592   7.073  68.321  1.00  0.00    -0.179 SA 
BRANCH   9  10
HETATM   10  C   UNL     1     -10.081   5.856  67.156  1.00  0.00    -0.177 A  
HETATM   11  N   UNL     1     -10.886   5.436  66.206  1.00  0.00    -0.199 NA 
HETATM   12  C   UNL     1     -10.223   4.497  65.431  1.00  0.00    -0.202 A  
HETATM   13  C   UNL     1     -10.758   3.823  64.314  1.00  0.00    -0.216 A  
HETATM   14  C   UNL     1      -9.979   2.890  63.624  1.00  0.00    -0.153 A  
HETATM   15  C   UNL     1      -8.674   2.626  64.027  1.00  0.00    -0.087 A  
HETATM   16  C   UNL     1      -8.117   3.282  65.127  1.00  0.00    -0.090 A  
HETATM   17  C   UNL     1      -8.909   4.218  65.814  1.00  0.00    -0.121 A  
HETATM   18  S   UNL     1      -8.510   5.183  67.181  1.00  0.00    -0.105 SA 
ENDBRANCH   9  10
ENDBRANCH   7   9
ENDBRANCH   4   7
TORSDOF 3
ENDMDL
MODEL      187
REMARK 921   NORMALIZED FREE ENERGY PREDICTED BY IDOCK:   -2.89 KCAL/MOL
REMARK 922        TOTAL FREE ENERGY PREDICTED BY IDOCK:   -3.67 KCAL/MOL
REMARK 923 INTER-LIGAND FREE ENERGY PREDICTED BY IDOCK:   -3.32 KCAL/MOL
REMARK 924 INTRA-LIGAND FREE ENERGY PREDICTED BY IDOCK:   -0.34 KCAL/MOL
REMARK 927      BINDING AFFINITY PREDICTED BY RF-SCORE:    0.00 PKD
ROOT
HETATM    1  C   UNL     1     -13.566   9.467  71.862  1.00  0.00    -0.468 C  
HETATM    2  C   UNL     1     -13.210   7.996  72.061  1.00  0.00    -0.279 C  
HETATM    3  C   UNL     1     -12.491   7.411  70.843  1.00  0.00    -0.208 C  
HETATM    4  C   UNL     1     -11.263   8.235  70.406  1.00  0.00    -0.219 C  
HETATM    5  C   UNL     1     -11.683   9.705  70.211  1.00  0.00    -0.213 C  
HETATM    6  C   UNL     1     -12.350  10.291  71.456  1.00  0.00    -0.488 C  
ENDROOT
BRANCH   4   7
HETATM    7  N   UNL     1     -10.180   8.101  71.391  1.00  0.00    -0.192 N  
HETATM    8  H   UNL     1     -10.396   7.774  72.333  1.00  0.00     0.000 HD 
BRANCH   7   9
HETATM    9  S   UNL     1      -8.605   8.476  70.991  1.00  0.00    -0.175 SA 
BRANCH   9  10
HETATM   10  C   UNL     1      -8.468   7.670  69.431  1.00  0.00    -0.132 A  
HETATM   11  N   UNL     1      -8.441   8.350  68.308  1.00  0.00    -0.134 NA 
HETATM   12  C   UNL     1      -8.313   7.469  67.244  1.00  0.00    -0.118 A  
HETATM   13  C   UNL     1      -8.245   7.825  65.882  1.00  0.00    -0.128 A  
HETATM   14  C   UNL     1      -8.123   6.830  64.908  1.00  0.00    -0.112 A  
HETATM   15  C   UNL     1      -8.061   5.489  65.274  1.00  0.00    -0.122 A  
HETATM   16  C   UNL     1      -8.122   5.109  66.616  1.00  0.00    -0.108 A  
HETATM   17  C   UNL     1      -8.245   6.117  67.588  1.00  0.00    -0.113 A  
HETATM   18  S   UNL     1      -8.332   5.971  69.300  1.00  0.00    -0.115 SA 
ENDBRANCH   9  10
ENDBRANCH   7   9
ENDBRANCH   4   7
TORSDOF 3
ENDMDL
MODEL      188
REMARK 921   NORMALIZED FREE ENERGY PREDICTED BY IDOCK:   -2.87 KCAL/MOL
REMARK 922        TOTAL FREE ENERGY PREDICTED BY IDOCK:   -3.65 KCAL/MOL
REMARK 923 INTER-LIGAND FREE ENERGY PREDICTED BY IDOCK:   -3.45 KCAL/MOL
REMARK 924 INTRA-LIGAND FREE ENERGY PREDICTED BY IDOCK:   -0.20 KCAL/MOL
REMARK 927      BINDING AFFINITY PREDICTED BY RF-SCORE:    0.00 PKD
ROOT
HETATM    1  C   UNL     1      -7.573   6.417  66.734  1.00  0.00    -0.098 C  
HETATM    2  C   UNL     1      -6.967   7.525  67.592  1.00  0.00    -0.080 C  
HETATM    3  C   UNL     1      -6.420   8.673  66.740  1.00  0.00    -0.060 C  
HETATM    4  C   UNL     1      -7.448   9.233  65.737  1.00  0.00    -0.098 C  
HETATM    5  C   UNL     1      -8.018   8.075  64.895  1.00  0.00    -0.138 C  
HETATM    6  C   UNL     1      -8.611   6.963  65.761  1.00  0.00    -0.139 C  
ENDROOT
BRANCH   4   7
HETATM    7  N   UNL     1      -8.506   9.966  66.448  1.00  0.00    -0.124 N  
HETATM    8  H   UNL     1      -8.416  10.133  67.450  1.00  0.00     0.000 HD 
BRANCH   7   9
HETATM    9  S   UNL     1      -9.853  10.528  65.638  1.00  0.00    -0.270 SA 
BRANCH   9  10
HETATM   10  C   UNL     1     -10.381  11.800  66.735  1.00  0.00    -0.219 A  
HETATM   11  N   UNL     1      -9.841  12.997  66.708  1.00  0.00    -0.237 NA 
HETATM   12  C   UNL     1     -10.455  13.796  67.662  1.00  0.00    -0.242 A  
HETATM   13  C   UNL     1     -10.149  15.146  67.928  1.00  0.00    -0.222 A  
HETATM   14  C   UNL     1     -10.844  15.834  68.926  1.00  0.00    -0.260 A  
HETATM   15  C   UNL     1     -11.843  15.196  69.657  1.00  0.00    -0.362 A  
HETATM   16  C   UNL     1     -12.169  13.861  69.411  1.00  0.00    -0.338 A  
HETATM   17  C   UNL     1     -11.464  13.178  68.405  1.00  0.00    -0.315 A  
HETATM   18  S   UNL     1     -11.639  11.554  67.866  1.00  0.00    -0.250 SA 
ENDBRANCH   9  10
ENDBRANCH   7   9
ENDBRANCH   4   7
TORSDOF 3
ENDMDL
MODEL      189
REMARK 921   NORMALIZED FREE ENERGY PREDICTED BY IDOCK:   -2.85 KCAL/MOL
REMARK 922        TOTAL FREE ENERGY PREDICTED BY IDOCK:   -3.62 KCAL/MOL
REMARK 923 INTER-LIGAND FREE ENERGY PREDICTED BY IDOCK:   -3.31 KCAL/MOL
REMARK 924 INTRA-LIGAND FREE ENERGY PREDICTED BY IDOCK:   -0.30 KCAL/MOL
REMARK 927      BINDING AFFINITY PREDICTED BY RF-SCORE:    0.00 PKD
ROOT
HETATM    1  C   UNL     1     -12.274  12.008  69.361  1.00  0.00    -0.155 C  
HETATM    2  C   UNL     1     -11.744  10.595  69.124  1.00  0.00    -0.324 C  
HETATM    3  C   UNL     1     -10.873  10.514  67.868  1.00  0.00    -0.333 C  
HETATM    4  C   UNL     1      -9.737  11.556  67.844  1.00  0.00    -0.183 C  
HETATM    5  C   UNL     1     -10.330  12.958  68.078  1.00  0.00    -0.230 C  
HETATM    6  C   UNL     1     -11.151  13.037  69.366  1.00  0.00    -0.137 C  
ENDROOT
BRANCH   4   7
HETATM    7  N   UNL     1      -8.715  11.219  68.847  1.00  0.00    -0.342 N  
HETATM    8  H   UNL     1      -8.774  11.626  69.781  1.00  0.00     0.000 HD 
BRANCH   7   9
HETATM    9  S   UNL     1      -7.461  10.183  68.479  1.00  0.00    -0.089 SA 
BRANCH   9  10
HETATM   10  C   UNL     1      -8.145   8.649  69.004  1.00  0.00    -0.121 A  
HETATM   11  N   UNL     1      -8.319   7.652  68.166  1.00  0.00    -0.124 NA 
HETATM   12  C   UNL     1      -8.856   6.571  68.849  1.00  0.00    -0.126 A  
HETATM   13  C   UNL     1      -9.177   5.318  68.288  1.00  0.00    -0.132 A  
HETATM   14  C   UNL     1      -9.722   4.313  69.093  1.00  0.00    -0.226 A  
HETATM   15  C   UNL     1      -9.944   4.539  70.448  1.00  0.00    -0.284 A  
HETATM   16  C   UNL     1      -9.631   5.768  71.031  1.00  0.00    -0.203 A  
HETATM   17  C   UNL     1      -9.083   6.772  70.212  1.00  0.00    -0.153 A  
HETATM   18  S   UNL     1      -8.590   8.366  70.631  1.00  0.00    -0.151 SA 
ENDBRANCH   9  10
ENDBRANCH   7   9
ENDBRANCH   4   7
TORSDOF 3
ENDMDL
MODEL      190
REMARK 921   NORMALIZED FREE ENERGY PREDICTED BY IDOCK:   -2.83 KCAL/MOL
REMARK 922        TOTAL FREE ENERGY PREDICTED BY IDOCK:   -3.59 KCAL/MOL
REMARK 923 INTER-LIGAND FREE ENERGY PREDICTED BY IDOCK:   -3.48 KCAL/MOL
REMARK 924 INTRA-LIGAND FREE ENERGY PREDICTED BY IDOCK:   -0.11 KCAL/MOL
REMARK 927      BINDING AFFINITY PREDICTED BY RF-SCORE:    0.00 PKD
ROOT
HETATM    1  C   UNL     1      -8.367   6.422  73.422  1.00  0.00    -0.121 C  
HETATM    2  C   UNL     1      -9.332   5.241  73.498  1.00  0.00    -0.133 C  
HETATM    3  C   UNL     1     -10.781   5.696  73.686  1.00  0.00    -0.302 C  
HETATM    4  C   UNL     1     -11.237   6.731  72.638  1.00  0.00    -0.255 C  
HETATM    5  C   UNL     1     -10.235   7.901  72.613  1.00  0.00    -0.361 C  
HETATM    6  C   UNL     1      -8.799   7.434  72.368  1.00  0.00    -0.151 C  
ENDROOT
BRANCH   4   7
HETATM    7  N   UNL     1     -11.371   6.096  71.319  1.00  0.00    -0.291 N  
HETATM    8  H   UNL     1     -11.636   5.113  71.259  1.00  0.00     0.000 HD 
BRANCH   7   9
HETATM    9  S   UNL     1     -11.095   6.960  69.919  1.00  0.00    -0.282 SA 
BRANCH   9  10
HETATM   10  C   UNL     1     -10.465   5.691  68.875  1.00  0.00    -0.240 A  
HETATM   11  N   UNL     1     -10.709   5.680  67.584  1.00  0.00    -0.216 NA 
HETATM   12  C   UNL     1     -10.083   4.584  67.011  1.00  0.00    -0.138 A  
HETATM   13  C   UNL     1     -10.111   4.238  65.644  1.00  0.00    -0.233 A  
HETATM   14  C   UNL     1      -9.438   3.096  65.200  1.00  0.00    -0.122 A  
HETATM   15  C   UNL     1      -8.733   2.300  66.098  1.00  0.00    -0.120 A  
HETATM   16  C   UNL     1      -8.685   2.621  67.456  1.00  0.00    -0.138 A  
HETATM   17  C   UNL     1      -9.365   3.771  67.892  1.00  0.00    -0.186 A  
HETATM   18  S   UNL     1      -9.482   4.428  69.478  1.00  0.00    -0.196 SA 
ENDBRANCH   9  10
ENDBRANCH   7   9
ENDBRANCH   4   7
TORSDOF 3
ENDMDL
MODEL      191
REMARK 921   NORMALIZED FREE ENERGY PREDICTED BY IDOCK:   -2.80 KCAL/MOL
REMARK 922        TOTAL FREE ENERGY PREDICTED BY IDOCK:   -3.57 KCAL/MOL
REMARK 923 INTER-LIGAND FREE ENERGY PREDICTED BY IDOCK:   -3.40 KCAL/MOL
REMARK 924 INTRA-LIGAND FREE ENERGY PREDICTED BY IDOCK:   -0.17 KCAL/MOL
REMARK 927      BINDING AFFINITY PREDICTED BY RF-SCORE:    0.00 PKD
ROOT
HETATM    1  C   UNL     1      -8.990   6.422  72.005  1.00  0.00    -0.137 C  
HETATM    2  C   UNL     1     -10.197   5.761  71.342  1.00  0.00    -0.269 C  
HETATM    3  C   UNL     1     -11.512   6.426  71.756  1.00  0.00    -0.349 C  
HETATM    4  C   UNL     1     -11.517   7.954  71.543  1.00  0.00    -0.265 C  
HETATM    5  C   UNL     1     -10.286   8.566  72.240  1.00  0.00    -0.402 C  
HETATM    6  C   UNL     1      -8.976   7.929  71.774  1.00  0.00    -0.172 C  
ENDROOT
BRANCH   4   7
HETATM    7  N   UNL     1     -11.548   8.269  70.108  1.00  0.00    -0.466 N  
HETATM    8  H   UNL     1     -11.970   7.607  69.457  1.00  0.00     0.000 HD 
BRANCH   7   9
HETATM    9  S   UNL     1     -10.903   9.695  69.529  1.00  0.00    -0.214 SA 
BRANCH   9  10
HETATM   10  C   UNL     1      -9.922   9.088  68.199  1.00  0.00    -0.175 A  
HETATM   11  N   UNL     1      -8.938   8.242  68.403  1.00  0.00    -0.137 NA 
HETATM   12  C   UNL     1      -8.351   7.923  67.187  1.00  0.00    -0.117 A  
HETATM   13  C   UNL     1      -7.267   7.043  67.000  1.00  0.00    -0.081 A  
HETATM   14  C   UNL     1      -6.767   6.817  65.714  1.00  0.00    -0.052 A  
HETATM   15  C   UNL     1      -7.338   7.450  64.614  1.00  0.00    -0.082 A  
HETATM   16  C   UNL     1      -8.416   8.323  64.770  1.00  0.00    -0.089 A  
HETATM   17  C   UNL     1      -8.911   8.544  66.067  1.00  0.00    -0.184 A  
HETATM   18  S   UNL     1     -10.218   9.541  66.577  1.00  0.00    -0.206 SA 
ENDBRANCH   9  10
ENDBRANCH   7   9
ENDBRANCH   4   7
TORSDOF 3
ENDMDL
MODEL      192
REMARK 921   NORMALIZED FREE ENERGY PREDICTED BY IDOCK:   -2.79 KCAL/MOL
REMARK 922        TOTAL FREE ENERGY PREDICTED BY IDOCK:   -3.55 KCAL/MOL
REMARK 923 INTER-LIGAND FREE ENERGY PREDICTED BY IDOCK:   -3.56 KCAL/MOL
REMARK 924 INTRA-LIGAND FREE ENERGY PREDICTED BY IDOCK:    0.01 KCAL/MOL
REMARK 927      BINDING AFFINITY PREDICTED BY RF-SCORE:    0.00 PKD
ROOT
HETATM    1  C   UNL     1      -8.383  13.184  67.798  1.00  0.00    -0.171 C  
HETATM    2  C   UNL     1      -9.646  12.470  67.320  1.00  0.00    -0.205 C  
HETATM    3  C   UNL     1      -9.359  11.517  66.158  1.00  0.00    -0.230 C  
HETATM    4  C   UNL     1      -8.224  10.516  66.454  1.00  0.00    -0.140 C  
HETATM    5  C   UNL     1      -6.976  11.291  66.921  1.00  0.00    -0.137 C  
HETATM    6  C   UNL     1      -7.266  12.197  68.118  1.00  0.00    -0.096 C  
ENDROOT
BRANCH   4   7
HETATM    7  N   UNL     1      -8.661   9.529  67.452  1.00  0.00    -0.125 N  
HETATM    8  H   UNL     1      -7.965   9.055  68.029  1.00  0.00     0.000 HD 
BRANCH   7   9
HETATM    9  S   UNL     1     -10.278   9.172  67.654  1.00  0.00    -0.251 SA 
BRANCH   9  10
HETATM   10  C   UNL     1     -10.218   8.237  69.145  1.00  0.00    -0.218 A  
HETATM   11  N   UNL     1     -10.392   8.804  70.317  1.00  0.00    -0.196 NA 
HETATM   12  C   UNL     1     -10.309   7.837  71.307  1.00  0.00    -0.198 A  
HETATM   13  C   UNL     1     -10.448   8.061  72.692  1.00  0.00    -0.408 A  
HETATM   14  C   UNL     1     -10.334   6.992  73.586  1.00  0.00    -0.412 A  
HETATM   15  C   UNL     1     -10.091   5.704  73.117  1.00  0.00    -0.200 A  
HETATM   16  C   UNL     1      -9.954   5.453  71.750  1.00  0.00    -0.235 A  
HETATM   17  C   UNL     1     -10.070   6.536  70.860  1.00  0.00    -0.185 A  
HETATM   18  S   UNL     1      -9.963   6.547  69.143  1.00  0.00    -0.151 SA 
ENDBRANCH   9  10
ENDBRANCH   7   9
ENDBRANCH   4   7
TORSDOF 3
ENDMDL
MODEL      193
REMARK 921   NORMALIZED FREE ENERGY PREDICTED BY IDOCK:   -2.76 KCAL/MOL
REMARK 922        TOTAL FREE ENERGY PREDICTED BY IDOCK:   -3.51 KCAL/MOL
REMARK 923 INTER-LIGAND FREE ENERGY PREDICTED BY IDOCK:   -3.92 KCAL/MOL
REMARK 924 INTRA-LIGAND FREE ENERGY PREDICTED BY IDOCK:    0.41 KCAL/MOL
REMARK 927      BINDING AFFINITY PREDICTED BY RF-SCORE:    0.00 PKD
ROOT
HETATM    1  C   UNL     1     -11.864  11.950  67.903  1.00  0.00    -0.308 C  
HETATM    2  C   UNL     1     -10.549  11.976  68.678  1.00  0.00    -0.253 C  
HETATM    3  C   UNL     1      -9.382  11.444  67.843  1.00  0.00    -0.164 C  
HETATM    4  C   UNL     1      -9.244  12.138  66.474  1.00  0.00    -0.216 C  
HETATM    5  C   UNL     1     -10.594  12.072  65.735  1.00  0.00    -0.301 C  
HETATM    6  C   UNL     1     -11.740  12.660  66.560  1.00  0.00    -0.463 C  
ENDROOT
BRANCH   4   7
HETATM    7  N   UNL     1      -8.781  13.523  66.648  1.00  0.00    -0.446 N  
HETATM    8  H   UNL     1      -8.609  14.102  65.826  1.00  0.00     0.000 HD 
BRANCH   7   9
HETATM    9  S   UNL     1      -8.534  14.160  68.170  1.00  0.00    -0.182 SA 
BRANCH   9  10
HETATM   10  C   UNL     1      -7.702  15.656  67.761  1.00  0.00    -0.143 A  
HETATM   11  N   UNL     1      -8.112  16.423  66.777  1.00  0.00    -0.223 NA 
HETATM   12  C   UNL     1      -7.287  17.534  66.690  1.00  0.00    -0.238 A  
HETATM   13  C   UNL     1      -7.414  18.585  65.758  1.00  0.00    -0.130 A  
HETATM   14  C   UNL     1      -6.504  19.646  65.778  1.00  0.00    -0.248 A  
HETATM   15  C   UNL     1      -5.477  19.677  66.716  1.00  0.00    -0.166 A  
HETATM   16  C   UNL     1      -5.331  18.652  67.653  1.00  0.00    -0.160 A  
HETATM   17  C   UNL     1      -6.250  17.589  67.625  1.00  0.00    -0.153 A  
HETATM   18  S   UNL     1      -6.341  16.203  68.640  1.00  0.00    -0.122 SA 
ENDBRANCH   9  10
ENDBRANCH   7   9
ENDBRANCH   4   7
TORSDOF 3
ENDMDL
MODEL      194
REMARK 921   NORMALIZED FREE ENERGY PREDICTED BY IDOCK:   -2.74 KCAL/MOL
REMARK 922        TOTAL FREE ENERGY PREDICTED BY IDOCK:   -3.49 KCAL/MOL
REMARK 923 INTER-LIGAND FREE ENERGY PREDICTED BY IDOCK:   -3.40 KCAL/MOL
REMARK 924 INTRA-LIGAND FREE ENERGY PREDICTED BY IDOCK:   -0.08 KCAL/MOL
REMARK 927      BINDING AFFINITY PREDICTED BY RF-SCORE:    0.00 PKD
ROOT
HETATM    1  C   UNL     1     -10.250  16.435  67.060  1.00  0.00    -0.282 C  
HETATM    2  C   UNL     1     -10.159  15.855  68.469  1.00  0.00    -0.217 C  
HETATM    3  C   UNL     1     -11.277  14.847  68.747  1.00  0.00    -0.288 C  
HETATM    4  C   UNL     1     -11.374  13.735  67.683  1.00  0.00    -0.304 C  
HETATM    5  C   UNL     1     -11.474  14.378  66.286  1.00  0.00    -0.361 C  
HETATM    6  C   UNL     1     -10.319  15.339  66.003  1.00  0.00    -0.327 C  
ENDROOT
BRANCH   4   7
HETATM    7  N   UNL     1     -10.223  12.827  67.788  1.00  0.00    -0.218 N  
HETATM    8  H   UNL     1      -9.734  12.736  68.678  1.00  0.00     0.000 HD 
BRANCH   7   9
HETATM    9  S   UNL     1      -9.706  11.943  66.471  1.00  0.00    -0.215 SA 
BRANCH   9  10
HETATM   10  C   UNL     1      -9.217  10.446  67.259  1.00  0.00    -0.142 A  
HETATM   11  N   UNL     1      -9.068  10.375  68.563  1.00  0.00    -0.139 NA 
HETATM   12  C   UNL     1      -8.696   9.084  68.909  1.00  0.00    -0.136 A  
HETATM   13  C   UNL     1      -8.448   8.620  70.216  1.00  0.00    -0.133 A  
HETATM   14  C   UNL     1      -8.071   7.290  70.423  1.00  0.00    -0.116 A  
HETATM   15  C   UNL     1      -7.945   6.417  69.346  1.00  0.00    -0.110 A  
HETATM   16  C   UNL     1      -8.189   6.849  68.041  1.00  0.00    -0.115 A  
HETATM   17  C   UNL     1      -8.567   8.189  67.844  1.00  0.00    -0.132 A  
HETATM   18  S   UNL     1      -8.942   9.007  66.378  1.00  0.00    -0.166 SA 
ENDBRANCH   9  10
ENDBRANCH   7   9
ENDBRANCH   4   7
TORSDOF 3
ENDMDL
MODEL      195
REMARK 921   NORMALIZED FREE ENERGY PREDICTED BY IDOCK:   -2.72 KCAL/MOL
REMARK 922        TOTAL FREE ENERGY PREDICTED BY IDOCK:   -3.47 KCAL/MOL
REMARK 923 INTER-LIGAND FREE ENERGY PREDICTED BY IDOCK:   -3.24 KCAL/MOL
REMARK 924 INTRA-LIGAND FREE ENERGY PREDICTED BY IDOCK:   -0.23 KCAL/MOL
REMARK 927      BINDING AFFINITY PREDICTED BY RF-SCORE:    0.00 PKD
ROOT
HETATM    1  C   UNL     1      -7.581   9.990  64.065  1.00  0.00    -0.139 C  
HETATM    2  C   UNL     1      -8.562  10.513  65.112  1.00  0.00    -0.187 C  
HETATM    3  C   UNL     1      -9.586   9.450  65.517  1.00  0.00    -0.328 C  
HETATM    4  C   UNL     1      -8.944   8.120  65.959  1.00  0.00    -0.171 C  
HETATM    5  C   UNL     1      -7.974   7.637  64.863  1.00  0.00    -0.135 C  
HETATM    6  C   UNL     1      -6.923   8.689  64.510  1.00  0.00    -0.081 C  
ENDROOT
BRANCH   4   7
HETATM    7  N   UNL     1      -8.268   8.285  67.254  1.00  0.00    -0.119 N  
HETATM    8  H   UNL     1      -8.311   9.185  67.732  1.00  0.00     0.000 HD 
BRANCH   7   9
HETATM    9  S   UNL     1      -7.433   7.021  67.953  1.00  0.00    -0.101 SA 
BRANCH   9  10
HETATM   10  C   UNL     1      -8.397   6.760  69.403  1.00  0.00    -0.132 A  
HETATM   11  N   UNL     1      -8.617   7.728  70.263  1.00  0.00    -0.137 NA 
HETATM   12  C   UNL     1      -9.413   7.249  71.293  1.00  0.00    -0.155 A  
HETATM   13  C   UNL     1      -9.865   7.994  72.402  1.00  0.00    -0.313 A  
HETATM   14  C   UNL     1     -10.659   7.382  73.375  1.00  0.00    -0.427 A  
HETATM   15  C   UNL     1     -11.014   6.041  73.255  1.00  0.00    -0.244 A  
HETATM   16  C   UNL     1     -10.584   5.281  72.166  1.00  0.00    -0.281 A  
HETATM   17  C   UNL     1      -9.785   5.906  71.192  1.00  0.00    -0.174 A  
HETATM   18  S   UNL     1      -9.118   5.249  69.749  1.00  0.00    -0.119 SA 
ENDBRANCH   9  10
ENDBRANCH   7   9
ENDBRANCH   4   7
TORSDOF 3
ENDMDL
MODEL      196
REMARK 921   NORMALIZED FREE ENERGY PREDICTED BY IDOCK:   -2.67 KCAL/MOL
REMARK 922        TOTAL FREE ENERGY PREDICTED BY IDOCK:   -3.41 KCAL/MOL
REMARK 923 INTER-LIGAND FREE ENERGY PREDICTED BY IDOCK:   -3.40 KCAL/MOL
REMARK 924 INTRA-LIGAND FREE ENERGY PREDICTED BY IDOCK:   -0.01 KCAL/MOL
REMARK 927      BINDING AFFINITY PREDICTED BY RF-SCORE:    0.00 PKD
ROOT
HETATM    1  C   UNL     1     -10.558  12.277  63.467  1.00  0.00    -0.488 C  
HETATM    2  C   UNL     1     -10.295  12.326  64.970  1.00  0.00    -0.321 C  
HETATM    3  C   UNL     1     -10.174  10.925  65.576  1.00  0.00    -0.332 C  
HETATM    4  C   UNL     1      -9.146  10.034  64.851  1.00  0.00    -0.221 C  
HETATM    5  C   UNL     1      -9.466  10.014  63.344  1.00  0.00    -0.239 C  
HETATM    6  C   UNL     1      -9.528  11.419  62.743  1.00  0.00    -0.314 C  
ENDROOT
BRANCH   4   7
HETATM    7  N   UNL     1      -7.781  10.511  65.115  1.00  0.00    -0.287 N  
HETATM    8  H   UNL     1      -7.636  11.469  65.435  1.00  0.00     0.000 HD 
BRANCH   7   9
HETATM    9  S   UNL     1      -6.465   9.509  64.900  1.00  0.00    -0.091 SA 
BRANCH   9  10
HETATM   10  C   UNL     1      -7.238   7.931  65.017  1.00  0.00    -0.062 A  
HETATM   11  N   UNL     1      -7.839   7.542  66.119  1.00  0.00    -0.093 NA 
HETATM   12  C   UNL     1      -8.369   6.275  65.926  1.00  0.00    -0.142 A  
HETATM   13  C   UNL     1      -9.089   5.528  66.880  1.00  0.00    -0.115 A  
HETATM   14  C   UNL     1      -9.562   4.254  66.554  1.00  0.00    -0.214 A  
HETATM   15  C   UNL     1      -9.334   3.719  65.290  1.00  0.00    -0.158 A  
HETATM   16  C   UNL     1      -8.627   4.439  64.324  1.00  0.00    -0.123 A  
HETATM   17  C   UNL     1      -8.155   5.719  64.662  1.00  0.00    -0.132 A  
HETATM   18  S   UNL     1      -7.274   6.841  63.701  1.00  0.00    -0.072 SA 
ENDBRANCH   9  10
ENDBRANCH   7   9
ENDBRANCH   4   7
TORSDOF 3
ENDMDL
MODEL      197
REMARK 921   NORMALIZED FREE ENERGY PREDICTED BY IDOCK:   -2.64 KCAL/MOL
REMARK 922        TOTAL FREE ENERGY PREDICTED BY IDOCK:   -3.37 KCAL/MOL
REMARK 923 INTER-LIGAND FREE ENERGY PREDICTED BY IDOCK:   -3.18 KCAL/MOL
REMARK 924 INTRA-LIGAND FREE ENERGY PREDICTED BY IDOCK:   -0.19 KCAL/MOL
REMARK 927      BINDING AFFINITY PREDICTED BY RF-SCORE:    0.00 PKD
ROOT
HETATM    1  C   UNL     1      -6.714  10.836  66.335  1.00  0.00    -0.131 C  
HETATM    2  C   UNL     1      -7.998  11.086  65.547  1.00  0.00     0.086 C  
HETATM    3  C   UNL     1      -9.188  10.322  66.134  1.00  0.00    -0.192 C  
HETATM    4  C   UNL     1      -9.392  10.574  67.641  1.00  0.00    -0.149 C  
HETATM    5  C   UNL     1      -8.071  10.297  68.384  1.00  0.00    -0.109 C  
HETATM    6  C   UNL     1      -6.904  11.111  67.822  1.00  0.00    -0.073 C  
ENDROOT
BRANCH   4   7
HETATM    7  N   UNL     1      -9.872  11.944  67.869  1.00  0.00    -0.185 N  
HETATM    8  H   UNL     1      -9.745  12.376  68.784  1.00  0.00     0.000 HD 
BRANCH   7   9
HETATM    9  S   UNL     1     -10.623  12.803  66.652  1.00  0.00    -0.259 SA 
BRANCH   9  10
HETATM   10  C   UNL     1      -9.759  14.334  66.757  1.00  0.00    -0.275 A  
HETATM   11  N   UNL     1      -8.488  14.382  67.085  1.00  0.00    -0.213 NA 
HETATM   12  C   UNL     1      -8.065  15.703  67.075  1.00  0.00    -0.241 A  
HETATM   13  C   UNL     1      -6.762  16.154  67.370  1.00  0.00    -0.218 A  
HETATM   14  C   UNL     1      -6.473  17.521  67.329  1.00  0.00    -0.177 A  
HETATM   15  C   UNL     1      -7.461  18.441  66.991  1.00  0.00    -0.227 A  
HETATM   16  C   UNL     1      -8.758  18.021  66.690  1.00  0.00    -0.276 A  
HETATM   17  C   UNL     1      -9.039  16.645  66.735  1.00  0.00    -0.237 A  
HETATM   18  S   UNL     1     -10.517  15.826  66.409  1.00  0.00    -0.305 SA 
ENDBRANCH   9  10
ENDBRANCH   7   9
ENDBRANCH   4   7
TORSDOF 3
ENDMDL
MODEL      198
REMARK 921   NORMALIZED FREE ENERGY PREDICTED BY IDOCK:   -2.63 KCAL/MOL
REMARK 922        TOTAL FREE ENERGY PREDICTED BY IDOCK:   -3.37 KCAL/MOL
REMARK 923 INTER-LIGAND FREE ENERGY PREDICTED BY IDOCK:   -3.57 KCAL/MOL
REMARK 924 INTRA-LIGAND FREE ENERGY PREDICTED BY IDOCK:    0.20 KCAL/MOL
REMARK 927      BINDING AFFINITY PREDICTED BY RF-SCORE:    0.00 PKD
ROOT
HETATM    1  C   UNL     1      -9.325  13.044  68.020  1.00  0.00    -0.213 C  
HETATM    2  C   UNL     1     -10.550  12.388  68.653  1.00  0.00    -0.243 C  
HETATM    3  C   UNL     1     -11.439  11.709  67.608  1.00  0.00    -0.373 C  
HETATM    4  C   UNL     1     -10.674  10.722  66.704  1.00  0.00    -0.207 C  
HETATM    5  C   UNL     1      -9.458  11.439  66.088  1.00  0.00    -0.237 C  
HETATM    6  C   UNL     1      -8.550  12.063  67.148  1.00  0.00    -0.182 C  
ENDROOT
BRANCH   4   7
HETATM    7  N   UNL     1     -10.279   9.531  67.470  1.00  0.00    -0.212 N  
HETATM    8  H   UNL     1      -9.616   8.870  67.064  1.00  0.00     0.000 HD 
BRANCH   7   9
HETATM    9  S   UNL     1     -10.898   9.244  68.992  1.00  0.00    -0.045 SA 
BRANCH   9  10
HETATM   10  C   UNL     1     -10.457   7.554  69.207  1.00  0.00    -0.214 A  
HETATM   11  N   UNL     1     -10.558   6.961  70.375  1.00  0.00    -0.213 NA 
HETATM   12  C   UNL     1     -10.162   5.638  70.251  1.00  0.00    -0.243 A  
HETATM   13  C   UNL     1     -10.136   4.684  71.289  1.00  0.00    -0.245 A  
HETATM   14  C   UNL     1      -9.705   3.381  71.026  1.00  0.00    -0.216 A  
HETATM   15  C   UNL     1      -9.308   3.015  69.743  1.00  0.00    -0.215 A  
HETATM   16  C   UNL     1      -9.328   3.938  68.696  1.00  0.00    -0.227 A  
HETATM   17  C   UNL     1      -9.762   5.247  68.971  1.00  0.00    -0.156 A  
HETATM   18  S   UNL     1      -9.908   6.590  67.906  1.00  0.00    -0.128 SA 
ENDBRANCH   9  10
ENDBRANCH   7   9
ENDBRANCH   4   7
TORSDOF 3
ENDMDL
MODEL      199
REMARK 921   NORMALIZED FREE ENERGY PREDICTED BY IDOCK:   -2.60 KCAL/MOL
REMARK 922        TOTAL FREE ENERGY PREDICTED BY IDOCK:   -3.32 KCAL/MOL
REMARK 923 INTER-LIGAND FREE ENERGY PREDICTED BY IDOCK:   -3.42 KCAL/MOL
REMARK 924 INTRA-LIGAND FREE ENERGY PREDICTED BY IDOCK:    0.10 KCAL/MOL
REMARK 927      BINDING AFFINITY PREDICTED BY RF-SCORE:    0.00 PKD
ROOT
HETATM    1  C   UNL     1      -9.444   3.210  68.645  1.00  0.00    -0.195 C  
HETATM    2  C   UNL     1      -9.496   4.000  69.951  1.00  0.00    -0.265 C  
HETATM    3  C   UNL     1      -8.409   5.076  70.013  1.00  0.00    -0.084 C  
HETATM    4  C   UNL     1      -8.404   6.011  68.787  1.00  0.00    -0.106 C  
HETATM    5  C   UNL     1      -8.340   5.161  67.503  1.00  0.00    -0.106 C  
HETATM    6  C   UNL     1      -9.467   4.130  67.430  1.00  0.00    -0.223 C  
ENDROOT
BRANCH   4   7
HETATM    7  N   UNL     1      -9.585   6.885  68.807  1.00  0.00    -0.135 N  
HETATM    8  H   UNL     1      -9.912   7.269  69.695  1.00  0.00     0.000 HD 
BRANCH   7   9
HETATM    9  S   UNL     1     -10.400   7.260  67.400  1.00  0.00    -0.292 SA 
BRANCH   9  10
HETATM   10  C   UNL     1     -10.201   9.009  67.368  1.00  0.00    -0.245 A  
HETATM   11  N   UNL     1     -11.104   9.811  67.884  1.00  0.00    -0.186 NA 
HETATM   12  C   UNL     1     -10.685  11.125  67.734  1.00  0.00    -0.222 A  
HETATM   13  C   UNL     1     -11.386  12.269  68.167  1.00  0.00    -0.349 A  
HETATM   14  C   UNL     1     -10.849  13.540  67.943  1.00  0.00    -0.262 A  
HETATM   15  C   UNL     1      -9.622  13.685  67.302  1.00  0.00    -0.238 A  
HETATM   16  C   UNL     1      -8.905  12.569  66.867  1.00  0.00    -0.203 A  
HETATM   17  C   UNL     1      -9.453  11.295  67.096  1.00  0.00    -0.170 A  
HETATM   18  S   UNL     1      -8.815   9.749  66.694  1.00  0.00    -0.139 SA 
ENDBRANCH   9  10
ENDBRANCH   7   9
ENDBRANCH   4   7
TORSDOF 3
ENDMDL
MODEL      200
REMARK 921   NORMALIZED FREE ENERGY PREDICTED BY IDOCK:   -2.43 KCAL/MOL
REMARK 922        TOTAL FREE ENERGY PREDICTED BY IDOCK:   -3.13 KCAL/MOL
REMARK 923 INTER-LIGAND FREE ENERGY PREDICTED BY IDOCK:   -2.74 KCAL/MOL
REMARK 924 INTRA-LIGAND FREE ENERGY PREDICTED BY IDOCK:   -0.38 KCAL/MOL
REMARK 927      BINDING AFFINITY PREDICTED BY RF-SCORE:    0.00 PKD
ROOT
HETATM    1  C   UNL     1      -9.722   7.549  71.512  1.00  0.00    -0.184 C  
HETATM    2  C   UNL     1      -8.348   7.204  70.942  1.00  0.00    -0.121 C  
HETATM    3  C   UNL     1      -8.022   5.716  71.095  1.00  0.00    -0.112 C  
HETATM    4  C   UNL     1      -9.117   4.790  70.530  1.00  0.00    -0.120 C  
HETATM    5  C   UNL     1     -10.476   5.177  71.146  1.00  0.00    -0.240 C  
HETATM    6  C   UNL     1     -10.812   6.654  70.935  1.00  0.00    -0.297 C  
ENDROOT
BRANCH   4   7
HETATM    7  N   UNL     1      -9.141   4.864  69.062  1.00  0.00    -0.106 N  
HETATM    8  H   UNL     1     -10.036   4.852  68.573  1.00  0.00     0.000 HD 
BRANCH   7   9
HETATM    9  S   UNL     1      -7.725   4.965  68.186  1.00  0.00    -0.083 SA 
BRANCH   9  10
HETATM   10  C   UNL     1      -7.997   6.466  67.306  1.00  0.00    -0.112 A  
HETATM   11  N   UNL     1      -9.086   7.179  67.486  1.00  0.00    -0.123 NA 
HETATM   12  C   UNL     1      -9.030   8.308  66.683  1.00  0.00    -0.150 A  
HETATM   13  C   UNL     1     -10.013   9.315  66.605  1.00  0.00    -0.333 A  
HETATM   14  C   UNL     1      -9.832  10.400  65.743  1.00  0.00    -0.300 A  
HETATM   15  C   UNL     1      -8.682  10.498  64.964  1.00  0.00    -0.193 A  
HETATM   16  C   UNL     1      -7.690   9.517  65.025  1.00  0.00    -0.114 A  
HETATM   17  C   UNL     1      -7.882   8.430  65.895  1.00  0.00    -0.095 A  
HETATM   18  S   UNL     1      -6.852   7.085  66.198  1.00  0.00    -0.058 SA 
ENDBRANCH   9  10
ENDBRANCH   7   9
ENDBRANCH   4   7
TORSDOF 3
ENDMDL
MODEL      201
REMARK 921   NORMALIZED FREE ENERGY PREDICTED BY IDOCK:   -2.40 KCAL/MOL
REMARK 922        TOTAL FREE ENERGY PREDICTED BY IDOCK:   -3.10 KCAL/MOL
REMARK 923 INTER-LIGAND FREE ENERGY PREDICTED BY IDOCK:   -2.93 KCAL/MOL
REMARK 924 INTRA-LIGAND FREE ENERGY PREDICTED BY IDOCK:   -0.17 KCAL/MOL
REMARK 927      BINDING AFFINITY PREDICTED BY RF-SCORE:    0.00 PKD
ROOT
HETATM    1  C   UNL     1      -8.642   8.418  72.620  1.00  0.00    -0.241 C  
HETATM    2  C   UNL     1      -7.597   8.418  71.506  1.00  0.00    -0.118 C  
HETATM    3  C   UNL     1      -7.902   7.369  70.434  1.00  0.00    -0.098 C  
HETATM    4  C   UNL     1      -9.332   7.474  69.867  1.00  0.00    -0.150 C  
HETATM    5  C   UNL     1     -10.341   7.459  71.032  1.00  0.00    -0.201 C  
HETATM    6  C   UNL     1     -10.056   8.549  72.065  1.00  0.00    -0.386 C  
ENDROOT
BRANCH   4   7
HETATM    7  N   UNL     1      -9.467   8.683  69.042  1.00  0.00    -0.152 N  
HETATM    8  H   UNL     1      -8.634   9.109  68.635  1.00  0.00     0.000 HD 
BRANCH   7   9
HETATM    9  S   UNL     1     -10.962   9.368  68.761  1.00  0.00     0.036 SA 
BRANCH   9  10
HETATM   10  C   UNL     1     -10.546  11.078  68.803  1.00  0.00    -0.202 A  
HETATM   11  N   UNL     1      -9.386  11.513  68.363  1.00  0.00    -0.192 NA 
HETATM   12  C   UNL     1      -9.335  12.892  68.501  1.00  0.00    -0.074 A  
HETATM   13  C   UNL     1      -8.253  13.718  68.135  1.00  0.00    -0.160 A  
HETATM   14  C   UNL     1      -8.331  15.099  68.337  1.00  0.00    -0.154 A  
HETATM   15  C   UNL     1      -9.475  15.667  68.891  1.00  0.00    -0.228 A  
HETATM   16  C   UNL     1     -10.563  14.873  69.259  1.00  0.00    -0.248 A  
HETATM   17  C   UNL     1     -10.474  13.485  69.052  1.00  0.00    -0.051 A  
HETATM   18  S   UNL     1     -11.635  12.260  69.386  1.00  0.00    -0.307 SA 
ENDBRANCH   9  10
ENDBRANCH   7   9
ENDBRANCH   4   7
TORSDOF 3
ENDMDL
MODEL      202
REMARK 921   NORMALIZED FREE ENERGY PREDICTED BY IDOCK:   -2.40 KCAL/MOL
REMARK 922        TOTAL FREE ENERGY PREDICTED BY IDOCK:   -3.10 KCAL/MOL
REMARK 923 INTER-LIGAND FREE ENERGY PREDICTED BY IDOCK:   -2.75 KCAL/MOL
REMARK 924 INTRA-LIGAND FREE ENERGY PREDICTED BY IDOCK:   -0.35 KCAL/MOL
REMARK 927      BINDING AFFINITY PREDICTED BY RF-SCORE:    0.00 PKD
ROOT
HETATM    1  C   UNL     1     -10.837   7.402  69.669  1.00  0.00    -0.222 C  
HETATM    2  C   UNL     1      -9.439   7.531  69.068  1.00  0.00    -0.145 C  
HETATM    3  C   UNL     1      -8.357   7.010  70.018  1.00  0.00    -0.138 C  
HETATM    4  C   UNL     1      -8.626   5.578  70.522  1.00  0.00    -0.124 C  
HETATM    5  C   UNL     1     -10.042   5.510  71.125  1.00  0.00    -0.267 C  
HETATM    6  C   UNL     1     -11.116   5.981  70.144  1.00  0.00    -0.432 C  
ENDROOT
BRANCH   4   7
HETATM    7  N   UNL     1      -8.449   4.611  69.429  1.00  0.00    -0.081 N  
HETATM    8  H   UNL     1      -9.103   3.833  69.335  1.00  0.00     0.000 HD 
BRANCH   7   9
HETATM    9  S   UNL     1      -7.194   4.766  68.341  1.00  0.00    -0.062 SA 
BRANCH   9  10
HETATM   10  C   UNL     1      -8.050   4.518  66.823  1.00  0.00    -0.102 A  
HETATM   11  N   UNL     1      -7.414   4.482  65.674  1.00  0.00    -0.080 NA 
HETATM   12  C   UNL     1      -8.327   4.259  64.654  1.00  0.00    -0.106 A  
HETATM   13  C   UNL     1      -8.022   4.153  63.282  1.00  0.00    -0.080 A  
HETATM   14  C   UNL     1      -9.045   3.934  62.356  1.00  0.00    -0.098 A  
HETATM   15  C   UNL     1     -10.366   3.813  62.779  1.00  0.00    -0.194 A  
HETATM   16  C   UNL     1     -10.696   3.909  64.132  1.00  0.00    -0.229 A  
HETATM   17  C   UNL     1      -9.659   4.130  65.056  1.00  0.00    -0.180 A  
HETATM   18  S   UNL     1      -9.743   4.281  66.768  1.00  0.00    -0.205 SA 
ENDBRANCH   9  10
ENDBRANCH   7   9
ENDBRANCH   4   7
TORSDOF 3
ENDMDL
MODEL      203
REMARK 921   NORMALIZED FREE ENERGY PREDICTED BY IDOCK:   -2.36 KCAL/MOL
REMARK 922        TOTAL FREE ENERGY PREDICTED BY IDOCK:   -3.05 KCAL/MOL
REMARK 923 INTER-LIGAND FREE ENERGY PREDICTED BY IDOCK:   -2.84 KCAL/MOL
REMARK 924 INTRA-LIGAND FREE ENERGY PREDICTED BY IDOCK:   -0.20 KCAL/MOL
REMARK 927      BINDING AFFINITY PREDICTED BY RF-SCORE:    0.00 PKD
ROOT
HETATM    1  C   UNL     1      -7.770   5.519  63.540  1.00  0.00    -0.089 C  
HETATM    2  C   UNL     1      -8.798   4.592  64.185  1.00  0.00    -0.140 C  
HETATM    3  C   UNL     1      -8.134   3.446  64.951  1.00  0.00    -0.090 C  
HETATM    4  C   UNL     1      -7.084   3.923  65.975  1.00  0.00    -0.067 C  
HETATM    5  C   UNL     1      -6.070   4.843  65.268  1.00  0.00    -0.030 C  
HETATM    6  C   UNL     1      -6.746   6.015  64.554  1.00  0.00    -0.046 C  
ENDROOT
BRANCH   4   7
HETATM    7  N   UNL     1      -7.742   4.597  67.104  1.00  0.00    -0.090 N  
HETATM    8  H   UNL     1      -7.383   5.494  67.431  1.00  0.00     0.000 HD 
BRANCH   7   9
HETATM    9  S   UNL     1      -9.064   3.915  67.858  1.00  0.00    -0.164 SA 
BRANCH   9  10
HETATM   10  C   UNL     1      -9.488   5.196  68.988  1.00  0.00    -0.133 A  
HETATM   11  N   UNL     1      -8.712   5.498  70.005  1.00  0.00    -0.126 NA 
HETATM   12  C   UNL     1      -9.278   6.547  70.714  1.00  0.00    -0.155 A  
HETATM   13  C   UNL     1      -8.736   7.151  71.866  1.00  0.00    -0.126 A  
HETATM   14  C   UNL     1      -9.418   8.200  72.489  1.00  0.00    -0.339 A  
HETATM   15  C   UNL     1     -10.627   8.659  71.975  1.00  0.00    -0.421 A  
HETATM   16  C   UNL     1     -11.185   8.082  70.832  1.00  0.00    -0.282 A  
HETATM   17  C   UNL     1     -10.491   7.027  70.214  1.00  0.00    -0.208 A  
HETATM   18  S   UNL     1     -10.908   6.131  68.806  1.00  0.00    -0.340 SA 
ENDBRANCH   9  10
ENDBRANCH   7   9
ENDBRANCH   4   7
TORSDOF 3
ENDMDL
MODEL      204
REMARK 921   NORMALIZED FREE ENERGY PREDICTED BY IDOCK:   -2.35 KCAL/MOL
REMARK 922        TOTAL FREE ENERGY PREDICTED BY IDOCK:   -3.03 KCAL/MOL
REMARK 923 INTER-LIGAND FREE ENERGY PREDICTED BY IDOCK:   -2.70 KCAL/MOL
REMARK 924 INTRA-LIGAND FREE ENERGY PREDICTED BY IDOCK:   -0.33 KCAL/MOL
REMARK 927      BINDING AFFINITY PREDICTED BY RF-SCORE:    0.00 PKD
ROOT
HETATM    1  C   UNL     1      -8.759   8.799  65.372  1.00  0.00    -0.217 C  
HETATM    2  C   UNL     1      -7.985   9.608  66.410  1.00  0.00    -0.108 C  
HETATM    3  C   UNL     1      -8.459   9.315  67.835  1.00  0.00    -0.117 C  
HETATM    4  C   UNL     1      -8.464   7.812  68.179  1.00  0.00    -0.124 C  
HETATM    5  C   UNL     1      -9.266   7.049  67.107  1.00  0.00    -0.153 C  
HETATM    6  C   UNL     1      -8.744   7.310  65.693  1.00  0.00    -0.092 C  
ENDROOT
BRANCH   4   7
HETATM    7  N   UNL     1      -7.087   7.310  68.294  1.00  0.00    -0.079 N  
HETATM    8  H   UNL     1      -6.315   7.876  67.942  1.00  0.00     0.000 HD 
BRANCH   7   9
HETATM    9  S   UNL     1      -6.770   5.827  68.990  1.00  0.00    -0.062 SA 
BRANCH   9  10
HETATM   10  C   UNL     1      -7.716   5.955  70.468  1.00  0.00    -0.100 A  
HETATM   11  N   UNL     1      -8.703   5.127  70.726  1.00  0.00    -0.126 NA 
HETATM   12  C   UNL     1      -9.259   5.448  71.955  1.00  0.00    -0.138 A  
HETATM   13  C   UNL     1     -10.336   4.781  72.573  1.00  0.00    -0.259 A  
HETATM   14  C   UNL     1     -10.804   5.215  73.816  1.00  0.00    -0.345 A  
HETATM   15  C   UNL     1     -10.208   6.299  74.454  1.00  0.00    -0.339 A  
HETATM   16  C   UNL     1      -9.136   6.975  73.867  1.00  0.00    -0.229 A  
HETATM   17  C   UNL     1      -8.674   6.530  72.616  1.00  0.00    -0.124 A  
HETATM   18  S   UNL     1      -7.383   7.140  71.656  1.00  0.00    -0.086 SA 
ENDBRANCH   9  10
ENDBRANCH   7   9
ENDBRANCH   4   7
TORSDOF 3
ENDMDL
MODEL      205
REMARK 921   NORMALIZED FREE ENERGY PREDICTED BY IDOCK:   -2.33 KCAL/MOL
REMARK 922        TOTAL FREE ENERGY PREDICTED BY IDOCK:   -3.01 KCAL/MOL
REMARK 923 INTER-LIGAND FREE ENERGY PREDICTED BY IDOCK:   -2.72 KCAL/MOL
REMARK 924 INTRA-LIGAND FREE ENERGY PREDICTED BY IDOCK:   -0.29 KCAL/MOL
REMARK 927      BINDING AFFINITY PREDICTED BY RF-SCORE:    0.00 PKD
ROOT
HETATM    1  C   UNL     1     -11.113   7.161  70.199  1.00  0.00    -0.301 C  
HETATM    2  C   UNL     1     -10.963   8.613  69.753  1.00  0.00    -0.132 C  
HETATM    3  C   UNL     1     -10.207   9.454  70.785  1.00  0.00    -0.368 C  
HETATM    4  C   UNL     1      -8.850   8.845  71.193  1.00  0.00    -0.237 C  
HETATM    5  C   UNL     1      -9.064   7.387  71.642  1.00  0.00    -0.141 C  
HETATM    6  C   UNL     1      -9.770   6.546  70.577  1.00  0.00    -0.186 C  
ENDROOT
BRANCH   4   7
HETATM    7  N   UNL     1      -7.893   8.941  70.081  1.00  0.00    -0.087 N  
HETATM    8  H   UNL     1      -7.278   8.153  69.878  1.00  0.00     0.000 HD 
BRANCH   7   9
HETATM    9  S   UNL     1      -7.798  10.320  69.147  1.00  0.00    -0.139 SA 
BRANCH   9  10
HETATM   10  C   UNL     1      -7.847   9.621  67.533  1.00  0.00    -0.095 A  
HETATM   11  N   UNL     1      -8.232  10.323  66.491  1.00  0.00    -0.124 NA 
HETATM   12  C   UNL     1      -8.158   9.532  65.355  1.00  0.00    -0.125 A  
HETATM   13  C   UNL     1      -8.486   9.937  64.045  1.00  0.00    -0.183 A  
HETATM   14  C   UNL     1      -8.372   9.032  62.987  1.00  0.00    -0.197 A  
HETATM   15  C   UNL     1      -7.929   7.732  63.215  1.00  0.00    -0.111 A  
HETATM   16  C   UNL     1      -7.593   7.306  64.502  1.00  0.00    -0.107 A  
HETATM   17  C   UNL     1      -7.712   8.224  65.560  1.00  0.00    -0.101 A  
HETATM   18  S   UNL     1      -7.368   8.007  67.231  1.00  0.00    -0.090 SA 
ENDBRANCH   9  10
ENDBRANCH   7   9
ENDBRANCH   4   7
TORSDOF 3
ENDMDL
MODEL      206
REMARK 921   NORMALIZED FREE ENERGY PREDICTED BY IDOCK:   -2.32 KCAL/MOL
REMARK 922        TOTAL FREE ENERGY PREDICTED BY IDOCK:   -2.99 KCAL/MOL
REMARK 923 INTER-LIGAND FREE ENERGY PREDICTED BY IDOCK:   -2.84 KCAL/MOL
REMARK 924 INTRA-LIGAND FREE ENERGY PREDICTED BY IDOCK:   -0.15 KCAL/MOL
REMARK 927      BINDING AFFINITY PREDICTED BY RF-SCORE:    0.00 PKD
ROOT
HETATM    1  C   UNL     1     -10.804   7.911  72.718  1.00  0.00    -0.451 C  
HETATM    2  C   UNL     1      -9.345   8.358  72.764  1.00  0.00    -0.312 C  
HETATM    3  C   UNL     1      -8.380   7.182  72.593  1.00  0.00    -0.122 C  
HETATM    4  C   UNL     1      -8.671   6.331  71.341  1.00  0.00    -0.135 C  
HETATM    5  C   UNL     1     -10.150   5.900  71.354  1.00  0.00    -0.245 C  
HETATM    6  C   UNL     1     -11.103   7.091  71.468  1.00  0.00    -0.271 C  
ENDROOT
BRANCH   4   7
HETATM    7  N   UNL     1      -8.328   7.080  70.124  1.00  0.00    -0.136 N  
HETATM    8  H   UNL     1      -8.844   6.901  69.262  1.00  0.00     0.000 HD 
BRANCH   7   9
HETATM    9  S   UNL     1      -7.108   8.217  70.131  1.00  0.00    -0.040 SA 
BRANCH   9  10
HETATM   10  C   UNL     1      -7.765   9.402  69.007  1.00  0.00    -0.075 A  
HETATM   11  N   UNL     1      -8.759  10.192  69.346  1.00  0.00    -0.171 NA 
HETATM   12  C   UNL     1      -9.061  11.028  68.282  1.00  0.00    -0.158 A  
HETATM   13  C   UNL     1     -10.067  12.016  68.268  1.00  0.00    -0.201 A  
HETATM   14  C   UNL     1     -10.269  12.787  67.120  1.00  0.00    -0.235 A  
HETATM   15  C   UNL     1      -9.479  12.592  65.991  1.00  0.00    -0.140 A  
HETATM   16  C   UNL     1      -8.473  11.624  65.979  1.00  0.00     0.059 A  
HETATM   17  C   UNL     1      -8.278  10.853  67.138  1.00  0.00    -0.126 A  
HETATM   18  S   UNL     1      -7.128   9.608  67.434  1.00  0.00    -0.086 SA 
ENDBRANCH   9  10
ENDBRANCH   7   9
ENDBRANCH   4   7
TORSDOF 3
ENDMDL
MODEL      207
REMARK 921   NORMALIZED FREE ENERGY PREDICTED BY IDOCK:   -2.31 KCAL/MOL
REMARK 922        TOTAL FREE ENERGY PREDICTED BY IDOCK:   -2.98 KCAL/MOL
REMARK 923 INTER-LIGAND FREE ENERGY PREDICTED BY IDOCK:   -3.83 KCAL/MOL
REMARK 924 INTRA-LIGAND FREE ENERGY PREDICTED BY IDOCK:    0.85 KCAL/MOL
REMARK 927      BINDING AFFINITY PREDICTED BY RF-SCORE:    0.00 PKD
ROOT
HETATM    1  C   UNL     1     -13.490   6.745  71.614  1.00  0.00    -0.191 C  
HETATM    2  C   UNL     1     -14.382   7.980  71.515  1.00  0.00    -0.546 C  
HETATM    3  C   UNL     1     -13.768   9.188  72.226  1.00  0.00    -0.548 C  
HETATM    4  C   UNL     1     -12.326   9.495  71.774  1.00  0.00    -0.394 C  
HETATM    5  C   UNL     1     -11.472   8.219  71.906  1.00  0.00    -0.372 C  
HETATM    6  C   UNL     1     -12.070   7.036  71.143  1.00  0.00    -0.412 C  
ENDROOT
BRANCH   4   7
HETATM    7  N   UNL     1     -12.322  10.018  70.401  1.00  0.00    -0.474 N  
HETATM    8  H   UNL     1     -12.940   9.603  69.703  1.00  0.00     0.000 HD 
BRANCH   7   9
HETATM    9  S   UNL     1     -11.320  11.279  69.966  1.00  0.00    -0.140 SA 
BRANCH   9  10
HETATM   10  C   UNL     1      -9.795  10.424  69.759  1.00  0.00    -0.091 A  
HETATM   11  N   UNL     1      -9.629   9.200  70.208  1.00  0.00    -0.197 NA 
HETATM   12  C   UNL     1      -8.348   8.771  69.896  1.00  0.00    -0.125 A  
HETATM   13  C   UNL     1      -7.801   7.510  70.209  1.00  0.00    -0.094 A  
HETATM   14  C   UNL     1      -6.487   7.209  69.840  1.00  0.00    -0.039 A  
HETATM   15  C   UNL     1      -5.715   8.144  69.156  1.00  0.00    -0.034 A  
HETATM   16  C   UNL     1      -6.233   9.399  68.829  1.00  0.00    -0.044 A  
HETATM   17  C   UNL     1      -7.555   9.692  69.206  1.00  0.00    -0.091 A  
HETATM   18  S   UNL     1      -8.468  11.126  68.940  1.00  0.00    -0.037 SA 
ENDBRANCH   9  10
ENDBRANCH   7   9
ENDBRANCH   4   7
TORSDOF 3
ENDMDL
MODEL      208
REMARK 921   NORMALIZED FREE ENERGY PREDICTED BY IDOCK:   -2.26 KCAL/MOL
REMARK 922        TOTAL FREE ENERGY PREDICTED BY IDOCK:   -2.93 KCAL/MOL
REMARK 923 INTER-LIGAND FREE ENERGY PREDICTED BY IDOCK:   -2.67 KCAL/MOL
REMARK 924 INTRA-LIGAND FREE ENERGY PREDICTED BY IDOCK:   -0.26 KCAL/MOL
REMARK 927      BINDING AFFINITY PREDICTED BY RF-SCORE:    0.00 PKD
ROOT
HETATM    1  C   UNL     1      -8.473   4.986  73.232  1.00  0.00    -0.110 C  
HETATM    2  C   UNL     1      -8.794   4.726  71.762  1.00  0.00    -0.139 C  
HETATM    3  C   UNL     1     -10.265   4.356  71.554  1.00  0.00    -0.167 C  
HETATM    4  C   UNL     1     -11.243   5.373  72.175  1.00  0.00    -0.130 C  
HETATM    5  C   UNL     1     -10.878   5.588  73.656  1.00  0.00    -0.294 C  
HETATM    6  C   UNL     1      -9.420   6.012  73.842  1.00  0.00    -0.146 C  
ENDROOT
BRANCH   4   7
HETATM    7  N   UNL     1     -11.219   6.632  71.416  1.00  0.00    -0.261 N  
HETATM    8  H   UNL     1     -10.881   7.484  71.866  1.00  0.00     0.000 HD 
BRANCH   7   9
HETATM    9  S   UNL     1     -11.739   6.689  69.832  1.00  0.00    -0.147 SA 
BRANCH   9  10
HETATM   10  C   UNL     1     -10.553   7.794  69.144  1.00  0.00    -0.183 A  
HETATM   11  N   UNL     1     -10.011   7.573  67.967  1.00  0.00    -0.165 NA 
HETATM   12  C   UNL     1      -9.131   8.603  67.670  1.00  0.00    -0.134 A  
HETATM   13  C   UNL     1      -8.364   8.719  66.493  1.00  0.00    -0.112 A  
HETATM   14  C   UNL     1      -7.508   9.810  66.324  1.00  0.00    -0.100 A  
HETATM   15  C   UNL     1      -7.411  10.789  67.309  1.00  0.00    -0.101 A  
HETATM   16  C   UNL     1      -8.163  10.702  68.482  1.00  0.00    -0.128 A  
HETATM   17  C   UNL     1      -9.021   9.600  68.642  1.00  0.00    -0.129 A  
HETATM   18  S   UNL     1     -10.070   9.221  69.952  1.00  0.00    -0.225 SA 
ENDBRANCH   9  10
ENDBRANCH   7   9
ENDBRANCH   4   7
TORSDOF 3
ENDMDL
MODEL      209
REMARK 921   NORMALIZED FREE ENERGY PREDICTED BY IDOCK:   -2.24 KCAL/MOL
REMARK 922        TOTAL FREE ENERGY PREDICTED BY IDOCK:   -2.91 KCAL/MOL
REMARK 923 INTER-LIGAND FREE ENERGY PREDICTED BY IDOCK:   -2.70 KCAL/MOL
REMARK 924 INTRA-LIGAND FREE ENERGY PREDICTED BY IDOCK:   -0.21 KCAL/MOL
REMARK 927      BINDING AFFINITY PREDICTED BY RF-SCORE:    0.00 PKD
ROOT
HETATM    1  C   UNL     1     -10.812  13.063  68.499  1.00  0.00    -0.282 C  
HETATM    2  C   UNL     1     -11.692  11.819  68.592  1.00  0.00    -0.389 C  
HETATM    3  C   UNL     1     -11.470  10.872  67.410  1.00  0.00    -0.175 C  
HETATM    4  C   UNL     1      -9.989  10.502  67.193  1.00  0.00    -0.193 C  
HETATM    5  C   UNL     1      -9.154  11.793  67.097  1.00  0.00    -0.175 C  
HETATM    6  C   UNL     1      -9.343  12.702  68.312  1.00  0.00    -0.195 C  
ENDROOT
BRANCH   4   7
HETATM    7  N   UNL     1      -9.519   9.624  68.274  1.00  0.00    -0.136 N  
HETATM    8  H   UNL     1      -9.072  10.033  69.096  1.00  0.00     0.000 HD 
BRANCH   7   9
HETATM    9  S   UNL     1      -9.703   7.969  68.178  1.00  0.00    -0.166 SA 
BRANCH   9  10
HETATM   10  C   UNL     1      -9.112   7.485  69.764  1.00  0.00    -0.140 A  
HETATM   11  N   UNL     1      -8.028   8.015  70.283  1.00  0.00    -0.102 NA 
HETATM   12  C   UNL     1      -7.807   7.465  71.537  1.00  0.00    -0.087 A  
HETATM   13  C   UNL     1      -6.742   7.786  72.403  1.00  0.00    -0.065 A  
HETATM   14  C   UNL     1      -6.635   7.148  73.642  1.00  0.00    -0.065 A  
HETATM   15  C   UNL     1      -7.577   6.200  74.030  1.00  0.00    -0.090 A  
HETATM   16  C   UNL     1      -8.644   5.866  73.194  1.00  0.00    -0.119 A  
HETATM   17  C   UNL     1      -8.743   6.513  71.950  1.00  0.00    -0.130 A  
HETATM   18  S   UNL     1      -9.932   6.329  70.721  1.00  0.00    -0.190 SA 
ENDBRANCH   9  10
ENDBRANCH   7   9
ENDBRANCH   4   7
TORSDOF 3
ENDMDL
MODEL      210
REMARK 921   NORMALIZED FREE ENERGY PREDICTED BY IDOCK:   -2.19 KCAL/MOL
REMARK 922        TOTAL FREE ENERGY PREDICTED BY IDOCK:   -2.84 KCAL/MOL
REMARK 923 INTER-LIGAND FREE ENERGY PREDICTED BY IDOCK:   -2.51 KCAL/MOL
REMARK 924 INTRA-LIGAND FREE ENERGY PREDICTED BY IDOCK:   -0.33 KCAL/MOL
REMARK 927      BINDING AFFINITY PREDICTED BY RF-SCORE:    0.00 PKD
ROOT
HETATM    1  C   UNL     1      -7.597   7.497  66.197  1.00  0.00    -0.088 C  
HETATM    2  C   UNL     1      -8.285   6.495  65.272  1.00  0.00    -0.135 C  
HETATM    3  C   UNL     1      -7.550   5.153  65.233  1.00  0.00    -0.082 C  
HETATM    4  C   UNL     1      -7.301   4.552  66.631  1.00  0.00    -0.081 C  
HETATM    5  C   UNL     1      -6.598   5.601  67.515  1.00  0.00    -0.053 C  
HETATM    6  C   UNL     1      -7.374   6.916  67.589  1.00  0.00    -0.096 C  
ENDROOT
BRANCH   4   7
HETATM    7  N   UNL     1      -8.567   4.097  67.223  1.00  0.00    -0.100 N  
HETATM    8  H   UNL     1      -9.425   4.619  67.039  1.00  0.00     0.000 HD 
BRANCH   7   9
HETATM    9  S   UNL     1      -8.623   2.739  68.191  1.00  0.00    -0.101 SA 
BRANCH   9  10
HETATM   10  C   UNL     1      -9.232   3.436  69.689  1.00  0.00    -0.154 A  
HETATM   11  N   UNL     1      -9.042   2.845  70.847  1.00  0.00    -0.102 NA 
HETATM   12  C   UNL     1      -9.610   3.616  71.850  1.00  0.00    -0.146 A  
HETATM   13  C   UNL     1      -9.607   3.312  73.227  1.00  0.00    -0.143 A  
HETATM   14  C   UNL     1     -10.225   4.177  74.133  1.00  0.00    -0.242 A  
HETATM   15  C   UNL     1     -10.839   5.344  73.687  1.00  0.00    -0.321 A  
HETATM   16  C   UNL     1     -10.853   5.673  72.330  1.00  0.00    -0.295 A  
HETATM   17  C   UNL     1     -10.229   4.795  71.427  1.00  0.00    -0.166 A  
HETATM   18  S   UNL     1     -10.070   4.926  69.719  1.00  0.00    -0.209 SA 
ENDBRANCH   9  10
ENDBRANCH   7   9
ENDBRANCH   4   7
TORSDOF 3
ENDMDL
MODEL      211
REMARK 921   NORMALIZED FREE ENERGY PREDICTED BY IDOCK:   -2.15 KCAL/MOL
REMARK 922        TOTAL FREE ENERGY PREDICTED BY IDOCK:   -2.80 KCAL/MOL
REMARK 923 INTER-LIGAND FREE ENERGY PREDICTED BY IDOCK:   -2.49 KCAL/MOL
REMARK 924 INTRA-LIGAND FREE ENERGY PREDICTED BY IDOCK:   -0.31 KCAL/MOL
REMARK 927      BINDING AFFINITY PREDICTED BY RF-SCORE:    0.00 PKD
ROOT
HETATM    1  C   UNL     1     -10.206   8.268  66.784  1.00  0.00    -0.375 C  
HETATM    2  C   UNL     1      -8.697   8.074  66.915  1.00  0.00    -0.136 C  
HETATM    3  C   UNL     1      -8.329   7.292  68.179  1.00  0.00    -0.124 C  
HETATM    4  C   UNL     1      -9.085   5.954  68.311  1.00  0.00    -0.118 C  
HETATM    5  C   UNL     1     -10.598   6.213  68.181  1.00  0.00    -0.328 C  
HETATM    6  C   UNL     1     -10.955   6.945  66.886  1.00  0.00    -0.328 C  
ENDROOT
BRANCH   4   7
HETATM    7  N   UNL     1      -8.604   4.995  67.306  1.00  0.00    -0.105 N  
HETATM    8  H   UNL     1      -8.034   5.327  66.527  1.00  0.00     0.000 HD 
BRANCH   7   9
HETATM    9  S   UNL     1      -8.979   3.374  67.419  1.00  0.00    -0.166 SA 
BRANCH   9  10
HETATM   10  C   UNL     1      -8.752   3.110  69.145  1.00  0.00    -0.085 A  
HETATM   11  N   UNL     1      -9.773   3.037  69.968  1.00  0.00    -0.056 NA 
HETATM   12  C   UNL     1      -9.307   2.812  71.254  1.00  0.00    -0.138 A  
HETATM   13  C   UNL     1     -10.105   2.670  72.408  1.00  0.00    -0.236 A  
HETATM   14  C   UNL     1      -9.501   2.452  73.650  1.00  0.00    -0.105 A  
HETATM   15  C   UNL     1      -8.116   2.366  73.755  1.00  0.00    -0.055 A  
HETATM   16  C   UNL     1      -7.302   2.497  72.628  1.00  0.00    -0.043 A  
HETATM   17  C   UNL     1      -7.919   2.717  71.384  1.00  0.00    -0.051 A  
HETATM   18  S   UNL     1      -7.200   2.906  69.833  1.00  0.00    -0.040 SA 
ENDBRANCH   9  10
ENDBRANCH   7   9
ENDBRANCH   4   7
TORSDOF 3
ENDMDL
MODEL      212
REMARK 921   NORMALIZED FREE ENERGY PREDICTED BY IDOCK:   -2.14 KCAL/MOL
REMARK 922        TOTAL FREE ENERGY PREDICTED BY IDOCK:   -2.79 KCAL/MOL
REMARK 923 INTER-LIGAND FREE ENERGY PREDICTED BY IDOCK:   -2.58 KCAL/MOL
REMARK 924 INTRA-LIGAND FREE ENERGY PREDICTED BY IDOCK:   -0.21 KCAL/MOL
REMARK 927      BINDING AFFINITY PREDICTED BY RF-SCORE:    0.00 PKD
ROOT
HETATM    1  C   UNL     1      -7.184   2.740  74.106  1.00  0.00    -0.041 C  
HETATM    2  C   UNL     1      -6.974   2.686  72.594  1.00  0.00    -0.031 C  
HETATM    3  C   UNL     1      -8.234   2.225  71.857  1.00  0.00    -0.054 C  
HETATM    4  C   UNL     1      -9.490   3.041  72.225  1.00  0.00    -0.123 C  
HETATM    5  C   UNL     1      -9.656   3.052  73.757  1.00  0.00    -0.123 C  
HETATM    6  C   UNL     1      -8.409   3.569  74.475  1.00  0.00    -0.081 C  
ENDROOT
BRANCH   4   7
HETATM    7  N   UNL     1      -9.394   4.401  71.674  1.00  0.00    -0.135 N  
HETATM    8  H   UNL     1      -8.598   4.649  71.085  1.00  0.00     0.000 HD 
BRANCH   7   9
HETATM    9  S   UNL     1     -10.566   5.542  71.998  1.00  0.00    -0.229 SA 
BRANCH   9  10
HETATM   10  C   UNL     1     -10.250   6.703  70.713  1.00  0.00    -0.196 A  
HETATM   11  N   UNL     1      -9.378   7.674  70.866  1.00  0.00    -0.157 NA 
HETATM   12  C   UNL     1      -9.320   8.422  69.699  1.00  0.00    -0.161 A  
HETATM   13  C   UNL     1      -8.496   9.545  69.479  1.00  0.00    -0.156 A  
HETATM   14  C   UNL     1      -8.543  10.213  68.252  1.00  0.00    -0.116 A  
HETATM   15  C   UNL     1      -9.393   9.774  67.242  1.00  0.00    -0.161 A  
HETATM   16  C   UNL     1     -10.217   8.662  67.431  1.00  0.00    -0.329 A  
HETATM   17  C   UNL     1     -10.162   7.997  68.669  1.00  0.00    -0.206 A  
HETATM   18  S   UNL     1     -11.033   6.610  69.196  1.00  0.00    -0.278 SA 
ENDBRANCH   9  10
ENDBRANCH   7   9
ENDBRANCH   4   7
TORSDOF 3
ENDMDL
MODEL      213
REMARK 921   NORMALIZED FREE ENERGY PREDICTED BY IDOCK:   -2.10 KCAL/MOL
REMARK 922        TOTAL FREE ENERGY PREDICTED BY IDOCK:   -2.74 KCAL/MOL
REMARK 923 INTER-LIGAND FREE ENERGY PREDICTED BY IDOCK:   -2.85 KCAL/MOL
REMARK 924 INTRA-LIGAND FREE ENERGY PREDICTED BY IDOCK:    0.11 KCAL/MOL
REMARK 927      BINDING AFFINITY PREDICTED BY RF-SCORE:    0.00 PKD
ROOT
HETATM    1  C   UNL     1      -9.763  11.832  67.519  1.00  0.00    -0.185 C  
HETATM    2  C   UNL     1      -9.735  11.134  68.876  1.00  0.00    -0.163 C  
HETATM    3  C   UNL     1     -10.703   9.950  68.932  1.00  0.00    -0.244 C  
HETATM    4  C   UNL     1     -10.507   8.947  67.778  1.00  0.00    -0.239 C  
HETATM    5  C   UNL     1     -10.555   9.703  66.436  1.00  0.00    -0.097 C  
HETATM    6  C   UNL     1      -9.543  10.848  66.376  1.00  0.00    -0.229 C  
ENDROOT
BRANCH   4   7
HETATM    7  N   UNL     1      -9.245   8.213  67.948  1.00  0.00    -0.132 N  
HETATM    8  H   UNL     1      -8.878   7.657  67.175  1.00  0.00     0.000 HD 
BRANCH   7   9
HETATM    9  S   UNL     1      -8.404   8.275  69.388  1.00  0.00    -0.122 SA 
BRANCH   9  10
HETATM   10  C   UNL     1      -8.889   6.744  70.110  1.00  0.00    -0.141 A  
HETATM   11  N   UNL     1      -8.553   5.594  69.570  1.00  0.00    -0.109 NA 
HETATM   12  C   UNL     1      -9.050   4.561  70.351  1.00  0.00    -0.111 A  
HETATM   13  C   UNL     1      -8.891   3.184  70.096  1.00  0.00    -0.147 A  
HETATM   14  C   UNL     1      -9.454   2.245  70.965  1.00  0.00    -0.217 A  
HETATM   15  C   UNL     1     -10.166   2.661  72.087  1.00  0.00    -0.163 A  
HETATM   16  C   UNL     1     -10.335   4.018  72.365  1.00  0.00    -0.207 A  
HETATM   17  C   UNL     1      -9.766   4.954  71.485  1.00  0.00    -0.172 A  
HETATM   18  S   UNL     1      -9.790   6.673  71.561  1.00  0.00    -0.170 SA 
ENDBRANCH   9  10
ENDBRANCH   7   9
ENDBRANCH   4   7
TORSDOF 3
ENDMDL
MODEL      214
REMARK 921   NORMALIZED FREE ENERGY PREDICTED BY IDOCK:   -2.09 KCAL/MOL
REMARK 922        TOTAL FREE ENERGY PREDICTED BY IDOCK:   -2.73 KCAL/MOL
REMARK 923 INTER-LIGAND FREE ENERGY PREDICTED BY IDOCK:   -2.51 KCAL/MOL
REMARK 924 INTRA-LIGAND FREE ENERGY PREDICTED BY IDOCK:   -0.22 KCAL/MOL
REMARK 927      BINDING AFFINITY PREDICTED BY RF-SCORE:    0.00 PKD
ROOT
HETATM    1  C   UNL     1      -9.433   9.128  66.468  1.00  0.00    -0.266 C  
HETATM    2  C   UNL     1      -8.308   9.540  67.415  1.00  0.00    -0.125 C  
HETATM    3  C   UNL     1      -8.517   8.985  68.826  1.00  0.00    -0.131 C  
HETATM    4  C   UNL     1      -8.750   7.461  68.855  1.00  0.00    -0.132 C  
HETATM    5  C   UNL     1      -9.899   7.106  67.890  1.00  0.00    -0.170 C  
HETATM    6  C   UNL     1      -9.648   7.619  66.472  1.00  0.00    -0.254 C  
ENDROOT
BRANCH   4   7
HETATM    7  N   UNL     1      -7.510   6.748  68.515  1.00  0.00    -0.090 N  
HETATM    8  H   UNL     1      -6.674   7.281  68.275  1.00  0.00     0.000 HD 
BRANCH   7   9
HETATM    9  S   UNL     1      -7.451   5.081  68.517  1.00  0.00    -0.074 SA 
BRANCH   9  10
HETATM   10  C   UNL     1      -8.274   4.730  70.033  1.00  0.00    -0.068 A  
HETATM   11  N   UNL     1      -7.874   5.256  71.168  1.00  0.00    -0.100 NA 
HETATM   12  C   UNL     1      -8.707   4.824  72.189  1.00  0.00    -0.124 A  
HETATM   13  C   UNL     1      -8.597   5.179  73.549  1.00  0.00    -0.112 A  
HETATM   14  C   UNL     1      -9.504   4.662  74.479  1.00  0.00    -0.141 A  
HETATM   15  C   UNL     1     -10.521   3.805  74.070  1.00  0.00    -0.262 A  
HETATM   16  C   UNL     1     -10.656   3.440  72.729  1.00  0.00    -0.169 A  
HETATM   17  C   UNL     1      -9.738   3.965  71.802  1.00  0.00    -0.173 A  
HETATM   18  S   UNL     1      -9.649   3.716  70.102  1.00  0.00    -0.123 SA 
ENDBRANCH   9  10
ENDBRANCH   7   9
ENDBRANCH   4   7
TORSDOF 3
ENDMDL
MODEL      215
REMARK 921   NORMALIZED FREE ENERGY PREDICTED BY IDOCK:   -2.05 KCAL/MOL
REMARK 922        TOTAL FREE ENERGY PREDICTED BY IDOCK:   -2.68 KCAL/MOL
REMARK 923 INTER-LIGAND FREE ENERGY PREDICTED BY IDOCK:   -2.46 KCAL/MOL
REMARK 924 INTRA-LIGAND FREE ENERGY PREDICTED BY IDOCK:   -0.22 KCAL/MOL
REMARK 927      BINDING AFFINITY PREDICTED BY RF-SCORE:    0.00 PKD
ROOT
HETATM    1  C   UNL     1     -10.245   8.775  71.980  1.00  0.00    -0.401 C  
HETATM    2  C   UNL     1     -10.950   7.509  71.497  1.00  0.00    -0.256 C  
HETATM    3  C   UNL     1     -11.383   7.618  70.033  1.00  0.00    -0.081 C  
HETATM    4  C   UNL     1     -10.235   8.021  69.086  1.00  0.00    -0.217 C  
HETATM    5  C   UNL     1      -9.569   9.306  69.615  1.00  0.00    -0.192 C  
HETATM    6  C   UNL     1      -9.092   9.162  71.061  1.00  0.00    -0.305 C  
ENDROOT
BRANCH   4   7
HETATM    7  N   UNL     1      -9.272   6.919  68.953  1.00  0.00    -0.133 N  
HETATM    8  H   UNL     1      -9.396   6.073  69.510  1.00  0.00     0.000 HD 
BRANCH   7   9
HETATM    9  S   UNL     1      -7.978   7.031  67.905  1.00  0.00    -0.115 SA 
BRANCH   9  10
HETATM   10  C   UNL     1      -8.159   5.528  67.007  1.00  0.00    -0.101 A  
HETATM   11  N   UNL     1      -7.461   5.290  65.920  1.00  0.00    -0.081 NA 
HETATM   12  C   UNL     1      -7.791   4.035  65.431  1.00  0.00    -0.089 A  
HETATM   13  C   UNL     1      -7.247   3.428  64.282  1.00  0.00    -0.058 A  
HETATM   14  C   UNL     1      -7.677   2.155  63.896  1.00  0.00    -0.061 A  
HETATM   15  C   UNL     1      -8.635   1.478  64.645  1.00  0.00    -0.093 A  
HETATM   16  C   UNL     1      -9.187   2.054  65.791  1.00  0.00     0.009 A  
HETATM   17  C   UNL     1      -8.749   3.334  66.169  1.00  0.00    -0.128 A  
HETATM   18  S   UNL     1      -9.224   4.291  67.518  1.00  0.00    -0.162 SA 
ENDBRANCH   9  10
ENDBRANCH   7   9
ENDBRANCH   4   7
TORSDOF 3
ENDMDL
MODEL      216
REMARK 921   NORMALIZED FREE ENERGY PREDICTED BY IDOCK:   -2.03 KCAL/MOL
REMARK 922        TOTAL FREE ENERGY PREDICTED BY IDOCK:   -2.66 KCAL/MOL
REMARK 923 INTER-LIGAND FREE ENERGY PREDICTED BY IDOCK:   -2.32 KCAL/MOL
REMARK 924 INTRA-LIGAND FREE ENERGY PREDICTED BY IDOCK:   -0.34 KCAL/MOL
REMARK 927      BINDING AFFINITY PREDICTED BY RF-SCORE:    0.00 PKD
ROOT
HETATM    1  C   UNL     1      -8.473   4.986  73.232  1.00  0.00    -0.110 C  
HETATM    2  C   UNL     1      -8.794   4.726  71.762  1.00  0.00    -0.139 C  
HETATM    3  C   UNL     1     -10.265   4.356  71.554  1.00  0.00    -0.167 C  
HETATM    4  C   UNL     1     -11.243   5.373  72.175  1.00  0.00    -0.130 C  
HETATM    5  C   UNL     1     -10.878   5.588  73.656  1.00  0.00    -0.294 C  
HETATM    6  C   UNL     1      -9.420   6.012  73.842  1.00  0.00    -0.146 C  
ENDROOT
BRANCH   4   7
HETATM    7  N   UNL     1     -11.219   6.632  71.416  1.00  0.00    -0.261 N  
HETATM    8  H   UNL     1     -10.881   7.484  71.866  1.00  0.00     0.000 HD 
BRANCH   7   9
HETATM    9  S   UNL     1     -11.739   6.689  69.832  1.00  0.00    -0.147 SA 
BRANCH   9  10
HETATM   10  C   UNL     1     -10.195   6.771  68.990  1.00  0.00    -0.178 A  
HETATM   11  N   UNL     1      -9.970   6.073  67.900  1.00  0.00    -0.123 NA 
HETATM   12  C   UNL     1      -8.688   6.340  67.443  1.00  0.00    -0.105 A  
HETATM   13  C   UNL     1      -8.087   5.782  66.297  1.00  0.00    -0.107 A  
HETATM   14  C   UNL     1      -6.779   6.135  65.954  1.00  0.00    -0.048 A  
HETATM   15  C   UNL     1      -6.066   7.041  66.734  1.00  0.00    -0.037 A  
HETATM   16  C   UNL     1      -6.638   7.612  67.872  1.00  0.00    -0.059 A  
HETATM   17  C   UNL     1      -7.954   7.250  68.208  1.00  0.00    -0.124 A  
HETATM   18  S   UNL     1      -8.924   7.783  69.525  1.00  0.00    -0.142 SA 
ENDBRANCH   9  10
ENDBRANCH   7   9
ENDBRANCH   4   7
TORSDOF 3
ENDMDL
MODEL      217
REMARK 921   NORMALIZED FREE ENERGY PREDICTED BY IDOCK:   -2.03 KCAL/MOL
REMARK 922        TOTAL FREE ENERGY PREDICTED BY IDOCK:   -2.66 KCAL/MOL
REMARK 923 INTER-LIGAND FREE ENERGY PREDICTED BY IDOCK:   -3.34 KCAL/MOL
REMARK 924 INTRA-LIGAND FREE ENERGY PREDICTED BY IDOCK:    0.69 KCAL/MOL
REMARK 927      BINDING AFFINITY PREDICTED BY RF-SCORE:    0.00 PKD
ROOT
HETATM    1  C   UNL     1      -7.531   9.324  66.190  1.00  0.00    -0.096 C  
HETATM    2  C   UNL     1      -8.629  10.297  66.611  1.00  0.00    -0.130 C  
HETATM    3  C   UNL     1     -10.024   9.681  66.474  1.00  0.00    -0.313 C  
HETATM    4  C   UNL     1     -10.165   8.324  67.192  1.00  0.00    -0.295 C  
HETATM    5  C   UNL     1      -9.039   7.382  66.721  1.00  0.00    -0.178 C  
HETATM    6  C   UNL     1      -7.650   7.991  66.918  1.00  0.00    -0.095 C  
ENDROOT
BRANCH   4   7
HETATM    7  N   UNL     1     -10.147   8.514  68.649  1.00  0.00    -0.186 N  
HETATM    8  H   UNL     1     -10.980   8.867  69.121  1.00  0.00     0.000 HD 
BRANCH   7   9
HETATM    9  S   UNL     1      -8.784   8.160  69.544  1.00  0.00    -0.143 SA 
BRANCH   9  10
HETATM   10  C   UNL     1      -9.434   6.967  70.664  1.00  0.00    -0.165 A  
HETATM   11  N   UNL     1      -8.845   5.807  70.848  1.00  0.00    -0.139 NA 
HETATM   12  C   UNL     1      -9.558   5.078  71.788  1.00  0.00    -0.154 A  
HETATM   13  C   UNL     1      -9.233   3.787  72.251  1.00  0.00    -0.163 A  
HETATM   14  C   UNL     1     -10.047   3.161  73.199  1.00  0.00    -0.210 A  
HETATM   15  C   UNL     1     -11.174   3.808  73.698  1.00  0.00    -0.288 A  
HETATM   16  C   UNL     1     -11.517   5.090  73.261  1.00  0.00    -0.339 A  
HETATM   17  C   UNL     1     -10.692   5.709  72.306  1.00  0.00    -0.230 A  
HETATM   18  S   UNL     1     -10.840   7.266  71.589  1.00  0.00    -0.221 SA 
ENDBRANCH   9  10
ENDBRANCH   7   9
ENDBRANCH   4   7
TORSDOF 3
ENDMDL
MODEL      218
REMARK 921   NORMALIZED FREE ENERGY PREDICTED BY IDOCK:   -2.00 KCAL/MOL
REMARK 922        TOTAL FREE ENERGY PREDICTED BY IDOCK:   -2.63 KCAL/MOL
REMARK 923 INTER-LIGAND FREE ENERGY PREDICTED BY IDOCK:   -2.44 KCAL/MOL
REMARK 924 INTRA-LIGAND FREE ENERGY PREDICTED BY IDOCK:   -0.19 KCAL/MOL
REMARK 927      BINDING AFFINITY PREDICTED BY RF-SCORE:    0.00 PKD
ROOT
HETATM    1  C   UNL     1      -8.692   4.775  73.387  1.00  0.00    -0.100 C  
HETATM    2  C   UNL     1      -8.149   4.368  72.019  1.00  0.00    -0.099 C  
HETATM    3  C   UNL     1      -9.272   4.108  71.012  1.00  0.00    -0.202 C  
HETATM    4  C   UNL     1     -10.273   5.275  70.898  1.00  0.00    -0.234 C  
HETATM    5  C   UNL     1     -10.793   5.635  72.304  1.00  0.00    -0.295 C  
HETATM    6  C   UNL     1      -9.661   5.947  73.282  1.00  0.00    -0.143 C  
ENDROOT
BRANCH   4   7
HETATM    7  N   UNL     1      -9.642   6.426  70.237  1.00  0.00    -0.164 N  
HETATM    8  H   UNL     1      -8.636   6.567  70.326  1.00  0.00     0.000 HD 
BRANCH   7   9
HETATM    9  S   UNL     1     -10.548   7.504  69.342  1.00  0.00    -0.198 SA 
BRANCH   9  10
HETATM   10  C   UNL     1      -9.414   7.885  68.050  1.00  0.00    -0.149 A  
HETATM   11  N   UNL     1      -9.810   8.010  66.804  1.00  0.00    -0.235 NA 
HETATM   12  C   UNL     1      -8.719   8.324  66.008  1.00  0.00    -0.155 A  
HETATM   13  C   UNL     1      -8.749   8.540  64.615  1.00  0.00    -0.023 A  
HETATM   14  C   UNL     1      -7.568   8.844  63.932  1.00  0.00    -0.121 A  
HETATM   15  C   UNL     1      -6.361   8.942  64.619  1.00  0.00    -0.066 A  
HETATM   16  C   UNL     1      -6.304   8.737  65.999  1.00  0.00    -0.057 A  
HETATM   17  C   UNL     1      -7.497   8.431  66.677  1.00  0.00    -0.082 A  
HETATM   18  S   UNL     1      -7.750   8.140  68.353  1.00  0.00    -0.115 SA 
ENDBRANCH   9  10
ENDBRANCH   7   9
ENDBRANCH   4   7
TORSDOF 3
ENDMDL
MODEL      219
REMARK 921   NORMALIZED FREE ENERGY PREDICTED BY IDOCK:   -2.00 KCAL/MOL
REMARK 922        TOTAL FREE ENERGY PREDICTED BY IDOCK:   -2.62 KCAL/MOL
REMARK 923 INTER-LIGAND FREE ENERGY PREDICTED BY IDOCK:   -2.89 KCAL/MOL
REMARK 924 INTRA-LIGAND FREE ENERGY PREDICTED BY IDOCK:    0.27 KCAL/MOL
REMARK 927      BINDING AFFINITY PREDICTED BY RF-SCORE:    0.00 PKD
ROOT
HETATM    1  C   UNL     1     -11.344   7.934  72.702  1.00  0.00    -0.468 C  
HETATM    2  C   UNL     1     -11.669   6.629  71.981  1.00  0.00    -0.354 C  
HETATM    3  C   UNL     1     -12.060   6.864  70.520  1.00  0.00    -0.315 C  
HETATM    4  C   UNL     1     -11.026   7.699  69.738  1.00  0.00    -0.170 C  
HETATM    5  C   UNL     1     -10.745   9.005  70.506  1.00  0.00    -0.285 C  
HETATM    6  C   UNL     1     -10.302   8.751  71.947  1.00  0.00    -0.414 C  
ENDROOT
BRANCH   4   7
HETATM    7  N   UNL     1      -9.800   6.919  69.519  1.00  0.00    -0.158 N  
HETATM    8  H   UNL     1      -9.850   6.039  69.004  1.00  0.00     0.000 HD 
BRANCH   7   9
HETATM    9  S   UNL     1      -8.329   7.450  70.099  1.00  0.00    -0.137 SA 
BRANCH   9  10
HETATM   10  C   UNL     1      -7.927   6.141  71.206  1.00  0.00    -0.113 A  
HETATM   11  N   UNL     1      -6.978   6.270  72.105  1.00  0.00    -0.073 NA 
HETATM   12  C   UNL     1      -6.888   5.100  72.844  1.00  0.00    -0.077 A  
HETATM   13  C   UNL     1      -5.988   4.859  73.902  1.00  0.00    -0.030 A  
HETATM   14  C   UNL     1      -6.000   3.626  74.560  1.00  0.00    -0.016 A  
HETATM   15  C   UNL     1      -6.900   2.634  74.182  1.00  0.00    -0.031 A  
HETATM   16  C   UNL     1      -7.805   2.847  73.140  1.00  0.00    -0.056 A  
HETATM   17  C   UNL     1      -7.785   4.090  72.485  1.00  0.00    -0.074 A  
HETATM   18  S   UNL     1      -8.768   4.652  71.190  1.00  0.00    -0.118 SA 
ENDBRANCH   9  10
ENDBRANCH   7   9
ENDBRANCH   4   7
TORSDOF 3
ENDMDL
MODEL      220
REMARK 921   NORMALIZED FREE ENERGY PREDICTED BY IDOCK:   -1.94 KCAL/MOL
REMARK 922        TOTAL FREE ENERGY PREDICTED BY IDOCK:   -2.55 KCAL/MOL
REMARK 923 INTER-LIGAND FREE ENERGY PREDICTED BY IDOCK:   -2.31 KCAL/MOL
REMARK 924 INTRA-LIGAND FREE ENERGY PREDICTED BY IDOCK:   -0.24 KCAL/MOL
REMARK 927      BINDING AFFINITY PREDICTED BY RF-SCORE:    0.00 PKD
ROOT
HETATM    1  C   UNL     1      -9.673  11.820  67.842  1.00  0.00    -0.185 C  
HETATM    2  C   UNL     1      -9.609  10.735  68.914  1.00  0.00    -0.204 C  
HETATM    3  C   UNL     1     -10.236   9.422  68.438  1.00  0.00    -0.224 C  
HETATM    4  C   UNL     1      -9.664   8.924  67.096  1.00  0.00    -0.184 C  
HETATM    5  C   UNL     1      -9.764  10.054  66.053  1.00  0.00    -0.301 C  
HETATM    6  C   UNL     1      -9.083  11.341  66.521  1.00  0.00    -0.193 C  
ENDROOT
BRANCH   4   7
HETATM    7  N   UNL     1      -8.281   8.460  67.271  1.00  0.00    -0.112 N  
HETATM    8  H   UNL     1      -7.510   9.041  66.939  1.00  0.00     0.000 HD 
BRANCH   7   9
HETATM    9  S   UNL     1      -7.952   6.999  68.005  1.00  0.00    -0.116 SA 
BRANCH   9  10
HETATM   10  C   UNL     1      -8.037   5.916  66.620  1.00  0.00    -0.102 A  
HETATM   11  N   UNL     1      -6.957   5.548  65.969  1.00  0.00    -0.065 NA 
HETATM   12  C   UNL     1      -7.314   4.688  64.942  1.00  0.00    -0.071 A  
HETATM   13  C   UNL     1      -6.428   4.082  64.028  1.00  0.00    -0.041 A  
HETATM   14  C   UNL     1      -6.925   3.237  63.032  1.00  0.00    -0.036 A  
HETATM   15  C   UNL     1      -8.291   2.984  62.939  1.00  0.00    -0.078 A  
HETATM   16  C   UNL     1      -9.190   3.568  63.833  1.00  0.00    -0.121 A  
HETATM   17  C   UNL     1      -8.680   4.416  64.831  1.00  0.00    -0.135 A  
HETATM   18  S   UNL     1      -9.519   5.264  66.071  1.00  0.00    -0.140 SA 
ENDBRANCH   9  10
ENDBRANCH   7   9
ENDBRANCH   4   7
TORSDOF 3
ENDMDL
MODEL      221
REMARK 921   NORMALIZED FREE ENERGY PREDICTED BY IDOCK:   -1.58 KCAL/MOL
REMARK 922        TOTAL FREE ENERGY PREDICTED BY IDOCK:   -2.13 KCAL/MOL
REMARK 923 INTER-LIGAND FREE ENERGY PREDICTED BY IDOCK:   -3.32 KCAL/MOL
REMARK 924 INTRA-LIGAND FREE ENERGY PREDICTED BY IDOCK:    1.19 KCAL/MOL
REMARK 927      BINDING AFFINITY PREDICTED BY RF-SCORE:    0.00 PKD
ROOT
HETATM    1  C   UNL     1      -5.668  10.044  70.538  1.00  0.00    -0.070 C  
HETATM    2  C   UNL     1      -5.807  10.881  69.269  1.00  0.00    -0.042 C  
HETATM    3  C   UNL     1      -5.567  10.049  68.006  1.00  0.00    -0.038 C  
HETATM    4  C   UNL     1      -6.433   8.775  67.940  1.00  0.00    -0.057 C  
HETATM    5  C   UNL     1      -6.246   7.968  69.239  1.00  0.00    -0.035 C  
HETATM    6  C   UNL     1      -6.544   8.797  70.489  1.00  0.00    -0.042 C  
ENDROOT
BRANCH   4   7
HETATM    7  N   UNL     1      -7.842   9.127  67.713  1.00  0.00    -0.100 N  
HETATM    8  H   UNL     1      -8.292   8.859  66.837  1.00  0.00     0.000 HD 
BRANCH   7   9
HETATM    9  S   UNL     1      -8.716   9.960  68.864  1.00  0.00    -0.149 SA 
BRANCH   9  10
HETATM   10  C   UNL     1      -9.696  11.000  67.836  1.00  0.00    -0.172 A  
HETATM   11  N   UNL     1      -9.402  11.186  66.569  1.00  0.00    -0.176 NA 
HETATM   12  C   UNL     1     -10.343  12.032  66.002  1.00  0.00    -0.238 A  
HETATM   13  C   UNL     1     -10.364  12.461  64.659  1.00  0.00    -0.332 A  
HETATM   14  C   UNL     1     -11.372  13.324  64.220  1.00  0.00    -0.428 A  
HETATM   15  C   UNL     1     -12.360  13.759  65.098  1.00  0.00    -0.476 A  
HETATM   16  C   UNL     1     -12.366  13.347  66.432  1.00  0.00    -0.381 A  
HETATM   17  C   UNL     1     -11.348  12.479  66.864  1.00  0.00    -0.326 A  
HETATM   18  S   UNL     1     -11.092  11.795  68.422  1.00  0.00    -0.261 SA 
ENDBRANCH   9  10
ENDBRANCH   7   9
ENDBRANCH   4   7
TORSDOF 3
ENDMDL
MODEL      222
REMARK 921   NORMALIZED FREE ENERGY PREDICTED BY IDOCK:   -1.44 KCAL/MOL
REMARK 922        TOTAL FREE ENERGY PREDICTED BY IDOCK:   -1.96 KCAL/MOL
REMARK 923 INTER-LIGAND FREE ENERGY PREDICTED BY IDOCK:   -1.75 KCAL/MOL
REMARK 924 INTRA-LIGAND FREE ENERGY PREDICTED BY IDOCK:   -0.21 KCAL/MOL
REMARK 927      BINDING AFFINITY PREDICTED BY RF-SCORE:    0.00 PKD
ROOT
HETATM    1  C   UNL     1      -7.747   6.286  66.122  1.00  0.00    -0.096 C  
HETATM    2  C   UNL     1      -8.514   5.185  65.395  1.00  0.00    -0.141 C  
HETATM    3  C   UNL     1      -7.819   3.827  65.516  1.00  0.00    -0.093 C  
HETATM    4  C   UNL     1      -7.506   3.430  66.973  1.00  0.00    -0.075 C  
HETATM    5  C   UNL     1      -6.724   4.571  67.651  1.00  0.00    -0.048 C  
HETATM    6  C   UNL     1      -7.458   5.910  67.570  1.00  0.00    -0.078 C  
ENDROOT
BRANCH   4   7
HETATM    7  N   UNL     1      -8.747   3.111  67.693  1.00  0.00    -0.108 N  
HETATM    8  H   UNL     1      -9.645   3.385  67.293  1.00  0.00     0.000 HD 
BRANCH   7   9
HETATM    9  S   UNL     1      -8.708   2.309  69.155  1.00  0.00    -0.092 SA 
BRANCH   9  10
HETATM   10  C   UNL     1      -8.472   3.660  70.259  1.00  0.00    -0.056 A  
HETATM   11  N   UNL     1      -9.300   4.680  70.281  1.00  0.00    -0.135 NA 
HETATM   12  C   UNL     1      -8.885   5.583  71.248  1.00  0.00    -0.135 A  
HETATM   13  C   UNL     1      -9.522   6.799  71.570  1.00  0.00    -0.156 A  
HETATM   14  C   UNL     1      -8.990   7.622  72.567  1.00  0.00    -0.191 A  
HETATM   15  C   UNL     1      -7.838   7.246  73.251  1.00  0.00    -0.115 A  
HETATM   16  C   UNL     1      -7.189   6.045  72.956  1.00  0.00    -0.089 A  
HETATM   17  C   UNL     1      -7.732   5.225  71.951  1.00  0.00    -0.110 A  
HETATM   18  S   UNL     1      -7.178   3.702  71.375  1.00  0.00    -0.033 SA 
ENDBRANCH   9  10
ENDBRANCH   7   9
ENDBRANCH   4   7
TORSDOF 3
ENDMDL
MODEL      223
REMARK 921   NORMALIZED FREE ENERGY PREDICTED BY IDOCK:   -1.27 KCAL/MOL
REMARK 922        TOTAL FREE ENERGY PREDICTED BY IDOCK:   -1.76 KCAL/MOL
REMARK 923 INTER-LIGAND FREE ENERGY PREDICTED BY IDOCK:   -2.08 KCAL/MOL
REMARK 924 INTRA-LIGAND FREE ENERGY PREDICTED BY IDOCK:    0.31 KCAL/MOL
REMARK 927      BINDING AFFINITY PREDICTED BY RF-SCORE:    0.00 PKD
ROOT
HETATM    1  C   UNL     1     -10.236   8.204  66.853  1.00  0.00    -0.387 C  
HETATM    2  C   UNL     1      -8.747   8.005  67.127  1.00  0.00    -0.134 C  
HETATM    3  C   UNL     1      -8.497   7.380  68.502  1.00  0.00    -0.125 C  
HETATM    4  C   UNL     1      -9.293   6.081  68.736  1.00  0.00    -0.122 C  
HETATM    5  C   UNL     1     -10.785   6.343  68.454  1.00  0.00    -0.349 C  
HETATM    6  C   UNL     1     -11.022   6.914  67.056  1.00  0.00    -0.404 C  
ENDROOT
BRANCH   4   7
HETATM    7  N   UNL     1      -8.759   4.997  67.898  1.00  0.00    -0.103 N  
HETATM    8  H   UNL     1      -8.431   5.207  66.954  1.00  0.00     0.000 HD 
BRANCH   7   9
HETATM    9  S   UNL     1      -8.682   3.431  68.467  1.00  0.00    -0.113 SA 
BRANCH   9  10
HETATM   10  C   UNL     1      -7.906   3.692  70.026  1.00  0.00    -0.047 A  
HETATM   11  N   UNL     1      -7.253   4.801  70.290  1.00  0.00    -0.049 NA 
HETATM   12  C   UNL     1      -6.762   4.743  71.585  1.00  0.00    -0.039 A  
HETATM   13  C   UNL     1      -6.012   5.748  72.229  1.00  0.00    -0.039 A  
HETATM   14  C   UNL     1      -5.571   5.555  73.542  1.00  0.00    -0.024 A  
HETATM   15  C   UNL     1      -5.874   4.379  74.222  1.00  0.00    -0.020 A  
HETATM   16  C   UNL     1      -6.619   3.369  73.609  1.00  0.00    -0.034 A  
HETATM   17  C   UNL     1      -7.057   3.572  72.289  1.00  0.00    -0.046 A  
HETATM   18  S   UNL     1      -7.989   2.535  71.282  1.00  0.00    -0.043 SA 
ENDBRANCH   9  10
ENDBRANCH   7   9
ENDBRANCH   4   7
TORSDOF 3
ENDMDL
MODEL      224
REMARK 921   NORMALIZED FREE ENERGY PREDICTED BY IDOCK:   -1.26 KCAL/MOL
REMARK 922        TOTAL FREE ENERGY PREDICTED BY IDOCK:   -1.75 KCAL/MOL
REMARK 923 INTER-LIGAND FREE ENERGY PREDICTED BY IDOCK:   -1.52 KCAL/MOL
REMARK 924 INTRA-LIGAND FREE ENERGY PREDICTED BY IDOCK:   -0.23 KCAL/MOL
REMARK 927      BINDING AFFINITY PREDICTED BY RF-SCORE:    0.00 PKD
ROOT
HETATM    1  C   UNL     1     -10.392  10.333  63.810  1.00  0.00     0.417 C  
HETATM    2  C   UNL     1     -10.411  11.701  64.489  1.00  0.00    -0.359 C  
HETATM    3  C   UNL     1     -10.898  11.614  65.937  1.00  0.00    -0.339 C  
HETATM    4  C   UNL     1     -10.129  10.576  66.779  1.00  0.00    -0.219 C  
HETATM    5  C   UNL     1     -10.151   9.217  66.052  1.00  0.00    -0.262 C  
HETATM    6  C   UNL     1      -9.609   9.311  64.625  1.00  0.00     0.253 C  
ENDROOT
BRANCH   4   7
HETATM    7  N   UNL     1      -8.757  11.039  67.032  1.00  0.00    -0.138 N  
HETATM    8  H   UNL     1      -8.029  10.856  66.340  1.00  0.00     0.000 HD 
BRANCH   7   9
HETATM    9  S   UNL     1      -8.373  11.860  68.432  1.00  0.00    -0.133 SA 
BRANCH   9  10
HETATM   10  C   UNL     1      -7.584  10.581  69.350  1.00  0.00    -0.145 A  
HETATM   11  N   UNL     1      -8.198   9.964  70.334  1.00  0.00    -0.183 NA 
HETATM   12  C   UNL     1      -7.354   9.001  70.865  1.00  0.00    -0.111 A  
HETATM   13  C   UNL     1      -7.661   8.133  71.933  1.00  0.00    -0.115 A  
HETATM   14  C   UNL     1      -6.710   7.209  72.374  1.00  0.00    -0.056 A  
HETATM   15  C   UNL     1      -5.462   7.134  71.762  1.00  0.00    -0.036 A  
HETATM   16  C   UNL     1      -5.133   7.978  70.700  1.00  0.00    -0.023 A  
HETATM   17  C   UNL     1      -6.096   8.904  70.263  1.00  0.00    -0.031 A  
HETATM   18  S   UNL     1      -5.997  10.056  68.989  1.00  0.00    -0.037 SA 
ENDBRANCH   9  10
ENDBRANCH   7   9
ENDBRANCH   4   7
TORSDOF 3
ENDMDL
MODEL      225
REMARK 921   NORMALIZED FREE ENERGY PREDICTED BY IDOCK:   -0.50 KCAL/MOL
REMARK 922        TOTAL FREE ENERGY PREDICTED BY IDOCK:   -0.86 KCAL/MOL
REMARK 923 INTER-LIGAND FREE ENERGY PREDICTED BY IDOCK:   -1.88 KCAL/MOL
REMARK 924 INTRA-LIGAND FREE ENERGY PREDICTED BY IDOCK:    1.02 KCAL/MOL
REMARK 927      BINDING AFFINITY PREDICTED BY RF-SCORE:    0.00 PKD
ROOT
HETATM    1  C   UNL     1      -7.517  10.040  66.865  1.00  0.00    -0.095 C  
HETATM    2  C   UNL     1      -8.646  10.785  67.573  1.00  0.00    -0.125 C  
HETATM    3  C   UNL     1      -9.952   9.987  67.565  1.00  0.00    -0.232 C  
HETATM    4  C   UNL     1      -9.794   8.553  68.110  1.00  0.00    -0.165 C  
HETATM    5  C   UNL     1      -8.651   7.848  67.354  1.00  0.00    -0.125 C  
HETATM    6  C   UNL     1      -7.339   8.631  67.419  1.00  0.00    -0.089 C  
ENDROOT
BRANCH   4   7
HETATM    7  N   UNL     1      -9.557   8.581  69.560  1.00  0.00    -0.169 N  
HETATM    8  H   UNL     1     -10.346   8.487  70.200  1.00  0.00     0.000 HD 
BRANCH   7   9
HETATM    9  S   UNL     1      -8.016   8.764  70.174  1.00  0.00    -0.118 SA 
BRANCH   9  10
HETATM   10  C   UNL     1      -7.963   7.423  71.315  1.00  0.00    -0.096 A  
HETATM   11  N   UNL     1      -6.866   6.724  71.500  1.00  0.00    -0.064 NA 
HETATM   12  C   UNL     1      -7.104   5.749  72.457  1.00  0.00    -0.085 A  
HETATM   13  C   UNL     1      -6.166   4.807  72.925  1.00  0.00    -0.030 A  
HETATM   14  C   UNL     1      -6.542   3.870  73.892  1.00  0.00    -0.047 A  
HETATM   15  C   UNL     1      -7.837   3.866  74.403  1.00  0.00    -0.082 A  
HETATM   16  C   UNL     1      -8.785   4.790  73.960  1.00  0.00    -0.108 A  
HETATM   17  C   UNL     1      -8.396   5.727  72.987  1.00  0.00    -0.118 A  
HETATM   18  S   UNL     1      -9.319   6.984  72.259  1.00  0.00    -0.135 SA 
ENDBRANCH   9  10
ENDBRANCH   7   9
ENDBRANCH   4   7
TORSDOF 3
ENDMDL
MODEL      226
REMARK 921   NORMALIZED FREE ENERGY PREDICTED BY IDOCK:   -0.16 KCAL/MOL
REMARK 922        TOTAL FREE ENERGY PREDICTED BY IDOCK:   -0.45 KCAL/MOL
REMARK 923 INTER-LIGAND FREE ENERGY PREDICTED BY IDOCK:   -2.31 KCAL/MOL
REMARK 924 INTRA-LIGAND FREE ENERGY PREDICTED BY IDOCK:    1.85 KCAL/MOL
REMARK 927      BINDING AFFINITY PREDICTED BY RF-SCORE:    0.00 PKD
ROOT
HETATM    1  C   UNL     1      -8.448  10.630  67.110  1.00  0.00    -0.128 C  
HETATM    2  C   UNL     1      -9.310  11.447  68.069  1.00  0.00    -0.171 C  
HETATM    3  C   UNL     1     -10.764  10.969  68.079  1.00  0.00    -0.260 C  
HETATM    4  C   UNL     1     -10.908   9.456  68.339  1.00  0.00    -0.109 C  
HETATM    5  C   UNL     1     -10.026   8.685  67.338  1.00  0.00    -0.270 C  
HETATM    6  C   UNL     1      -8.566   9.135  67.381  1.00  0.00    -0.115 C  
ENDROOT
BRANCH   4   7
HETATM    7  N   UNL     1     -10.560   9.142  69.732  1.00  0.00    -0.224 N  
HETATM    8  H   UNL     1     -11.302   8.939  70.402  1.00  0.00     0.000 HD 
BRANCH   7   9
HETATM    9  S   UNL     1      -8.969   9.113  70.233  1.00  0.00    -0.237 SA 
BRANCH   9  10
HETATM   10  C   UNL     1      -8.594   7.407  70.019  1.00  0.00    -0.140 A  
HETATM   11  N   UNL     1      -7.488   7.016  69.428  1.00  0.00    -0.094 NA 
HETATM   12  C   UNL     1      -7.445   5.630  69.410  1.00  0.00    -0.075 A  
HETATM   13  C   UNL     1      -6.411   4.843  68.864  1.00  0.00    -0.032 A  
HETATM   14  C   UNL     1      -6.499   3.449  68.908  1.00  0.00    -0.030 A  
HETATM   15  C   UNL     1      -7.599   2.830  69.494  1.00  0.00    -0.043 A  
HETATM   16  C   UNL     1      -8.635   3.585  70.047  1.00  0.00    -0.107 A  
HETATM   17  C   UNL     1      -8.537   4.986  69.997  1.00  0.00    -0.098 A  
HETATM   18  S   UNL     1      -9.631   6.174  70.593  1.00  0.00    -0.174 SA 
ENDBRANCH   9  10
ENDBRANCH   7   9
ENDBRANCH   4   7
TORSDOF 3
ENDMDL
MODEL      227
REMARK 921   NORMALIZED FREE ENERGY PREDICTED BY IDOCK:    1.42 KCAL/MOL
REMARK 922        TOTAL FREE ENERGY PREDICTED BY IDOCK:    1.40 KCAL/MOL
REMARK 923 INTER-LIGAND FREE ENERGY PREDICTED BY IDOCK:    0.37 KCAL/MOL
REMARK 924 INTRA-LIGAND FREE ENERGY PREDICTED BY IDOCK:    1.04 KCAL/MOL
REMARK 927      BINDING AFFINITY PREDICTED BY RF-SCORE:    0.00 PKD
ROOT
HETATM    1  C   UNL     1     -13.400  14.773  69.286  1.00  0.00     1.958 C  
HETATM    2  C   UNL     1     -13.190  15.915  70.277  1.00  0.00     0.748 C  
HETATM    3  C   UNL     1     -12.095  15.593  71.297  1.00  0.00    -0.463 C  
HETATM    4  C   UNL     1     -10.766  15.155  70.649  1.00  0.00    -0.121 C  
HETATM    5  C   UNL     1     -11.038  13.997  69.670  1.00  0.00    -0.154 C  
HETATM    6  C   UNL     1     -12.093  14.355  68.622  1.00  0.00    -0.274 C  
ENDROOT
BRANCH   4   7
HETATM    7  N   UNL     1     -10.123  16.297  69.983  1.00  0.00    -0.021 N  
HETATM    8  H   UNL     1      -9.870  17.120  70.530  1.00  0.00     0.000 HD 
BRANCH   7   9
HETATM    9  S   UNL     1      -9.800  16.265  68.347  1.00  0.00    -0.236 SA 
BRANCH   9  10
HETATM   10  C   UNL     1      -8.558  15.019  68.287  1.00  0.00    -0.156 A  
HETATM   11  N   UNL     1      -8.704  13.940  67.551  1.00  0.00    -0.181 NA 
HETATM   12  C   UNL     1      -7.576  13.144  67.680  1.00  0.00    -0.171 A  
HETATM   13  C   UNL     1      -7.360  11.907  67.039  1.00  0.00    -0.118 A  
HETATM   14  C   UNL     1      -6.175  11.203  67.265  1.00  0.00    -0.073 A  
HETATM   15  C   UNL     1      -5.200  11.717  68.115  1.00  0.00    -0.044 A  
HETATM   16  C   UNL     1      -5.385  12.942  68.759  1.00  0.00    -0.071 A  
HETATM   17  C   UNL     1      -6.581  13.642  68.526  1.00  0.00    -0.088 A  
HETATM   18  S   UNL     1      -7.092  15.160  69.155  1.00  0.00    -0.169 SA 
ENDBRANCH   9  10
ENDBRANCH   7   9
ENDBRANCH   4   7
TORSDOF 3
ENDMDL
MODEL      228
REMARK 921   NORMALIZED FREE ENERGY PREDICTED BY IDOCK:   18.20 KCAL/MOL
REMARK 922        TOTAL FREE ENERGY PREDICTED BY IDOCK:   21.12 KCAL/MOL
REMARK 923 INTER-LIGAND FREE ENERGY PREDICTED BY IDOCK:   20.99 KCAL/MOL
REMARK 924 INTRA-LIGAND FREE ENERGY PREDICTED BY IDOCK:    0.13 KCAL/MOL
REMARK 927      BINDING AFFINITY PREDICTED BY RF-SCORE:    0.00 PKD
ROOT
HETATM    1  C   UNL     1     -10.574  15.257  72.584  1.00  0.00     1.922 C  
HETATM    2  C   UNL     1      -9.804  15.234  71.265  1.00  0.00     1.788 C  
HETATM    3  C   UNL     1      -9.643  13.812  70.722  1.00  0.00     4.818 C  
HETATM    4  C   UNL     1     -10.976  13.046  70.611  1.00  0.00     2.086 C  
HETATM    5  C   UNL     1     -11.703  13.095  71.969  1.00  0.00     2.377 C  
HETATM    6  C   UNL     1     -11.906  14.525  72.470  1.00  0.00     0.039 C  
ENDROOT
BRANCH   4   7
HETATM    7  N   UNL     1     -11.798  13.608  69.529  1.00  0.00    -0.318 N  
HETATM    8  H   UNL     1     -12.786  13.358  69.467  1.00  0.00     0.000 HD 
BRANCH   7   9
HETATM    9  S   UNL     1     -11.139  14.645  68.401  1.00  0.00    -0.270 SA 
BRANCH   9  10
HETATM   10  C   UNL     1     -11.730  13.919  66.910  1.00  0.00    -0.399 A  
HETATM   11  N   UNL     1     -12.170  12.681  66.878  1.00  0.00    -0.454 NA 
HETATM   12  C   UNL     1     -12.584  12.378  65.589  1.00  0.00     0.337 A  
HETATM   13  C   UNL     1     -13.121  11.146  65.163  1.00  0.00     5.009 A  
HETATM   14  C   UNL     1     -13.492  10.973  63.827  1.00  0.00     3.068 A  
HETATM   15  C   UNL     1     -13.342  12.012  62.913  1.00  0.00     1.077 A  
HETATM   16  C   UNL     1     -12.817  13.244  63.309  1.00  0.00     0.430 A  
HETATM   17  C   UNL     1     -12.446  13.408  64.655  1.00  0.00    -0.331 A  
HETATM   18  S   UNL     1     -11.790  14.790  65.440  1.00  0.00    -0.191 SA 
ENDBRANCH   9  10
ENDBRANCH   7   9
ENDBRANCH   4   7
TORSDOF 3
ENDMDL
