MODEL        1
REMARK 921   NORMALIZED FREE ENERGY PREDICTED BY IDOCK:   -8.02 KCAL/MOL
REMARK 922        TOTAL FREE ENERGY PREDICTED BY IDOCK:  -10.55 KCAL/MOL
REMARK 923 INTER-LIGAND FREE ENERGY PREDICTED BY IDOCK:   -9.90 KCAL/MOL
REMARK 924 INTRA-LIGAND FREE ENERGY PREDICTED BY IDOCK:   -0.65 KCAL/MOL
REMARK 927      BINDING AFFINITY PREDICTED BY RF-SCORE:    0.00 PKD
ROOT
HETATM    1  C   UNL     1     -11.680  16.459  72.155  1.00  0.00    -0.368 C  
HETATM    2  N   UNL     1     -12.174  15.144  72.602  1.00  0.00    -0.369 N  
HETATM    3  C   UNL     1     -12.228  15.004  74.069  1.00  0.00    -0.501 C  
ENDROOT
BRANCH   2   4
HETATM    4  S   UNL     1     -13.499  14.486  71.747  1.00  0.00    -0.410 S  
HETATM    5  O   UNL     1     -13.994  15.503  70.834  1.00  0.00    -0.489 OA 
HETATM    6  O   UNL     1     -14.378  13.828  72.684  1.00  0.00    -0.678 OA 
BRANCH   4   7
HETATM    7  C   UNL     1     -12.713  13.230  70.750  1.00  0.00    -0.209 A  
HETATM    8  C   UNL     1     -12.148  13.596  69.519  1.00  0.00    -0.368 A  
HETATM    9  C   UNL     1     -11.545  12.691  68.617  1.00  0.00    -0.356 A  
HETATM   10  C   UNL     1     -11.533  11.360  69.071  1.00  0.00    -0.300 A  
HETATM   11  S   UNL     1     -10.814   9.993  68.217  1.00  0.00    -0.222 SA 
HETATM   12  C   UNL     1     -12.098  10.990  70.321  1.00  0.00    -0.448 A  
HETATM   13  C   UNL     1     -10.351  10.656  66.647  1.00  0.00    -0.241 A  
HETATM   14  C   UNL     1     -12.677  11.921  71.170  1.00  0.00    -0.384 A  
HETATM   15  C   UNL     1      -9.861   9.674  65.756  1.00  0.00    -0.373 A  
HETATM   16  C   UNL     1      -9.455   9.996  64.472  1.00  0.00    -0.359 A  
HETATM   17  C   UNL     1      -9.548  11.312  64.061  1.00  0.00    -0.261 A  
HETATM   18  C   UNL     1     -10.039  12.294  64.938  1.00  0.00    -0.274 A  
HETATM   19  C   UNL     1     -10.441  12.010  66.268  1.00  0.00    -0.273 A  
HETATM   20  C   UNL     1     -10.960  13.083  67.241  1.00  0.00    -0.288 C  
HETATM   21  C   UNL     1     -10.866  14.387  66.829  1.00  0.00    -0.301 C  
HETATM   22  C   UNL     1     -11.302  15.625  67.569  1.00  0.00    -0.198 C  
BRANCH  22  23
HETATM   23  C   UNL     1     -11.033  17.061  67.099  1.00  0.00     0.031 C  
BRANCH  23  24
HETATM   24  N   UNL     1     -10.065  17.720  68.018  1.00  0.00    -0.335 NA 
HETATM   25  C   UNL     1      -8.634  17.398  67.778  1.00  0.00    -0.227 C  
HETATM   26  C   UNL     1      -7.951  18.105  66.575  1.00  0.00    -0.262 C  
HETATM   27  N   UNL     1      -8.280  19.530  66.353  1.00  0.00    -0.319 NA 
HETATM   28  C   UNL     1      -9.698  19.794  66.651  1.00  0.00    -0.407 C  
HETATM   29  C   UNL     1      -7.409  20.421  67.115  1.00  0.00    -0.310 C  
HETATM   30  C   UNL     1     -10.189  19.187  67.982  1.00  0.00    -0.401 C  
ENDBRANCH  23  24
ENDBRANCH  22  23
ENDBRANCH   4   7
ENDBRANCH   2   4
TORSDOF 4
ENDMDL
MODEL        2
REMARK 921   NORMALIZED FREE ENERGY PREDICTED BY IDOCK:   -7.57 KCAL/MOL
REMARK 922        TOTAL FREE ENERGY PREDICTED BY IDOCK:   -9.99 KCAL/MOL
REMARK 923 INTER-LIGAND FREE ENERGY PREDICTED BY IDOCK:   -9.21 KCAL/MOL
REMARK 924 INTRA-LIGAND FREE ENERGY PREDICTED BY IDOCK:   -0.77 KCAL/MOL
REMARK 927      BINDING AFFINITY PREDICTED BY RF-SCORE:    0.00 PKD
ROOT
HETATM    1  C   UNL     1      -8.332   6.640  68.006  1.00  0.00    -0.117 C  
HETATM    2  N   UNL     1      -8.527   8.086  67.795  1.00  0.00    -0.128 N  
HETATM    3  C   UNL     1      -7.263   8.839  67.681  1.00  0.00    -0.080 C  
ENDROOT
BRANCH   2   4
HETATM    4  S   UNL     1      -9.764   8.548  66.712  1.00  0.00    -0.259 S  
HETATM    5  O   UNL     1     -10.906   7.676  66.935  1.00  0.00    -0.328 OA 
HETATM    6  O   UNL     1      -9.193   8.715  65.396  1.00  0.00    -0.154 OA 
BRANCH   4   7
HETATM    7  C   UNL     1     -10.215  10.163  67.327  1.00  0.00    -0.222 A  
HETATM    8  C   UNL     1     -10.859  10.260  68.570  1.00  0.00    -0.281 A  
HETATM    9  C   UNL     1     -11.312  11.469  69.142  1.00  0.00    -0.351 A  
HETATM   10  C   UNL     1     -11.038  12.605  68.359  1.00  0.00    -0.265 A  
HETATM   11  S   UNL     1     -11.419  14.271  68.802  1.00  0.00    -0.317 SA 
HETATM   12  C   UNL     1     -10.377  12.509  67.105  1.00  0.00    -0.230 A  
HETATM   13  C   UNL     1     -12.376  14.120  70.278  1.00  0.00    -0.356 A  
HETATM   14  C   UNL     1      -9.953  11.294  66.590  1.00  0.00    -0.242 A  
HETATM   15  C   UNL     1     -12.891  15.356  70.731  1.00  0.00    -0.524 A  
HETATM   16  C   UNL     1     -13.675  15.444  71.870  1.00  0.00    -0.603 A  
HETATM   17  C   UNL     1     -13.962  14.284  72.563  1.00  0.00    -0.519 A  
HETATM   18  C   UNL     1     -13.459  13.050  72.117  1.00  0.00    -0.638 A  
HETATM   19  C   UNL     1     -12.633  12.921  70.972  1.00  0.00    -0.376 A  
HETATM   20  C   UNL     1     -12.062  11.577  70.489  1.00  0.00    -0.472 C  
HETATM   21  C   UNL     1     -12.243  10.497  71.315  1.00  0.00    -0.472 C  
HETATM   22  C   UNL     1     -11.800   9.075  71.089  1.00  0.00    -0.362 C  
BRANCH  22  23
HETATM   23  C   UNL     1     -11.917   7.951  72.127  1.00  0.00    -0.332 C  
BRANCH  23  24
HETATM   24  N   UNL     1     -10.560   7.537  72.578  1.00  0.00    -0.246 NA 
HETATM   25  C   UNL     1     -10.526   6.638  73.762  1.00  0.00    -0.333 C  
HETATM   26  C   UNL     1     -10.884   5.146  73.516  1.00  0.00    -0.303 C  
HETATM   27  N   UNL     1     -10.358   4.518  72.284  1.00  0.00    -0.190 NA 
HETATM   28  C   UNL     1     -10.375   5.472  71.161  1.00  0.00    -0.234 C  
HETATM   29  C   UNL     1      -9.022   3.960  72.478  1.00  0.00    -0.108 C  
HETATM   30  C   UNL     1      -9.808   6.865  71.505  1.00  0.00    -0.169 C  
ENDBRANCH  23  24
ENDBRANCH  22  23
ENDBRANCH   4   7
ENDBRANCH   2   4
TORSDOF 4
ENDMDL
MODEL        3
REMARK 921   NORMALIZED FREE ENERGY PREDICTED BY IDOCK:   -7.35 KCAL/MOL
REMARK 922        TOTAL FREE ENERGY PREDICTED BY IDOCK:   -9.72 KCAL/MOL
REMARK 923 INTER-LIGAND FREE ENERGY PREDICTED BY IDOCK:   -9.04 KCAL/MOL
REMARK 924 INTRA-LIGAND FREE ENERGY PREDICTED BY IDOCK:   -0.68 KCAL/MOL
REMARK 927      BINDING AFFINITY PREDICTED BY RF-SCORE:    0.00 PKD
ROOT
HETATM    1  C   UNL     1     -12.338  12.456  63.988  1.00  0.00    -0.488 C  
HETATM    2  N   UNL     1     -11.152  11.656  64.343  1.00  0.00    -0.329 N  
HETATM    3  C   UNL     1     -10.636  10.842  63.225  1.00  0.00     0.023 C  
ENDROOT
BRANCH   2   4
HETATM    4  S   UNL     1      -9.969  12.417  65.311  1.00  0.00    -0.167 S  
HETATM    5  O   UNL     1      -9.825  13.789  64.850  1.00  0.00    -0.212 OA 
HETATM    6  O   UNL     1      -8.826  11.542  65.427  1.00  0.00    -0.071 OA 
BRANCH   4   7
HETATM    7  C   UNL     1     -10.776  12.485  66.903  1.00  0.00    -0.243 A  
HETATM    8  C   UNL     1     -10.812  13.706  67.593  1.00  0.00    -0.268 A  
HETATM    9  C   UNL     1     -11.373  13.880  68.878  1.00  0.00    -0.319 A  
HETATM   10  C   UNL     1     -11.930  12.707  69.418  1.00  0.00    -0.260 A  
HETATM   11  S   UNL     1     -12.754  12.586  70.975  1.00  0.00    -0.124 SA 
HETATM   12  C   UNL     1     -11.901  11.472  68.716  1.00  0.00    -0.394 A  
HETATM   13  C   UNL     1     -12.505  14.167  71.721  1.00  0.00    -0.276 A  
HETATM   14  C   UNL     1     -11.338  11.358  67.454  1.00  0.00    -0.359 A  
HETATM   15  C   UNL     1     -12.992  14.234  73.047  1.00  0.00    -0.512 A  
HETATM   16  C   UNL     1     -12.882  15.388  73.805  1.00  0.00    -0.651 A  
HETATM   17  C   UNL     1     -12.269  16.490  73.241  1.00  0.00    -0.469 A  
HETATM   18  C   UNL     1     -11.778  16.432  71.925  1.00  0.00    -0.419 A  
HETATM   19  C   UNL     1     -11.893  15.278  71.109  1.00  0.00    -0.399 A  
HETATM   20  C   UNL     1     -11.376  15.213  69.661  1.00  0.00    -0.302 C  
HETATM   21  C   UNL     1     -10.936  16.388  69.110  1.00  0.00    -0.324 C  
HETATM   22  C   UNL     1     -10.375  16.609  67.728  1.00  0.00    -0.306 C  
BRANCH  22  23
HETATM   23  C   UNL     1     -10.035  17.983  67.136  1.00  0.00    -0.325 C  
BRANCH  23  24
HETATM   24  N   UNL     1      -8.605  18.015  66.724  1.00  0.00    -0.248 NA 
HETATM   25  C   UNL     1      -8.153  19.277  66.081  1.00  0.00    -0.284 C  
HETATM   26  C   UNL     1      -7.894  20.486  67.022  1.00  0.00    -0.294 C  
HETATM   27  N   UNL     1      -7.224  20.209  68.311  1.00  0.00    -0.277 NA 
HETATM   28  C   UNL     1      -7.680  18.926  68.874  1.00  0.00    -0.286 C  
HETATM   29  C   UNL     1      -5.769  20.243  68.194  1.00  0.00    -0.230 C  
HETATM   30  C   UNL     1      -7.702  17.763  67.860  1.00  0.00    -0.225 C  
ENDBRANCH  23  24
ENDBRANCH  22  23
ENDBRANCH   4   7
ENDBRANCH   2   4
TORSDOF 4
ENDMDL
MODEL        4
REMARK 921   NORMALIZED FREE ENERGY PREDICTED BY IDOCK:   -7.24 KCAL/MOL
REMARK 922        TOTAL FREE ENERGY PREDICTED BY IDOCK:   -9.58 KCAL/MOL
REMARK 923 INTER-LIGAND FREE ENERGY PREDICTED BY IDOCK:   -9.09 KCAL/MOL
REMARK 924 INTRA-LIGAND FREE ENERGY PREDICTED BY IDOCK:   -0.49 KCAL/MOL
REMARK 927      BINDING AFFINITY PREDICTED BY RF-SCORE:    0.00 PKD
ROOT
HETATM    1  C   UNL     1      -9.067  10.679  62.516  1.00  0.00    -0.298 C  
HETATM    2  N   UNL     1      -9.729  11.294  63.681  1.00  0.00    -0.291 N  
HETATM    3  C   UNL     1     -11.182  11.481  63.500  1.00  0.00    -0.322 C  
ENDROOT
BRANCH   2   4
HETATM    4  S   UNL     1      -9.241  10.748  65.224  1.00  0.00    -0.212 S  
HETATM    5  O   UNL     1      -7.788  10.789  65.276  1.00  0.00    -0.092 OA 
HETATM    6  O   UNL     1      -9.968   9.542  65.544  1.00  0.00    -0.304 OA 
BRANCH   4   7
HETATM    7  C   UNL     1      -9.837  12.052  66.288  1.00  0.00    -0.231 A  
HETATM    8  C   UNL     1     -10.424  11.711  67.515  1.00  0.00    -0.228 A  
HETATM    9  C   UNL     1     -10.979  12.642  68.421  1.00  0.00    -0.284 A  
HETATM   10  C   UNL     1     -10.873  13.979  67.997  1.00  0.00    -0.246 A  
HETATM   11  S   UNL     1     -11.415  15.389  68.910  1.00  0.00    -0.362 SA 
HETATM   12  C   UNL     1     -10.271  14.326  66.758  1.00  0.00    -0.272 A  
HETATM   13  C   UNL     1     -12.272  14.707  70.294  1.00  0.00    -0.331 A  
HETATM   14  C   UNL     1      -9.740  13.370  65.906  1.00  0.00    -0.197 A  
HETATM   15  C   UNL     1     -12.898  15.691  71.095  1.00  0.00    -0.540 A  
HETATM   16  C   UNL     1     -13.628  15.353  72.223  1.00  0.00    -0.606 A  
HETATM   17  C   UNL     1     -13.748  14.018  72.555  1.00  0.00    -0.651 A  
HETATM   18  C   UNL     1     -13.134  13.033  71.762  1.00  0.00    -0.469 A  
HETATM   19  C   UNL     1     -12.358  13.338  70.615  1.00  0.00    -0.416 A  
HETATM   20  C   UNL     1     -11.667  12.268  69.754  1.00  0.00    -0.368 C  
HETATM   21  C   UNL     1     -11.684  10.984  70.234  1.00  0.00    -0.445 C  
HETATM   22  C   UNL     1     -11.097   9.750  69.598  1.00  0.00    -0.251 C  
BRANCH  22  23
HETATM   23  C   UNL     1     -11.035   8.371  70.267  1.00  0.00    -0.232 C  
BRANCH  23  24
HETATM   24  N   UNL     1     -10.654   8.521  71.698  1.00  0.00    -0.259 NA 
HETATM   25  C   UNL     1     -11.212   7.496  72.620  1.00  0.00    -0.348 C  
HETATM   26  C   UNL     1     -10.536   6.098  72.601  1.00  0.00    -0.208 C  
HETATM   27  N   UNL     1      -9.060   6.060  72.503  1.00  0.00    -0.136 NA 
HETATM   28  C   UNL     1      -8.567   7.126  71.613  1.00  0.00    -0.114 C  
HETATM   29  C   UNL     1      -8.419   6.132  73.814  1.00  0.00    -0.123 C  
HETATM   30  C   UNL     1      -9.192   8.512  71.879  1.00  0.00    -0.255 C  
ENDBRANCH  23  24
ENDBRANCH  22  23
ENDBRANCH   4   7
ENDBRANCH   2   4
TORSDOF 4
ENDMDL
MODEL        5
REMARK 921   NORMALIZED FREE ENERGY PREDICTED BY IDOCK:   -7.23 KCAL/MOL
REMARK 922        TOTAL FREE ENERGY PREDICTED BY IDOCK:   -9.57 KCAL/MOL
REMARK 923 INTER-LIGAND FREE ENERGY PREDICTED BY IDOCK:   -9.34 KCAL/MOL
REMARK 924 INTRA-LIGAND FREE ENERGY PREDICTED BY IDOCK:   -0.23 KCAL/MOL
REMARK 927      BINDING AFFINITY PREDICTED BY RF-SCORE:    0.00 PKD
ROOT
HETATM    1  C   UNL     1     -12.380  12.143  63.521  1.00  0.00    -0.574 C  
HETATM    2  N   UNL     1     -11.131  11.741  64.193  1.00  0.00    -0.353 N  
HETATM    3  C   UNL     1      -9.937  11.858  63.334  1.00  0.00    -0.410 C  
ENDROOT
BRANCH   2   4
HETATM    4  S   UNL     1     -10.930  12.245  65.812  1.00  0.00    -0.313 S  
HETATM    5  O   UNL     1     -12.186  12.820  66.264  1.00  0.00    -0.515 OA 
HETATM    6  O   UNL     1      -9.688  12.974  65.923  1.00  0.00    -0.252 OA 
BRANCH   4   7
HETATM    7  C   UNL     1     -10.734  10.688  66.666  1.00  0.00    -0.181 A  
HETATM    8  C   UNL     1     -11.028  10.625  68.037  1.00  0.00    -0.336 A  
HETATM    9  C   UNL     1     -10.866   9.471  68.835  1.00  0.00    -0.177 A  
HETATM   10  C   UNL     1     -10.397   8.351  68.126  1.00  0.00    -0.204 A  
HETATM   11  S   UNL     1     -10.136   6.743  68.806  1.00  0.00    -0.167 SA 
HETATM   12  C   UNL     1     -10.108   8.412  66.736  1.00  0.00    -0.373 A  
HETATM   13  C   UNL     1     -10.383   6.960  70.541  1.00  0.00    -0.204 A  
HETATM   14  C   UNL     1     -10.286   9.573  65.999  1.00  0.00    -0.242 A  
HETATM   15  C   UNL     1     -10.094   5.796  71.290  1.00  0.00    -0.253 A  
HETATM   16  C   UNL     1     -10.218   5.769  72.669  1.00  0.00    -0.212 A  
HETATM   17  C   UNL     1     -10.623   6.920  73.316  1.00  0.00    -0.353 A  
HETATM   18  C   UNL     1     -10.908   8.083  72.581  1.00  0.00    -0.436 A  
HETATM   19  C   UNL     1     -10.818   8.145  71.167  1.00  0.00    -0.268 A  
HETATM   20  C   UNL     1     -11.146   9.408  70.354  1.00  0.00    -0.311 C  
HETATM   21  C   UNL     1     -11.704  10.456  71.040  1.00  0.00    -0.430 C  
HETATM   22  C   UNL     1     -12.113  11.803  70.501  1.00  0.00    -0.439 C  
BRANCH  22  23
HETATM   23  C   UNL     1     -12.861  12.873  71.307  1.00  0.00    -0.270 C  
BRANCH  23  24
HETATM   24  N   UNL     1     -13.158  14.044  70.437  1.00  0.00    -0.083 NA 
HETATM   25  C   UNL     1     -13.053  15.373  71.096  1.00  0.00    -0.498 C  
HETATM   26  C   UNL     1     -11.620  15.925  71.328  1.00  0.00    -0.452 C  
HETATM   27  N   UNL     1     -10.634  15.726  70.244  1.00  0.00    -0.315 NA 
HETATM   28  C   UNL     1     -10.819  14.413  69.602  1.00  0.00    -0.111 C  
HETATM   29  C   UNL     1     -10.675  16.803  69.258  1.00  0.00    -0.324 C  
HETATM   30  C   UNL     1     -12.284  14.081  69.252  1.00  0.00    -0.278 C  
ENDBRANCH  23  24
ENDBRANCH  22  23
ENDBRANCH   4   7
ENDBRANCH   2   4
TORSDOF 4
ENDMDL
MODEL        6
REMARK 921   NORMALIZED FREE ENERGY PREDICTED BY IDOCK:   -7.16 KCAL/MOL
REMARK 922        TOTAL FREE ENERGY PREDICTED BY IDOCK:   -9.49 KCAL/MOL
REMARK 923 INTER-LIGAND FREE ENERGY PREDICTED BY IDOCK:   -8.86 KCAL/MOL
REMARK 924 INTRA-LIGAND FREE ENERGY PREDICTED BY IDOCK:   -0.62 KCAL/MOL
REMARK 927      BINDING AFFINITY PREDICTED BY RF-SCORE:    0.00 PKD
ROOT
HETATM    1  C   UNL     1      -8.933  11.134  62.611  1.00  0.00    -0.308 C  
HETATM    2  N   UNL     1      -9.757  11.581  63.750  1.00  0.00    -0.279 N  
HETATM    3  C   UNL     1     -11.199  11.643  63.442  1.00  0.00    -0.310 C  
ENDROOT
BRANCH   2   4
HETATM    4  S   UNL     1      -9.355  10.954  65.286  1.00  0.00    -0.221 S  
HETATM    5  O   UNL     1      -7.906  10.958  65.409  1.00  0.00    -0.065 OA 
HETATM    6  O   UNL     1     -10.124   9.753  65.516  1.00  0.00    -0.301 OA 
BRANCH   4   7
HETATM    7  C   UNL     1      -9.973  12.223  66.381  1.00  0.00    -0.228 A  
HETATM    8  C   UNL     1     -10.557  11.842  67.598  1.00  0.00    -0.241 A  
HETATM    9  C   UNL     1     -11.128  12.743  68.525  1.00  0.00    -0.300 A  
HETATM   10  C   UNL     1     -11.041  14.091  68.134  1.00  0.00    -0.260 A  
HETATM   11  S   UNL     1     -11.606  15.471  69.080  1.00  0.00    -0.377 SA 
HETATM   12  C   UNL     1     -10.442  14.478  66.905  1.00  0.00    -0.269 A  
HETATM   13  C   UNL     1     -12.456  14.742  70.445  1.00  0.00    -0.349 A  
HETATM   14  C   UNL     1      -9.895  13.550  66.031  1.00  0.00    -0.277 A  
HETATM   15  C   UNL     1     -13.098  15.696  71.269  1.00  0.00    -0.542 A  
HETATM   16  C   UNL     1     -13.824  15.320  72.386  1.00  0.00    -0.641 A  
HETATM   17  C   UNL     1     -13.926  13.976  72.685  1.00  0.00    -0.428 A  
HETATM   18  C   UNL     1     -13.295  13.020  71.870  1.00  0.00    -0.539 A  
HETATM   19  C   UNL     1     -12.522  13.365  70.732  1.00  0.00    -0.418 A  
HETATM   20  C   UNL     1     -11.812  12.326  69.847  1.00  0.00    -0.383 C  
HETATM   21  C   UNL     1     -11.811  11.030  70.295  1.00  0.00    -0.456 C  
HETATM   22  C   UNL     1     -11.205   9.821  69.631  1.00  0.00    -0.216 C  
BRANCH  22  23
HETATM   23  C   UNL     1     -11.124   8.427  70.266  1.00  0.00    -0.213 C  
BRANCH  23  24
HETATM   24  N   UNL     1      -9.806   7.808  69.958  1.00  0.00    -0.180 NA 
HETATM   25  C   UNL     1      -9.661   6.382  70.353  1.00  0.00    -0.165 C  
HETATM   26  C   UNL     1     -10.353   5.331  69.442  1.00  0.00    -0.243 C  
HETATM   27  N   UNL     1     -10.277   5.548  67.980  1.00  0.00    -0.180 NA 
HETATM   28  C   UNL     1     -10.380   6.981  67.657  1.00  0.00    -0.211 C  
HETATM   29  C   UNL     1      -9.070   4.964  67.399  1.00  0.00    -0.117 C  
HETATM   30  C   UNL     1      -9.485   7.891  68.522  1.00  0.00    -0.148 C  
ENDBRANCH  23  24
ENDBRANCH  22  23
ENDBRANCH   4   7
ENDBRANCH   2   4
TORSDOF 4
ENDMDL
MODEL        7
REMARK 921   NORMALIZED FREE ENERGY PREDICTED BY IDOCK:   -7.12 KCAL/MOL
REMARK 922        TOTAL FREE ENERGY PREDICTED BY IDOCK:   -9.43 KCAL/MOL
REMARK 923 INTER-LIGAND FREE ENERGY PREDICTED BY IDOCK:   -8.62 KCAL/MOL
REMARK 924 INTRA-LIGAND FREE ENERGY PREDICTED BY IDOCK:   -0.81 KCAL/MOL
REMARK 927      BINDING AFFINITY PREDICTED BY RF-SCORE:    0.00 PKD
ROOT
HETATM    1  C   UNL     1     -10.628   7.666  67.041  1.00  0.00    -0.336 C  
HETATM    2  N   UNL     1      -9.491   8.550  67.358  1.00  0.00    -0.146 N  
HETATM    3  C   UNL     1      -8.325   7.832  67.908  1.00  0.00    -0.123 C  
ENDROOT
BRANCH   2   4
HETATM    4  S   UNL     1      -9.137   9.785  66.234  1.00  0.00    -0.165 S  
HETATM    5  O   UNL     1     -10.012   9.613  65.086  1.00  0.00    -0.263 OA 
HETATM    6  O   UNL     1      -7.704   9.877  66.077  1.00  0.00    -0.102 OA 
BRANCH   4   7
HETATM    7  C   UNL     1      -9.692  11.246  67.097  1.00  0.00    -0.181 A  
HETATM    8  C   UNL     1     -10.474  11.095  68.252  1.00  0.00    -0.215 A  
HETATM    9  C   UNL     1     -11.017  12.168  68.994  1.00  0.00    -0.255 A  
HETATM   10  C   UNL     1     -10.684  13.436  68.486  1.00  0.00    -0.262 A  
HETATM   11  S   UNL     1     -11.152  14.982  69.200  1.00  0.00    -0.287 SA 
HETATM   12  C   UNL     1      -9.885  13.590  67.321  1.00  0.00    -0.237 A  
HETATM   13  C   UNL     1     -12.265  14.541  70.498  1.00  0.00    -0.332 A  
HETATM   14  C   UNL     1      -9.376  12.501  66.631  1.00  0.00    -0.236 A  
HETATM   15  C   UNL     1     -12.857  15.663  71.122  1.00  0.00    -0.540 A  
HETATM   16  C   UNL     1     -13.765  15.523  72.159  1.00  0.00    -0.614 A  
HETATM   17  C   UNL     1     -14.101  14.249  72.573  1.00  0.00    -0.437 A  
HETATM   18  C   UNL     1     -13.522  13.128  71.956  1.00  0.00    -0.598 A  
HETATM   19  C   UNL     1     -12.569  13.229  70.909  1.00  0.00    -0.386 A  
HETATM   20  C   UNL     1     -11.916  12.006  70.242  1.00  0.00    -0.398 C  
HETATM   21  C   UNL     1     -12.162  10.785  70.814  1.00  0.00    -0.480 C  
HETATM   22  C   UNL     1     -11.663   9.435  70.366  1.00  0.00    -0.195 C  
BRANCH  22  23
HETATM   23  C   UNL     1     -11.869   8.129  71.144  1.00  0.00    -0.279 C  
BRANCH  23  24
HETATM   24  N   UNL     1     -10.610   7.334  71.137  1.00  0.00    -0.222 NA 
HETATM   25  C   UNL     1      -9.517   7.860  71.997  1.00  0.00    -0.174 C  
HETATM   26  C   UNL     1      -9.650   7.612  73.525  1.00  0.00    -0.290 C  
HETATM   27  N   UNL     1     -10.153   6.288  73.954  1.00  0.00    -0.240 NA 
HETATM   28  C   UNL     1     -11.198   5.802  73.038  1.00  0.00    -0.246 C  
HETATM   29  C   UNL     1      -9.077   5.309  74.090  1.00  0.00    -0.118 C  
HETATM   30  C   UNL     1     -10.843   5.937  71.543  1.00  0.00    -0.266 C  
ENDBRANCH  23  24
ENDBRANCH  22  23
ENDBRANCH   4   7
ENDBRANCH   2   4
TORSDOF 4
ENDMDL
MODEL        8
REMARK 921   NORMALIZED FREE ENERGY PREDICTED BY IDOCK:   -7.04 KCAL/MOL
REMARK 922        TOTAL FREE ENERGY PREDICTED BY IDOCK:   -9.33 KCAL/MOL
REMARK 923 INTER-LIGAND FREE ENERGY PREDICTED BY IDOCK:   -8.77 KCAL/MOL
REMARK 924 INTRA-LIGAND FREE ENERGY PREDICTED BY IDOCK:   -0.56 KCAL/MOL
REMARK 927      BINDING AFFINITY PREDICTED BY RF-SCORE:    0.00 PKD
ROOT
HETATM    1  C   UNL     1      -8.090   6.708  67.683  1.00  0.00    -0.119 C  
HETATM    2  N   UNL     1      -8.620   8.081  67.767  1.00  0.00    -0.128 N  
HETATM    3  C   UNL     1      -7.575   9.102  67.977  1.00  0.00    -0.085 C  
ENDROOT
BRANCH   2   4
HETATM    4  S   UNL     1      -9.854   8.502  66.664  1.00  0.00    -0.286 S  
HETATM    5  O   UNL     1     -10.985   7.618  66.896  1.00  0.00    -0.253 OA 
HETATM    6  O   UNL     1      -9.274   8.648  65.350  1.00  0.00    -0.154 OA 
BRANCH   4   7
HETATM    7  C   UNL     1     -10.334  10.122  67.241  1.00  0.00    -0.237 A  
HETATM    8  C   UNL     1     -10.929  10.244  68.505  1.00  0.00    -0.294 A  
HETATM    9  C   UNL     1     -11.398  11.458  69.053  1.00  0.00    -0.345 A  
HETATM   10  C   UNL     1     -11.196  12.573  68.220  1.00  0.00    -0.266 A  
HETATM   11  S   UNL     1     -11.615  14.241  68.619  1.00  0.00    -0.338 SA 
HETATM   12  C   UNL     1     -10.585  12.452  66.942  1.00  0.00    -0.251 A  
HETATM   13  C   UNL     1     -12.504  14.113  70.140  1.00  0.00    -0.331 A  
HETATM   14  C   UNL     1     -10.141  11.233  66.453  1.00  0.00    -0.260 A  
HETATM   15  C   UNL     1     -13.041  15.348  70.571  1.00  0.00    -0.318 A  
HETATM   16  C   UNL     1     -13.779  15.452  71.738  1.00  0.00    -0.610 A  
HETATM   17  C   UNL     1     -13.998  14.309  72.483  1.00  0.00    -0.519 A  
HETATM   18  C   UNL     1     -13.472  13.077  72.060  1.00  0.00    -0.584 A  
HETATM   19  C   UNL     1     -12.690  12.933  70.886  1.00  0.00    -0.291 A  
HETATM   20  C   UNL     1     -12.095  11.591  70.427  1.00  0.00    -0.471 C  
HETATM   21  C   UNL     1     -12.204  10.537  71.297  1.00  0.00    -0.472 C  
HETATM   22  C   UNL     1     -11.722   9.122  71.103  1.00  0.00    -0.380 C  
BRANCH  22  23
HETATM   23  C   UNL     1     -11.758   8.034  72.184  1.00  0.00    -0.344 C  
BRANCH  23  24
HETATM   24  N   UNL     1     -10.627   7.087  71.984  1.00  0.00    -0.209 NA 
HETATM   25  C   UNL     1      -9.627   7.491  70.961  1.00  0.00    -0.160 C  
HETATM   26  C   UNL     1      -8.613   8.593  71.374  1.00  0.00    -0.192 C  
HETATM   27  N   UNL     1      -8.059   8.524  72.744  1.00  0.00    -0.373 NA 
HETATM   28  C   UNL     1      -9.083   8.074  73.701  1.00  0.00    -0.231 C  
HETATM   29  C   UNL     1      -6.868   7.680  72.814  1.00  0.00    -0.070 C  
HETATM   30  C   UNL     1      -9.889   6.843  73.235  1.00  0.00    -0.201 C  
ENDBRANCH  23  24
ENDBRANCH  22  23
ENDBRANCH   4   7
ENDBRANCH   2   4
TORSDOF 4
ENDMDL
MODEL        9
REMARK 921   NORMALIZED FREE ENERGY PREDICTED BY IDOCK:   -7.03 KCAL/MOL
REMARK 922        TOTAL FREE ENERGY PREDICTED BY IDOCK:   -9.33 KCAL/MOL
REMARK 923 INTER-LIGAND FREE ENERGY PREDICTED BY IDOCK:   -8.74 KCAL/MOL
REMARK 924 INTRA-LIGAND FREE ENERGY PREDICTED BY IDOCK:   -0.59 KCAL/MOL
REMARK 927      BINDING AFFINITY PREDICTED BY RF-SCORE:    0.00 PKD
ROOT
HETATM    1  C   UNL     1     -14.364   7.914  71.460  1.00  0.00    -0.445 C  
HETATM    2  N   UNL     1     -13.126   8.708  71.359  1.00  0.00    -0.286 N  
HETATM    3  C   UNL     1     -13.201  10.005  72.058  1.00  0.00    -0.443 C  
ENDROOT
BRANCH   2   4
HETATM    4  S   UNL     1     -11.651   7.863  71.525  1.00  0.00    -0.281 S  
HETATM    5  O   UNL     1     -11.957   6.448  71.669  1.00  0.00    -0.323 OA 
HETATM    6  O   UNL     1     -10.824   8.553  72.488  1.00  0.00    -0.337 OA 
BRANCH   4   7
HETATM    7  C   UNL     1     -10.915   8.075  69.912  1.00  0.00    -0.172 A  
HETATM    8  C   UNL     1     -11.107   9.287  69.233  1.00  0.00    -0.031 A  
HETATM    9  C   UNL     1     -10.622   9.560  67.935  1.00  0.00    -0.299 A  
HETATM   10  C   UNL     1      -9.890   8.501  67.367  1.00  0.00    -0.187 A  
HETATM   11  S   UNL     1      -9.104   8.530  65.787  1.00  0.00    -0.127 SA 
HETATM   12  C   UNL     1      -9.688   7.276  68.058  1.00  0.00    -0.157 A  
HETATM   13  C   UNL     1      -9.639  10.049  65.063  1.00  0.00    -0.297 A  
HETATM   14  C   UNL     1     -10.187   7.062  69.334  1.00  0.00    -0.197 A  
HETATM   15  C   UNL     1      -9.211  10.204  63.725  1.00  0.00    -0.321 A  
HETATM   16  C   UNL     1      -9.537  11.326  62.982  1.00  0.00    -0.397 A  
HETATM   17  C   UNL     1     -10.312  12.305  63.574  1.00  0.00    -0.443 A  
HETATM   18  C   UNL     1     -10.746  12.158  64.902  1.00  0.00    -0.336 A  
HETATM   19  C   UNL     1     -10.413  11.037  65.704  1.00  0.00    -0.293 A  
HETATM   20  C   UNL     1     -10.868  10.878  67.164  1.00  0.00    -0.337 C  
HETATM   21  C   UNL     1     -11.485  11.958  67.740  1.00  0.00    -0.389 C  
HETATM   22  C   UNL     1     -12.034  12.074  69.138  1.00  0.00    -0.326 C  
BRANCH  22  23
HETATM   23  C   UNL     1     -12.585  13.368  69.753  1.00  0.00     0.080 C  
BRANCH  23  24
HETATM   24  N   UNL     1     -12.081  13.518  71.146  1.00  0.00    -0.192 NA 
HETATM   25  C   UNL     1     -11.290  14.749  71.411  1.00  0.00    -0.074 C  
HETATM   26  C   UNL     1     -12.090  16.072  71.571  1.00  0.00    -0.452 C  
HETATM   27  N   UNL     1     -13.356  16.009  72.335  1.00  0.00    -0.352 NA 
HETATM   28  C   UNL     1     -14.068  14.748  72.065  1.00  0.00    -0.510 C  
HETATM   29  C   UNL     1     -13.143  16.196  73.768  1.00  0.00    -0.358 C  
HETATM   30  C   UNL     1     -13.177  13.491  72.130  1.00  0.00    -0.458 C  
ENDBRANCH  23  24
ENDBRANCH  22  23
ENDBRANCH   4   7
ENDBRANCH   2   4
TORSDOF 4
ENDMDL
MODEL       10
REMARK 921   NORMALIZED FREE ENERGY PREDICTED BY IDOCK:   -6.98 KCAL/MOL
REMARK 922        TOTAL FREE ENERGY PREDICTED BY IDOCK:   -9.26 KCAL/MOL
REMARK 923 INTER-LIGAND FREE ENERGY PREDICTED BY IDOCK:   -8.57 KCAL/MOL
REMARK 924 INTRA-LIGAND FREE ENERGY PREDICTED BY IDOCK:   -0.69 KCAL/MOL
REMARK 927      BINDING AFFINITY PREDICTED BY RF-SCORE:    0.00 PKD
ROOT
HETATM    1  C   UNL     1      -8.925  14.715  66.598  1.00  0.00    -0.238 C  
HETATM    2  N   UNL     1     -10.292  14.286  66.950  1.00  0.00    -0.267 N  
HETATM    3  C   UNL     1     -11.100  15.352  67.573  1.00  0.00    -0.315 C  
ENDROOT
BRANCH   2   4
HETATM    4  S   UNL     1     -11.109  13.305  65.816  1.00  0.00    -0.281 S  
HETATM    5  O   UNL     1     -10.393  13.386  64.553  1.00  0.00    -0.413 OA 
HETATM    6  O   UNL     1     -12.524  13.582  65.894  1.00  0.00    -0.444 OA 
BRANCH   4   7
HETATM    7  C   UNL     1     -10.829  11.667  66.468  1.00  0.00    -0.284 A  
HETATM    8  C   UNL     1     -11.134  11.411  67.813  1.00  0.00    -0.323 A  
HETATM    9  C   UNL     1     -10.912  10.176  68.461  1.00  0.00    -0.278 A  
HETATM   10  C   UNL     1     -10.367   9.185  67.624  1.00  0.00    -0.255 A  
HETATM   11  S   UNL     1     -10.017   7.521  68.099  1.00  0.00    -0.179 SA 
HETATM   12  C   UNL     1     -10.066   9.441  66.259  1.00  0.00    -0.328 A  
HETATM   13  C   UNL     1     -10.296   7.500  69.843  1.00  0.00    -0.223 A  
HETATM   14  C   UNL     1     -10.306  10.674  65.673  1.00  0.00    -0.285 A  
HETATM   15  C   UNL     1      -9.946   6.268  70.442  1.00  0.00    -0.214 A  
HETATM   16  C   UNL     1     -10.084   6.057  71.804  1.00  0.00    -0.222 A  
HETATM   17  C   UNL     1     -10.566   7.089  72.585  1.00  0.00    -0.275 A  
HETATM   18  C   UNL     1     -10.912   8.319  71.999  1.00  0.00    -0.374 A  
HETATM   19  C   UNL     1     -10.810   8.566  70.606  1.00  0.00    -0.255 A  
HETATM   20  C   UNL     1     -11.205   9.902  69.954  1.00  0.00    -0.298 C  
HETATM   21  C   UNL     1     -11.834  10.819  70.757  1.00  0.00    -0.443 C  
HETATM   22  C   UNL     1     -12.317  12.197  70.386  1.00  0.00    -0.315 C  
BRANCH  22  23
HETATM   23  C   UNL     1     -13.139  13.108  71.307  1.00  0.00    -0.193 C  
BRANCH  23  24
HETATM   24  N   UNL     1     -12.732  14.526  71.107  1.00  0.00    -0.316 NA 
HETATM   25  C   UNL     1     -13.738  15.544  71.512  1.00  0.00    -0.460 C  
HETATM   26  C   UNL     1     -13.884  15.814  73.035  1.00  0.00    -0.421 C  
HETATM   27  N   UNL     1     -12.641  15.864  73.835  1.00  0.00    -0.573 NA 
HETATM   28  C   UNL     1     -11.669  14.866  73.357  1.00  0.00    -0.051 C  
HETATM   29  C   UNL     1     -12.052  17.201  73.856  1.00  0.00     0.157 C  
HETATM   30  C   UNL     1     -11.485  14.844  71.825  1.00  0.00    -0.202 C  
ENDBRANCH  23  24
ENDBRANCH  22  23
ENDBRANCH   4   7
ENDBRANCH   2   4
TORSDOF 4
ENDMDL
MODEL       11
REMARK 921   NORMALIZED FREE ENERGY PREDICTED BY IDOCK:   -6.78 KCAL/MOL
REMARK 922        TOTAL FREE ENERGY PREDICTED BY IDOCK:   -9.01 KCAL/MOL
REMARK 923 INTER-LIGAND FREE ENERGY PREDICTED BY IDOCK:   -8.44 KCAL/MOL
REMARK 924 INTRA-LIGAND FREE ENERGY PREDICTED BY IDOCK:   -0.57 KCAL/MOL
REMARK 927      BINDING AFFINITY PREDICTED BY RF-SCORE:    0.00 PKD
ROOT
HETATM    1  C   UNL     1      -8.473  19.066  66.947  1.00  0.00    -0.290 C  
HETATM    2  N   UNL     1      -9.763  18.464  66.565  1.00  0.00    -0.334 N  
HETATM    3  C   UNL     1     -10.599  19.348  65.729  1.00  0.00    -0.400 C  
ENDROOT
BRANCH   2   4
HETATM    4  S   UNL     1      -9.743  16.819  66.110  1.00  0.00    -0.270 S  
HETATM    5  O   UNL     1      -8.357  16.381  66.069  1.00  0.00    -0.319 OA 
HETATM    6  O   UNL     1     -10.621  16.637  64.978  1.00  0.00    -0.683 OA 
BRANCH   4   7
HETATM    7  C   UNL     1     -10.495  16.031  67.525  1.00  0.00    -0.297 A  
HETATM    8  C   UNL     1     -10.409  14.636  67.650  1.00  0.00    -0.233 A  
HETATM    9  C   UNL     1     -11.003  13.890  68.692  1.00  0.00    -0.281 A  
HETATM   10  C   UNL     1     -11.688  14.678  69.636  1.00  0.00    -0.313 A  
HETATM   11  S   UNL     1     -12.496  14.071  71.084  1.00  0.00    -0.378 SA 
HETATM   12  C   UNL     1     -11.768  16.091  69.514  1.00  0.00    -0.275 A  
HETATM   13  C   UNL     1     -12.418  12.315  70.921  1.00  0.00    -0.276 A  
HETATM   14  C   UNL     1     -11.164  16.774  68.470  1.00  0.00    -0.176 A  
HETATM   15  C   UNL     1     -13.130  11.634  71.936  1.00  0.00    -0.490 A  
HETATM   16  C   UNL     1     -13.195  10.252  71.976  1.00  0.00    -0.516 A  
HETATM   17  C   UNL     1     -12.554   9.533  70.986  1.00  0.00    -0.331 A  
HETATM   18  C   UNL     1     -11.848  10.200  69.970  1.00  0.00    -0.253 A  
HETATM   19  C   UNL     1     -11.736  11.613  69.908  1.00  0.00    -0.414 A  
HETATM   20  C   UNL     1     -10.949  12.350  68.811  1.00  0.00    -0.287 C  
HETATM   21  C   UNL     1     -10.199  11.576  67.964  1.00  0.00    -0.205 C  
HETATM   22  C   UNL     1      -9.346  12.029  66.806  1.00  0.00    -0.206 C  
BRANCH  22  23
HETATM   23  C   UNL     1      -8.424  11.113  65.993  1.00  0.00    -0.138 C  
BRANCH  23  24
HETATM   24  N   UNL     1      -9.213   9.994  65.407  1.00  0.00    -0.192 NA 
HETATM   25  C   UNL     1      -9.322   9.995  63.925  1.00  0.00    -0.263 C  
HETATM   26  C   UNL     1      -8.076   9.513  63.132  1.00  0.00    -0.149 C  
HETATM   27  N   UNL     1      -7.344   8.344  63.668  1.00  0.00    -0.099 NA 
HETATM   28  C   UNL     1      -7.310   8.376  65.140  1.00  0.00    -0.081 C  
HETATM   29  C   UNL     1      -7.894   7.081  63.183  1.00  0.00    -0.110 C  
HETATM   30  C   UNL     1      -8.672   8.680  65.798  1.00  0.00    -0.181 C  
ENDBRANCH  23  24
ENDBRANCH  22  23
ENDBRANCH   4   7
ENDBRANCH   2   4
TORSDOF 4
ENDMDL
MODEL       12
REMARK 921   NORMALIZED FREE ENERGY PREDICTED BY IDOCK:   -6.74 KCAL/MOL
REMARK 922        TOTAL FREE ENERGY PREDICTED BY IDOCK:   -8.97 KCAL/MOL
REMARK 923 INTER-LIGAND FREE ENERGY PREDICTED BY IDOCK:   -8.35 KCAL/MOL
REMARK 924 INTRA-LIGAND FREE ENERGY PREDICTED BY IDOCK:   -0.61 KCAL/MOL
REMARK 927      BINDING AFFINITY PREDICTED BY RF-SCORE:    0.00 PKD
ROOT
HETATM    1  C   UNL     1     -12.477  13.904  65.163  1.00  0.00    -0.453 C  
HETATM    2  N   UNL     1     -11.959  12.588  64.747  1.00  0.00    -0.388 N  
HETATM    3  C   UNL     1     -12.539  12.103  63.479  1.00  0.00    -0.506 C  
ENDROOT
BRANCH   2   4
HETATM    4  S   UNL     1     -10.285  12.319  64.945  1.00  0.00    -0.266 S  
HETATM    5  O   UNL     1      -9.754  13.386  65.779  1.00  0.00    -0.230 OA 
HETATM    6  O   UNL     1      -9.705  12.015  63.658  1.00  0.00    -0.291 OA 
BRANCH   4   7
HETATM    7  C   UNL     1     -10.260  10.829  65.929  1.00  0.00    -0.259 A  
HETATM    8  C   UNL     1     -10.699  10.887  67.260  1.00  0.00    -0.317 A  
HETATM    9  C   UNL     1     -10.681   9.794  68.155  1.00  0.00    -0.280 A  
HETATM   10  C   UNL     1     -10.197   8.602  67.586  1.00  0.00    -0.239 A  
HETATM   11  S   UNL     1     -10.091   7.044  68.408  1.00  0.00    -0.171 SA 
HETATM   12  C   UNL     1      -9.760   8.540  66.235  1.00  0.00    -0.300 A  
HETATM   13  C   UNL     1     -10.508   7.408  70.085  1.00  0.00    -0.220 A  
HETATM   14  C   UNL     1      -9.801   9.646  65.399  1.00  0.00    -0.322 A  
HETATM   15  C   UNL     1     -10.359   6.296  70.945  1.00  0.00    -0.253 A  
HETATM   16  C   UNL     1     -10.628   6.384  72.300  1.00  0.00    -0.242 A  
HETATM   17  C   UNL     1     -11.041   7.598  72.813  1.00  0.00    -0.437 A  
HETATM   18  C   UNL     1     -11.187   8.711  71.967  1.00  0.00    -0.434 A  
HETATM   19  C   UNL     1     -10.945   8.656  70.570  1.00  0.00    -0.266 A  
HETATM   20  C   UNL     1     -11.122   9.864  69.635  1.00  0.00    -0.279 C  
HETATM   21  C   UNL     1     -11.696  10.985  70.176  1.00  0.00    -0.442 C  
HETATM   22  C   UNL     1     -11.976  12.301  69.497  1.00  0.00    -0.333 C  
BRANCH  22  23
HETATM   23  C   UNL     1     -12.751  13.462  70.134  1.00  0.00     0.040 C  
BRANCH  23  24
HETATM   24  N   UNL     1     -12.310  13.650  71.544  1.00  0.00    -0.235 NA 
HETATM   25  C   UNL     1     -11.435  14.826  71.789  1.00  0.00    -0.063 C  
HETATM   26  C   UNL     1     -12.130  16.215  71.836  1.00  0.00    -0.476 C  
HETATM   27  N   UNL     1     -13.434  16.296  72.530  1.00  0.00    -0.011 NA 
HETATM   28  C   UNL     1     -14.234  15.083  72.286  1.00  0.00    -0.497 C  
HETATM   29  C   UNL     1     -13.282  16.545  73.961  1.00  0.00     0.394 C  
HETATM   30  C   UNL     1     -13.454  13.764  72.464  1.00  0.00    -0.578 C  
ENDBRANCH  23  24
ENDBRANCH  22  23
ENDBRANCH   4   7
ENDBRANCH   2   4
TORSDOF 4
ENDMDL
MODEL       13
REMARK 921   NORMALIZED FREE ENERGY PREDICTED BY IDOCK:   -6.71 KCAL/MOL
REMARK 922        TOTAL FREE ENERGY PREDICTED BY IDOCK:   -8.93 KCAL/MOL
REMARK 923 INTER-LIGAND FREE ENERGY PREDICTED BY IDOCK:   -8.40 KCAL/MOL
REMARK 924 INTRA-LIGAND FREE ENERGY PREDICTED BY IDOCK:   -0.54 KCAL/MOL
REMARK 927      BINDING AFFINITY PREDICTED BY RF-SCORE:    0.00 PKD
ROOT
HETATM    1  C   UNL     1     -11.182  15.923  64.726  1.00  0.00    -0.355 C  
HETATM    2  N   UNL     1     -10.995  15.001  65.862  1.00  0.00    -0.337 N  
HETATM    3  C   UNL     1     -10.725  15.689  67.139  1.00  0.00    -0.314 C  
ENDROOT
BRANCH   2   4
HETATM    4  S   UNL     1     -12.052  13.663  65.951  1.00  0.00    -0.464 S  
HETATM    5  O   UNL     1     -13.237  13.972  65.168  1.00  0.00    -0.768 OA 
HETATM    6  O   UNL     1     -12.153  13.240  67.328  1.00  0.00    -0.357 OA 
BRANCH   4   7
HETATM    7  C   UNL     1     -11.147  12.412  65.054  1.00  0.00    -0.304 A  
HETATM    8  C   UNL     1     -10.659  11.297  65.751  1.00  0.00    -0.306 A  
HETATM    9  C   UNL     1      -9.887  10.267  65.169  1.00  0.00    -0.389 A  
HETATM   10  C   UNL     1      -9.660  10.436  63.791  1.00  0.00    -0.310 A  
HETATM   11  S   UNL     1      -8.783   9.312  62.751  1.00  0.00    -0.180 SA 
HETATM   12  C   UNL     1     -10.162  11.561  63.082  1.00  0.00    -0.389 A  
HETATM   13  C   UNL     1      -8.116   8.118  63.867  1.00  0.00    -0.114 A  
HETATM   14  C   UNL     1     -10.916  12.544  63.705  1.00  0.00    -0.507 A  
HETATM   15  C   UNL     1      -7.263   7.184  63.233  1.00  0.00    -0.071 A  
HETATM   16  C   UNL     1      -6.636   6.174  63.942  1.00  0.00    -0.037 A  
HETATM   17  C   UNL     1      -6.848   6.096  65.305  1.00  0.00    -0.048 A  
HETATM   18  C   UNL     1      -7.690   7.021  65.945  1.00  0.00    -0.101 A  
HETATM   19  C   UNL     1      -8.370   8.054  65.251  1.00  0.00    -0.151 A  
HETATM   20  C   UNL     1      -9.309   9.059  65.942  1.00  0.00    -0.306 C  
HETATM   21  C   UNL     1      -9.608   8.820  67.258  1.00  0.00    -0.214 C  
HETATM   22  C   UNL     1     -10.484   9.639  68.171  1.00  0.00    -0.266 C  
BRANCH  22  23
HETATM   23  C   UNL     1     -10.883   9.227  69.594  1.00  0.00    -0.212 C  
BRANCH  23  24
HETATM   24  N   UNL     1     -10.279   7.908  69.926  1.00  0.00    -0.205 NA 
HETATM   25  C   UNL     1      -9.586   7.834  71.239  1.00  0.00    -0.157 C  
HETATM   26  C   UNL     1     -10.488   7.722  72.499  1.00  0.00    -0.284 C  
HETATM   27  N   UNL     1     -11.672   6.841  72.408  1.00  0.00    -0.251 NA 
HETATM   28  C   UNL     1     -12.286   6.924  71.072  1.00  0.00    -0.377 C  
HETATM   29  C   UNL     1     -11.357   5.457  72.756  1.00  0.00    -0.296 C  
HETATM   30  C   UNL     1     -11.280   6.827  69.906  1.00  0.00    -0.326 C  
ENDBRANCH  23  24
ENDBRANCH  22  23
ENDBRANCH   4   7
ENDBRANCH   2   4
TORSDOF 4
ENDMDL
MODEL       14
REMARK 921   NORMALIZED FREE ENERGY PREDICTED BY IDOCK:   -6.70 KCAL/MOL
REMARK 922        TOTAL FREE ENERGY PREDICTED BY IDOCK:   -8.92 KCAL/MOL
REMARK 923 INTER-LIGAND FREE ENERGY PREDICTED BY IDOCK:   -8.38 KCAL/MOL
REMARK 924 INTRA-LIGAND FREE ENERGY PREDICTED BY IDOCK:   -0.54 KCAL/MOL
REMARK 927      BINDING AFFINITY PREDICTED BY RF-SCORE:    0.00 PKD
ROOT
HETATM    1  C   UNL     1      -9.538   7.210  73.368  1.00  0.00    -0.208 C  
HETATM    2  N   UNL     1     -10.377   6.676  72.280  1.00  0.00    -0.195 N  
HETATM    3  C   UNL     1     -10.965   5.357  72.584  1.00  0.00    -0.268 C  
ENDROOT
BRANCH   2   4
HETATM    4  S   UNL     1     -11.410   7.781  71.488  1.00  0.00    -0.263 S  
HETATM    5  O   UNL     1     -11.264   9.076  72.133  1.00  0.00    -0.351 OA 
HETATM    6  O   UNL     1     -12.708   7.169  71.321  1.00  0.00    -0.371 OA 
BRANCH   4   7
HETATM    7  C   UNL     1     -10.651   7.915  69.877  1.00  0.00    -0.242 A  
HETATM    8  C   UNL     1     -10.862   9.078  69.122  1.00  0.00    -0.110 A  
HETATM    9  C   UNL     1     -10.361   9.284  67.817  1.00  0.00    -0.292 A  
HETATM   10  C   UNL     1      -9.591   8.213  67.328  1.00  0.00    -0.163 A  
HETATM   11  S   UNL     1      -8.778   8.167  65.762  1.00  0.00    -0.132 SA 
HETATM   12  C   UNL     1      -9.370   7.038  68.096  1.00  0.00    -0.125 A  
HETATM   13  C   UNL     1      -9.340   9.624  64.938  1.00  0.00    -0.242 A  
HETATM   14  C   UNL     1      -9.885   6.889  69.374  1.00  0.00    -0.161 A  
HETATM   15  C   UNL     1      -8.891   9.709  63.600  1.00  0.00    -0.256 A  
HETATM   16  C   UNL     1      -9.234  10.775  62.784  1.00  0.00    -0.346 A  
HETATM   17  C   UNL     1     -10.044  11.766  63.302  1.00  0.00    -0.448 A  
HETATM   18  C   UNL     1     -10.499  11.688  64.629  1.00  0.00    -0.354 A  
HETATM   19  C   UNL     1     -10.151  10.627  65.504  1.00  0.00    -0.343 A  
HETATM   20  C   UNL     1     -10.628  10.545  66.964  1.00  0.00    -0.310 C  
HETATM   21  C   UNL     1     -11.284  11.641  67.461  1.00  0.00    -0.355 C  
HETATM   22  C   UNL     1     -11.861  11.827  68.841  1.00  0.00    -0.381 C  
BRANCH  22  23
HETATM   23  C   UNL     1     -12.457  13.140  69.366  1.00  0.00     0.170 C  
BRANCH  23  24
HETATM   24  N   UNL     1     -12.040  13.354  70.779  1.00  0.00    -0.316 NA 
HETATM   25  C   UNL     1     -11.415  14.672  71.069  1.00  0.00    -0.161 C  
HETATM   26  C   UNL     1     -12.374  15.889  71.182  1.00  0.00    -0.384 C  
HETATM   27  N   UNL     1     -13.657  15.677  71.888  1.00  0.00    -0.467 NA 
HETATM   28  C   UNL     1     -14.200  14.339  71.597  1.00  0.00    -0.388 C  
HETATM   29  C   UNL     1     -13.534  15.892  73.328  1.00  0.00    -0.509 C  
HETATM   30  C   UNL     1     -13.168  13.198  71.712  1.00  0.00    -0.403 C  
ENDBRANCH  23  24
ENDBRANCH  22  23
ENDBRANCH   4   7
ENDBRANCH   2   4
TORSDOF 4
ENDMDL
MODEL       15
REMARK 921   NORMALIZED FREE ENERGY PREDICTED BY IDOCK:   -6.69 KCAL/MOL
REMARK 922        TOTAL FREE ENERGY PREDICTED BY IDOCK:   -8.90 KCAL/MOL
REMARK 923 INTER-LIGAND FREE ENERGY PREDICTED BY IDOCK:   -8.23 KCAL/MOL
REMARK 924 INTRA-LIGAND FREE ENERGY PREDICTED BY IDOCK:   -0.68 KCAL/MOL
REMARK 927      BINDING AFFINITY PREDICTED BY RF-SCORE:    0.00 PKD
ROOT
HETATM    1  C   UNL     1      -9.997   4.592  70.037  1.00  0.00    -0.232 C  
HETATM    2  N   UNL     1      -9.386   5.933  69.989  1.00  0.00    -0.146 N  
HETATM    3  C   UNL     1      -7.928   5.923  70.214  1.00  0.00    -0.106 C  
ENDROOT
BRANCH   2   4
HETATM    4  S   UNL     1      -9.938   6.990  68.767  1.00  0.00    -0.165 S  
HETATM    5  O   UNL     1     -10.916   6.275  67.962  1.00  0.00    -0.307 OA 
HETATM    6  O   UNL     1      -8.799   7.638  68.161  1.00  0.00    -0.126 OA 
BRANCH   4   7
HETATM    7  C   UNL     1     -10.835   8.214  69.708  1.00  0.00    -0.190 A  
HETATM    8  C   UNL     1     -10.937   9.518  69.201  1.00  0.00    -0.148 A  
HETATM    9  C   UNL     1     -11.573  10.587  69.870  1.00  0.00    -0.384 A  
HETATM   10  C   UNL     1     -12.134  10.228  71.109  1.00  0.00    -0.395 A  
HETATM   11  S   UNL     1     -13.042  11.305  72.173  1.00  0.00     0.115 SA 
HETATM   12  C   UNL     1     -12.039   8.905  71.619  1.00  0.00    -0.415 A  
HETATM   13  C   UNL     1     -12.870  12.897  71.429  1.00  0.00    -0.283 A  
HETATM   14  C   UNL     1     -11.403   7.892  70.918  1.00  0.00    -0.290 A  
HETATM   15  C   UNL     1     -13.432  13.935  72.209  1.00  0.00    -0.623 A  
HETATM   16  C   UNL     1     -13.390  15.257  71.799  1.00  0.00    -0.540 A  
HETATM   17  C   UNL     1     -12.769  15.556  70.602  1.00  0.00    -0.487 A  
HETATM   18  C   UNL     1     -12.204  14.532  69.822  1.00  0.00    -0.360 A  
HETATM   19  C   UNL     1     -12.248  13.164  70.194  1.00  0.00    -0.360 A  
HETATM   20  C   UNL     1     -11.649  12.036  69.337  1.00  0.00    -0.393 C  
HETATM   21  C   UNL     1     -11.203  12.381  68.087  1.00  0.00    -0.313 C  
HETATM   22  C   UNL     1     -10.570  11.488  67.051  1.00  0.00    -0.277 C  
BRANCH  22  23
HETATM   23  C   UNL     1     -10.226  11.922  65.620  1.00  0.00    -0.245 C  
BRANCH  23  24
HETATM   24  N   UNL     1     -10.453  10.790  64.681  1.00  0.00    -0.329 NA 
HETATM   25  C   UNL     1     -10.264  11.105  63.241  1.00  0.00    -0.350 C  
HETATM   26  C   UNL     1      -8.798  11.212  62.737  1.00  0.00    -0.239 C  
HETATM   27  N   UNL     1      -7.831  10.219  63.255  1.00  0.00    -0.151 NA 
HETATM   28  C   UNL     1      -8.099   9.915  64.671  1.00  0.00    -0.152 C  
HETATM   29  C   UNL     1      -7.809   9.000  62.451  1.00  0.00    -0.123 C  
HETATM   30  C   UNL     1      -9.584   9.641  64.988  1.00  0.00    -0.214 C  
ENDBRANCH  23  24
ENDBRANCH  22  23
ENDBRANCH   4   7
ENDBRANCH   2   4
TORSDOF 4
ENDMDL
MODEL       16
REMARK 921   NORMALIZED FREE ENERGY PREDICTED BY IDOCK:   -6.69 KCAL/MOL
REMARK 922        TOTAL FREE ENERGY PREDICTED BY IDOCK:   -8.90 KCAL/MOL
REMARK 923 INTER-LIGAND FREE ENERGY PREDICTED BY IDOCK:   -8.16 KCAL/MOL
REMARK 924 INTRA-LIGAND FREE ENERGY PREDICTED BY IDOCK:   -0.74 KCAL/MOL
REMARK 927      BINDING AFFINITY PREDICTED BY RF-SCORE:    0.00 PKD
ROOT
HETATM    1  C   UNL     1     -10.893   6.423  73.378  1.00  0.00    -0.217 C  
HETATM    2  N   UNL     1     -11.062   7.731  72.718  1.00  0.00    -0.373 N  
HETATM    3  C   UNL     1      -9.795   8.463  72.531  1.00  0.00    -0.289 C  
ENDROOT
BRANCH   2   4
HETATM    4  S   UNL     1     -12.155   7.798  71.408  1.00  0.00    -0.316 S  
HETATM    5  O   UNL     1     -13.451   7.334  71.879  1.00  0.00    -0.306 OA 
HETATM    6  O   UNL     1     -11.527   7.216  70.245  1.00  0.00    -0.286 OA 
BRANCH   4   7
HETATM    7  C   UNL     1     -12.302   9.557  71.134  1.00  0.00    -0.326 A  
HETATM    8  C   UNL     1     -11.747  10.111  69.971  1.00  0.00    -0.294 A  
HETATM    9  C   UNL     1     -11.751  11.490  69.664  1.00  0.00    -0.419 A  
HETATM   10  C   UNL     1     -12.393  12.285  70.629  1.00  0.00    -0.286 A  
HETATM   11  S   UNL     1     -12.621  14.033  70.530  1.00  0.00    -0.301 SA 
HETATM   12  C   UNL     1     -12.963  11.724  71.803  1.00  0.00    -0.466 A  
HETATM   13  C   UNL     1     -11.689  14.512  69.108  1.00  0.00    -0.314 A  
HETATM   14  C   UNL     1     -12.932  10.361  72.055  1.00  0.00    -0.499 A  
HETATM   15  C   UNL     1     -11.643  15.914  68.926  1.00  0.00    -0.392 A  
HETATM   16  C   UNL     1     -10.952  16.487  67.870  1.00  0.00    -0.288 A  
HETATM   17  C   UNL     1     -10.288  15.656  66.989  1.00  0.00    -0.289 A  
HETATM   18  C   UNL     1     -10.324  14.262  67.165  1.00  0.00    -0.262 A  
HETATM   19  C   UNL     1     -11.040  13.636  68.217  1.00  0.00    -0.281 A  
HETATM   20  C   UNL     1     -11.101  12.110  68.405  1.00  0.00    -0.289 C  
HETATM   21  C   UNL     1     -10.566  11.343  67.403  1.00  0.00    -0.257 C  
HETATM   22  C   UNL     1     -10.484   9.840  67.332  1.00  0.00    -0.319 C  
BRANCH  22  23
HETATM   23  C   UNL     1      -9.996   9.051  66.109  1.00  0.00    -0.241 C  
BRANCH  23  24
HETATM   24  N   UNL     1      -8.581   8.635  66.309  1.00  0.00    -0.130 NA 
HETATM   25  C   UNL     1      -8.215   8.257  67.699  1.00  0.00    -0.127 C  
HETATM   26  C   UNL     1      -8.681   6.857  68.187  1.00  0.00    -0.126 C  
HETATM   27  N   UNL     1      -8.580   5.737  67.225  1.00  0.00    -0.110 NA 
HETATM   28  C   UNL     1      -8.908   6.186  65.861  1.00  0.00    -0.143 C  
HETATM   29  C   UNL     1      -7.268   5.095  67.264  1.00  0.00    -0.081 C  
HETATM   30  C   UNL     1      -8.217   7.500  65.443  1.00  0.00    -0.135 C  
ENDBRANCH  23  24
ENDBRANCH  22  23
ENDBRANCH   4   7
ENDBRANCH   2   4
TORSDOF 4
ENDMDL
MODEL       17
REMARK 921   NORMALIZED FREE ENERGY PREDICTED BY IDOCK:   -6.61 KCAL/MOL
REMARK 922        TOTAL FREE ENERGY PREDICTED BY IDOCK:   -8.81 KCAL/MOL
REMARK 923 INTER-LIGAND FREE ENERGY PREDICTED BY IDOCK:   -8.25 KCAL/MOL
REMARK 924 INTRA-LIGAND FREE ENERGY PREDICTED BY IDOCK:   -0.55 KCAL/MOL
REMARK 927      BINDING AFFINITY PREDICTED BY RF-SCORE:    0.00 PKD
ROOT
HETATM    1  C   UNL     1      -8.405   7.657  65.478  1.00  0.00    -0.135 C  
HETATM    2  N   UNL     1      -8.503   8.666  66.549  1.00  0.00    -0.111 N  
HETATM    3  C   UNL     1      -7.351   8.656  67.472  1.00  0.00    -0.089 C  
ENDROOT
BRANCH   2   4
HETATM    4  S   UNL     1      -9.082  10.210  66.105  1.00  0.00    -0.161 S  
HETATM    5  O   UNL     1      -9.920  10.054  64.927  1.00  0.00    -0.325 OA 
HETATM    6  O   UNL     1      -7.981  11.144  66.124  1.00  0.00    -0.156 OA 
BRANCH   4   7
HETATM    7  C   UNL     1     -10.167  10.607  67.467  1.00  0.00    -0.199 A  
HETATM    8  C   UNL     1     -10.302  11.948  67.857  1.00  0.00    -0.212 A  
HETATM    9  C   UNL     1     -11.087  12.386  68.947  1.00  0.00    -0.307 A  
HETATM   10  C   UNL     1     -11.761  11.348  69.616  1.00  0.00    -0.345 A  
HETATM   11  S   UNL     1     -12.861  11.554  70.981  1.00  0.00    -0.181 SA 
HETATM   12  C   UNL     1     -11.631   9.991  69.215  1.00  0.00    -0.043 A  
HETATM   13  C   UNL     1     -12.718  13.263  71.400  1.00  0.00    -0.309 A  
HETATM   14  C   UNL     1     -10.847   9.616  68.135  1.00  0.00    -0.241 A  
HETATM   15  C   UNL     1     -13.440  13.607  72.567  1.00  0.00    -0.675 A  
HETATM   16  C   UNL     1     -13.445  14.901  73.063  1.00  0.00    -0.496 A  
HETATM   17  C   UNL     1     -12.713  15.865  72.397  1.00  0.00    -0.525 A  
HETATM   18  C   UNL     1     -11.989  15.531  71.240  1.00  0.00    -0.443 A  
HETATM   19  C   UNL     1     -11.978  14.225  70.686  1.00  0.00    -0.392 A  
HETATM   20  C   UNL     1     -11.204  13.857  69.409  1.00  0.00    -0.273 C  
HETATM   21  C   UNL     1     -10.643  14.892  68.707  1.00  0.00    -0.247 C  
HETATM   22  C   UNL     1      -9.831  14.818  67.439  1.00  0.00    -0.222 C  
BRANCH  22  23
HETATM   23  C   UNL     1      -9.356  16.037  66.637  1.00  0.00    -0.243 C  
BRANCH  23  24
HETATM   24  N   UNL     1      -8.420  16.849  67.461  1.00  0.00    -0.193 NA 
HETATM   25  C   UNL     1      -7.063  17.043  66.884  1.00  0.00    -0.216 C  
HETATM   26  C   UNL     1      -6.935  18.083  65.737  1.00  0.00    -0.231 C  
HETATM   27  N   UNL     1      -7.702  19.341  65.874  1.00  0.00    -0.429 NA 
HETATM   28  C   UNL     1      -9.015  19.089  66.493  1.00  0.00    -0.330 C  
HETATM   29  C   UNL     1      -6.960  20.360  66.613  1.00  0.00    -0.258 C  
HETATM   30  C   UNL     1      -8.962  18.189  67.745  1.00  0.00    -0.263 C  
ENDBRANCH  23  24
ENDBRANCH  22  23
ENDBRANCH   4   7
ENDBRANCH   2   4
TORSDOF 4
ENDMDL
MODEL       18
REMARK 921   NORMALIZED FREE ENERGY PREDICTED BY IDOCK:   -6.51 KCAL/MOL
REMARK 922        TOTAL FREE ENERGY PREDICTED BY IDOCK:   -8.68 KCAL/MOL
REMARK 923 INTER-LIGAND FREE ENERGY PREDICTED BY IDOCK:   -8.06 KCAL/MOL
REMARK 924 INTRA-LIGAND FREE ENERGY PREDICTED BY IDOCK:   -0.62 KCAL/MOL
REMARK 927      BINDING AFFINITY PREDICTED BY RF-SCORE:    0.00 PKD
ROOT
HETATM    1  C   UNL     1     -10.930   6.204  73.204  1.00  0.00    -0.231 C  
HETATM    2  N   UNL     1     -11.042   7.536  72.584  1.00  0.00    -0.319 N  
HETATM    3  C   UNL     1      -9.761   8.265  72.522  1.00  0.00    -0.298 C  
ENDROOT
BRANCH   2   4
HETATM    4  S   UNL     1     -12.032   7.662  71.198  1.00  0.00    -0.279 S  
HETATM    5  O   UNL     1     -13.332   7.096  71.521  1.00  0.00    -0.383 OA 
HETATM    6  O   UNL     1     -11.283   7.212  70.048  1.00  0.00    -0.270 OA 
BRANCH   4   7
HETATM    7  C   UNL     1     -12.254   9.428  71.056  1.00  0.00    -0.279 A  
HETATM    8  C   UNL     1     -11.697  10.095  69.955  1.00  0.00    -0.294 A  
HETATM    9  C   UNL     1     -11.757  11.492  69.754  1.00  0.00    -0.426 A  
HETATM   10  C   UNL     1     -12.461  12.181  70.759  1.00  0.00    -0.271 A  
HETATM   11  S   UNL     1     -12.768  13.919  70.788  1.00  0.00    -0.282 SA 
HETATM   12  C   UNL     1     -13.034  11.504  71.870  1.00  0.00    -0.453 A  
HETATM   13  C   UNL     1     -11.825  14.549  69.435  1.00  0.00    -0.325 A  
HETATM   14  C   UNL     1     -12.945  10.128  72.017  1.00  0.00    -0.508 A  
HETATM   15  C   UNL     1     -11.839  15.961  69.362  1.00  0.00    -0.325 A  
HETATM   16  C   UNL     1     -11.151  16.645  68.374  1.00  0.00    -0.305 A  
HETATM   17  C   UNL     1     -10.426  15.917  67.452  1.00  0.00    -0.306 A  
HETATM   18  C   UNL     1     -10.401  14.513  67.519  1.00  0.00    -0.244 A  
HETATM   19  C   UNL     1     -11.113  13.774  68.498  1.00  0.00    -0.292 A  
HETATM   20  C   UNL     1     -11.106  12.238  68.567  1.00  0.00    -0.290 C  
HETATM   21  C   UNL     1     -10.511  11.576  67.524  1.00  0.00    -0.229 C  
HETATM   22  C   UNL     1     -10.356  10.088  67.340  1.00  0.00    -0.292 C  
BRANCH  22  23
HETATM   23  C   UNL     1      -9.800   9.420  66.075  1.00  0.00    -0.296 C  
BRANCH  23  24
HETATM   24  N   UNL     1      -8.656  10.213  65.547  1.00  0.00    -0.145 NA 
HETATM   25  C   UNL     1      -7.306   9.716  65.922  1.00  0.00    -0.099 C  
HETATM   26  C   UNL     1      -6.782   8.472  65.153  1.00  0.00    -0.064 C  
HETATM   27  N   UNL     1      -7.048   8.414  63.699  1.00  0.00    -0.087 NA 
HETATM   28  C   UNL     1      -8.380   8.962  63.387  1.00  0.00    -0.176 C  
HETATM   29  C   UNL     1      -6.009   9.085  62.922  1.00  0.00    -0.089 C  
HETATM   30  C   UNL     1      -8.688  10.307  64.077  1.00  0.00    -0.202 C  
ENDBRANCH  23  24
ENDBRANCH  22  23
ENDBRANCH   4   7
ENDBRANCH   2   4
TORSDOF 4
ENDMDL
MODEL       19
REMARK 921   NORMALIZED FREE ENERGY PREDICTED BY IDOCK:   -6.49 KCAL/MOL
REMARK 922        TOTAL FREE ENERGY PREDICTED BY IDOCK:   -8.66 KCAL/MOL
REMARK 923 INTER-LIGAND FREE ENERGY PREDICTED BY IDOCK:   -8.80 KCAL/MOL
REMARK 924 INTRA-LIGAND FREE ENERGY PREDICTED BY IDOCK:    0.14 KCAL/MOL
REMARK 927      BINDING AFFINITY PREDICTED BY RF-SCORE:    0.00 PKD
ROOT
HETATM    1  C   UNL     1     -11.793  14.384  73.387  1.00  0.00     0.423 C  
HETATM    2  N   UNL     1     -12.459  14.166  72.090  1.00  0.00    -0.233 N  
HETATM    3  C   UNL     1     -13.599  13.232  72.165  1.00  0.00    -0.562 C  
ENDROOT
BRANCH   2   4
HETATM    4  S   UNL     1     -12.691  15.538  71.101  1.00  0.00    -0.472 S  
HETATM    5  O   UNL     1     -11.760  16.568  71.535  1.00  0.00    -0.395 OA 
HETATM    6  O   UNL     1     -14.106  15.803  70.995  1.00  0.00    -0.417 OA 
BRANCH   4   7
HETATM    7  C   UNL     1     -12.118  14.955  69.513  1.00  0.00    -0.279 A  
HETATM    8  C   UNL     1     -11.888  13.583  69.337  1.00  0.00    -0.389 A  
HETATM    9  C   UNL     1     -11.387  13.003  68.150  1.00  0.00    -0.329 A  
HETATM   10  C   UNL     1     -11.152  13.931  67.120  1.00  0.00    -0.300 A  
HETATM   11  S   UNL     1     -10.579  13.538  65.497  1.00  0.00    -0.306 SA 
HETATM   12  C   UNL     1     -11.393  15.321  67.295  1.00  0.00    -0.269 A  
HETATM   13  C   UNL     1     -10.187  11.818  65.580  1.00  0.00    -0.246 A  
HETATM   14  C   UNL     1     -11.887  15.837  68.483  1.00  0.00    -0.233 A  
HETATM   15  C   UNL     1      -9.586  11.332  64.396  1.00  0.00    -0.257 A  
HETATM   16  C   UNL     1      -9.197  10.008  64.269  1.00  0.00    -0.318 A  
HETATM   17  C   UNL     1      -9.397   9.158  65.339  1.00  0.00    -0.258 A  
HETATM   18  C   UNL     1      -9.989   9.633  66.522  1.00  0.00    -0.313 A  
HETATM   19  C   UNL     1     -10.424  10.974  66.682  1.00  0.00    -0.307 A  
HETATM   20  C   UNL     1     -11.091  11.497  67.966  1.00  0.00    -0.313 C  
HETATM   21  C   UNL     1     -11.413  10.565  68.918  1.00  0.00    -0.292 C  
HETATM   22  C   UNL     1     -12.059  10.797  70.260  1.00  0.00    -0.433 C  
BRANCH  22  23
HETATM   23  C   UNL     1     -12.516   9.684  71.211  1.00  0.00    -0.355 C  
BRANCH  23  24
HETATM   24  N   UNL     1     -11.333   9.058  71.861  1.00  0.00    -0.369 NA 
HETATM   25  C   UNL     1     -11.631   7.926  72.778  1.00  0.00    -0.329 C  
HETATM   26  C   UNL     1     -11.971   6.562  72.115  1.00  0.00    -0.290 C  
HETATM   27  N   UNL     1     -11.176   6.168  70.932  1.00  0.00    -0.307 NA 
HETATM   28  C   UNL     1     -10.875   7.338  70.089  1.00  0.00    -0.256 C  
HETATM   29  C   UNL     1      -9.953   5.459  71.301  1.00  0.00    -0.193 C  
HETATM   30  C   UNL     1     -10.360   8.565  70.870  1.00  0.00    -0.199 C  
ENDBRANCH  23  24
ENDBRANCH  22  23
ENDBRANCH   4   7
ENDBRANCH   2   4
TORSDOF 4
ENDMDL
MODEL       20
REMARK 921   NORMALIZED FREE ENERGY PREDICTED BY IDOCK:   -6.47 KCAL/MOL
REMARK 922        TOTAL FREE ENERGY PREDICTED BY IDOCK:   -8.63 KCAL/MOL
REMARK 923 INTER-LIGAND FREE ENERGY PREDICTED BY IDOCK:   -8.26 KCAL/MOL
REMARK 924 INTRA-LIGAND FREE ENERGY PREDICTED BY IDOCK:   -0.38 KCAL/MOL
REMARK 927      BINDING AFFINITY PREDICTED BY RF-SCORE:    0.00 PKD
ROOT
HETATM    1  C   UNL     1      -8.905  10.955  66.910  1.00  0.00    -0.142 C  
HETATM    2  N   UNL     1     -10.018  10.594  66.012  1.00  0.00    -0.229 N  
HETATM    3  C   UNL     1     -10.853   9.491  66.525  1.00  0.00     0.172 C  
ENDROOT
BRANCH   2   4
HETATM    4  S   UNL     1     -10.864  11.882  65.277  1.00  0.00    -0.302 S  
HETATM    5  O   UNL     1     -12.248  11.470  65.103  1.00  0.00     0.027 OA 
HETATM    6  O   UNL     1     -10.085  12.380  64.168  1.00  0.00    -0.330 OA 
BRANCH   4   7
HETATM    7  C   UNL     1     -10.850  13.121  66.563  1.00  0.00    -0.280 A  
HETATM    8  C   UNL     1     -11.292  12.771  67.847  1.00  0.00    -0.339 A  
HETATM    9  C   UNL     1     -11.378  13.669  68.935  1.00  0.00    -0.332 A  
HETATM   10  C   UNL     1     -10.950  14.974  68.629  1.00  0.00    -0.257 A  
HETATM   11  S   UNL     1     -10.878  16.321  69.767  1.00  0.00    -0.343 SA 
HETATM   12  C   UNL     1     -10.493  15.327  67.331  1.00  0.00    -0.270 A  
HETATM   13  C   UNL     1     -11.650  15.698  71.227  1.00  0.00    -0.428 A  
HETATM   14  C   UNL     1     -10.429  14.404  66.299  1.00  0.00    -0.292 A  
HETATM   15  C   UNL     1     -11.804  16.681  72.232  1.00  0.00    -0.210 A  
HETATM   16  C   UNL     1     -12.397  16.389  73.450  1.00  0.00    -0.561 A  
HETATM   17  C   UNL     1     -12.854  15.104  73.669  1.00  0.00    -0.621 A  
HETATM   18  C   UNL     1     -12.710  14.122  72.674  1.00  0.00    -0.363 A  
HETATM   19  C   UNL     1     -12.087  14.374  71.425  1.00  0.00    -0.397 A  
HETATM   20  C   UNL     1     -11.907  13.299  70.339  1.00  0.00    -0.270 C  
HETATM   21  C   UNL     1     -12.226  12.012  70.686  1.00  0.00    -0.409 C  
HETATM   22  C   UNL     1     -12.155  10.776  69.826  1.00  0.00    -0.389 C  
BRANCH  22  23
HETATM   23  C   UNL     1     -12.397   9.348  70.331  1.00  0.00     0.179 C  
BRANCH  23  24
HETATM   24  N   UNL     1     -11.113   8.594  70.346  1.00  0.00    -0.240 NA 
HETATM   25  C   UNL     1     -10.283   8.769  71.568  1.00  0.00    -0.300 C  
HETATM   26  C   UNL     1     -10.737   7.995  72.836  1.00  0.00    -0.333 C  
HETATM   27  N   UNL     1     -11.222   6.610  72.646  1.00  0.00    -0.260 NA 
HETATM   28  C   UNL     1     -11.996   6.493  71.399  1.00  0.00    -0.316 C  
HETATM   29  C   UNL     1     -10.134   5.636  72.683  1.00  0.00    -0.180 C  
HETATM   30  C   UNL     1     -11.326   7.147  70.173  1.00  0.00    -0.241 C  
ENDBRANCH  23  24
ENDBRANCH  22  23
ENDBRANCH   4   7
ENDBRANCH   2   4
TORSDOF 4
ENDMDL
MODEL       21
REMARK 921   NORMALIZED FREE ENERGY PREDICTED BY IDOCK:   -6.47 KCAL/MOL
REMARK 922        TOTAL FREE ENERGY PREDICTED BY IDOCK:   -8.63 KCAL/MOL
REMARK 923 INTER-LIGAND FREE ENERGY PREDICTED BY IDOCK:   -8.15 KCAL/MOL
REMARK 924 INTRA-LIGAND FREE ENERGY PREDICTED BY IDOCK:   -0.48 KCAL/MOL
REMARK 927      BINDING AFFINITY PREDICTED BY RF-SCORE:    0.00 PKD
ROOT
HETATM    1  C   UNL     1     -12.483   6.471  71.938  1.00  0.00    -0.240 C  
HETATM    2  N   UNL     1     -12.714   7.823  71.397  1.00  0.00    -0.325 N  
HETATM    3  C   UNL     1     -14.051   8.362  71.715  1.00  0.00    -0.438 C  
ENDROOT
BRANCH   2   4
HETATM    4  S   UNL     1     -11.422   8.933  71.515  1.00  0.00    -0.349 S  
HETATM    5  O   UNL     1     -10.470   8.413  72.483  1.00  0.00    -0.324 OA 
HETATM    6  O   UNL     1     -11.962  10.267  71.636  1.00  0.00    -0.332 OA 
BRANCH   4   7
HETATM    7  C   UNL     1     -10.659   8.789  69.907  1.00  0.00    -0.224 A  
HETATM    8  C   UNL     1     -10.761   9.863  69.009  1.00  0.00    -0.244 A  
HETATM    9  C   UNL     1     -10.247   9.855  67.693  1.00  0.00    -0.255 A  
HETATM   10  C   UNL     1      -9.585   8.662  67.350  1.00  0.00    -0.159 A  
HETATM   11  S   UNL     1      -8.785   8.342  65.809  1.00  0.00    -0.163 SA 
HETATM   12  C   UNL     1      -9.473   7.578  68.261  1.00  0.00    -0.146 A  
HETATM   13  C   UNL     1      -9.208   9.731  64.803  1.00  0.00    -0.261 A  
HETATM   14  C   UNL     1      -9.996   7.640  69.543  1.00  0.00    -0.182 A  
HETATM   15  C   UNL     1      -8.759   9.603  63.469  1.00  0.00    -0.236 A  
HETATM   16  C   UNL     1      -9.001  10.585  62.523  1.00  0.00    -0.303 A  
HETATM   17  C   UNL     1      -9.712  11.706  62.905  1.00  0.00    -0.233 A  
HETATM   18  C   UNL     1     -10.167  11.840  64.227  1.00  0.00    -0.344 A  
HETATM   19  C   UNL     1      -9.918  10.870  65.231  1.00  0.00    -0.330 A  
HETATM   20  C   UNL     1     -10.396  11.018  66.686  1.00  0.00    -0.288 C  
HETATM   21  C   UNL     1     -10.943  12.225  67.036  1.00  0.00    -0.314 C  
HETATM   22  C   UNL     1     -11.495  12.637  68.376  1.00  0.00    -0.350 C  
BRANCH  22  23
HETATM   23  C   UNL     1     -11.961  14.056  68.727  1.00  0.00    -0.347 C  
BRANCH  23  24
HETATM   24  N   UNL     1     -10.874  14.784  69.437  1.00  0.00    -0.253 NA 
HETATM   25  C   UNL     1      -9.510  14.606  68.872  1.00  0.00    -0.173 C  
HETATM   26  C   UNL     1      -9.181  15.403  67.579  1.00  0.00    -0.199 C  
HETATM   27  N   UNL     1      -9.676  16.795  67.498  1.00  0.00    -0.248 NA 
HETATM   28  C   UNL     1     -11.008  16.915  68.115  1.00  0.00    -0.290 C  
HETATM   29  C   UNL     1      -8.738  17.748  68.087  1.00  0.00    -0.266 C  
HETATM   30  C   UNL     1     -11.131  16.233  69.493  1.00  0.00    -0.330 C  
ENDBRANCH  23  24
ENDBRANCH  22  23
ENDBRANCH   4   7
ENDBRANCH   2   4
TORSDOF 4
ENDMDL
MODEL       22
REMARK 921   NORMALIZED FREE ENERGY PREDICTED BY IDOCK:   -6.46 KCAL/MOL
REMARK 922        TOTAL FREE ENERGY PREDICTED BY IDOCK:   -8.62 KCAL/MOL
REMARK 923 INTER-LIGAND FREE ENERGY PREDICTED BY IDOCK:   -7.93 KCAL/MOL
REMARK 924 INTRA-LIGAND FREE ENERGY PREDICTED BY IDOCK:   -0.69 KCAL/MOL
REMARK 927      BINDING AFFINITY PREDICTED BY RF-SCORE:    0.00 PKD
ROOT
HETATM    1  C   UNL     1     -12.186  15.122  64.213  1.00  0.00    -0.240 C  
HETATM    2  N   UNL     1     -11.338  14.181  64.968  1.00  0.00    -0.334 N  
HETATM    3  C   UNL     1     -10.599  14.816  66.076  1.00  0.00    -0.312 C  
ENDROOT
BRANCH   2   4
HETATM    4  S   UNL     1     -12.001  12.644  65.305  1.00  0.00    -0.454 S  
HETATM    5  O   UNL     1     -13.256  12.527  64.581  1.00  0.00    -0.848 OA 
HETATM    6  O   UNL     1     -11.931  12.408  66.728  1.00  0.00    -0.559 OA 
BRANCH   4   7
HETATM    7  C   UNL     1     -10.836  11.551  64.506  1.00  0.00    -0.327 A  
HETATM    8  C   UNL     1     -10.251  10.519  65.255  1.00  0.00    -0.352 A  
HETATM    9  C   UNL     1      -9.280   9.622  64.755  1.00  0.00    -0.298 A  
HETATM   10  C   UNL     1      -8.954   9.834  63.403  1.00  0.00    -0.246 A  
HETATM   11  S   UNL     1      -7.822   8.863  62.459  1.00  0.00    -0.137 SA 
HETATM   12  C   UNL     1      -9.553  10.873  62.642  1.00  0.00    -0.290 A  
HETATM   13  C   UNL     1      -7.089   7.777  63.642  1.00  0.00    -0.074 A  
HETATM   14  C   UNL     1     -10.502  11.726  63.183  1.00  0.00    -0.359 A  
HETATM   15  C   UNL     1      -6.048   6.989  63.098  1.00  0.00    -0.044 A  
HETATM   16  C   UNL     1      -5.343   6.081  63.871  1.00  0.00    -0.017 A  
HETATM   17  C   UNL     1      -5.668   5.962  65.208  1.00  0.00    -0.024 A  
HETATM   18  C   UNL     1      -6.697   6.745  65.759  1.00  0.00    -0.052 A  
HETATM   19  C   UNL     1      -7.459   7.666  64.997  1.00  0.00    -0.090 A  
HETATM   20  C   UNL     1      -8.600   8.512  65.588  1.00  0.00    -0.200 C  
HETATM   21  C   UNL     1      -8.982   8.222  66.873  1.00  0.00    -0.169 C  
HETATM   22  C   UNL     1     -10.054   8.891  67.693  1.00  0.00    -0.274 C  
BRANCH  22  23
HETATM   23  C   UNL     1     -10.517   8.414  69.076  1.00  0.00    -0.201 C  
BRANCH  23  24
HETATM   24  N   UNL     1     -10.368   9.516  70.066  1.00  0.00    -0.228 NA 
HETATM   25  C   UNL     1     -10.921  10.831  69.647  1.00  0.00    -0.264 C  
HETATM   26  C   UNL     1     -12.464  10.994  69.719  1.00  0.00    -0.183 C  
HETATM   27  N   UNL     1     -13.153  10.412  70.892  1.00  0.00    -0.379 NA 
HETATM   28  C   UNL     1     -12.530   9.136  71.285  1.00  0.00    -0.300 C  
HETATM   29  C   UNL     1     -13.201  11.341  72.018  1.00  0.00    -0.331 C  
HETATM   30  C   UNL     1     -10.990   9.179  71.358  1.00  0.00    -0.344 C  
ENDBRANCH  23  24
ENDBRANCH  22  23
ENDBRANCH   4   7
ENDBRANCH   2   4
TORSDOF 4
ENDMDL
MODEL       23
REMARK 921   NORMALIZED FREE ENERGY PREDICTED BY IDOCK:   -6.46 KCAL/MOL
REMARK 922        TOTAL FREE ENERGY PREDICTED BY IDOCK:   -8.62 KCAL/MOL
REMARK 923 INTER-LIGAND FREE ENERGY PREDICTED BY IDOCK:   -7.86 KCAL/MOL
REMARK 924 INTRA-LIGAND FREE ENERGY PREDICTED BY IDOCK:   -0.76 KCAL/MOL
REMARK 927      BINDING AFFINITY PREDICTED BY RF-SCORE:    0.00 PKD
ROOT
HETATM    1  C   UNL     1     -10.388   4.905  66.200  1.00  0.00    -0.292 C  
HETATM    2  N   UNL     1      -9.531   5.048  67.391  1.00  0.00    -0.130 N  
HETATM    3  C   UNL     1      -9.568   3.874  68.285  1.00  0.00    -0.114 C  
ENDROOT
BRANCH   2   4
HETATM    4  S   UNL     1      -7.992   5.749  67.156  1.00  0.00    -0.102 S  
HETATM    5  O   UNL     1      -7.227   4.873  66.282  1.00  0.00    -0.074 OA 
HETATM    6  O   UNL     1      -7.472   6.172  68.434  1.00  0.00    -0.084 OA 
BRANCH   4   7
HETATM    7  C   UNL     1      -8.388   7.210  66.209  1.00  0.00    -0.129 A  
HETATM    8  C   UNL     1      -9.192   8.200  66.794  1.00  0.00    -0.206 A  
HETATM    9  C   UNL     1      -9.618   9.375  66.136  1.00  0.00    -0.311 A  
HETATM   10  C   UNL     1      -9.141   9.492  64.817  1.00  0.00    -0.218 A  
HETATM   11  S   UNL     1      -9.440  10.855  63.737  1.00  0.00    -0.297 SA 
HETATM   12  C   UNL     1      -8.320   8.494  64.227  1.00  0.00    -0.113 A  
HETATM   13  C   UNL     1     -10.605  11.854  64.610  1.00  0.00    -0.306 A  
HETATM   14  C   UNL     1      -7.930   7.359  64.921  1.00  0.00    -0.128 A  
HETATM   15  C   UNL     1     -11.074  12.949  63.848  1.00  0.00    -0.454 A  
HETATM   16  C   UNL     1     -12.001  13.844  64.355  1.00  0.00    -0.480 A  
HETATM   17  C   UNL     1     -12.480  13.642  65.635  1.00  0.00    -0.540 A  
HETATM   18  C   UNL     1     -12.024  12.553  66.398  1.00  0.00    -0.386 A  
HETATM   19  C   UNL     1     -11.058  11.630  65.925  1.00  0.00    -0.320 A  
HETATM   20  C   UNL     1     -10.540  10.447  66.761  1.00  0.00    -0.270 C  
HETATM   21  C   UNL     1     -10.926  10.404  68.076  1.00  0.00    -0.347 C  
HETATM   22  C   UNL     1     -10.576   9.366  69.110  1.00  0.00    -0.234 C  
BRANCH  22  23
HETATM   23  C   UNL     1     -10.933   9.464  70.599  1.00  0.00    -0.290 C  
BRANCH  23  24
HETATM   24  N   UNL     1     -11.929   8.414  70.950  1.00  0.00    -0.232 NA 
HETATM   25  C   UNL     1     -11.686   7.077  70.348  1.00  0.00    -0.279 C  
HETATM   26  C   UNL     1     -10.567   6.213  70.993  1.00  0.00    -0.246 C  
HETATM   27  N   UNL     1     -10.473   6.220  72.469  1.00  0.00    -0.197 NA 
HETATM   28  C   UNL     1     -10.769   7.560  73.007  1.00  0.00    -0.384 C  
HETATM   29  C   UNL     1     -11.332   5.209  73.081  1.00  0.00    -0.313 C  
HETATM   30  C   UNL     1     -12.027   8.219  72.407  1.00  0.00    -0.384 C  
ENDBRANCH  23  24
ENDBRANCH  22  23
ENDBRANCH   4   7
ENDBRANCH   2   4
TORSDOF 4
ENDMDL
MODEL       24
REMARK 921   NORMALIZED FREE ENERGY PREDICTED BY IDOCK:   -6.45 KCAL/MOL
REMARK 922        TOTAL FREE ENERGY PREDICTED BY IDOCK:   -8.61 KCAL/MOL
REMARK 923 INTER-LIGAND FREE ENERGY PREDICTED BY IDOCK:   -7.97 KCAL/MOL
REMARK 924 INTRA-LIGAND FREE ENERGY PREDICTED BY IDOCK:   -0.64 KCAL/MOL
REMARK 927      BINDING AFFINITY PREDICTED BY RF-SCORE:    0.00 PKD
ROOT
HETATM    1  C   UNL     1      -8.108  15.131  66.946  1.00  0.00    -0.159 C  
HETATM    2  N   UNL     1      -8.867  15.947  67.911  1.00  0.00    -0.178 N  
HETATM    3  C   UNL     1      -8.147  17.158  68.351  1.00  0.00    -0.255 C  
ENDROOT
BRANCH   2   4
HETATM    4  S   UNL     1     -10.536  16.148  67.608  1.00  0.00    -0.296 S  
HETATM    5  O   UNL     1     -10.826  15.584  66.300  1.00  0.00    -0.313 OA 
HETATM    6  O   UNL     1     -10.911  17.502  67.942  1.00  0.00    -0.374 OA 
BRANCH   4   7
HETATM    7  C   UNL     1     -11.269  15.058  68.818  1.00  0.00    -0.277 A  
HETATM    8  C   UNL     1     -10.938  13.695  68.792  1.00  0.00    -0.292 A  
HETATM    9  C   UNL     1     -11.486  12.723  69.658  1.00  0.00    -0.255 A  
HETATM   10  C   UNL     1     -12.399  13.246  70.593  1.00  0.00    -0.339 A  
HETATM   11  S   UNL     1     -13.223  12.319  71.849  1.00  0.00    -0.244 SA 
HETATM   12  C   UNL     1     -12.728  14.628  70.625  1.00  0.00    -0.417 A  
HETATM   13  C   UNL     1     -12.803  10.641  71.496  1.00  0.00    -0.462 A  
HETATM   14  C   UNL     1     -12.158  15.539  69.750  1.00  0.00    -0.372 A  
HETATM   15  C   UNL     1     -13.475   9.717  72.329  1.00  0.00    -0.488 A  
HETATM   16  C   UNL     1     -13.285   8.351  72.202  1.00  0.00    -0.346 A  
HETATM   17  C   UNL     1     -12.423   7.894  71.224  1.00  0.00    -0.283 A  
HETATM   18  C   UNL     1     -11.754   8.804  70.388  1.00  0.00    -0.034 A  
HETATM   19  C   UNL     1     -11.902  10.210  70.503  1.00  0.00    -0.408 A  
HETATM   20  C   UNL     1     -11.158  11.214  69.605  1.00  0.00    -0.297 C  
HETATM   21  C   UNL     1     -10.194  10.703  68.775  1.00  0.00    -0.204 C  
HETATM   22  C   UNL     1      -9.327  11.449  67.794  1.00  0.00    -0.162 C  
BRANCH  22  23
HETATM   23  C   UNL     1      -8.171  10.823  67.002  1.00  0.00    -0.126 C  
BRANCH  23  24
HETATM   24  N   UNL     1      -8.667   9.655  66.223  1.00  0.00    -0.140 NA 
HETATM   25  C   UNL     1      -9.904   9.892  65.433  1.00  0.00    -0.313 C  
HETATM   26  C   UNL     1      -9.745  10.690  64.110  1.00  0.00    -0.320 C  
HETATM   27  N   UNL     1      -8.562  10.387  63.275  1.00  0.00    -0.179 NA 
HETATM   28  C   UNL     1      -7.383  10.117  64.115  1.00  0.00    -0.108 C  
HETATM   29  C   UNL     1      -8.809   9.285  62.348  1.00  0.00    -0.233 C  
HETATM   30  C   UNL     1      -7.648   9.150  65.287  1.00  0.00    -0.098 C  
ENDBRANCH  23  24
ENDBRANCH  22  23
ENDBRANCH   4   7
ENDBRANCH   2   4
TORSDOF 4
ENDMDL
MODEL       25
REMARK 921   NORMALIZED FREE ENERGY PREDICTED BY IDOCK:   -6.44 KCAL/MOL
REMARK 922        TOTAL FREE ENERGY PREDICTED BY IDOCK:   -8.59 KCAL/MOL
REMARK 923 INTER-LIGAND FREE ENERGY PREDICTED BY IDOCK:   -7.90 KCAL/MOL
REMARK 924 INTRA-LIGAND FREE ENERGY PREDICTED BY IDOCK:   -0.69 KCAL/MOL
REMARK 927      BINDING AFFINITY PREDICTED BY RF-SCORE:    0.00 PKD
ROOT
HETATM    1  C   UNL     1     -12.534  11.936  63.219  1.00  0.00    -0.384 C  
HETATM    2  N   UNL     1     -11.324  12.191  64.021  1.00  0.00    -0.363 N  
HETATM    3  C   UNL     1     -10.071  11.855  63.318  1.00  0.00    -0.396 C  
ENDROOT
BRANCH   2   4
HETATM    4  S   UNL     1     -11.294  13.633  64.936  1.00  0.00    -0.361 S  
HETATM    5  O   UNL     1     -12.486  14.399  64.607  1.00  0.00    -0.566 OA 
HETATM    6  O   UNL     1      -9.977  14.218  64.842  1.00  0.00    -0.317 OA 
BRANCH   4   7
HETATM    7  C   UNL     1     -11.511  13.024  66.601  1.00  0.00    -0.336 A  
HETATM    8  C   UNL     1     -11.087  11.723  66.907  1.00  0.00    -0.361 A  
HETATM    9  C   UNL     1     -11.247  11.107  68.168  1.00  0.00    -0.356 A  
HETATM   10  C   UNL     1     -11.862  11.931  69.129  1.00  0.00    -0.311 A  
HETATM   11  S   UNL     1     -12.164  11.494  70.812  1.00  0.00    -0.299 SA 
HETATM   12  C   UNL     1     -12.284  13.253  68.821  1.00  0.00    -0.124 A  
HETATM   13  C   UNL     1     -11.731   9.784  70.900  1.00  0.00    -0.347 A  
HETATM   14  C   UNL     1     -12.100  13.808  67.564  1.00  0.00    -0.366 A  
HETATM   15  C   UNL     1     -12.024   9.205  72.157  1.00  0.00    -0.364 A  
HETATM   16  C   UNL     1     -11.764   7.870  72.420  1.00  0.00    -0.423 A  
HETATM   17  C   UNL     1     -11.218   7.095  71.417  1.00  0.00    -0.278 A  
HETATM   18  C   UNL     1     -10.928   7.660  70.163  1.00  0.00    -0.255 A  
HETATM   19  C   UNL     1     -11.155   9.027  69.862  1.00  0.00    -0.155 A  
HETATM   20  C   UNL     1     -10.822   9.658  68.499  1.00  0.00    -0.202 C  
HETATM   21  C   UNL     1     -10.127   8.878  67.611  1.00  0.00    -0.274 C  
HETATM   22  C   UNL     1      -9.682   9.235  66.216  1.00  0.00    -0.340 C  
BRANCH  22  23
HETATM   23  C   UNL     1      -8.784   8.356  65.337  1.00  0.00    -0.141 C  
BRANCH  23  24
HETATM   24  N   UNL     1      -8.187   7.266  66.156  1.00  0.00    -0.123 NA 
HETATM   25  C   UNL     1      -8.789   5.920  65.966  1.00  0.00    -0.149 C  
HETATM   26  C   UNL     1      -8.388   5.152  64.676  1.00  0.00    -0.140 C  
HETATM   27  N   UNL     1      -6.972   5.228  64.255  1.00  0.00    -0.048 NA 
HETATM   28  C   UNL     1      -6.421   6.570  64.511  1.00  0.00    -0.041 C  
HETATM   29  C   UNL     1      -6.154   4.195  64.886  1.00  0.00    -0.023 C  
HETATM   30  C   UNL     1      -6.740   7.128  65.913  1.00  0.00    -0.053 C  
ENDBRANCH  23  24
ENDBRANCH  22  23
ENDBRANCH   4   7
ENDBRANCH   2   4
TORSDOF 4
ENDMDL
MODEL       26
REMARK 921   NORMALIZED FREE ENERGY PREDICTED BY IDOCK:   -6.22 KCAL/MOL
REMARK 922        TOTAL FREE ENERGY PREDICTED BY IDOCK:   -8.32 KCAL/MOL
REMARK 923 INTER-LIGAND FREE ENERGY PREDICTED BY IDOCK:   -7.79 KCAL/MOL
REMARK 924 INTRA-LIGAND FREE ENERGY PREDICTED BY IDOCK:   -0.53 KCAL/MOL
REMARK 927      BINDING AFFINITY PREDICTED BY RF-SCORE:    0.00 PKD
ROOT
HETATM    1  C   UNL     1      -7.916   5.936  65.767  1.00  0.00    -0.111 C  
HETATM    2  N   UNL     1      -8.421   6.021  67.149  1.00  0.00    -0.105 N  
HETATM    3  C   UNL     1      -7.589   6.865  68.028  1.00  0.00    -0.108 C  
ENDROOT
BRANCH   2   4
HETATM    4  S   UNL     1     -10.109   6.189  67.345  1.00  0.00    -0.179 S  
HETATM    5  O   UNL     1     -10.462   5.682  68.662  1.00  0.00    -0.202 OA 
HETATM    6  O   UNL     1     -10.767   5.705  66.154  1.00  0.00    -0.142 OA 
BRANCH   4   7
HETATM    7  C   UNL     1     -10.304   7.963  67.401  1.00  0.00    -0.279 A  
HETATM    8  C   UNL     1     -10.756   8.558  68.589  1.00  0.00    -0.082 A  
HETATM    9  C   UNL     1     -10.999   9.941  68.746  1.00  0.00    -0.217 A  
HETATM   10  C   UNL     1     -10.723  10.701  67.595  1.00  0.00    -0.267 A  
HETATM   11  S   UNL     1     -10.869  12.456  67.466  1.00  0.00    -0.246 SA 
HETATM   12  C   UNL     1     -10.258  10.100  66.395  1.00  0.00    -0.288 A  
HETATM   13  C   UNL     1     -11.620  12.942  68.988  1.00  0.00    -0.322 A  
HETATM   14  C   UNL     1     -10.034   8.735  66.296  1.00  0.00    -0.315 A  
HETATM   15  C   UNL     1     -11.939  14.319  69.031  1.00  0.00    -0.360 A  
HETATM   16  C   UNL     1     -12.544  14.891  70.138  1.00  0.00    -0.309 A  
HETATM   17  C   UNL     1     -12.848  14.081  71.215  1.00  0.00    -0.430 A  
HETATM   18  C   UNL     1     -12.539  12.711  71.179  1.00  0.00    -0.354 A  
HETATM   19  C   UNL     1     -11.898  12.092  70.076  1.00  0.00    -0.392 A  
HETATM   20  C   UNL     1     -11.540  10.596  70.038  1.00  0.00    -0.406 C  
HETATM   21  C   UNL     1     -11.712   9.890  71.200  1.00  0.00    -0.478 C  
HETATM   22  C   UNL     1     -11.451   8.426  71.441  1.00  0.00    -0.328 C  
BRANCH  22  23
HETATM   23  C   UNL     1     -11.535   7.740  72.811  1.00  0.00    -0.359 C  
BRANCH  23  24
HETATM   24  N   UNL     1     -10.191   7.240  73.209  1.00  0.00    -0.282 NA 
HETATM   25  C   UNL     1     -10.161   6.383  74.423  1.00  0.00    -0.348 C  
HETATM   26  C   UNL     1     -10.642   4.915  74.254  1.00  0.00    -0.270 C  
HETATM   27  N   UNL     1     -10.231   4.206  73.023  1.00  0.00    -0.153 NA 
HETATM   28  C   UNL     1     -10.236   5.118  71.866  1.00  0.00    -0.209 C  
HETATM   29  C   UNL     1      -8.932   3.554  73.170  1.00  0.00    -0.098 C  
HETATM   30  C   UNL     1      -9.549   6.475  72.126  1.00  0.00    -0.148 C  
ENDBRANCH  23  24
ENDBRANCH  22  23
ENDBRANCH   4   7
ENDBRANCH   2   4
TORSDOF 4
ENDMDL
MODEL       27
REMARK 921   NORMALIZED FREE ENERGY PREDICTED BY IDOCK:   -6.19 KCAL/MOL
REMARK 922        TOTAL FREE ENERGY PREDICTED BY IDOCK:   -8.29 KCAL/MOL
REMARK 923 INTER-LIGAND FREE ENERGY PREDICTED BY IDOCK:   -7.69 KCAL/MOL
REMARK 924 INTRA-LIGAND FREE ENERGY PREDICTED BY IDOCK:   -0.60 KCAL/MOL
REMARK 927      BINDING AFFINITY PREDICTED BY RF-SCORE:    0.00 PKD
ROOT
HETATM    1  C   UNL     1      -9.226   6.561  71.152  1.00  0.00    -0.156 C  
HETATM    2  N   UNL     1     -10.554   6.985  70.670  1.00  0.00    -0.221 N  
HETATM    3  C   UNL     1     -11.223   5.975  69.829  1.00  0.00    -0.369 C  
ENDROOT
BRANCH   2   4
HETATM    4  S   UNL     1     -11.556   7.800  71.787  1.00  0.00    -0.286 S  
HETATM    5  O   UNL     1     -10.798   7.995  73.013  1.00  0.00    -0.368 OA 
HETATM    6  O   UNL     1     -12.852   7.164  71.801  1.00  0.00    -0.345 OA 
BRANCH   4   7
HETATM    7  C   UNL     1     -11.736   9.405  71.026  1.00  0.00    -0.323 A  
HETATM    8  C   UNL     1     -11.241   9.600  69.728  1.00  0.00    -0.208 A  
HETATM    9  C   UNL     1     -11.275  10.831  69.037  1.00  0.00    -0.322 A  
HETATM   10  C   UNL     1     -11.883  11.872  69.761  1.00  0.00    -0.340 A  
HETATM   11  S   UNL     1     -12.136  13.518  69.173  1.00  0.00    -0.220 SA 
HETATM   12  C   UNL     1     -12.393  11.674  71.072  1.00  0.00    -0.405 A  
HETATM   13  C   UNL     1     -11.276  13.565  67.632  1.00  0.00    -0.279 A  
HETATM   14  C   UNL     1     -12.334  10.441  71.704  1.00  0.00    -0.402 A  
HETATM   15  C   UNL     1     -11.254  14.855  67.052  1.00  0.00    -0.344 A  
HETATM   16  C   UNL     1     -10.619  15.098  65.845  1.00  0.00    -0.347 A  
HETATM   17  C   UNL     1      -9.985  14.048  65.211  1.00  0.00    -0.283 A  
HETATM   18  C   UNL     1      -9.997  12.764  65.782  1.00  0.00    -0.259 A  
HETATM   19  C   UNL     1     -10.657  12.468  67.002  1.00  0.00    -0.251 A  
HETATM   20  C   UNL     1     -10.691  11.062  67.624  1.00  0.00    -0.281 C  
HETATM   21  C   UNL     1     -10.192  10.037  66.862  1.00  0.00    -0.299 C  
HETATM   22  C   UNL     1     -10.094   8.577  67.222  1.00  0.00    -0.317 C  
BRANCH  22  23
HETATM   23  C   UNL     1      -9.652   7.469  66.257  1.00  0.00    -0.065 C  
BRANCH  23  24
HETATM   24  N   UNL     1      -9.619   6.163  66.970  1.00  0.00    -0.129 NA 
HETATM   25  C   UNL     1     -10.513   5.111  66.419  1.00  0.00    -0.303 C  
HETATM   26  C   UNL     1     -10.037   4.400  65.122  1.00  0.00    -0.176 C  
HETATM   27  N   UNL     1      -8.600   4.063  65.023  1.00  0.00    -0.113 NA 
HETATM   28  C   UNL     1      -7.771   5.120  65.627  1.00  0.00    -0.087 C  
HETATM   29  C   UNL     1      -8.299   2.760  65.611  1.00  0.00    -0.093 C  
HETATM   30  C   UNL     1      -8.260   5.596  67.010  1.00  0.00    -0.101 C  
ENDBRANCH  23  24
ENDBRANCH  22  23
ENDBRANCH   4   7
ENDBRANCH   2   4
TORSDOF 4
ENDMDL
MODEL       28
REMARK 921   NORMALIZED FREE ENERGY PREDICTED BY IDOCK:   -6.19 KCAL/MOL
REMARK 922        TOTAL FREE ENERGY PREDICTED BY IDOCK:   -8.29 KCAL/MOL
REMARK 923 INTER-LIGAND FREE ENERGY PREDICTED BY IDOCK:   -7.69 KCAL/MOL
REMARK 924 INTRA-LIGAND FREE ENERGY PREDICTED BY IDOCK:   -0.60 KCAL/MOL
REMARK 927      BINDING AFFINITY PREDICTED BY RF-SCORE:    0.00 PKD
ROOT
HETATM    1  C   UNL     1     -11.015  15.499  65.196  1.00  0.00    -0.409 C  
HETATM    2  N   UNL     1     -10.773  14.302  66.023  1.00  0.00    -0.298 N  
HETATM    3  C   UNL     1     -10.403  14.616  67.417  1.00  0.00    -0.241 C  
ENDROOT
BRANCH   2   4
HETATM    4  S   UNL     1     -11.851  12.993  65.821  1.00  0.00    -0.427 S  
HETATM    5  O   UNL     1     -12.943  13.438  64.971  1.00  0.00    -0.720 OA 
HETATM    6  O   UNL     1     -12.100  12.392  67.110  1.00  0.00    -0.532 OA 
BRANCH   4   7
HETATM    7  C   UNL     1     -10.874  11.850  64.858  1.00  0.00    -0.305 A  
HETATM    8  C   UNL     1     -10.375  10.695  65.478  1.00  0.00    -0.297 A  
HETATM    9  C   UNL     1      -9.550   9.741  64.841  1.00  0.00    -0.316 A  
HETATM   10  C   UNL     1      -9.279  10.034  63.492  1.00  0.00    -0.277 A  
HETATM   11  S   UNL     1      -8.328   9.028  62.397  1.00  0.00    -0.201 SA 
HETATM   12  C   UNL     1      -9.791  11.200  62.862  1.00  0.00    -0.323 A  
HETATM   13  C   UNL     1      -7.664   7.763  63.434  1.00  0.00    -0.135 A  
HETATM   14  C   UNL     1     -10.598  12.104  63.535  1.00  0.00    -0.501 A  
HETATM   15  C   UNL     1      -6.759   6.913  62.757  1.00  0.00    -0.047 A  
HETATM   16  C   UNL     1      -6.125   5.865  63.403  1.00  0.00    -0.022 A  
HETATM   17  C   UNL     1      -6.384   5.664  64.745  1.00  0.00    -0.037 A  
HETATM   18  C   UNL     1      -7.278   6.507  65.427  1.00  0.00    -0.073 A  
HETATM   19  C   UNL     1      -7.966   7.575  64.797  1.00  0.00    -0.132 A  
HETATM   20  C   UNL     1      -8.961   8.490  65.532  1.00  0.00    -0.182 C  
HETATM   21  C   UNL     1      -9.300   8.131  66.811  1.00  0.00    -0.233 C  
HETATM   22  C   UNL     1     -10.235   8.842  67.755  1.00  0.00    -0.283 C  
BRANCH  22  23
HETATM   23  C   UNL     1     -10.672   8.300  69.122  1.00  0.00    -0.101 C  
BRANCH  23  24
HETATM   24  N   UNL     1     -10.128   9.164  70.205  1.00  0.00    -0.192 NA 
HETATM   25  C   UNL     1     -10.950   9.231  71.443  1.00  0.00    -0.359 C  
HETATM   26  C   UNL     1     -10.873   8.009  72.398  1.00  0.00    -0.327 C  
HETATM   27  N   UNL     1      -9.544   7.394  72.606  1.00  0.00    -0.151 NA 
HETATM   28  C   UNL     1      -8.763   7.399  71.357  1.00  0.00    -0.125 C  
HETATM   29  C   UNL     1      -8.804   8.036  73.690  1.00  0.00    -0.260 C  
HETATM   30  C   UNL     1      -8.774   8.748  70.609  1.00  0.00    -0.180 C  
ENDBRANCH  23  24
ENDBRANCH  22  23
ENDBRANCH   4   7
ENDBRANCH   2   4
TORSDOF 4
ENDMDL
MODEL       29
REMARK 921   NORMALIZED FREE ENERGY PREDICTED BY IDOCK:   -6.15 KCAL/MOL
REMARK 922        TOTAL FREE ENERGY PREDICTED BY IDOCK:   -8.24 KCAL/MOL
REMARK 923 INTER-LIGAND FREE ENERGY PREDICTED BY IDOCK:   -7.73 KCAL/MOL
REMARK 924 INTRA-LIGAND FREE ENERGY PREDICTED BY IDOCK:   -0.51 KCAL/MOL
REMARK 927      BINDING AFFINITY PREDICTED BY RF-SCORE:    0.00 PKD
ROOT
HETATM    1  C   UNL     1      -8.926   7.761  66.133  1.00  0.00    -0.163 C  
HETATM    2  N   UNL     1      -8.733   9.157  66.569  1.00  0.00    -0.126 N  
HETATM    3  C   UNL     1      -7.602   9.330  67.500  1.00  0.00    -0.088 C  
ENDROOT
BRANCH   2   4
HETATM    4  S   UNL     1      -8.902  10.367  65.376  1.00  0.00    -0.188 S  
HETATM    5  O   UNL     1      -9.844   9.888  64.378  1.00  0.00    -0.236 OA 
HETATM    6  O   UNL     1      -7.589  10.840  65.003  1.00  0.00    -0.005 OA 
BRANCH   4   7
HETATM    7  C   UNL     1      -9.722  11.671  66.281  1.00  0.00    -0.218 A  
HETATM    8  C   UNL     1     -10.223  11.396  67.562  1.00  0.00    -0.210 A  
HETATM    9  C   UNL     1     -10.934  12.322  68.356  1.00  0.00    -0.270 A  
HETATM   10  C   UNL     1     -11.084  13.587  67.758  1.00  0.00    -0.268 A  
HETATM   11  S   UNL     1     -11.871  14.983  68.497  1.00  0.00    -0.247 SA 
HETATM   12  C   UNL     1     -10.568  13.869  66.465  1.00  0.00    -0.279 A  
HETATM   13  C   UNL     1     -12.573  14.348  69.987  1.00  0.00    -0.233 A  
HETATM   14  C   UNL     1      -9.876  12.920  65.727  1.00  0.00    -0.216 A  
HETATM   15  C   UNL     1     -13.365  15.298  70.674  1.00  0.00    -0.320 A  
HETATM   16  C   UNL     1     -14.008  14.987  71.860  1.00  0.00    -0.604 A  
HETATM   17  C   UNL     1     -13.874  13.709  72.367  1.00  0.00    -0.691 A  
HETATM   18  C   UNL     1     -13.094  12.756  71.689  1.00  0.00    -0.428 A  
HETATM   19  C   UNL     1     -12.399  13.042  70.486  1.00  0.00    -0.365 A  
HETATM   20  C   UNL     1     -11.528  12.011  69.749  1.00  0.00    -0.284 C  
HETATM   21  C   UNL     1     -11.300  10.822  70.393  1.00  0.00    -0.342 C  
HETATM   22  C   UNL     1     -10.499   9.643  69.904  1.00  0.00    -0.285 C  
BRANCH  22  23
HETATM   23  C   UNL     1     -10.175   8.401  70.746  1.00  0.00    -0.194 C  
BRANCH  23  24
HETATM   24  N   UNL     1     -11.365   7.510  70.810  1.00  0.00    -0.277 NA 
HETATM   25  C   UNL     1     -11.145   6.114  70.350  1.00  0.00    -0.352 C  
HETATM   26  C   UNL     1     -10.399   5.166  71.329  1.00  0.00    -0.205 C  
HETATM   27  N   UNL     1     -10.746   5.265  72.763  1.00  0.00    -0.227 NA 
HETATM   28  C   UNL     1     -10.997   6.665  73.146  1.00  0.00    -0.231 C  
HETATM   29  C   UNL     1     -11.879   4.413  73.116  1.00  0.00     0.094 C  
HETATM   30  C   UNL     1     -11.917   7.432  72.174  1.00  0.00    -0.270 C  
ENDBRANCH  23  24
ENDBRANCH  22  23
ENDBRANCH   4   7
ENDBRANCH   2   4
TORSDOF 4
ENDMDL
MODEL       30
REMARK 921   NORMALIZED FREE ENERGY PREDICTED BY IDOCK:   -6.12 KCAL/MOL
REMARK 922        TOTAL FREE ENERGY PREDICTED BY IDOCK:   -8.20 KCAL/MOL
REMARK 923 INTER-LIGAND FREE ENERGY PREDICTED BY IDOCK:   -7.78 KCAL/MOL
REMARK 924 INTRA-LIGAND FREE ENERGY PREDICTED BY IDOCK:   -0.42 KCAL/MOL
REMARK 927      BINDING AFFINITY PREDICTED BY RF-SCORE:    0.00 PKD
ROOT
HETATM    1  C   UNL     1     -12.290  13.897  66.224  1.00  0.00    -0.449 C  
HETATM    2  N   UNL     1     -11.002  14.606  66.344  1.00  0.00    -0.319 N  
HETATM    3  C   UNL     1     -10.712  15.493  65.202  1.00  0.00    -0.440 C  
ENDROOT
BRANCH   2   4
HETATM    4  S   UNL     1     -10.605  15.229  67.884  1.00  0.00    -0.266 S  
HETATM    5  O   UNL     1     -11.399  16.428  68.103  1.00  0.00    -0.324 OA 
HETATM    6  O   UNL     1      -9.168  15.245  68.024  1.00  0.00    -0.185 OA 
BRANCH   4   7
HETATM    7  C   UNL     1     -11.252  13.971  68.974  1.00  0.00    -0.276 A  
HETATM    8  C   UNL     1     -10.711  12.678  68.914  1.00  0.00    -0.201 A  
HETATM    9  C   UNL     1     -11.167  11.585  69.684  1.00  0.00    -0.276 A  
HETATM   10  C   UNL     1     -12.221  11.907  70.558  1.00  0.00    -0.336 A  
HETATM   11  S   UNL     1     -12.987  10.794  71.694  1.00  0.00    -0.441 SA 
HETATM   12  C   UNL     1     -12.764  13.219  70.625  1.00  0.00    -0.227 A  
HETATM   13  C   UNL     1     -12.283   9.223  71.303  1.00  0.00    -0.334 A  
HETATM   14  C   UNL     1     -12.277  14.256  69.846  1.00  0.00    -0.407 A  
HETATM   15  C   UNL     1     -12.867   8.160  72.031  1.00  0.00    -0.346 A  
HETATM   16  C   UNL     1     -12.456   6.848  71.858  1.00  0.00    -0.350 A  
HETATM   17  C   UNL     1     -11.459   6.586  70.939  1.00  0.00    -0.408 A  
HETATM   18  C   UNL     1     -10.876   7.635  70.207  1.00  0.00    -0.253 A  
HETATM   19  C   UNL     1     -11.250   8.993  70.373  1.00  0.00    -0.275 A  
HETATM   20  C   UNL     1     -10.604  10.149  69.590  1.00  0.00    -0.286 C  
HETATM   21  C   UNL     1      -9.509   9.840  68.825  1.00  0.00    -0.154 C  
HETATM   22  C   UNL     1      -8.694  10.765  67.959  1.00  0.00    -0.132 C  
BRANCH  22  23
HETATM   23  C   UNL     1      -7.396  10.370  67.243  1.00  0.00    -0.090 C  
BRANCH  23  24
HETATM   24  N   UNL     1      -7.414  10.883  65.845  1.00  0.00    -0.097 NA 
HETATM   25  C   UNL     1      -6.451  10.238  64.915  1.00  0.00    -0.113 C  
HETATM   26  C   UNL     1      -6.828   8.826  64.388  1.00  0.00    -0.077 C  
HETATM   27  N   UNL     1      -8.243   8.596  64.023  1.00  0.00    -0.162 NA 
HETATM   28  C   UNL     1      -9.145   9.297  64.953  1.00  0.00    -0.170 C  
HETATM   29  C   UNL     1      -8.523   8.970  62.639  1.00  0.00    -0.210 C  
HETATM   30  C   UNL     1      -8.749  10.761  65.235  1.00  0.00    -0.173 C  
ENDBRANCH  23  24
ENDBRANCH  22  23
ENDBRANCH   4   7
ENDBRANCH   2   4
TORSDOF 4
ENDMDL
MODEL       31
REMARK 921   NORMALIZED FREE ENERGY PREDICTED BY IDOCK:   -6.11 KCAL/MOL
REMARK 922        TOTAL FREE ENERGY PREDICTED BY IDOCK:   -8.19 KCAL/MOL
REMARK 923 INTER-LIGAND FREE ENERGY PREDICTED BY IDOCK:   -7.66 KCAL/MOL
REMARK 924 INTRA-LIGAND FREE ENERGY PREDICTED BY IDOCK:   -0.54 KCAL/MOL
REMARK 927      BINDING AFFINITY PREDICTED BY RF-SCORE:    0.00 PKD
ROOT
HETATM    1  C   UNL     1      -9.957   7.409  73.529  1.00  0.00    -0.326 C  
HETATM    2  N   UNL     1     -10.632   6.724  72.411  1.00  0.00    -0.208 N  
HETATM    3  C   UNL     1     -11.261   5.446  72.799  1.00  0.00    -0.300 C  
ENDROOT
BRANCH   2   4
HETATM    4  S   UNL     1     -11.538   7.700  71.342  1.00  0.00    -0.282 S  
HETATM    5  O   UNL     1     -11.413   9.081  71.778  1.00  0.00    -0.329 OA 
HETATM    6  O   UNL     1     -12.832   7.092  71.139  1.00  0.00    -0.374 OA 
BRANCH   4   7
HETATM    7  C   UNL     1     -10.612   7.548  69.823  1.00  0.00    -0.241 A  
HETATM    8  C   UNL     1     -10.623   8.615  68.912  1.00  0.00    -0.166 A  
HETATM    9  C   UNL     1      -9.976   8.601  67.657  1.00  0.00    -0.248 A  
HETATM   10  C   UNL     1      -9.278   7.408  67.392  1.00  0.00    -0.132 A  
HETATM   11  S   UNL     1      -8.322   7.081  65.944  1.00  0.00    -0.144 SA 
HETATM   12  C   UNL     1      -9.259   6.330  68.317  1.00  0.00    -0.111 A  
HETATM   13  C   UNL     1      -8.643   8.461  64.891  1.00  0.00    -0.080 A  
HETATM   14  C   UNL     1      -9.913   6.399  69.538  1.00  0.00    -0.190 A  
HETATM   15  C   UNL     1      -8.057   8.326  63.611  1.00  0.00    -0.126 A  
HETATM   16  C   UNL     1      -8.202   9.302  62.638  1.00  0.00    -0.169 A  
HETATM   17  C   UNL     1      -8.951  10.423  62.937  1.00  0.00    -0.260 A  
HETATM   18  C   UNL     1      -9.541  10.564  64.205  1.00  0.00    -0.369 A  
HETATM   19  C   UNL     1      -9.395   9.601  65.235  1.00  0.00    -0.322 A  
HETATM   20  C   UNL     1     -10.022   9.757  66.631  1.00  0.00    -0.292 C  
HETATM   21  C   UNL     1     -10.605  10.965  66.915  1.00  0.00    -0.312 C  
HETATM   22  C   UNL     1     -11.294  11.384  68.188  1.00  0.00    -0.374 C  
BRANCH  22  23
HETATM   23  C   UNL     1     -11.797  12.804  68.479  1.00  0.00    -0.306 C  
BRANCH  23  24
HETATM   24  N   UNL     1     -10.693  13.623  69.050  1.00  0.00    -0.209 NA 
HETATM   25  C   UNL     1      -9.766  14.227  68.057  1.00  0.00    -0.223 C  
HETATM   26  C   UNL     1     -10.280  15.477  67.292  1.00  0.00    -0.260 C  
HETATM   27  N   UNL     1     -11.046  16.478  68.067  1.00  0.00    -0.319 NA 
HETATM   28  C   UNL     1     -11.910  15.820  69.063  1.00  0.00    -0.355 C  
HETATM   29  C   UNL     1     -10.177  17.468  68.698  1.00  0.00    -0.373 C  
HETATM   30  C   UNL     1     -11.204  14.723  69.886  1.00  0.00    -0.257 C  
ENDBRANCH  23  24
ENDBRANCH  22  23
ENDBRANCH   4   7
ENDBRANCH   2   4
TORSDOF 4
ENDMDL
MODEL       32
REMARK 921   NORMALIZED FREE ENERGY PREDICTED BY IDOCK:   -6.11 KCAL/MOL
REMARK 922        TOTAL FREE ENERGY PREDICTED BY IDOCK:   -8.19 KCAL/MOL
REMARK 923 INTER-LIGAND FREE ENERGY PREDICTED BY IDOCK:   -7.71 KCAL/MOL
REMARK 924 INTRA-LIGAND FREE ENERGY PREDICTED BY IDOCK:   -0.48 KCAL/MOL
REMARK 927      BINDING AFFINITY PREDICTED BY RF-SCORE:    0.00 PKD
ROOT
HETATM    1  C   UNL     1     -12.740  13.963  65.128  1.00  0.00    -0.398 C  
HETATM    2  N   UNL     1     -12.309  12.579  64.857  1.00  0.00    -0.483 N  
HETATM    3  C   UNL     1     -12.737  12.080  63.536  1.00  0.00    -0.443 C  
ENDROOT
BRANCH   2   4
HETATM    4  S   UNL     1     -10.723  12.158  65.329  1.00  0.00    -0.299 S  
HETATM    5  O   UNL     1      -9.954  13.384  65.466  1.00  0.00    -0.275 OA 
HETATM    6  O   UNL     1     -10.262  11.072  64.497  1.00  0.00    -0.295 OA 
BRANCH   4   7
HETATM    7  C   UNL     1     -10.981  11.520  66.977  1.00  0.00    -0.294 A  
HETATM    8  C   UNL     1     -10.619  10.194  67.255  1.00  0.00    -0.321 A  
HETATM    9  C   UNL     1     -10.818   9.556  68.500  1.00  0.00    -0.175 A  
HETATM   10  C   UNL     1     -11.402  10.384  69.475  1.00  0.00    -0.265 A  
HETATM   11  S   UNL     1     -11.738   9.921  71.145  1.00  0.00    -0.403 SA 
HETATM   12  C   UNL     1     -11.761  11.730  69.197  1.00  0.00    -0.388 A  
HETATM   13  C   UNL     1     -11.384   8.192  71.195  1.00  0.00    -0.269 A  
HETATM   14  C   UNL     1     -11.542  12.307  67.955  1.00  0.00    -0.408 A  
HETATM   15  C   UNL     1     -11.713   7.597  72.435  1.00  0.00    -0.366 A  
HETATM   16  C   UNL     1     -11.517   6.246  72.668  1.00  0.00    -0.255 A  
HETATM   17  C   UNL     1     -10.997   5.470  71.650  1.00  0.00    -0.238 A  
HETATM   18  C   UNL     1     -10.672   6.052  70.413  1.00  0.00    -0.358 A  
HETATM   19  C   UNL     1     -10.834   7.435  70.143  1.00  0.00    -0.270 A  
HETATM   20  C   UNL     1     -10.462   8.082  68.798  1.00  0.00    -0.196 C  
HETATM   21  C   UNL     1      -9.795   7.292  67.897  1.00  0.00    -0.172 C  
HETATM   22  C   UNL     1      -9.322   7.662  66.514  1.00  0.00    -0.241 C  
BRANCH  22  23
HETATM   23  C   UNL     1      -8.458   6.764  65.620  1.00  0.00    -0.138 C  
BRANCH  23  24
HETATM   24  N   UNL     1      -8.580   5.347  66.059  1.00  0.00    -0.122 NA 
HETATM   25  C   UNL     1      -9.708   4.587  65.459  1.00  0.00    -0.195 C  
HETATM   26  C   UNL     1      -9.523   4.103  63.995  1.00  0.00    -0.152 C  
HETATM   27  N   UNL     1      -8.192   3.576  63.619  1.00  0.00    -0.089 NA 
HETATM   28  C   UNL     1      -7.121   4.341  64.281  1.00  0.00    -0.047 C  
HETATM   29  C   UNL     1      -8.066   2.148  63.898  1.00  0.00    -0.080 C  
HETATM   30  C   UNL     1      -7.352   4.581  65.787  1.00  0.00    -0.077 C  
ENDBRANCH  23  24
ENDBRANCH  22  23
ENDBRANCH   4   7
ENDBRANCH   2   4
TORSDOF 4
ENDMDL
MODEL       33
REMARK 921   NORMALIZED FREE ENERGY PREDICTED BY IDOCK:   -6.08 KCAL/MOL
REMARK 922        TOTAL FREE ENERGY PREDICTED BY IDOCK:   -8.16 KCAL/MOL
REMARK 923 INTER-LIGAND FREE ENERGY PREDICTED BY IDOCK:   -7.52 KCAL/MOL
REMARK 924 INTRA-LIGAND FREE ENERGY PREDICTED BY IDOCK:   -0.63 KCAL/MOL
REMARK 927      BINDING AFFINITY PREDICTED BY RF-SCORE:    0.00 PKD
ROOT
HETATM    1  C   UNL     1      -5.806   7.958  66.798  1.00  0.00    -0.044 C  
HETATM    2  N   UNL     1      -6.618   6.797  67.205  1.00  0.00    -0.046 N  
HETATM    3  C   UNL     1      -7.073   6.861  68.607  1.00  0.00    -0.085 C  
ENDROOT
BRANCH   2   4
HETATM    4  S   UNL     1      -7.768   6.226  66.079  1.00  0.00    -0.095 S  
HETATM    5  O   UNL     1      -8.899   5.693  66.821  1.00  0.00    -0.114 OA 
HETATM    6  O   UNL     1      -7.089   5.438  65.077  1.00  0.00    -0.062 OA 
BRANCH   4   7
HETATM    7  C   UNL     1      -8.319   7.741  65.309  1.00  0.00    -0.122 A  
HETATM    8  C   UNL     1      -9.107   8.632  66.053  1.00  0.00    -0.255 A  
HETATM    9  C   UNL     1      -9.647   9.834  65.545  1.00  0.00    -0.348 A  
HETATM   10  C   UNL     1      -9.305  10.089  64.205  1.00  0.00    -0.280 A  
HETATM   11  S   UNL     1      -9.768  11.523  63.284  1.00  0.00    -0.357 SA 
HETATM   12  C   UNL     1      -8.500   9.191  63.453  1.00  0.00    -0.195 A  
HETATM   13  C   UNL     1     -10.888  12.378  64.347  1.00  0.00    -0.337 A  
HETATM   14  C   UNL     1      -7.995   8.023  64.003  1.00  0.00    -0.134 A  
HETATM   15  C   UNL     1     -11.477  13.509  63.734  1.00  0.00    -0.199 A  
HETATM   16  C   UNL     1     -12.391  14.306  64.403  1.00  0.00    -0.417 A  
HETATM   17  C   UNL     1     -12.735  13.969  65.698  1.00  0.00    -0.515 A  
HETATM   18  C   UNL     1     -12.159  12.845  66.314  1.00  0.00    -0.433 A  
HETATM   19  C   UNL     1     -11.202  12.018  65.672  1.00  0.00    -0.377 A  
HETATM   20  C   UNL     1     -10.552  10.798  66.347  1.00  0.00    -0.266 C  
HETATM   21  C   UNL     1     -10.808  10.622  67.682  1.00  0.00    -0.346 C  
HETATM   22  C   UNL     1     -10.314   9.518  68.582  1.00  0.00    -0.229 C  
BRANCH  22  23
HETATM   23  C   UNL     1     -10.530   9.469  70.100  1.00  0.00    -0.255 C  
BRANCH  23  24
HETATM   24  N   UNL     1      -9.830   8.286  70.672  1.00  0.00    -0.181 NA 
HETATM   25  C   UNL     1      -9.755   8.243  72.156  1.00  0.00    -0.274 C  
HETATM   26  C   UNL     1     -11.049   7.825  72.908  1.00  0.00    -0.398 C  
HETATM   27  N   UNL     1     -11.843   6.721  72.326  1.00  0.00    -0.271 NA 
HETATM   28  C   UNL     1     -11.841   6.793  70.855  1.00  0.00    -0.385 C  
HETATM   29  C   UNL     1     -11.388   5.412  72.789  1.00  0.00    -0.296 C  
HETATM   30  C   UNL     1     -10.447   7.022  70.235  1.00  0.00    -0.208 C  
ENDBRANCH  23  24
ENDBRANCH  22  23
ENDBRANCH   4   7
ENDBRANCH   2   4
TORSDOF 4
ENDMDL
MODEL       34
REMARK 921   NORMALIZED FREE ENERGY PREDICTED BY IDOCK:   -6.07 KCAL/MOL
REMARK 922        TOTAL FREE ENERGY PREDICTED BY IDOCK:   -8.14 KCAL/MOL
REMARK 923 INTER-LIGAND FREE ENERGY PREDICTED BY IDOCK:   -7.40 KCAL/MOL
REMARK 924 INTRA-LIGAND FREE ENERGY PREDICTED BY IDOCK:   -0.74 KCAL/MOL
REMARK 927      BINDING AFFINITY PREDICTED BY RF-SCORE:    0.00 PKD
ROOT
HETATM    1  C   UNL     1     -12.079   6.346  71.936  1.00  0.00    -0.310 C  
HETATM    2  N   UNL     1     -10.862   6.961  72.498  1.00  0.00    -0.233 N  
HETATM    3  C   UNL     1     -10.477   6.407  73.810  1.00  0.00    -0.303 C  
ENDROOT
BRANCH   2   4
HETATM    4  S   UNL     1      -9.577   7.260  71.415  1.00  0.00    -0.159 S  
HETATM    5  O   UNL     1      -9.462   6.114  70.527  1.00  0.00    -0.162 OA 
HETATM    6  O   UNL     1      -8.441   7.747  72.161  1.00  0.00    -0.111 OA 
BRANCH   4   7
HETATM    7  C   UNL     1     -10.217   8.611  70.439  1.00  0.00    -0.193 A  
HETATM    8  C   UNL     1     -10.028   8.593  69.049  1.00  0.00    -0.197 A  
HETATM    9  C   UNL     1     -10.440   9.623  68.174  1.00  0.00    -0.266 A  
HETATM   10  C   UNL     1     -11.095  10.688  68.819  1.00  0.00    -0.265 A  
HETATM   11  S   UNL     1     -11.780  12.105  68.019  1.00  0.00    -0.305 SA 
HETATM   12  C   UNL     1     -11.295  10.703  70.225  1.00  0.00    -0.401 A  
HETATM   13  C   UNL     1     -11.257  11.950  66.339  1.00  0.00    -0.331 A  
HETATM   14  C   UNL     1     -10.870   9.663  71.038  1.00  0.00    -0.412 A  
HETATM   15  C   UNL     1     -11.606  13.069  65.547  1.00  0.00    -0.382 A  
HETATM   16  C   UNL     1     -11.275  13.140  64.204  1.00  0.00    -0.433 A  
HETATM   17  C   UNL     1     -10.576  12.090  63.641  1.00  0.00    -0.503 A  
HETATM   18  C   UNL     1     -10.220  10.977  64.421  1.00  0.00    -0.409 A  
HETATM   19  C   UNL     1     -10.562  10.854  65.792  1.00  0.00    -0.230 A  
HETATM   20  C   UNL     1     -10.194   9.629  66.648  1.00  0.00    -0.302 C  
HETATM   21  C   UNL     1      -9.655   8.555  65.988  1.00  0.00    -0.236 C  
HETATM   22  C   UNL     1      -9.200   7.243  66.573  1.00  0.00    -0.195 C  
BRANCH  22  23
HETATM   23  C   UNL     1      -8.737   6.035  65.748  1.00  0.00    -0.151 C  
BRANCH  23  24
HETATM   24  N   UNL     1      -9.720   4.925  65.883  1.00  0.00    -0.174 NA 
HETATM   25  C   UNL     1      -9.397   3.689  65.123  1.00  0.00    -0.157 C  
HETATM   26  C   UNL     1      -8.297   2.770  65.722  1.00  0.00    -0.093 C  
HETATM   27  N   UNL     1      -8.301   2.575  67.189  1.00  0.00    -0.082 NA 
HETATM   28  C   UNL     1      -8.672   3.821  67.881  1.00  0.00    -0.104 C  
HETATM   29  C   UNL     1      -9.166   1.471  67.595  1.00  0.00    -0.130 C  
HETATM   30  C   UNL     1      -9.909   4.530  67.290  1.00  0.00    -0.175 C  
ENDBRANCH  23  24
ENDBRANCH  22  23
ENDBRANCH   4   7
ENDBRANCH   2   4
TORSDOF 4
ENDMDL
MODEL       35
REMARK 921   NORMALIZED FREE ENERGY PREDICTED BY IDOCK:   -6.07 KCAL/MOL
REMARK 922        TOTAL FREE ENERGY PREDICTED BY IDOCK:   -8.13 KCAL/MOL
REMARK 923 INTER-LIGAND FREE ENERGY PREDICTED BY IDOCK:   -7.31 KCAL/MOL
REMARK 924 INTRA-LIGAND FREE ENERGY PREDICTED BY IDOCK:   -0.82 KCAL/MOL
REMARK 927      BINDING AFFINITY PREDICTED BY RF-SCORE:    0.00 PKD
ROOT
HETATM    1  C   UNL     1     -13.547   7.307  71.669  1.00  0.00    -0.349 C  
HETATM    2  N   UNL     1     -12.467   8.262  71.358  1.00  0.00    -0.307 N  
HETATM    3  C   UNL     1     -12.905   9.671  71.378  1.00  0.00    -0.379 C  
ENDROOT
BRANCH   2   4
HETATM    4  S   UNL     1     -10.939   7.953  72.054  1.00  0.00    -0.295 S  
HETATM    5  O   UNL     1     -11.147   7.550  73.435  1.00  0.00    -0.344 OA 
HETATM    6  O   UNL     1     -10.044   9.035  71.715  1.00  0.00    -0.326 OA 
BRANCH   4   7
HETATM    7  C   UNL     1     -10.410   6.499  71.162  1.00  0.00    -0.205 A  
HETATM    8  C   UNL     1     -10.266   6.573  69.769  1.00  0.00    -0.221 A  
HETATM    9  C   UNL     1      -9.905   5.483  68.945  1.00  0.00    -0.213 A  
HETATM   10  C   UNL     1      -9.670   4.290  69.651  1.00  0.00    -0.214 A  
HETATM   11  S   UNL     1      -9.154   2.761  68.937  1.00  0.00    -0.160 SA 
HETATM   12  C   UNL     1      -9.808   4.216  71.064  1.00  0.00    -0.247 A  
HETATM   13  C   UNL     1      -9.229   3.048  67.196  1.00  0.00    -0.175 A  
HETATM   14  C   UNL     1     -10.165   5.319  71.825  1.00  0.00    -0.269 A  
HETATM   15  C   UNL     1      -8.966   1.886  66.433  1.00  0.00    -0.099 A  
HETATM   16  C   UNL     1      -8.987   1.906  65.049  1.00  0.00    -0.123 A  
HETATM   17  C   UNL     1      -9.285   3.094  64.411  1.00  0.00    -0.135 A  
HETATM   18  C   UNL     1      -9.552   4.252  65.160  1.00  0.00    -0.185 A  
HETATM   19  C   UNL     1      -9.516   4.280  66.578  1.00  0.00    -0.196 A  
HETATM   20  C   UNL     1      -9.788   5.549  67.405  1.00  0.00    -0.167 C  
HETATM   21  C   UNL     1      -9.906   6.725  66.710  1.00  0.00    -0.236 C  
HETATM   22  C   UNL     1     -10.179   8.101  67.260  1.00  0.00    -0.348 C  
BRANCH  22  23
HETATM   23  C   UNL     1     -10.157   9.391  66.429  1.00  0.00    -0.262 C  
BRANCH  23  24
HETATM   24  N   UNL     1      -9.664  10.520  67.264  1.00  0.00    -0.166 NA 
HETATM   25  C   UNL     1      -9.578  11.835  66.574  1.00  0.00    -0.210 C  
HETATM   26  C   UNL     1     -10.914  12.597  66.357  1.00  0.00    -0.272 C  
HETATM   27  N   UNL     1     -11.894  12.576  67.465  1.00  0.00    -0.450 NA 
HETATM   28  C   UNL     1     -11.898  11.265  68.136  1.00  0.00    -0.205 C  
HETATM   29  C   UNL     1     -11.664  13.655  68.424  1.00  0.00    -0.358 C  
HETATM   30  C   UNL     1     -10.494  10.717  68.465  1.00  0.00    -0.191 C  
ENDBRANCH  23  24
ENDBRANCH  22  23
ENDBRANCH   4   7
ENDBRANCH   2   4
TORSDOF 4
ENDMDL
MODEL       36
REMARK 921   NORMALIZED FREE ENERGY PREDICTED BY IDOCK:   -6.03 KCAL/MOL
REMARK 922        TOTAL FREE ENERGY PREDICTED BY IDOCK:   -8.08 KCAL/MOL
REMARK 923 INTER-LIGAND FREE ENERGY PREDICTED BY IDOCK:   -7.50 KCAL/MOL
REMARK 924 INTRA-LIGAND FREE ENERGY PREDICTED BY IDOCK:   -0.58 KCAL/MOL
REMARK 927      BINDING AFFINITY PREDICTED BY RF-SCORE:    0.00 PKD
ROOT
HETATM    1  C   UNL     1      -9.547  15.390  65.729  1.00  0.00    -0.333 C  
HETATM    2  N   UNL     1     -10.926  15.059  65.325  1.00  0.00    -0.359 N  
HETATM    3  C   UNL     1     -11.507  16.026  64.374  1.00  0.00    -0.242 C  
ENDROOT
BRANCH   2   4
HETATM    4  S   UNL     1     -11.265  13.415  65.010  1.00  0.00    -0.331 S  
HETATM    5  O   UNL     1     -10.073  12.813  64.434  1.00  0.00    -0.320 OA 
HETATM    6  O   UNL     1     -12.546  13.322  64.350  1.00  0.00    -0.609 OA 
BRANCH   4   7
HETATM    7  C   UNL     1     -11.442  12.747  66.656  1.00  0.00    -0.350 A  
HETATM    8  C   UNL     1     -11.016  11.434  66.905  1.00  0.00    -0.355 A  
HETATM    9  C   UNL     1     -11.147  10.774  68.147  1.00  0.00    -0.337 A  
HETATM   10  C   UNL     1     -11.732  11.565  69.152  1.00  0.00    -0.329 A  
HETATM   11  S   UNL     1     -11.994  11.068  70.825  1.00  0.00    -0.287 SA 
HETATM   12  C   UNL     1     -12.156  12.899  68.903  1.00  0.00    -0.182 A  
HETATM   13  C   UNL     1     -11.566   9.355  70.841  1.00  0.00    -0.312 A  
HETATM   14  C   UNL     1     -12.002  13.499  67.663  1.00  0.00    -0.373 A  
HETATM   15  C   UNL     1     -11.829   8.732  72.083  1.00  0.00    -0.436 A  
HETATM   16  C   UNL     1     -11.570   7.388  72.291  1.00  0.00    -0.333 A  
HETATM   17  C   UNL     1     -11.053   6.647  71.247  1.00  0.00    -0.312 A  
HETATM   18  C   UNL     1     -10.793   7.256  70.007  1.00  0.00    -0.271 A  
HETATM   19  C   UNL     1     -11.020   8.634  69.761  1.00  0.00    -0.132 A  
HETATM   20  C   UNL     1     -10.720   9.312  68.413  1.00  0.00    -0.192 C  
HETATM   21  C   UNL     1     -10.052   8.562  67.480  1.00  0.00    -0.282 C  
HETATM   22  C   UNL     1      -9.641   8.968  66.089  1.00  0.00    -0.341 C  
BRANCH  22  23
HETATM   23  C   UNL     1      -8.770   8.118  65.155  1.00  0.00    -0.012 C  
BRANCH  23  24
HETATM   24  N   UNL     1      -8.361   6.865  65.848  1.00  0.00    -0.132 NA 
HETATM   25  C   UNL     1      -8.859   5.604  65.238  1.00  0.00    -0.076 C  
HETATM   26  C   UNL     1      -8.133   5.115  63.954  1.00  0.00    -0.119 C  
HETATM   27  N   UNL     1      -6.660   5.244  63.920  1.00  0.00    -0.036 NA 
HETATM   28  C   UNL     1      -6.227   6.488  64.579  1.00  0.00    -0.037 C  
HETATM   29  C   UNL     1      -5.992   4.082  64.501  1.00  0.00    -0.018 C  
HETATM   30  C   UNL     1      -6.896   6.747  65.945  1.00  0.00    -0.056 C  
ENDBRANCH  23  24
ENDBRANCH  22  23
ENDBRANCH   4   7
ENDBRANCH   2   4
TORSDOF 4
ENDMDL
MODEL       37
REMARK 921   NORMALIZED FREE ENERGY PREDICTED BY IDOCK:   -6.02 KCAL/MOL
REMARK 922        TOTAL FREE ENERGY PREDICTED BY IDOCK:   -8.08 KCAL/MOL
REMARK 923 INTER-LIGAND FREE ENERGY PREDICTED BY IDOCK:   -7.46 KCAL/MOL
REMARK 924 INTRA-LIGAND FREE ENERGY PREDICTED BY IDOCK:   -0.62 KCAL/MOL
REMARK 927      BINDING AFFINITY PREDICTED BY RF-SCORE:    0.00 PKD
ROOT
HETATM    1  C   UNL     1      -8.952   9.742  63.285  1.00  0.00    -0.252 C  
HETATM    2  N   UNL     1      -8.149   8.633  63.834  1.00  0.00    -0.160 N  
HETATM    3  C   UNL     1      -7.504   7.805  62.797  1.00  0.00    -0.110 C  
ENDROOT
BRANCH   2   4
HETATM    4  S   UNL     1      -7.193   8.979  65.206  1.00  0.00    -0.089 S  
HETATM    5  O   UNL     1      -6.995  10.419  65.265  1.00  0.00    -0.136 OA 
HETATM    6  O   UNL     1      -6.074   8.067  65.236  1.00  0.00    -0.044 OA 
BRANCH   4   7
HETATM    7  C   UNL     1      -8.292   8.550  66.546  1.00  0.00    -0.113 A  
HETATM    8  C   UNL     1      -9.118   9.544  67.091  1.00  0.00    -0.152 A  
HETATM    9  C   UNL     1      -9.991   9.346  68.183  1.00  0.00    -0.202 A  
HETATM   10  C   UNL     1      -9.988   8.031  68.682  1.00  0.00    -0.189 A  
HETATM   11  S   UNL     1     -10.996   7.433  70.002  1.00  0.00    -0.220 SA 
HETATM   12  C   UNL     1      -9.158   7.021  68.125  1.00  0.00    -0.128 A  
HETATM   13  C   UNL     1     -11.785   8.880  70.635  1.00  0.00    -0.179 A  
HETATM   14  C   UNL     1      -8.318   7.271  67.050  1.00  0.00    -0.118 A  
HETATM   15  C   UNL     1     -12.553   8.627  71.796  1.00  0.00    -0.396 A  
HETATM   16  C   UNL     1     -13.242   9.637  72.446  1.00  0.00    -0.413 A  
HETATM   17  C   UNL     1     -13.157  10.921  71.945  1.00  0.00    -0.537 A  
HETATM   18  C   UNL     1     -12.392  11.184  70.795  1.00  0.00    -0.504 A  
HETATM   19  C   UNL     1     -11.694  10.174  70.086  1.00  0.00    -0.330 A  
HETATM   20  C   UNL     1     -10.870  10.449  68.816  1.00  0.00    -0.269 C  
HETATM   21  C   UNL     1     -10.968  11.706  68.277  1.00  0.00    -0.273 C  
HETATM   22  C   UNL     1     -10.272  12.247  67.055  1.00  0.00    -0.230 C  
BRANCH  22  23
HETATM   23  C   UNL     1     -10.543  13.624  66.436  1.00  0.00    -0.284 C  
BRANCH  23  24
HETATM   24  N   UNL     1      -9.468  14.575  66.829  1.00  0.00    -0.257 NA 
HETATM   25  C   UNL     1      -9.341  15.786  65.975  1.00  0.00    -0.349 C  
HETATM   26  C   UNL     1     -10.394  16.907  66.194  1.00  0.00    -0.320 C  
HETATM   27  N   UNL     1     -10.782  17.208  67.589  1.00  0.00    -0.336 NA 
HETATM   28  C   UNL     1     -10.845  15.976  68.393  1.00  0.00    -0.310 C  
HETATM   29  C   UNL     1      -9.897  18.193  68.207  1.00  0.00    -0.351 C  
HETATM   30  C   UNL     1      -9.630  15.042  68.216  1.00  0.00    -0.210 C  
ENDBRANCH  23  24
ENDBRANCH  22  23
ENDBRANCH   4   7
ENDBRANCH   2   4
TORSDOF 4
ENDMDL
MODEL       38
REMARK 921   NORMALIZED FREE ENERGY PREDICTED BY IDOCK:   -6.01 KCAL/MOL
REMARK 922        TOTAL FREE ENERGY PREDICTED BY IDOCK:   -8.06 KCAL/MOL
REMARK 923 INTER-LIGAND FREE ENERGY PREDICTED BY IDOCK:   -7.74 KCAL/MOL
REMARK 924 INTRA-LIGAND FREE ENERGY PREDICTED BY IDOCK:   -0.32 KCAL/MOL
REMARK 927      BINDING AFFINITY PREDICTED BY RF-SCORE:    0.00 PKD
ROOT
HETATM    1  C   UNL     1     -10.170  13.477  64.589  1.00  0.00    -0.316 C  
HETATM    2  N   UNL     1     -10.697  14.835  64.815  1.00  0.00    -0.399 N  
HETATM    3  C   UNL     1     -12.164  14.925  64.683  1.00  0.00    -0.341 C  
ENDROOT
BRANCH   2   4
HETATM    4  S   UNL     1     -10.014  15.724  66.102  1.00  0.00    -0.338 S  
HETATM    5  O   UNL     1     -10.505  17.090  66.017  1.00  0.00    -0.333 OA 
HETATM    6  O   UNL     1      -8.600  15.438  66.168  1.00  0.00    -0.222 OA 
BRANCH   4   7
HETATM    7  C   UNL     1     -10.795  14.979  67.526  1.00  0.00    -0.297 A  
HETATM    8  C   UNL     1     -10.549  13.627  67.804  1.00  0.00    -0.247 A  
HETATM    9  C   UNL     1     -11.143  12.910  68.866  1.00  0.00    -0.301 A  
HETATM   10  C   UNL     1     -12.007  13.684  69.661  1.00  0.00    -0.343 A  
HETATM   11  S   UNL     1     -12.868  13.114  71.093  1.00  0.00    -0.193 SA 
HETATM   12  C   UNL     1     -12.250  15.056  69.385  1.00  0.00    -0.234 A  
HETATM   13  C   UNL     1     -12.558  11.377  71.124  1.00  0.00    -0.386 A  
HETATM   14  C   UNL     1     -11.638  15.712  68.328  1.00  0.00    -0.326 A  
HETATM   15  C   UNL     1     -13.273  10.706  72.142  1.00  0.00    -0.379 A  
HETATM   16  C   UNL     1     -13.170   9.337  72.323  1.00  0.00    -0.535 A  
HETATM   17  C   UNL     1     -12.353   8.620  71.471  1.00  0.00    -0.370 A  
HETATM   18  C   UNL     1     -11.641   9.277  70.452  1.00  0.00    -0.215 A  
HETATM   19  C   UNL     1     -11.700  10.679  70.250  1.00  0.00    -0.433 A  
HETATM   20  C   UNL     1     -10.909  11.408  69.150  1.00  0.00    -0.260 C  
HETATM   21  C   UNL     1      -9.991  10.665  68.455  1.00  0.00    -0.176 C  
HETATM   22  C   UNL     1      -9.095  11.117  67.331  1.00  0.00    -0.143 C  
BRANCH  22  23
HETATM   23  C   UNL     1      -7.992  10.259  66.698  1.00  0.00    -0.116 C  
BRANCH  23  24
HETATM   24  N   UNL     1      -8.546   9.493  65.547  1.00  0.00    -0.139 NA 
HETATM   25  C   UNL     1      -7.547   8.758  64.728  1.00  0.00    -0.107 C  
HETATM   26  C   UNL     1      -6.993   7.434  65.324  1.00  0.00    -0.059 C  
HETATM   27  N   UNL     1      -7.956   6.548  66.015  1.00  0.00    -0.107 NA 
HETATM   28  C   UNL     1      -8.945   7.336  66.770  1.00  0.00    -0.137 C  
HETATM   29  C   UNL     1      -8.614   5.626  65.093  1.00  0.00    -0.130 C  
HETATM   30  C   UNL     1      -9.556   8.512  65.979  1.00  0.00    -0.165 C  
ENDBRANCH  23  24
ENDBRANCH  22  23
ENDBRANCH   4   7
ENDBRANCH   2   4
TORSDOF 4
ENDMDL
MODEL       39
REMARK 921   NORMALIZED FREE ENERGY PREDICTED BY IDOCK:   -6.00 KCAL/MOL
REMARK 922        TOTAL FREE ENERGY PREDICTED BY IDOCK:   -8.05 KCAL/MOL
REMARK 923 INTER-LIGAND FREE ENERGY PREDICTED BY IDOCK:   -7.83 KCAL/MOL
REMARK 924 INTRA-LIGAND FREE ENERGY PREDICTED BY IDOCK:   -0.22 KCAL/MOL
REMARK 927      BINDING AFFINITY PREDICTED BY RF-SCORE:    0.00 PKD
ROOT
HETATM    1  C   UNL     1      -6.012  11.544  66.516  1.00  0.00    -0.101 C  
HETATM    2  N   UNL     1      -7.356  11.134  66.964  1.00  0.00    -0.121 N  
HETATM    3  C   UNL     1      -7.774   9.819  66.441  1.00  0.00    -0.102 C  
ENDROOT
BRANCH   2   4
HETATM    4  S   UNL     1      -7.752  11.441  68.596  1.00  0.00    -0.134 S  
HETATM    5  O   UNL     1      -6.697  10.883  69.428  1.00  0.00    -0.080 OA 
HETATM    6  O   UNL     1      -9.138  11.097  68.813  1.00  0.00    -0.177 OA 
BRANCH   4   7
HETATM    7  C   UNL     1      -7.602  13.218  68.689  1.00  0.00    -0.094 A  
HETATM    8  C   UNL     1      -8.574  14.014  68.064  1.00  0.00    -0.179 A  
HETATM    9  C   UNL     1      -8.542  15.426  68.021  1.00  0.00    -0.151 A  
HETATM   10  C   UNL     1      -7.442  15.990  68.693  1.00  0.00    -0.166 A  
HETATM   11  S   UNL     1      -7.130  17.718  68.876  1.00  0.00    -0.241 SA 
HETATM   12  C   UNL     1      -6.463  15.184  69.333  1.00  0.00    -0.136 A  
HETATM   13  C   UNL     1      -8.354  18.490  67.864  1.00  0.00    -0.265 A  
HETATM   14  C   UNL     1      -6.544  13.801  69.346  1.00  0.00    -0.100 A  
HETATM   15  C   UNL     1      -8.193  19.892  67.776  1.00  0.00    -0.337 A  
HETATM   16  C   UNL     1      -9.050  20.676  67.022  1.00  0.00    -0.356 A  
HETATM   17  C   UNL     1     -10.075  20.057  66.333  1.00  0.00    -0.609 A  
HETATM   18  C   UNL     1     -10.240  18.664  66.410  1.00  0.00    -0.461 A  
HETATM   19  C   UNL     1      -9.400  17.829  67.192  1.00  0.00    -0.264 A  
HETATM   20  C   UNL     1      -9.586  16.306  67.297  1.00  0.00    -0.231 C  
HETATM   21  C   UNL     1     -10.719  15.782  66.730  1.00  0.00    -0.293 C  
HETATM   22  C   UNL     1     -11.145  14.337  66.678  1.00  0.00    -0.321 C  
BRANCH  22  23
HETATM   23  C   UNL     1     -12.499  13.847  66.148  1.00  0.00    -0.436 C  
BRANCH  23  24
HETATM   24  N   UNL     1     -12.401  12.411  65.765  1.00  0.00    -0.603 NA 
HETATM   25  C   UNL     1     -12.778  12.097  64.361  1.00  0.00    -0.217 C  
HETATM   26  C   UNL     1     -11.736  12.448  63.264  1.00  0.00    -0.382 C  
HETATM   27  N   UNL     1     -10.314  12.173  63.567  1.00  0.00    -0.443 NA 
HETATM   28  C   UNL     1     -10.016  12.459  64.981  1.00  0.00    -0.197 C  
HETATM   29  C   UNL     1      -9.931  10.808  63.216  1.00  0.00    -0.315 C  
HETATM   30  C   UNL     1     -11.043  11.880  65.975  1.00  0.00    -0.322 C  
ENDBRANCH  23  24
ENDBRANCH  22  23
ENDBRANCH   4   7
ENDBRANCH   2   4
TORSDOF 4
ENDMDL
MODEL       40
REMARK 921   NORMALIZED FREE ENERGY PREDICTED BY IDOCK:   -5.97 KCAL/MOL
REMARK 922        TOTAL FREE ENERGY PREDICTED BY IDOCK:   -8.02 KCAL/MOL
REMARK 923 INTER-LIGAND FREE ENERGY PREDICTED BY IDOCK:   -7.32 KCAL/MOL
REMARK 924 INTRA-LIGAND FREE ENERGY PREDICTED BY IDOCK:   -0.70 KCAL/MOL
REMARK 927      BINDING AFFINITY PREDICTED BY RF-SCORE:    0.00 PKD
ROOT
HETATM    1  C   UNL     1     -11.436   6.501  71.347  1.00  0.00    -0.309 C  
HETATM    2  N   UNL     1     -12.272   7.704  71.177  1.00  0.00    -0.306 N  
HETATM    3  C   UNL     1     -13.670   7.513  71.607  1.00  0.00    -0.377 C  
ENDROOT
BRANCH   2   4
HETATM    4  S   UNL     1     -11.567   9.201  71.597  1.00  0.00    -0.398 S  
HETATM    5  O   UNL     1     -10.199   8.949  72.024  1.00  0.00    -0.334 OA 
HETATM    6  O   UNL     1     -12.490   9.933  72.432  1.00  0.00    -0.162 OA 
BRANCH   4   7
HETATM    7  C   UNL     1     -11.474  10.027  70.017  1.00  0.00    -0.248 A  
HETATM    8  C   UNL     1     -10.900   9.351  68.931  1.00  0.00    -0.151 A  
HETATM    9  C   UNL     1     -10.722   9.911  67.646  1.00  0.00    -0.339 A  
HETATM   10  C   UNL     1     -11.200  11.229  67.530  1.00  0.00    -0.291 A  
HETATM   11  S   UNL     1     -11.180  12.199  66.055  1.00  0.00    -0.346 SA 
HETATM   12  C   UNL     1     -11.788  11.912  68.628  1.00  0.00    -0.365 A  
HETATM   13  C   UNL     1     -10.258  11.226  64.907  1.00  0.00    -0.286 A  
HETATM   14  C   UNL     1     -11.940  11.313  69.869  1.00  0.00    -0.440 A  
HETATM   15  C   UNL     1     -10.020  11.894  63.683  1.00  0.00    -0.404 A  
HETATM   16  C   UNL     1      -9.306  11.298  62.657  1.00  0.00    -0.313 A  
HETATM   17  C   UNL     1      -8.808  10.025  62.853  1.00  0.00    -0.238 A  
HETATM   18  C   UNL     1      -9.034   9.355  64.068  1.00  0.00    -0.174 A  
HETATM   19  C   UNL     1      -9.782   9.920  65.133  1.00  0.00    -0.376 A  
HETATM   20  C   UNL     1     -10.051   9.185  66.457  1.00  0.00    -0.357 C  
HETATM   21  C   UNL     1      -9.678   7.868  66.520  1.00  0.00    -0.279 C  
HETATM   22  C   UNL     1      -9.813   6.921  67.685  1.00  0.00    -0.164 C  
BRANCH  22  23
HETATM   23  C   UNL     1      -9.500   5.420  67.628  1.00  0.00    -0.122 C  
BRANCH  23  24
HETATM   24  N   UNL     1      -9.089   4.940  68.976  1.00  0.00    -0.106 NA 
HETATM   25  C   UNL     1      -9.487   3.546  69.307  1.00  0.00    -0.163 C  
HETATM   26  C   UNL     1      -8.648   2.409  68.660  1.00  0.00    -0.074 C  
HETATM   27  N   UNL     1      -7.183   2.603  68.592  1.00  0.00    -0.048 NA 
HETATM   28  C   UNL     1      -6.854   4.011  68.308  1.00  0.00    -0.047 C  
HETATM   29  C   UNL     1      -6.510   2.141  69.804  1.00  0.00    -0.029 C  
HETATM   30  C   UNL     1      -7.631   5.029  69.167  1.00  0.00    -0.072 C  
ENDBRANCH  23  24
ENDBRANCH  22  23
ENDBRANCH   4   7
ENDBRANCH   2   4
TORSDOF 4
ENDMDL
MODEL       41
REMARK 921   NORMALIZED FREE ENERGY PREDICTED BY IDOCK:   -5.97 KCAL/MOL
REMARK 922        TOTAL FREE ENERGY PREDICTED BY IDOCK:   -8.01 KCAL/MOL
REMARK 923 INTER-LIGAND FREE ENERGY PREDICTED BY IDOCK:   -7.43 KCAL/MOL
REMARK 924 INTRA-LIGAND FREE ENERGY PREDICTED BY IDOCK:   -0.58 KCAL/MOL
REMARK 927      BINDING AFFINITY PREDICTED BY RF-SCORE:    0.00 PKD
ROOT
HETATM    1  C   UNL     1      -9.194   9.764  62.392  1.00  0.00    -0.269 C  
HETATM    2  N   UNL     1      -8.622   9.783  63.751  1.00  0.00    -0.183 N  
HETATM    3  C   UNL     1      -7.173  10.059  63.775  1.00  0.00    -0.128 C  
ENDROOT
BRANCH   2   4
HETATM    4  S   UNL     1      -9.542  10.555  64.965  1.00  0.00    -0.304 S  
HETATM    5  O   UNL     1     -10.857  10.844  64.417  1.00  0.00    -0.299 OA 
HETATM    6  O   UNL     1      -8.738  11.590  65.572  1.00  0.00    -0.060 OA 
BRANCH   4   7
HETATM    7  C   UNL     1      -9.754   9.246  66.162  1.00  0.00    -0.279 A  
HETATM    8  C   UNL     1     -10.202   9.573  67.451  1.00  0.00    -0.285 A  
HETATM    9  C   UNL     1     -10.362   8.640  68.500  1.00  0.00    -0.228 A  
HETATM   10  C   UNL     1     -10.050   7.317  68.137  1.00  0.00    -0.173 A  
HETATM   11  S   UNL     1     -10.190   5.906  69.188  1.00  0.00    -0.240 SA 
HETATM   12  C   UNL     1      -9.604   6.985  66.829  1.00  0.00    -0.221 A  
HETATM   13  C   UNL     1     -10.576   6.582  70.773  1.00  0.00    -0.231 A  
HETATM   14  C   UNL     1      -9.467   7.942  65.835  1.00  0.00    -0.000 A  
HETATM   15  C   UNL     1     -10.608   5.606  71.796  1.00  0.00    -0.296 A  
HETATM   16  C   UNL     1     -10.885   5.941  73.111  1.00  0.00    -0.296 A  
HETATM   17  C   UNL     1     -11.122   7.267  73.418  1.00  0.00    -0.185 A  
HETATM   18  C   UNL     1     -11.087   8.244  72.409  1.00  0.00    -0.447 A  
HETATM   19  C   UNL     1     -10.833   7.939  71.047  1.00  0.00    -0.253 A  
HETATM   20  C   UNL     1     -10.813   9.001  69.934  1.00  0.00    -0.228 C  
HETATM   21  C   UNL     1     -11.223  10.263  70.277  1.00  0.00    -0.395 C  
HETATM   22  C   UNL     1     -11.294  11.485  69.397  1.00  0.00    -0.355 C  
BRANCH  22  23
HETATM   23  C   UNL     1     -11.899  12.829  69.821  1.00  0.00    -0.310 C  
BRANCH  23  24
HETATM   24  N   UNL     1     -11.867  13.781  68.677  1.00  0.00    -0.357 NA 
HETATM   25  C   UNL     1     -11.934  15.221  69.040  1.00  0.00    -0.276 C  
HETATM   26  C   UNL     1     -10.632  15.863  69.592  1.00  0.00    -0.301 C  
HETATM   27  N   UNL     1      -9.359  15.478  68.943  1.00  0.00    -0.207 NA 
HETATM   28  C   UNL     1      -9.373  14.054  68.566  1.00  0.00    -0.182 C  
HETATM   29  C   UNL     1      -9.051  16.322  67.791  1.00  0.00    -0.195 C  
HETATM   30  C   UNL     1     -10.662  13.601  67.849  1.00  0.00    -0.247 C  
ENDBRANCH  23  24
ENDBRANCH  22  23
ENDBRANCH   4   7
ENDBRANCH   2   4
TORSDOF 4
ENDMDL
MODEL       42
REMARK 921   NORMALIZED FREE ENERGY PREDICTED BY IDOCK:   -5.90 KCAL/MOL
REMARK 922        TOTAL FREE ENERGY PREDICTED BY IDOCK:   -7.92 KCAL/MOL
REMARK 923 INTER-LIGAND FREE ENERGY PREDICTED BY IDOCK:   -7.38 KCAL/MOL
REMARK 924 INTRA-LIGAND FREE ENERGY PREDICTED BY IDOCK:   -0.54 KCAL/MOL
REMARK 927      BINDING AFFINITY PREDICTED BY RF-SCORE:    0.00 PKD
ROOT
HETATM    1  C   UNL     1      -8.294  15.834  66.495  1.00  0.00    -0.278 C  
HETATM    2  N   UNL     1      -9.075  15.569  67.717  1.00  0.00    -0.178 N  
HETATM    3  C   UNL     1      -8.347  15.889  68.960  1.00  0.00    -0.239 C  
ENDROOT
BRANCH   2   4
HETATM    4  S   UNL     1     -10.724  16.011  67.690  1.00  0.00    -0.309 S  
HETATM    5  O   UNL     1     -11.279  15.599  66.411  1.00  0.00    -0.201 OA 
HETATM    6  O   UNL     1     -10.850  17.371  68.159  1.00  0.00    -0.373 OA 
BRANCH   4   7
HETATM    7  C   UNL     1     -11.420  14.932  68.931  1.00  0.00    -0.299 A  
HETATM    8  C   UNL     1     -11.065  13.575  68.926  1.00  0.00    -0.305 A  
HETATM    9  C   UNL     1     -11.584  12.611  69.819  1.00  0.00    -0.285 A  
HETATM   10  C   UNL     1     -12.493  13.136  70.756  1.00  0.00    -0.308 A  
HETATM   11  S   UNL     1     -13.283  12.219  72.041  1.00  0.00    -0.254 SA 
HETATM   12  C   UNL     1     -12.847  14.512  70.766  1.00  0.00    -0.423 A  
HETATM   13  C   UNL     1     -12.838  10.542  71.715  1.00  0.00    -0.454 A  
HETATM   14  C   UNL     1     -12.305  15.416  69.866  1.00  0.00    -0.324 A  
HETATM   15  C   UNL     1     -13.482   9.623  72.576  1.00  0.00    -0.320 A  
HETATM   16  C   UNL     1     -13.269   8.258  72.472  1.00  0.00    -0.104 A  
HETATM   17  C   UNL     1     -12.413   7.798  71.491  1.00  0.00    -0.348 A  
HETATM   18  C   UNL     1     -11.772   8.703  70.628  1.00  0.00    -0.178 A  
HETATM   19  C   UNL     1     -11.943  10.108  70.718  1.00  0.00    -0.442 A  
HETATM   20  C   UNL     1     -11.230  11.107  69.790  1.00  0.00    -0.318 C  
HETATM   21  C   UNL     1     -10.268  10.597  68.957  1.00  0.00    -0.231 C  
HETATM   22  C   UNL     1      -9.428  11.339  67.949  1.00  0.00    -0.179 C  
BRANCH  22  23
HETATM   23  C   UNL     1      -8.272  10.718  67.153  1.00  0.00    -0.123 C  
BRANCH  23  24
HETATM   24  N   UNL     1      -8.786  10.151  65.876  1.00  0.00    -0.144 NA 
HETATM   25  C   UNL     1      -7.777   9.991  64.796  1.00  0.00    -0.142 C  
HETATM   26  C   UNL     1      -6.804   8.787  64.923  1.00  0.00    -0.073 C  
HETATM   27  N   UNL     1      -7.371   7.504  65.394  1.00  0.00    -0.069 NA 
HETATM   28  C   UNL     1      -8.395   7.733  66.429  1.00  0.00    -0.131 C  
HETATM   29  C   UNL     1      -7.905   6.702  64.296  1.00  0.00    -0.115 C  
HETATM   30  C   UNL     1      -9.416   8.834  66.076  1.00  0.00    -0.233 C  
ENDBRANCH  23  24
ENDBRANCH  22  23
ENDBRANCH   4   7
ENDBRANCH   2   4
TORSDOF 4
ENDMDL
MODEL       43
REMARK 921   NORMALIZED FREE ENERGY PREDICTED BY IDOCK:   -5.81 KCAL/MOL
REMARK 922        TOTAL FREE ENERGY PREDICTED BY IDOCK:   -7.82 KCAL/MOL
REMARK 923 INTER-LIGAND FREE ENERGY PREDICTED BY IDOCK:   -7.80 KCAL/MOL
REMARK 924 INTRA-LIGAND FREE ENERGY PREDICTED BY IDOCK:   -0.02 KCAL/MOL
REMARK 927      BINDING AFFINITY PREDICTED BY RF-SCORE:    0.00 PKD
ROOT
HETATM    1  C   UNL     1      -7.648   5.544  69.950  1.00  0.00    -0.074 C  
HETATM    2  N   UNL     1      -8.451   6.770  69.792  1.00  0.00    -0.132 N  
HETATM    3  C   UNL     1      -7.658   7.941  69.372  1.00  0.00    -0.103 C  
ENDROOT
BRANCH   2   4
HETATM    4  S   UNL     1      -9.976   6.603  69.043  1.00  0.00    -0.158 S  
HETATM    5  O   UNL     1     -10.492   5.281  69.363  1.00  0.00    -0.260 OA 
HETATM    6  O   UNL     1      -9.878   7.058  67.676  1.00  0.00    -0.138 OA 
BRANCH   4   7
HETATM    7  C   UNL     1     -10.968   7.780  69.948  1.00  0.00    -0.190 A  
HETATM    8  C   UNL     1     -10.954   9.125  69.551  1.00  0.00    -0.138 A  
HETATM    9  C   UNL     1     -11.652  10.160  70.212  1.00  0.00    -0.379 A  
HETATM   10  C   UNL     1     -12.404   9.722  71.318  1.00  0.00    -0.371 A  
HETATM   11  S   UNL     1     -13.429  10.743  72.329  1.00  0.00     0.317 SA 
HETATM   12  C   UNL     1     -12.425   8.358  71.715  1.00  0.00    -0.375 A  
HETATM   13  C   UNL     1     -13.101  12.383  71.764  1.00  0.00    -0.342 A  
HETATM   14  C   UNL     1     -11.721   7.382  71.028  1.00  0.00    -0.326 A  
HETATM   15  C   UNL     1     -13.743  13.374  72.543  1.00  0.00    -0.636 A  
HETATM   16  C   UNL     1     -13.601  14.723  72.263  1.00  0.00    -0.532 A  
HETATM   17  C   UNL     1     -12.799  15.095  71.202  1.00  0.00    -0.469 A  
HETATM   18  C   UNL     1     -12.153  14.118  70.426  1.00  0.00    -0.417 A  
HETATM   19  C   UNL     1     -12.293  12.727  70.663  1.00  0.00    -0.381 A  
HETATM   20  C   UNL     1     -11.604  11.651  69.806  1.00  0.00    -0.389 C  
HETATM   21  C   UNL     1     -10.966  12.081  68.671  1.00  0.00    -0.281 C  
HETATM   22  C   UNL     1     -10.211  11.252  67.664  1.00  0.00    -0.206 C  
BRANCH  22  23
HETATM   23  C   UNL     1      -9.644  11.791  66.344  1.00  0.00    -0.218 C  
BRANCH  23  24
HETATM   24  N   UNL     1     -10.744  11.967  65.356  1.00  0.00    -0.275 NA 
HETATM   25  C   UNL     1     -11.980  12.603  65.882  1.00  0.00    -0.438 C  
HETATM   26  C   UNL     1     -11.939  14.142  66.090  1.00  0.00    -0.422 C  
HETATM   27  N   UNL     1     -11.258  14.947  65.053  1.00  0.00    -0.384 NA 
HETATM   28  C   UNL     1     -10.070  14.244  64.539  1.00  0.00     0.298 C  
HETATM   29  C   UNL     1     -12.159  15.318  63.964  1.00  0.00    -0.010 C  
HETATM   30  C   UNL     1     -10.313  12.760  64.192  1.00  0.00    -0.376 C  
ENDBRANCH  23  24
ENDBRANCH  22  23
ENDBRANCH   4   7
ENDBRANCH   2   4
TORSDOF 4
ENDMDL
MODEL       44
REMARK 921   NORMALIZED FREE ENERGY PREDICTED BY IDOCK:   -5.79 KCAL/MOL
REMARK 922        TOTAL FREE ENERGY PREDICTED BY IDOCK:   -7.79 KCAL/MOL
REMARK 923 INTER-LIGAND FREE ENERGY PREDICTED BY IDOCK:   -7.02 KCAL/MOL
REMARK 924 INTRA-LIGAND FREE ENERGY PREDICTED BY IDOCK:   -0.77 KCAL/MOL
REMARK 927      BINDING AFFINITY PREDICTED BY RF-SCORE:    0.00 PKD
ROOT
HETATM    1  C   UNL     1      -9.481  13.219  67.004  1.00  0.00    -0.243 C  
HETATM    2  N   UNL     1     -10.019  13.547  68.338  1.00  0.00    -0.236 N  
HETATM    3  C   UNL     1      -9.441  14.775  68.918  1.00  0.00    -0.191 C  
ENDROOT
BRANCH   2   4
HETATM    4  S   UNL     1     -11.699  13.341  68.564  1.00  0.00    -0.367 S  
HETATM    5  O   UNL     1     -12.281  12.955  67.289  1.00  0.00    -0.353 OA 
HETATM    6  O   UNL     1     -12.210  14.466  69.312  1.00  0.00    -0.306 OA 
BRANCH   4   7
HETATM    7  C   UNL     1     -11.760  11.903  69.621  1.00  0.00    -0.343 A  
HETATM    8  C   UNL     1     -10.886  10.836  69.364  1.00  0.00    -0.289 A  
HETATM    9  C   UNL     1     -10.870   9.625  70.092  1.00  0.00    -0.325 A  
HETATM   10  C   UNL     1     -11.808   9.579  71.139  1.00  0.00    -0.358 A  
HETATM   11  S   UNL     1     -12.015   8.240  72.271  1.00  0.00    -0.387 SA 
HETATM   12  C   UNL     1     -12.687  10.663  71.405  1.00  0.00    -0.545 A  
HETATM   13  C   UNL     1     -10.964   6.970  71.639  1.00  0.00    -0.230 A  
HETATM   14  C   UNL     1     -12.659  11.831  70.658  1.00  0.00    -0.289 A  
HETATM   15  C   UNL     1     -11.083   5.752  72.347  1.00  0.00    -0.332 A  
HETATM   16  C   UNL     1     -10.346   4.633  71.996  1.00  0.00    -0.234 A  
HETATM   17  C   UNL     1      -9.487   4.720  70.919  1.00  0.00    -0.230 A  
HETATM   18  C   UNL     1      -9.365   5.925  70.206  1.00  0.00    -0.181 A  
HETATM   19  C   UNL     1     -10.082   7.100  70.548  1.00  0.00    -0.202 A  
HETATM   20  C   UNL     1      -9.940   8.428  69.785  1.00  0.00    -0.191 C  
HETATM   21  C   UNL     1      -8.949   8.495  68.840  1.00  0.00    -0.146 C  
HETATM   22  C   UNL     1      -8.596   9.657  67.949  1.00  0.00    -0.122 C  
BRANCH  22  23
HETATM   23  C   UNL     1      -7.380   9.700  67.014  1.00  0.00    -0.087 C  
BRANCH  23  24
HETATM   24  N   UNL     1      -7.813  10.070  65.639  1.00  0.00    -0.131 NA 
HETATM   25  C   UNL     1      -6.722  10.203  64.638  1.00  0.00    -0.120 C  
HETATM   26  C   UNL     1      -6.123   8.882  64.080  1.00  0.00    -0.072 C  
HETATM   27  N   UNL     1      -7.068   7.784  63.779  1.00  0.00    -0.070 NA 
HETATM   28  C   UNL     1      -8.149   7.735  64.778  1.00  0.00    -0.131 C  
HETATM   29  C   UNL     1      -7.608   7.879  62.425  1.00  0.00    -0.114 C  
HETATM   30  C   UNL     1      -8.783   9.105  65.093  1.00  0.00    -0.195 C  
ENDBRANCH  23  24
ENDBRANCH  22  23
ENDBRANCH   4   7
ENDBRANCH   2   4
TORSDOF 4
ENDMDL
MODEL       45
REMARK 921   NORMALIZED FREE ENERGY PREDICTED BY IDOCK:   -5.72 KCAL/MOL
REMARK 922        TOTAL FREE ENERGY PREDICTED BY IDOCK:   -7.71 KCAL/MOL
REMARK 923 INTER-LIGAND FREE ENERGY PREDICTED BY IDOCK:   -6.98 KCAL/MOL
REMARK 924 INTRA-LIGAND FREE ENERGY PREDICTED BY IDOCK:   -0.72 KCAL/MOL
REMARK 927      BINDING AFFINITY PREDICTED BY RF-SCORE:    0.00 PKD
ROOT
HETATM    1  C   UNL     1      -9.986  14.151  68.587  1.00  0.00    -0.222 C  
HETATM    2  N   UNL     1     -11.212  13.516  68.070  1.00  0.00    -0.259 N  
HETATM    3  C   UNL     1     -12.106  14.455  67.364  1.00  0.00    -0.313 C  
ENDROOT
BRANCH   2   4
HETATM    4  S   UNL     1     -11.041  11.977  67.352  1.00  0.00    -0.301 S  
HETATM    5  O   UNL     1      -9.670  11.848  66.885  1.00  0.00    -0.195 OA 
HETATM    6  O   UNL     1     -12.159  11.747  66.467  1.00  0.00    -0.498 OA 
BRANCH   4   7
HETATM    7  C   UNL     1     -11.215  10.888  68.757  1.00  0.00    -0.270 A  
HETATM    8  C   UNL     1     -10.607   9.625  68.716  1.00  0.00    -0.242 A  
HETATM    9  C   UNL     1     -10.712   8.655  69.737  1.00  0.00    -0.215 A  
HETATM   10  C   UNL     1     -11.476   9.073  70.841  1.00  0.00    -0.291 A  
HETATM   11  S   UNL     1     -11.763   8.129  72.306  1.00  0.00    -0.399 SA 
HETATM   12  C   UNL     1     -12.086  10.355  70.887  1.00  0.00    -0.477 A  
HETATM   13  C   UNL     1     -11.075   6.544  71.942  1.00  0.00    -0.261 A  
HETATM   14  C   UNL     1     -11.949  11.271  69.855  1.00  0.00    -0.440 A  
HETATM   15  C   UNL     1     -11.316   5.592  72.959  1.00  0.00    -0.323 A  
HETATM   16  C   UNL     1     -10.864   4.287  72.855  1.00  0.00    -0.230 A  
HETATM   17  C   UNL     1     -10.172   3.918  71.718  1.00  0.00    -0.116 A  
HETATM   18  C   UNL     1      -9.932   4.856  70.699  1.00  0.00    -0.305 A  
HETATM   19  C   UNL     1     -10.356   6.207  70.779  1.00  0.00    -0.266 A  
HETATM   20  C   UNL     1     -10.080   7.245  69.677  1.00  0.00    -0.195 C  
HETATM   21  C   UNL     1      -9.245   6.859  68.661  1.00  0.00    -0.130 C  
HETATM   22  C   UNL     1      -8.815   7.663  67.460  1.00  0.00    -0.124 C  
BRANCH  22  23
HETATM   23  C   UNL     1      -7.765   7.208  66.439  1.00  0.00    -0.100 C  
BRANCH  23  24
HETATM   24  N   UNL     1      -8.148   7.675  65.078  1.00  0.00    -0.134 NA 
HETATM   25  C   UNL     1      -8.518   9.111  64.976  1.00  0.00    -0.171 C  
HETATM   26  C   UNL     1      -7.348  10.134  64.982  1.00  0.00    -0.139 C  
HETATM   27  N   UNL     1      -6.136   9.781  64.212  1.00  0.00    -0.105 NA 
HETATM   28  C   UNL     1      -5.850   8.340  64.316  1.00  0.00    -0.064 C  
HETATM   29  C   UNL     1      -6.230  10.198  62.815  1.00  0.00    -0.132 C  
HETATM   30  C   UNL     1      -7.078   7.433  64.095  1.00  0.00    -0.070 C  
ENDBRANCH  23  24
ENDBRANCH  22  23
ENDBRANCH   4   7
ENDBRANCH   2   4
TORSDOF 4
ENDMDL
MODEL       46
REMARK 921   NORMALIZED FREE ENERGY PREDICTED BY IDOCK:   -5.69 KCAL/MOL
REMARK 922        TOTAL FREE ENERGY PREDICTED BY IDOCK:   -7.67 KCAL/MOL
REMARK 923 INTER-LIGAND FREE ENERGY PREDICTED BY IDOCK:   -7.01 KCAL/MOL
REMARK 924 INTRA-LIGAND FREE ENERGY PREDICTED BY IDOCK:   -0.66 KCAL/MOL
REMARK 927      BINDING AFFINITY PREDICTED BY RF-SCORE:    0.00 PKD
ROOT
HETATM    1  C   UNL     1     -12.328   9.172  72.366  1.00  0.00    -0.240 C  
HETATM    2  N   UNL     1     -11.327   8.138  72.043  1.00  0.00    -0.293 N  
HETATM    3  C   UNL     1     -10.222   8.068  73.018  1.00  0.00    -0.286 C  
ENDROOT
BRANCH   2   4
HETATM    4  S   UNL     1     -11.920   6.637  71.486  1.00  0.00    -0.344 S  
HETATM    5  O   UNL     1     -13.273   6.841  70.997  1.00  0.00    -0.170 OA 
HETATM    6  O   UNL     1     -11.624   5.624  72.472  1.00  0.00    -0.300 OA 
BRANCH   4   7
HETATM    7  C   UNL     1     -10.890   6.335  70.059  1.00  0.00    -0.324 A  
HETATM    8  C   UNL     1     -10.662   7.383  69.154  1.00  0.00    -0.180 A  
HETATM    9  C   UNL     1      -9.912   7.260  67.963  1.00  0.00    -0.186 A  
HETATM   10  C   UNL     1      -9.374   5.976  67.761  1.00  0.00    -0.106 A  
HETATM   11  S   UNL     1      -8.348   5.496  66.407  1.00  0.00    -0.112 SA 
HETATM   12  C   UNL     1      -9.597   4.917  68.682  1.00  0.00    -0.215 A  
HETATM   13  C   UNL     1      -8.365   6.897  65.332  1.00  0.00    -0.119 A  
HETATM   14  C   UNL     1     -10.343   5.093  69.837  1.00  0.00    -0.347 A  
HETATM   15  C   UNL     1      -7.690   6.663  64.111  1.00  0.00    -0.109 A  
HETATM   16  C   UNL     1      -7.602   7.639  63.132  1.00  0.00    -0.119 A  
HETATM   17  C   UNL     1      -8.204   8.860  63.362  1.00  0.00    -0.181 A  
HETATM   18  C   UNL     1      -8.881   9.100  64.570  1.00  0.00    -0.165 A  
HETATM   19  C   UNL     1      -8.972   8.137  65.608  1.00  0.00    -0.128 A  
HETATM   20  C   UNL     1      -9.695   8.398  66.940  1.00  0.00    -0.292 C  
HETATM   21  C   UNL     1     -10.118   9.681  67.172  1.00  0.00    -0.276 C  
HETATM   22  C   UNL     1     -10.853  10.211  68.377  1.00  0.00    -0.284 C  
BRANCH  22  23
HETATM   23  C   UNL     1     -11.168  11.692  68.623  1.00  0.00    -0.250 C  
BRANCH  23  24
HETATM   24  N   UNL     1     -10.379  12.538  67.687  1.00  0.00    -0.216 NA 
HETATM   25  C   UNL     1     -11.159  13.191  66.602  1.00  0.00    -0.292 C  
HETATM   26  C   UNL     1     -11.999  14.436  66.999  1.00  0.00    -0.395 C  
HETATM   27  N   UNL     1     -11.383  15.396  67.941  1.00  0.00    -0.334 NA 
HETATM   28  C   UNL     1     -10.587  14.692  68.962  1.00  0.00    -0.247 C  
HETATM   29  C   UNL     1     -10.579  16.404  67.253  1.00  0.00    -0.293 C  
HETATM   30  C   UNL     1      -9.651  13.605  68.395  1.00  0.00    -0.203 C  
ENDBRANCH  23  24
ENDBRANCH  22  23
ENDBRANCH   4   7
ENDBRANCH   2   4
TORSDOF 4
ENDMDL
MODEL       47
REMARK 921   NORMALIZED FREE ENERGY PREDICTED BY IDOCK:   -5.68 KCAL/MOL
REMARK 922        TOTAL FREE ENERGY PREDICTED BY IDOCK:   -7.66 KCAL/MOL
REMARK 923 INTER-LIGAND FREE ENERGY PREDICTED BY IDOCK:   -7.04 KCAL/MOL
REMARK 924 INTRA-LIGAND FREE ENERGY PREDICTED BY IDOCK:   -0.62 KCAL/MOL
REMARK 927      BINDING AFFINITY PREDICTED BY RF-SCORE:    0.00 PKD
ROOT
HETATM    1  C   UNL     1      -8.710  13.440  67.519  1.00  0.00    -0.205 C  
HETATM    2  N   UNL     1      -9.820  13.718  68.449  1.00  0.00    -0.228 N  
HETATM    3  C   UNL     1      -9.849  15.114  68.927  1.00  0.00    -0.229 C  
ENDROOT
BRANCH   2   4
HETATM    4  S   UNL     1     -11.337  13.035  68.066  1.00  0.00    -0.312 S  
HETATM    5  O   UNL     1     -11.223  12.384  66.771  1.00  0.00    -0.276 OA 
HETATM    6  O   UNL     1     -12.368  14.013  68.326  1.00  0.00    -0.252 OA 
BRANCH   4   7
HETATM    7  C   UNL     1     -11.482  11.741  69.288  1.00  0.00    -0.306 A  
HETATM    8  C   UNL     1     -10.731  10.567  69.125  1.00  0.00    -0.266 A  
HETATM    9  C   UNL     1     -10.795   9.452  69.991  1.00  0.00    -0.271 A  
HETATM   10  C   UNL     1     -11.677   9.623  71.072  1.00  0.00    -0.353 A  
HETATM   11  S   UNL     1     -11.955   8.451  72.363  1.00  0.00    -0.344 SA 
HETATM   12  C   UNL     1     -12.432  10.815  71.242  1.00  0.00    -0.504 A  
HETATM   13  C   UNL     1     -11.066   7.016  71.845  1.00  0.00    -0.242 A  
HETATM   14  C   UNL     1     -12.330  11.880  70.361  1.00  0.00    -0.334 A  
HETATM   15  C   UNL     1     -11.266   5.905  72.697  1.00  0.00    -0.335 A  
HETATM   16  C   UNL     1     -10.660   4.684  72.453  1.00  0.00    -0.225 A  
HETATM   17  C   UNL     1      -9.853   4.559  71.339  1.00  0.00    -0.264 A  
HETATM   18  C   UNL     1      -9.652   5.656  70.484  1.00  0.00    -0.221 A  
HETATM   19  C   UNL     1     -10.233   6.930  70.712  1.00  0.00    -0.212 A  
HETATM   20  C   UNL     1     -10.002   8.140  69.791  1.00  0.00    -0.191 C  
HETATM   21  C   UNL     1      -9.059   7.996  68.807  1.00  0.00    -0.144 C  
HETATM   22  C   UNL     1      -8.642   9.007  67.770  1.00  0.00    -0.121 C  
BRANCH  22  23
HETATM   23  C   UNL     1      -7.477   8.818  66.789  1.00  0.00    -0.086 C  
BRANCH  23  24
HETATM   24  N   UNL     1      -7.257  10.073  66.019  1.00  0.00    -0.106 NA 
HETATM   25  C   UNL     1      -6.314   9.964  64.875  1.00  0.00    -0.110 C  
HETATM   26  C   UNL     1      -6.854   9.284  63.587  1.00  0.00    -0.092 C  
HETATM   27  N   UNL     1      -8.238   9.609  63.179  1.00  0.00    -0.143 NA 
HETATM   28  C   UNL     1      -9.112   9.749  64.357  1.00  0.00    -0.248 C  
HETATM   29  C   UNL     1      -8.298  10.802  62.337  1.00  0.00    -0.247 C  
HETATM   30  C   UNL     1      -8.519  10.616  65.486  1.00  0.00    -0.175 C  
ENDBRANCH  23  24
ENDBRANCH  22  23
ENDBRANCH   4   7
ENDBRANCH   2   4
TORSDOF 4
ENDMDL
MODEL       48
REMARK 921   NORMALIZED FREE ENERGY PREDICTED BY IDOCK:   -5.66 KCAL/MOL
REMARK 922        TOTAL FREE ENERGY PREDICTED BY IDOCK:   -7.63 KCAL/MOL
REMARK 923 INTER-LIGAND FREE ENERGY PREDICTED BY IDOCK:   -7.09 KCAL/MOL
REMARK 924 INTRA-LIGAND FREE ENERGY PREDICTED BY IDOCK:   -0.54 KCAL/MOL
REMARK 927      BINDING AFFINITY PREDICTED BY RF-SCORE:    0.00 PKD
ROOT
HETATM    1  C   UNL     1     -11.664  15.160  73.618  1.00  0.00    -0.074 C  
HETATM    2  N   UNL     1     -11.928  15.604  72.237  1.00  0.00    -0.418 N  
HETATM    3  C   UNL     1     -10.705  15.753  71.425  1.00  0.00     0.389 C  
ENDROOT
BRANCH   2   4
HETATM    4  S   UNL     1     -13.263  14.898  71.441  1.00  0.00    -0.422 S  
HETATM    5  O   UNL     1     -13.320  15.438  70.092  1.00  0.00    -0.042 OA 
HETATM    6  O   UNL     1     -14.409  14.949  72.319  1.00  0.00    -0.480 OA 
BRANCH   4   7
HETATM    7  C   UNL     1     -12.753  13.192  71.297  1.00  0.00    -0.306 A  
HETATM    8  C   UNL     1     -11.776  12.855  70.348  1.00  0.00    -0.109 A  
HETATM    9  C   UNL     1     -11.325  11.539  70.101  1.00  0.00    -0.146 A  
HETATM   10  C   UNL     1     -11.930  10.568  70.919  1.00  0.00    -0.377 A  
HETATM   11  S   UNL     1     -11.559   8.842  70.907  1.00  0.00    -0.255 SA 
HETATM   12  C   UNL     1     -12.914  10.910  71.886  1.00  0.00    -0.502 A  
HETATM   13  C   UNL     1     -10.471   8.642  69.531  1.00  0.00    -0.220 A  
HETATM   14  C   UNL     1     -13.319  12.220  72.088  1.00  0.00    -0.473 A  
HETATM   15  C   UNL     1     -10.151   7.289  69.273  1.00  0.00    -0.183 A  
HETATM   16  C   UNL     1      -9.317   6.926  68.228  1.00  0.00    -0.125 A  
HETATM   17  C   UNL     1      -8.802   7.920  67.420  1.00  0.00    -0.129 A  
HETATM   18  C   UNL     1      -9.118   9.267  67.666  1.00  0.00    -0.136 A  
HETATM   19  C   UNL     1      -9.947   9.682  68.739  1.00  0.00    -0.184 A  
HETATM   20  C   UNL     1     -10.282  11.156  69.027  1.00  0.00    -0.194 C  
HETATM   21  C   UNL     1      -9.604  12.097  68.296  1.00  0.00    -0.210 C  
HETATM   22  C   UNL     1      -9.739  13.596  68.364  1.00  0.00    -0.217 C  
BRANCH  22  23
HETATM   23  C   UNL     1      -8.842  14.587  67.612  1.00  0.00    -0.187 C  
BRANCH  23  24
HETATM   24  N   UNL     1      -8.997  15.950  68.190  1.00  0.00    -0.180 NA 
HETATM   25  C   UNL     1      -7.873  16.887  67.932  1.00  0.00    -0.175 C  
HETATM   26  C   UNL     1      -7.799  17.513  66.512  1.00  0.00    -0.276 C  
HETATM   27  N   UNL     1      -9.073  17.937  65.892  1.00  0.00    -0.500 NA 
HETATM   28  C   UNL     1     -10.156  16.995  66.223  1.00  0.00    -0.320 C  
HETATM   29  C   UNL     1      -9.437  19.304  66.260  1.00  0.00    -0.345 C  
HETATM   30  C   UNL     1     -10.226  16.609  67.715  1.00  0.00    -0.292 C  
ENDBRANCH  23  24
ENDBRANCH  22  23
ENDBRANCH   4   7
ENDBRANCH   2   4
TORSDOF 4
ENDMDL
MODEL       49
REMARK 921   NORMALIZED FREE ENERGY PREDICTED BY IDOCK:   -5.66 KCAL/MOL
REMARK 922        TOTAL FREE ENERGY PREDICTED BY IDOCK:   -7.63 KCAL/MOL
REMARK 923 INTER-LIGAND FREE ENERGY PREDICTED BY IDOCK:   -7.14 KCAL/MOL
REMARK 924 INTRA-LIGAND FREE ENERGY PREDICTED BY IDOCK:   -0.49 KCAL/MOL
REMARK 927      BINDING AFFINITY PREDICTED BY RF-SCORE:    0.00 PKD
ROOT
HETATM    1  C   UNL     1     -11.667  15.094  73.408  1.00  0.00    -0.167 C  
HETATM    2  N   UNL     1     -12.070  15.602  72.083  1.00  0.00    -0.399 N  
HETATM    3  C   UNL     1     -10.929  15.903  71.198  1.00  0.00    -0.051 C  
ENDROOT
BRANCH   2   4
HETATM    4  S   UNL     1     -13.404  14.839  71.338  1.00  0.00    -0.420 S  
HETATM    5  O   UNL     1     -13.727  15.580  70.129  1.00  0.00     0.130 OA 
HETATM    6  O   UNL     1     -14.406  14.567  72.341  1.00  0.00    -0.463 OA 
BRANCH   4   7
HETATM    7  C   UNL     1     -12.702  13.281  70.820  1.00  0.00    -0.209 A  
HETATM    8  C   UNL     1     -11.923  13.242  69.654  1.00  0.00    -0.376 A  
HETATM    9  C   UNL     1     -11.356  12.067  69.112  1.00  0.00    -0.338 A  
HETATM   10  C   UNL     1     -11.619  10.909  69.866  1.00  0.00    -0.331 A  
HETATM   11  S   UNL     1     -11.019   9.290  69.500  1.00  0.00    -0.089 SA 
HETATM   12  C   UNL     1     -12.401  10.949  71.052  1.00  0.00    -0.498 A  
HETATM   13  C   UNL     1     -10.247   9.459  67.922  1.00  0.00    -0.211 A  
HETATM   14  C   UNL     1     -12.933  12.132  71.540  1.00  0.00    -0.398 A  
HETATM   15  C   UNL     1      -9.803   8.226  67.389  1.00  0.00    -0.246 A  
HETATM   16  C   UNL     1      -9.180   8.150  66.154  1.00  0.00    -0.230 A  
HETATM   17  C   UNL     1      -9.005   9.314  65.432  1.00  0.00    -0.253 A  
HETATM   18  C   UNL     1      -9.447  10.543  65.950  1.00  0.00    -0.236 A  
HETATM   19  C   UNL     1     -10.066  10.667  67.220  1.00  0.00    -0.238 A  
HETATM   20  C   UNL     1     -10.534  12.011  67.804  1.00  0.00    -0.223 C  
HETATM   21  C   UNL     1     -10.177  13.141  67.115  1.00  0.00    -0.244 C  
HETATM   22  C   UNL     1     -10.505  14.573  67.451  1.00  0.00    -0.264 C  
BRANCH  22  23
HETATM   23  C   UNL     1      -9.948  15.793  66.705  1.00  0.00    -0.257 C  
BRANCH  23  24
HETATM   24  N   UNL     1      -9.135  16.625  67.634  1.00  0.00    -0.206 NA 
HETATM   25  C   UNL     1      -7.838  16.032  68.054  1.00  0.00    -0.137 C  
HETATM   26  C   UNL     1      -6.680  16.080  67.020  1.00  0.00    -0.103 C  
HETATM   27  N   UNL     1      -6.532  17.321  66.228  1.00  0.00    -0.226 NA 
HETATM   28  C   UNL     1      -7.849  17.883  65.882  1.00  0.00    -0.062 C  
HETATM   29  C   UNL     1      -5.701  18.312  66.907  1.00  0.00    -0.142 C  
HETATM   30  C   UNL     1      -8.839  17.950  67.064  1.00  0.00    -0.250 C  
ENDBRANCH  23  24
ENDBRANCH  22  23
ENDBRANCH   4   7
ENDBRANCH   2   4
TORSDOF 4
ENDMDL
MODEL       50
REMARK 921   NORMALIZED FREE ENERGY PREDICTED BY IDOCK:   -5.66 KCAL/MOL
REMARK 922        TOTAL FREE ENERGY PREDICTED BY IDOCK:   -7.63 KCAL/MOL
REMARK 923 INTER-LIGAND FREE ENERGY PREDICTED BY IDOCK:   -7.86 KCAL/MOL
REMARK 924 INTRA-LIGAND FREE ENERGY PREDICTED BY IDOCK:    0.23 KCAL/MOL
REMARK 927      BINDING AFFINITY PREDICTED BY RF-SCORE:    0.00 PKD
ROOT
HETATM    1  C   UNL     1     -13.594  13.302  72.198  1.00  0.00    -0.562 C  
HETATM    2  N   UNL     1     -12.544  13.087  71.186  1.00  0.00    -0.353 N  
HETATM    3  C   UNL     1     -12.782  11.905  70.335  1.00  0.00     0.045 C  
ENDROOT
BRANCH   2   4
HETATM    4  S   UNL     1     -11.953  14.472  70.380  1.00  0.00    -0.338 S  
HETATM    5  O   UNL     1     -10.610  14.739  70.871  1.00  0.00     0.140 OA 
HETATM    6  O   UNL     1     -12.974  15.492  70.397  1.00  0.00    -0.383 OA 
BRANCH   4   7
HETATM    7  C   UNL     1     -11.786  13.884  68.702  1.00  0.00    -0.372 A  
HETATM    8  C   UNL     1     -11.033  12.726  68.461  1.00  0.00    -0.288 A  
HETATM    9  C   UNL     1     -10.783  12.189  67.178  1.00  0.00    -0.267 A  
HETATM   10  C   UNL     1     -11.385  12.913  66.132  1.00  0.00    -0.317 A  
HETATM   11  S   UNL     1     -11.318  12.487  64.420  1.00  0.00    -0.369 SA 
HETATM   12  C   UNL     1     -12.156  14.081  66.377  1.00  0.00    -0.483 A  
HETATM   13  C   UNL     1     -10.180  11.138  64.353  1.00  0.00    -0.330 A  
HETATM   14  C   UNL     1     -12.370  14.564  67.659  1.00  0.00     0.033 A  
HETATM   15  C   UNL     1      -9.890  10.726  63.031  1.00  0.00    -0.344 A  
HETATM   16  C   UNL     1      -9.012   9.688  62.770  1.00  0.00    -0.264 A  
HETATM   17  C   UNL     1      -8.403   9.056  63.836  1.00  0.00    -0.178 A  
HETATM   18  C   UNL     1      -8.681   9.461  65.153  1.00  0.00    -0.210 A  
HETATM   19  C   UNL     1      -9.592  10.503  65.464  1.00  0.00    -0.282 A  
HETATM   20  C   UNL     1      -9.917  10.939  66.903  1.00  0.00    -0.232 C  
HETATM   21  C   UNL     1      -9.412  10.161  67.913  1.00  0.00    -0.154 C  
HETATM   22  C   UNL     1      -9.565  10.359  69.399  1.00  0.00    -0.213 C  
BRANCH  22  23
HETATM   23  C   UNL     1      -9.087   9.363  70.464  1.00  0.00    -0.256 C  
BRANCH  23  24
HETATM   24  N   UNL     1     -10.185   9.096  71.433  1.00  0.00    -0.327 NA 
HETATM   25  C   UNL     1     -11.402   8.461  70.863  1.00  0.00    -0.268 C  
HETATM   26  C   UNL     1     -11.318   6.940  70.559  1.00  0.00    -0.327 C  
HETATM   27  N   UNL     1     -10.619   6.090  71.547  1.00  0.00    -0.234 NA 
HETATM   28  C   UNL     1      -9.451   6.791  72.109  1.00  0.00    -0.139 C  
HETATM   29  C   UNL     1     -11.512   5.627  72.607  1.00  0.00    -0.285 C  
HETATM   30  C   UNL     1      -9.735   8.243  72.547  1.00  0.00    -0.298 C  
ENDBRANCH  23  24
ENDBRANCH  22  23
ENDBRANCH   4   7
ENDBRANCH   2   4
TORSDOF 4
ENDMDL
MODEL       51
REMARK 921   NORMALIZED FREE ENERGY PREDICTED BY IDOCK:   -5.64 KCAL/MOL
REMARK 922        TOTAL FREE ENERGY PREDICTED BY IDOCK:   -7.61 KCAL/MOL
REMARK 923 INTER-LIGAND FREE ENERGY PREDICTED BY IDOCK:   -6.87 KCAL/MOL
REMARK 924 INTRA-LIGAND FREE ENERGY PREDICTED BY IDOCK:   -0.74 KCAL/MOL
REMARK 927      BINDING AFFINITY PREDICTED BY RF-SCORE:    0.00 PKD
ROOT
HETATM    1  C   UNL     1      -8.191   8.520  62.377  1.00  0.00    -0.184 C  
HETATM    2  N   UNL     1      -7.568   8.730  63.697  1.00  0.00    -0.118 N  
HETATM    3  C   UNL     1      -6.122   9.015  63.625  1.00  0.00    -0.087 C  
ENDROOT
BRANCH   2   4
HETATM    4  S   UNL     1      -8.450   9.658  64.827  1.00  0.00    -0.173 S  
HETATM    5  O   UNL     1      -9.723  10.014  64.221  1.00  0.00    -0.296 OA 
HETATM    6  O   UNL     1      -7.578  10.664  65.386  1.00  0.00    -0.127 OA 
BRANCH   4   7
HETATM    7  C   UNL     1      -8.799   8.458  66.103  1.00  0.00    -0.165 A  
HETATM    8  C   UNL     1      -9.390   8.893  67.299  1.00  0.00    -0.173 A  
HETATM    9  C   UNL     1      -9.669   8.056  68.402  1.00  0.00    -0.168 A  
HETATM   10  C   UNL     1      -9.320   6.709  68.195  1.00  0.00    -0.114 A  
HETATM   11  S   UNL     1      -9.581   5.395  69.345  1.00  0.00    -0.162 SA 
HETATM   12  C   UNL     1      -8.729   6.266  66.981  1.00  0.00    -0.108 A  
HETATM   13  C   UNL     1     -10.144   6.205  70.809  1.00  0.00    -0.193 A  
HETATM   14  C   UNL     1      -8.477   7.133  65.929  1.00  0.00    -0.151 A  
HETATM   15  C   UNL     1     -10.294   5.323  71.905  1.00  0.00    -0.275 A  
HETATM   16  C   UNL     1     -10.718   5.770  73.145  1.00  0.00    -0.292 A  
HETATM   17  C   UNL     1     -10.987   7.115  73.304  1.00  0.00    -0.325 A  
HETATM   18  C   UNL     1     -10.836   8.000  72.222  1.00  0.00    -0.369 A  
HETATM   19  C   UNL     1     -10.429   7.579  70.931  1.00  0.00    -0.218 A  
HETATM   20  C   UNL     1     -10.280   8.538  69.737  1.00  0.00    -0.206 C  
HETATM   21  C   UNL     1     -10.725   9.822  69.918  1.00  0.00    -0.303 C  
HETATM   22  C   UNL     1     -10.695  10.960  68.931  1.00  0.00    -0.252 C  
BRANCH  22  23
HETATM   23  C   UNL     1     -11.342  12.331  69.163  1.00  0.00    -0.272 C  
BRANCH  23  24
HETATM   24  N   UNL     1     -10.472  13.401  68.601  1.00  0.00    -0.243 NA 
HETATM   25  C   UNL     1      -9.591  12.985  67.478  1.00  0.00    -0.204 C  
HETATM   26  C   UNL     1     -10.263  12.820  66.087  1.00  0.00    -0.275 C  
HETATM   27  N   UNL     1     -11.274  13.828  65.700  1.00  0.00    -0.300 NA 
HETATM   28  C   UNL     1     -12.083  14.232  66.863  1.00  0.00    -0.409 C  
HETATM   29  C   UNL     1     -10.672  14.990  65.050  1.00  0.00    -0.427 C  
HETATM   30  C   UNL     1     -11.259  14.553  68.127  1.00  0.00    -0.284 C  
ENDBRANCH  23  24
ENDBRANCH  22  23
ENDBRANCH   4   7
ENDBRANCH   2   4
TORSDOF 4
ENDMDL
MODEL       52
REMARK 921   NORMALIZED FREE ENERGY PREDICTED BY IDOCK:   -5.64 KCAL/MOL
REMARK 922        TOTAL FREE ENERGY PREDICTED BY IDOCK:   -7.61 KCAL/MOL
REMARK 923 INTER-LIGAND FREE ENERGY PREDICTED BY IDOCK:   -6.82 KCAL/MOL
REMARK 924 INTRA-LIGAND FREE ENERGY PREDICTED BY IDOCK:   -0.79 KCAL/MOL
REMARK 927      BINDING AFFINITY PREDICTED BY RF-SCORE:    0.00 PKD
ROOT
HETATM    1  C   UNL     1     -10.534  10.601  68.449  1.00  0.00    -0.188 C  
HETATM    2  N   UNL     1      -9.245  10.573  69.164  1.00  0.00    -0.185 N  
HETATM    3  C   UNL     1      -9.177   9.535  70.211  1.00  0.00    -0.258 C  
ENDROOT
BRANCH   2   4
HETATM    4  S   UNL     1      -7.835  10.766  68.221  1.00  0.00    -0.121 S  
HETATM    5  O   UNL     1      -8.242  11.101  66.866  1.00  0.00    -0.136 OA 
HETATM    6  O   UNL     1      -6.943   9.662  68.485  1.00  0.00    -0.064 OA 
BRANCH   4   7
HETATM    7  C   UNL     1      -7.113  12.240  68.926  1.00  0.00    -0.088 A  
HETATM    8  C   UNL     1      -7.628  13.491  68.555  1.00  0.00    -0.129 A  
HETATM    9  C   UNL     1      -7.114  14.729  69.000  1.00  0.00    -0.127 A  
HETATM   10  C   UNL     1      -6.030  14.608  69.888  1.00  0.00    -0.132 A  
HETATM   11  S   UNL     1      -5.191  15.950  70.670  1.00  0.00    -0.153 SA 
HETATM   12  C   UNL     1      -5.514  13.341  70.271  1.00  0.00    -0.127 A  
HETATM   13  C   UNL     1      -5.876  17.390  69.913  1.00  0.00    -0.249 A  
HETATM   14  C   UNL     1      -6.058  12.154  69.804  1.00  0.00    -0.143 A  
HETATM   15  C   UNL     1      -5.238  18.585  70.321  1.00  0.00    -0.231 A  
HETATM   16  C   UNL     1      -5.627  19.820  69.831  1.00  0.00    -0.284 A  
HETATM   17  C   UNL     1      -6.657  19.870  68.912  1.00  0.00    -0.358 A  
HETATM   18  C   UNL     1      -7.294  18.689  68.497  1.00  0.00    -0.319 A  
HETATM   19  C   UNL     1      -6.943  17.407  68.994  1.00  0.00    -0.238 A  
HETATM   20  C   UNL     1      -7.649  16.111  68.559  1.00  0.00    -0.170 C  
HETATM   21  C   UNL     1      -8.769  16.249  67.781  1.00  0.00    -0.182 C  
HETATM   22  C   UNL     1      -9.641  15.159  67.213  1.00  0.00    -0.211 C  
BRANCH  22  23
HETATM   23  C   UNL     1     -10.960  15.400  66.467  1.00  0.00    -0.271 C  
BRANCH  23  24
HETATM   24  N   UNL     1     -10.847  14.904  65.068  1.00  0.00    -0.398 NA 
HETATM   25  C   UNL     1     -10.237  13.557  64.914  1.00  0.00    -0.329 C  
HETATM   26  C   UNL     1     -11.139  12.339  65.258  1.00  0.00    -0.316 C  
HETATM   27  N   UNL     1     -12.552  12.399  64.824  1.00  0.00    -0.605 NA 
HETATM   28  C   UNL     1     -13.083  13.767  64.957  1.00  0.00    -0.004 C  
HETATM   29  C   UNL     1     -12.732  11.896  63.464  1.00  0.00    -0.405 C  
HETATM   30  C   UNL     1     -12.156  14.864  64.394  1.00  0.00    -0.401 C  
ENDBRANCH  23  24
ENDBRANCH  22  23
ENDBRANCH   4   7
ENDBRANCH   2   4
TORSDOF 4
ENDMDL
MODEL       53
REMARK 921   NORMALIZED FREE ENERGY PREDICTED BY IDOCK:   -5.62 KCAL/MOL
REMARK 922        TOTAL FREE ENERGY PREDICTED BY IDOCK:   -7.59 KCAL/MOL
REMARK 923 INTER-LIGAND FREE ENERGY PREDICTED BY IDOCK:   -6.99 KCAL/MOL
REMARK 924 INTRA-LIGAND FREE ENERGY PREDICTED BY IDOCK:   -0.59 KCAL/MOL
REMARK 927      BINDING AFFINITY PREDICTED BY RF-SCORE:    0.00 PKD
ROOT
HETATM    1  C   UNL     1     -10.385   5.171  70.395  1.00  0.00    -0.256 C  
HETATM    2  N   UNL     1     -10.829   6.200  71.352  1.00  0.00    -0.255 N  
HETATM    3  C   UNL     1     -11.501   5.644  72.543  1.00  0.00    -0.279 C  
ENDROOT
BRANCH   2   4
HETATM    4  S   UNL     1      -9.757   7.496  71.646  1.00  0.00    -0.161 S  
HETATM    5  O   UNL     1      -8.421   7.071  71.259  1.00  0.00    -0.118 OA 
HETATM    6  O   UNL     1     -10.021   8.032  72.960  1.00  0.00    -0.278 OA 
BRANCH   4   7
HETATM    7  C   UNL     1     -10.288   8.702  70.440  1.00  0.00    -0.200 A  
HETATM    8  C   UNL     1      -9.929   8.520  69.096  1.00  0.00    -0.194 A  
HETATM    9  C   UNL     1     -10.243   9.425  68.058  1.00  0.00    -0.248 A  
HETATM   10  C   UNL     1     -10.985  10.542  68.482  1.00  0.00    -0.252 A  
HETATM   11  S   UNL     1     -11.583  11.832  67.436  1.00  0.00    -0.233 SA 
HETATM   12  C   UNL     1     -11.356  10.722  69.842  1.00  0.00    -0.385 A  
HETATM   13  C   UNL     1     -10.855  11.489  65.864  1.00  0.00    -0.260 A  
HETATM   14  C   UNL     1     -11.022   9.800  70.822  1.00  0.00    -0.406 A  
HETATM   15  C   UNL     1     -11.117  12.494  64.904  1.00  0.00    -0.336 A  
HETATM   16  C   UNL     1     -10.625  12.411  63.612  1.00  0.00    -0.481 A  
HETATM   17  C   UNL     1      -9.850  11.320  63.272  1.00  0.00    -0.418 A  
HETATM   18  C   UNL     1      -9.580  10.319  64.220  1.00  0.00    -0.375 A  
HETATM   19  C   UNL     1     -10.086  10.354  65.545  1.00  0.00    -0.352 A  
HETATM   20  C   UNL     1      -9.811   9.252  66.583  1.00  0.00    -0.311 C  
HETATM   21  C   UNL     1      -9.183   8.121  66.131  1.00  0.00    -0.230 C  
HETATM   22  C   UNL     1      -8.787   6.902  66.925  1.00  0.00    -0.122 C  
BRANCH  22  23
HETATM   23  C   UNL     1      -8.213   5.616  66.317  1.00  0.00    -0.108 C  
BRANCH  23  24
HETATM   24  N   UNL     1      -9.224   4.983  65.427  1.00  0.00    -0.156 NA 
HETATM   25  C   UNL     1      -8.866   4.934  63.985  1.00  0.00    -0.083 C  
HETATM   26  C   UNL     1      -7.834   3.855  63.558  1.00  0.00    -0.078 C  
HETATM   27  N   UNL     1      -7.956   2.518  64.180  1.00  0.00    -0.077 NA 
HETATM   28  C   UNL     1      -8.357   2.632  65.593  1.00  0.00    -0.094 C  
HETATM   29  C   UNL     1      -8.871   1.650  63.443  1.00  0.00    -0.087 C  
HETATM   30  C   UNL     1      -9.530   3.603  65.842  1.00  0.00    -0.160 C  
ENDBRANCH  23  24
ENDBRANCH  22  23
ENDBRANCH   4   7
ENDBRANCH   2   4
TORSDOF 4
ENDMDL
MODEL       54
REMARK 921   NORMALIZED FREE ENERGY PREDICTED BY IDOCK:   -5.61 KCAL/MOL
REMARK 922        TOTAL FREE ENERGY PREDICTED BY IDOCK:   -7.57 KCAL/MOL
REMARK 923 INTER-LIGAND FREE ENERGY PREDICTED BY IDOCK:   -6.75 KCAL/MOL
REMARK 924 INTRA-LIGAND FREE ENERGY PREDICTED BY IDOCK:   -0.82 KCAL/MOL
REMARK 927      BINDING AFFINITY PREDICTED BY RF-SCORE:    0.00 PKD
ROOT
HETATM    1  C   UNL     1      -6.794   8.156  66.211  1.00  0.00    -0.058 C  
HETATM    2  N   UNL     1      -7.360   9.480  66.526  1.00  0.00    -0.089 N  
HETATM    3  C   UNL     1      -6.339  10.491  66.862  1.00  0.00    -0.074 C  
ENDROOT
BRANCH   2   4
HETATM    4  S   UNL     1      -8.644  10.024  65.541  1.00  0.00    -0.160 S  
HETATM    5  O   UNL     1      -9.698   9.024  65.582  1.00  0.00    -0.243 OA 
HETATM    6  O   UNL     1      -8.103  10.493  64.286  1.00  0.00    -0.134 OA 
BRANCH   4   7
HETATM    7  C   UNL     1      -9.238  11.442  66.450  1.00  0.00    -0.197 A  
HETATM    8  C   UNL     1      -9.970  11.234  67.628  1.00  0.00    -0.197 A  
HETATM    9  C   UNL     1     -10.536  12.267  68.408  1.00  0.00    -0.250 A  
HETATM   10  C   UNL     1     -10.282  13.558  67.912  1.00  0.00    -0.247 A  
HETATM   11  S   UNL     1     -10.798  15.067  68.670  1.00  0.00    -0.261 SA 
HETATM   12  C   UNL     1      -9.534  13.770  66.723  1.00  0.00    -0.281 A  
HETATM   13  C   UNL     1     -11.841  14.551  69.998  1.00  0.00    -0.313 A  
HETATM   14  C   UNL     1      -8.999  12.718  65.996  1.00  0.00     0.242 A  
HETATM   15  C   UNL     1     -12.464  15.633  70.663  1.00  0.00    -0.463 A  
HETATM   16  C   UNL     1     -13.327  15.432  71.728  1.00  0.00    -0.567 A  
HETATM   17  C   UNL     1     -13.586  14.137  72.130  1.00  0.00    -0.568 A  
HETATM   18  C   UNL     1     -12.976  13.055  71.472  1.00  0.00    -0.398 A  
HETATM   19  C   UNL     1     -12.068  13.219  70.396  1.00  0.00    -0.401 A  
HETATM   20  C   UNL     1     -11.381  12.041  69.683  1.00  0.00    -0.249 C  
HETATM   21  C   UNL     1     -11.549  10.800  70.241  1.00  0.00    -0.427 C  
HETATM   22  C   UNL     1     -11.002   9.484  69.751  1.00  0.00    -0.245 C  
BRANCH  22  23
HETATM   23  C   UNL     1     -11.117   8.156  70.511  1.00  0.00    -0.253 C  
BRANCH  23  24
HETATM   24  N   UNL     1     -10.402   7.084  69.766  1.00  0.00    -0.205 NA 
HETATM   25  C   UNL     1      -9.250   7.537  68.942  1.00  0.00    -0.142 C  
HETATM   26  C   UNL     1      -7.936   7.866  69.702  1.00  0.00    -0.118 C  
HETATM   27  N   UNL     1      -7.550   6.964  70.809  1.00  0.00    -0.089 NA 
HETATM   28  C   UNL     1      -8.737   6.515  71.557  1.00  0.00    -0.132 C  
HETATM   29  C   UNL     1      -6.761   5.826  70.343  1.00  0.00    -0.048 C  
HETATM   30  C   UNL     1      -9.901   6.032  70.667  1.00  0.00    -0.181 C  
ENDBRANCH  23  24
ENDBRANCH  22  23
ENDBRANCH   4   7
ENDBRANCH   2   4
TORSDOF 4
ENDMDL
MODEL       55
REMARK 921   NORMALIZED FREE ENERGY PREDICTED BY IDOCK:   -5.60 KCAL/MOL
REMARK 922        TOTAL FREE ENERGY PREDICTED BY IDOCK:   -7.56 KCAL/MOL
REMARK 923 INTER-LIGAND FREE ENERGY PREDICTED BY IDOCK:   -7.32 KCAL/MOL
REMARK 924 INTRA-LIGAND FREE ENERGY PREDICTED BY IDOCK:   -0.24 KCAL/MOL
REMARK 927      BINDING AFFINITY PREDICTED BY RF-SCORE:    0.00 PKD
ROOT
HETATM    1  C   UNL     1      -9.210  13.749  65.663  1.00  0.00     0.439 C  
HETATM    2  N   UNL     1     -10.665  13.939  65.523  1.00  0.00    -0.291 N  
HETATM    3  C   UNL     1     -11.040  15.301  65.095  1.00  0.00    -0.404 C  
ENDROOT
BRANCH   2   4
HETATM    4  S   UNL     1     -11.544  12.667  64.797  1.00  0.00    -0.350 S  
HETATM    5  O   UNL     1     -11.257  12.678  63.372  1.00  0.00    -0.467 OA 
HETATM    6  O   UNL     1     -12.901  12.698  65.289  1.00  0.00    -0.656 OA 
BRANCH   4   7
HETATM    7  C   UNL     1     -10.742  11.224  65.478  1.00  0.00    -0.220 A  
HETATM    8  C   UNL     1     -10.712  11.059  66.871  1.00  0.00    -0.325 A  
HETATM    9  C   UNL     1     -10.067   9.991  67.534  1.00  0.00    -0.243 A  
HETATM   10  C   UNL     1      -9.461   9.066  66.665  1.00  0.00    -0.194 A  
HETATM   11  S   UNL     1      -8.619   7.595  67.159  1.00  0.00    -0.123 SA 
HETATM   12  C   UNL     1      -9.498   9.228  65.254  1.00  0.00    -0.234 A  
HETATM   13  C   UNL     1      -8.548   7.706  68.920  1.00  0.00    -0.129 A  
HETATM   14  C   UNL     1     -10.147  10.297  64.655  1.00  0.00    -0.317 A  
HETATM   15  C   UNL     1      -7.791   6.666  69.508  1.00  0.00    -0.106 A  
HETATM   16  C   UNL     1      -7.610   6.585  70.879  1.00  0.00    -0.089 A  
HETATM   17  C   UNL     1      -8.179   7.558  71.677  1.00  0.00    -0.108 A  
HETATM   18  C   UNL     1      -8.928   8.599  71.101  1.00  0.00    -0.253 A  
HETATM   19  C   UNL     1      -9.157   8.703  69.706  1.00  0.00    -0.150 A  
HETATM   20  C   UNL     1      -9.992   9.828  69.069  1.00  0.00    -0.189 C  
HETATM   21  C   UNL     1     -10.667  10.657  69.928  1.00  0.00    -0.260 C  
HETATM   22  C   UNL     1     -11.542  11.834  69.581  1.00  0.00    -0.393 C  
BRANCH  22  23
HETATM   23  C   UNL     1     -12.376  12.627  70.596  1.00  0.00    -0.290 C  
BRANCH  23  24
HETATM   24  N   UNL     1     -12.824  13.910  69.987  1.00  0.00    -0.051 NA 
HETATM   25  C   UNL     1     -12.749  15.100  70.876  1.00  0.00    -0.401 C  
HETATM   26  C   UNL     1     -11.340  15.715  71.101  1.00  0.00    -0.393 C  
HETATM   27  N   UNL     1     -10.442  15.797  69.928  1.00  0.00    -0.307 NA 
HETATM   28  C   UNL     1     -10.597  14.614  69.065  1.00  0.00    -0.247 C  
HETATM   29  C   UNL     1     -10.640  17.030  69.169  1.00  0.00    -0.303 C  
HETATM   30  C   UNL     1     -12.062  14.233  68.769  1.00  0.00    -0.265 C  
ENDBRANCH  23  24
ENDBRANCH  22  23
ENDBRANCH   4   7
ENDBRANCH   2   4
TORSDOF 4
ENDMDL
MODEL       56
REMARK 921   NORMALIZED FREE ENERGY PREDICTED BY IDOCK:   -5.57 KCAL/MOL
REMARK 922        TOTAL FREE ENERGY PREDICTED BY IDOCK:   -7.52 KCAL/MOL
REMARK 923 INTER-LIGAND FREE ENERGY PREDICTED BY IDOCK:   -6.76 KCAL/MOL
REMARK 924 INTRA-LIGAND FREE ENERGY PREDICTED BY IDOCK:   -0.75 KCAL/MOL
REMARK 927      BINDING AFFINITY PREDICTED BY RF-SCORE:    0.00 PKD
ROOT
HETATM    1  C   UNL     1     -10.365   4.879  69.691  1.00  0.00    -0.107 C  
HETATM    2  N   UNL     1     -10.188   5.681  70.916  1.00  0.00    -0.211 N  
HETATM    3  C   UNL     1     -10.299   4.890  72.157  1.00  0.00    -0.200 C  
ENDROOT
BRANCH   2   4
HETATM    4  S   UNL     1      -8.950   6.857  70.897  1.00  0.00    -0.149 S  
HETATM    5  O   UNL     1      -8.021   6.515  69.832  1.00  0.00    -0.112 OA 
HETATM    6  O   UNL     1      -8.493   7.076  72.249  1.00  0.00    -0.111 OA 
BRANCH   4   7
HETATM    7  C   UNL     1      -9.831   8.318  70.368  1.00  0.00    -0.186 A  
HETATM    8  C   UNL     1      -9.744   8.713  69.025  1.00  0.00    -0.173 A  
HETATM    9  C   UNL     1     -10.350   9.874  68.494  1.00  0.00    -0.221 A  
HETATM   10  C   UNL     1     -11.088  10.612  69.437  1.00  0.00    -0.260 A  
HETATM   11  S   UNL     1     -12.008  12.079  69.097  1.00  0.00    -0.220 SA 
HETATM   12  C   UNL     1     -11.183  10.207  70.796  1.00  0.00    -0.414 A  
HETATM   13  C   UNL     1     -11.595  12.473  67.426  1.00  0.00    -0.370 A  
HETATM   14  C   UNL     1     -10.568   9.056  71.264  1.00  0.00    -0.378 A  
HETATM   15  C   UNL     1     -12.143  13.705  66.998  1.00  0.00    -0.423 A  
HETATM   16  C   UNL     1     -11.925  14.192  65.720  1.00  0.00    -0.410 A  
HETATM   17  C   UNL     1     -11.139  13.452  64.858  1.00  0.00    -0.348 A  
HETATM   18  C   UNL     1     -10.586  12.230  65.276  1.00  0.00    -0.322 A  
HETATM   19  C   UNL     1     -10.806  11.684  66.567  1.00  0.00    -0.328 A  
HETATM   20  C   UNL     1     -10.220  10.338  67.025  1.00  0.00    -0.282 C  
HETATM   21  C   UNL     1      -9.597   9.578  66.069  1.00  0.00    -0.316 C  
HETATM   22  C   UNL     1      -8.933   8.236  66.241  1.00  0.00    -0.221 C  
BRANCH  22  23
HETATM   23  C   UNL     1      -8.380   7.385  65.091  1.00  0.00    -0.079 C  
BRANCH  23  24
HETATM   24  N   UNL     1      -7.950   6.056  65.608  1.00  0.00    -0.110 NA 
HETATM   25  C   UNL     1      -8.977   5.308  66.380  1.00  0.00    -0.128 C  
HETATM   26  C   UNL     1     -10.097   4.611  65.558  1.00  0.00    -0.183 C  
HETATM   27  N   UNL     1      -9.697   3.938  64.303  1.00  0.00    -0.165 NA 
HETATM   28  C   UNL     1      -8.646   4.703  63.610  1.00  0.00    -0.132 C  
HETATM   29  C   UNL     1      -9.277   2.557  64.529  1.00  0.00    -0.131 C  
HETATM   30  C   UNL     1      -7.494   5.169  64.524  1.00  0.00    -0.072 C  
ENDBRANCH  23  24
ENDBRANCH  22  23
ENDBRANCH   4   7
ENDBRANCH   2   4
TORSDOF 4
ENDMDL
MODEL       57
REMARK 921   NORMALIZED FREE ENERGY PREDICTED BY IDOCK:   -5.55 KCAL/MOL
REMARK 922        TOTAL FREE ENERGY PREDICTED BY IDOCK:   -7.50 KCAL/MOL
REMARK 923 INTER-LIGAND FREE ENERGY PREDICTED BY IDOCK:   -7.42 KCAL/MOL
REMARK 924 INTRA-LIGAND FREE ENERGY PREDICTED BY IDOCK:   -0.07 KCAL/MOL
REMARK 927      BINDING AFFINITY PREDICTED BY RF-SCORE:    0.00 PKD
ROOT
HETATM    1  C   UNL     1      -7.245  16.248  66.708  1.00  0.00    -0.186 C  
HETATM    2  N   UNL     1      -8.315  17.242  66.511  1.00  0.00    -0.256 N  
HETATM    3  C   UNL     1      -7.840  18.508  65.921  1.00  0.00    -0.050 C  
ENDROOT
BRANCH   2   4
HETATM    4  S   UNL     1      -9.807  16.663  65.915  1.00  0.00    -0.228 S  
HETATM    5  O   UNL     1      -9.532  15.562  65.007  1.00  0.00    -0.076 OA 
HETATM    6  O   UNL     1     -10.615  17.788  65.506  1.00  0.00    -0.632 OA 
BRANCH   4   7
HETATM    7  C   UNL     1     -10.545  15.957  67.380  1.00  0.00    -0.315 A  
HETATM    8  C   UNL     1     -10.481  14.569  67.570  1.00  0.00    -0.253 A  
HETATM    9  C   UNL     1     -11.068  13.884  68.657  1.00  0.00    -0.290 A  
HETATM   10  C   UNL     1     -11.721  14.727  69.574  1.00  0.00    -0.321 A  
HETATM   11  S   UNL     1     -12.511  14.205  71.064  1.00  0.00    -0.386 SA 
HETATM   12  C   UNL     1     -11.779  16.134  69.387  1.00  0.00    -0.213 A  
HETATM   13  C   UNL     1     -12.466  12.441  70.984  1.00  0.00    -0.256 A  
HETATM   14  C   UNL     1     -11.183  16.756  68.300  1.00  0.00    -0.167 A  
HETATM   15  C   UNL     1     -13.170  11.823  72.043  1.00  0.00    -0.460 A  
HETATM   16  C   UNL     1     -13.258  10.445  72.150  1.00  0.00    -0.418 A  
HETATM   17  C   UNL     1     -12.648   9.669  71.184  1.00  0.00    -0.411 A  
HETATM   18  C   UNL     1     -11.951  10.274  70.125  1.00  0.00    -0.313 A  
HETATM   19  C   UNL     1     -11.816  11.680  69.993  1.00  0.00    -0.435 A  
HETATM   20  C   UNL     1     -11.038  12.350  68.848  1.00  0.00    -0.307 C  
HETATM   21  C   UNL     1     -10.317  11.523  68.025  1.00  0.00    -0.208 C  
HETATM   22  C   UNL     1      -9.479  11.906  66.832  1.00  0.00    -0.205 C  
BRANCH  22  23
HETATM   23  C   UNL     1      -8.589  10.935  66.046  1.00  0.00    -0.177 C  
BRANCH  23  24
HETATM   24  N   UNL     1      -8.005   9.925  66.970  1.00  0.00    -0.109 NA 
HETATM   25  C   UNL     1      -8.972   8.958  67.554  1.00  0.00    -0.133 C  
HETATM   26  C   UNL     1      -9.456   7.809  66.626  1.00  0.00    -0.205 C  
HETATM   27  N   UNL     1      -8.447   7.176  65.749  1.00  0.00    -0.146 NA 
HETATM   28  C   UNL     1      -7.493   8.177  65.241  1.00  0.00    -0.080 C  
HETATM   29  C   UNL     1      -7.750   6.078  66.414  1.00  0.00    -0.102 C  
HETATM   30  C   UNL     1      -6.946   9.135  66.319  1.00  0.00    -0.086 C  
ENDBRANCH  23  24
ENDBRANCH  22  23
ENDBRANCH   4   7
ENDBRANCH   2   4
TORSDOF 4
ENDMDL
MODEL       58
REMARK 921   NORMALIZED FREE ENERGY PREDICTED BY IDOCK:   -5.52 KCAL/MOL
REMARK 922        TOTAL FREE ENERGY PREDICTED BY IDOCK:   -7.46 KCAL/MOL
REMARK 923 INTER-LIGAND FREE ENERGY PREDICTED BY IDOCK:   -6.88 KCAL/MOL
REMARK 924 INTRA-LIGAND FREE ENERGY PREDICTED BY IDOCK:   -0.59 KCAL/MOL
REMARK 927      BINDING AFFINITY PREDICTED BY RF-SCORE:    0.00 PKD
ROOT
HETATM    1  C   UNL     1      -8.246  12.094  67.983  1.00  0.00    -0.158 C  
HETATM    2  N   UNL     1      -9.667  12.486  67.947  1.00  0.00    -0.199 N  
HETATM    3  C   UNL     1      -9.894  13.817  67.353  1.00  0.00    -0.238 C  
ENDROOT
BRANCH   2   4
HETATM    4  S   UNL     1     -10.790  11.278  67.505  1.00  0.00    -0.262 S  
HETATM    5  O   UNL     1     -10.175  10.443  66.486  1.00  0.00    -0.218 OA 
HETATM    6  O   UNL     1     -12.079  11.895  67.292  1.00  0.00    -0.582 OA 
BRANCH   4   7
HETATM    7  C   UNL     1     -10.887  10.296  68.994  1.00  0.00    -0.230 A  
HETATM    8  C   UNL     1     -10.415   8.975  68.967  1.00  0.00    -0.235 A  
HETATM    9  C   UNL     1     -10.482   8.081  70.059  1.00  0.00    -0.228 A  
HETATM   10  C   UNL     1     -11.052   8.641  71.217  1.00  0.00    -0.272 A  
HETATM   11  S   UNL     1     -11.237   7.818  72.767  1.00  0.00    -0.371 SA 
HETATM   12  C   UNL     1     -11.522   9.981  71.247  1.00  0.00    -0.390 A  
HETATM   13  C   UNL     1     -10.761   6.151  72.434  1.00  0.00    -0.231 A  
HETATM   14  C   UNL     1     -11.431  10.817  70.145  1.00  0.00    -0.415 A  
HETATM   15  C   UNL     1     -10.960   5.289  73.537  1.00  0.00    -0.353 A  
HETATM   16  C   UNL     1     -10.655   3.939  73.470  1.00  0.00    -0.283 A  
HETATM   17  C   UNL     1     -10.156   3.435  72.285  1.00  0.00    -0.219 A  
HETATM   18  C   UNL     1      -9.960   4.283  71.181  1.00  0.00    -0.226 A  
HETATM   19  C   UNL     1     -10.235   5.674  71.217  1.00  0.00    -0.279 A  
HETATM   20  C   UNL     1     -10.004   6.612  70.020  1.00  0.00    -0.189 C  
HETATM   21  C   UNL     1      -9.350   6.082  68.938  1.00  0.00    -0.131 C  
HETATM   22  C   UNL     1      -9.002   6.765  67.641  1.00  0.00    -0.115 C  
BRANCH  22  23
HETATM   23  C   UNL     1      -8.143   6.144  66.532  1.00  0.00    -0.110 C  
BRANCH  23  24
HETATM   24  N   UNL     1      -9.020   5.578  65.471  1.00  0.00    -0.153 NA 
HETATM   25  C   UNL     1      -8.324   5.134  64.235  1.00  0.00    -0.137 C  
HETATM   26  C   UNL     1      -7.564   3.781  64.310  1.00  0.00    -0.079 C  
HETATM   27  N   UNL     1      -8.217   2.677  65.046  1.00  0.00    -0.086 NA 
HETATM   28  C   UNL     1      -8.927   3.186  66.232  1.00  0.00    -0.150 C  
HETATM   29  C   UNL     1      -9.113   1.900  64.192  1.00  0.00    -0.110 C  
HETATM   30  C   UNL     1      -9.801   4.429  65.962  1.00  0.00    -0.230 C  
ENDBRANCH  23  24
ENDBRANCH  22  23
ENDBRANCH   4   7
ENDBRANCH   2   4
TORSDOF 4
ENDMDL
MODEL       59
REMARK 921   NORMALIZED FREE ENERGY PREDICTED BY IDOCK:   -5.51 KCAL/MOL
REMARK 922        TOTAL FREE ENERGY PREDICTED BY IDOCK:   -7.44 KCAL/MOL
REMARK 923 INTER-LIGAND FREE ENERGY PREDICTED BY IDOCK:   -7.13 KCAL/MOL
REMARK 924 INTRA-LIGAND FREE ENERGY PREDICTED BY IDOCK:   -0.31 KCAL/MOL
REMARK 927      BINDING AFFINITY PREDICTED BY RF-SCORE:    0.00 PKD
ROOT
HETATM    1  C   UNL     1     -12.668  11.815  63.803  1.00  0.00    -0.255 C  
HETATM    2  N   UNL     1     -11.737  12.809  64.367  1.00  0.00    -0.345 N  
HETATM    3  C   UNL     1     -10.404  12.790  63.736  1.00  0.00    -0.239 C  
ENDROOT
BRANCH   2   4
HETATM    4  S   UNL     1     -12.373  14.358  64.704  1.00  0.00    -0.352 S  
HETATM    5  O   UNL     1     -13.441  14.203  65.679  1.00  0.00    -0.576 OA 
HETATM    6  O   UNL     1     -12.591  15.054  63.458  1.00  0.00    -0.487 OA 
BRANCH   4   7
HETATM    7  C   UNL     1     -11.011  15.146  65.546  1.00  0.00    -0.365 A  
HETATM    8  C   UNL     1     -10.190  14.373  66.381  1.00  0.00    -0.294 A  
HETATM    9  C   UNL     1      -9.115  14.885  67.140  1.00  0.00    -0.236 A  
HETATM   10  C   UNL     1      -8.908  16.266  66.973  1.00  0.00    -0.205 A  
HETATM   11  S   UNL     1      -7.623  17.210  67.731  1.00  0.00    -0.179 SA 
HETATM   12  C   UNL     1      -9.734  17.049  66.121  1.00  0.00    -0.283 A  
HETATM   13  C   UNL     1      -6.862  16.081  68.856  1.00  0.00    -0.143 A  
HETATM   14  C   UNL     1     -10.777  16.493  65.397  1.00  0.00    -0.273 A  
HETATM   15  C   UNL     1      -5.873  16.690  69.663  1.00  0.00    -0.199 A  
HETATM   16  C   UNL     1      -5.168  15.971  70.614  1.00  0.00    -0.175 A  
HETATM   17  C   UNL     1      -5.459  14.630  70.776  1.00  0.00    -0.148 A  
HETATM   18  C   UNL     1      -6.444  14.018  69.982  1.00  0.00    -0.080 A  
HETATM   19  C   UNL     1      -7.169  14.713  68.981  1.00  0.00    -0.135 A  
HETATM   20  C   UNL     1      -8.235  14.045  68.095  1.00  0.00    -0.155 C  
HETATM   21  C   UNL     1      -8.351  12.682  68.189  1.00  0.00    -0.175 C  
HETATM   22  C   UNL     1      -9.308  11.782  67.451  1.00  0.00    -0.174 C  
BRANCH  22  23
HETATM   23  C   UNL     1      -9.280  10.249  67.508  1.00  0.00    -0.141 C  
BRANCH  23  24
HETATM   24  N   UNL     1     -10.641   9.730  67.818  1.00  0.00    -0.250 NA 
HETATM   25  C   UNL     1     -10.779   8.250  67.808  1.00  0.00    -0.095 C  
HETATM   26  C   UNL     1     -10.222   7.489  69.043  1.00  0.00    -0.205 C  
HETATM   27  N   UNL     1     -10.456   8.093  70.373  1.00  0.00    -0.211 NA 
HETATM   28  C   UNL     1     -10.351   9.561  70.307  1.00  0.00    -0.269 C  
HETATM   29  C   UNL     1     -11.735   7.684  70.946  1.00  0.00    -0.271 C  
HETATM   30  C   UNL     1     -11.119  10.199  69.130  1.00  0.00    -0.212 C  
ENDBRANCH  23  24
ENDBRANCH  22  23
ENDBRANCH   4   7
ENDBRANCH   2   4
TORSDOF 4
ENDMDL
MODEL       60
REMARK 921   NORMALIZED FREE ENERGY PREDICTED BY IDOCK:   -5.50 KCAL/MOL
REMARK 922        TOTAL FREE ENERGY PREDICTED BY IDOCK:   -7.44 KCAL/MOL
REMARK 923 INTER-LIGAND FREE ENERGY PREDICTED BY IDOCK:   -6.74 KCAL/MOL
REMARK 924 INTRA-LIGAND FREE ENERGY PREDICTED BY IDOCK:   -0.69 KCAL/MOL
REMARK 927      BINDING AFFINITY PREDICTED BY RF-SCORE:    0.00 PKD
ROOT
HETATM    1  C   UNL     1      -9.461  11.043  66.761  1.00  0.00    -0.182 C  
HETATM    2  N   UNL     1      -8.957  11.259  68.130  1.00  0.00    -0.159 N  
HETATM    3  C   UNL     1      -9.616  10.407  69.139  1.00  0.00    -0.213 C  
ENDROOT
BRANCH   2   4
HETATM    4  S   UNL     1      -7.270  11.448  68.310  1.00  0.00    -0.088 S  
HETATM    5  O   UNL     1      -6.621  10.794  67.185  1.00  0.00    -0.071 OA 
HETATM    6  O   UNL     1      -6.907  11.132  69.672  1.00  0.00    -0.128 OA 
BRANCH   4   7
HETATM    7  C   UNL     1      -7.064  13.207  68.078  1.00  0.00    -0.115 A  
HETATM    8  C   UNL     1      -8.191  14.038  68.165  1.00  0.00    -0.155 A  
HETATM    9  C   UNL     1      -8.170  15.435  67.952  1.00  0.00    -0.150 A  
HETATM   10  C   UNL     1      -6.893  15.946  67.660  1.00  0.00    -0.166 A  
HETATM   11  S   UNL     1      -6.507  17.648  67.392  1.00  0.00    -0.163 SA 
HETATM   12  C   UNL     1      -5.750  15.106  67.580  1.00  0.00    -0.055 A  
HETATM   13  C   UNL     1      -8.080  18.450  67.362  1.00  0.00    -0.240 A  
HETATM   14  C   UNL     1      -5.827  13.739  67.800  1.00  0.00    -0.103 A  
HETATM   15  C   UNL     1      -7.993  19.822  67.031  1.00  0.00    -0.322 A  
HETATM   16  C   UNL     1      -9.120  20.622  66.947  1.00  0.00    -0.296 A  
HETATM   17  C   UNL     1     -10.354  20.049  67.183  1.00  0.00    -0.554 A  
HETATM   18  C   UNL     1     -10.451  18.685  67.508  1.00  0.00    -0.473 A  
HETATM   19  C   UNL     1      -9.320  17.838  67.629  1.00  0.00    -0.250 A  
HETATM   20  C   UNL     1      -9.416  16.349  68.003  1.00  0.00    -0.217 C  
HETATM   21  C   UNL     1     -10.648  15.888  68.390  1.00  0.00    -0.266 C  
HETATM   22  C   UNL     1     -11.026  14.487  68.797  1.00  0.00    -0.262 C  
BRANCH  22  23
HETATM   23  C   UNL     1     -12.397  14.082  69.353  1.00  0.00    -0.205 C  
BRANCH  23  24
HETATM   24  N   UNL     1     -12.277  13.750  70.799  1.00  0.00    -0.361 NA 
HETATM   25  C   UNL     1     -11.335  14.600  71.575  1.00  0.00     0.148 C  
HETATM   26  C   UNL     1     -11.831  16.022  71.956  1.00  0.00    -0.533 C  
HETATM   27  N   UNL     1     -13.238  16.155  72.391  1.00  0.00    -0.259 NA 
HETATM   28  C   UNL     1     -14.113  15.256  71.618  1.00  0.00    -0.541 C  
HETATM   29  C   UNL     1     -13.394  15.932  73.827  1.00  0.00    -0.117 C  
HETATM   30  C   UNL     1     -13.579  13.814  71.485  1.00  0.00    -0.249 C  
ENDBRANCH  23  24
ENDBRANCH  22  23
ENDBRANCH   4   7
ENDBRANCH   2   4
TORSDOF 4
ENDMDL
MODEL       61
REMARK 921   NORMALIZED FREE ENERGY PREDICTED BY IDOCK:   -5.50 KCAL/MOL
REMARK 922        TOTAL FREE ENERGY PREDICTED BY IDOCK:   -7.43 KCAL/MOL
REMARK 923 INTER-LIGAND FREE ENERGY PREDICTED BY IDOCK:   -6.82 KCAL/MOL
REMARK 924 INTRA-LIGAND FREE ENERGY PREDICTED BY IDOCK:   -0.61 KCAL/MOL
REMARK 927      BINDING AFFINITY PREDICTED BY RF-SCORE:    0.00 PKD
ROOT
HETATM    1  C   UNL     1     -10.328   8.032  66.872  1.00  0.00    -0.338 C  
HETATM    2  N   UNL     1      -8.936   8.253  66.438  1.00  0.00    -0.157 N  
HETATM    3  C   UNL     1      -8.823   9.111  65.243  1.00  0.00    -0.199 C  
ENDROOT
BRANCH   2   4
HETATM    4  S   UNL     1      -7.782   8.537  67.664  1.00  0.00    -0.103 S  
HETATM    5  O   UNL     1      -6.503   8.020  67.206  1.00  0.00    -0.054 OA 
HETATM    6  O   UNL     1      -8.342   8.135  68.934  1.00  0.00    -0.123 OA 
BRANCH   4   7
HETATM    7  C   UNL     1      -7.656  10.318  67.655  1.00  0.00    -0.090 A  
HETATM    8  C   UNL     1      -8.750  11.077  68.096  1.00  0.00    -0.141 A  
HETATM    9  C   UNL     1      -8.796  12.489  68.090  1.00  0.00    -0.191 A  
HETATM   10  C   UNL     1      -7.618  13.094  67.616  1.00  0.00    -0.171 A  
HETATM   11  S   UNL     1      -7.322  14.832  67.526  1.00  0.00    -0.191 SA 
HETATM   12  C   UNL     1      -6.506  12.325  67.177  1.00  0.00    -0.118 A  
HETATM   13  C   UNL     1      -8.877  15.558  67.943  1.00  0.00    -0.171 A  
HETATM   14  C   UNL     1      -6.515  10.939  67.206  1.00  0.00    -0.072 A  
HETATM   15  C   UNL     1      -8.882  16.966  67.806  1.00  0.00    -0.217 A  
HETATM   16  C   UNL     1     -10.013  17.718  68.078  1.00  0.00    -0.333 A  
HETATM   17  C   UNL     1     -11.160  17.062  68.480  1.00  0.00    -0.156 A  
HETATM   18  C   UNL     1     -11.166  15.663  68.614  1.00  0.00    -0.338 A  
HETATM   19  C   UNL     1     -10.023  14.859  68.370  1.00  0.00    -0.222 A  
HETATM   20  C   UNL     1     -10.015  13.330  68.534  1.00  0.00    -0.189 C  
HETATM   21  C   UNL     1     -11.129  12.764  69.098  1.00  0.00    -0.245 C  
HETATM   22  C   UNL     1     -11.391  11.304  69.365  1.00  0.00    -0.360 C  
BRANCH  22  23
HETATM   23  C   UNL     1     -12.606  10.763  70.130  1.00  0.00    -0.240 C  
BRANCH  23  24
HETATM   24  N   UNL     1     -12.162  10.139  71.406  1.00  0.00    -0.383 NA 
HETATM   25  C   UNL     1     -13.204   9.372  72.140  1.00  0.00    -0.460 C  
HETATM   26  C   UNL     1     -13.553   7.963  71.587  1.00  0.00    -0.345 C  
HETATM   27  N   UNL     1     -12.429   7.125  71.113  1.00  0.00    -0.368 NA 
HETATM   28  C   UNL     1     -11.411   7.947  70.437  1.00  0.00    -0.194 C  
HETATM   29  C   UNL     1     -11.837   6.338  72.191  1.00  0.00    -0.315 C  
HETATM   30  C   UNL     1     -11.022   9.229  71.203  1.00  0.00    -0.339 C  
ENDBRANCH  23  24
ENDBRANCH  22  23
ENDBRANCH   4   7
ENDBRANCH   2   4
TORSDOF 4
ENDMDL
MODEL       62
REMARK 921   NORMALIZED FREE ENERGY PREDICTED BY IDOCK:   -5.45 KCAL/MOL
REMARK 922        TOTAL FREE ENERGY PREDICTED BY IDOCK:   -7.38 KCAL/MOL
REMARK 923 INTER-LIGAND FREE ENERGY PREDICTED BY IDOCK:   -6.79 KCAL/MOL
REMARK 924 INTRA-LIGAND FREE ENERGY PREDICTED BY IDOCK:   -0.58 KCAL/MOL
REMARK 927      BINDING AFFINITY PREDICTED BY RF-SCORE:    0.00 PKD
ROOT
HETATM    1  C   UNL     1     -11.495  15.130  71.538  1.00  0.00    -0.365 C  
HETATM    2  N   UNL     1     -11.273  14.609  70.176  1.00  0.00    -0.223 N  
HETATM    3  C   UNL     1     -12.507  14.137  69.520  1.00  0.00    -0.123 C  
ENDROOT
BRANCH   2   4
HETATM    4  S   UNL     1     -10.194  15.482  69.182  1.00  0.00    -0.257 S  
HETATM    5  O   UNL     1      -8.846  15.268  69.685  1.00  0.00    -0.233 OA 
HETATM    6  O   UNL     1     -10.717  16.813  68.982  1.00  0.00    -0.322 OA 
BRANCH   4   7
HETATM    7  C   UNL     1     -10.317  14.601  67.633  1.00  0.00    -0.233 A  
HETATM    8  C   UNL     1      -9.764  13.315  67.539  1.00  0.00    -0.224 A  
HETATM    9  C   UNL     1      -9.751  12.537  66.360  1.00  0.00    -0.253 A  
HETATM   10  C   UNL     1     -10.372  13.158  65.262  1.00  0.00    -0.305 A  
HETATM   11  S   UNL     1     -10.575  12.444  63.660  1.00  0.00    -0.413 SA 
HETATM   12  C   UNL     1     -10.940  14.457  65.359  1.00  0.00    -0.343 A  
HETATM   13  C   UNL     1      -9.650  10.942  63.734  1.00  0.00    -0.292 A  
HETATM   14  C   UNL     1     -10.926  15.177  66.544  1.00  0.00    -0.318 A  
HETATM   15  C   UNL     1      -9.584  10.273  62.490  1.00  0.00    -0.217 A  
HETATM   16  C   UNL     1      -8.895   9.081  62.342  1.00  0.00    -0.177 A  
HETATM   17  C   UNL     1      -8.251   8.550  63.443  1.00  0.00    -0.136 A  
HETATM   18  C   UNL     1      -8.307   9.211  64.682  1.00  0.00    -0.179 A  
HETATM   19  C   UNL     1      -9.022  10.419  64.881  1.00  0.00    -0.225 A  
HETATM   20  C   UNL     1      -9.104  11.138  66.239  1.00  0.00    -0.207 C  
HETATM   21  C   UNL     1      -8.590  10.472  67.322  1.00  0.00    -0.122 C  
HETATM   22  C   UNL     1      -8.530  10.940  68.753  1.00  0.00    -0.150 C  
BRANCH  22  23
HETATM   23  C   UNL     1      -8.066  10.076  69.933  1.00  0.00    -0.166 C  
BRANCH  23  24
HETATM   24  N   UNL     1      -9.204   9.836  70.862  1.00  0.00    -0.032 NA 
HETATM   25  C   UNL     1     -10.502   9.515  70.213  1.00  0.00    -0.268 C  
HETATM   26  C   UNL     1     -10.668   8.073  69.659  1.00  0.00    -0.207 C  
HETATM   27  N   UNL     1     -10.130   6.966  70.481  1.00  0.00    -0.187 NA 
HETATM   28  C   UNL     1      -8.870   7.362  71.133  1.00  0.00    -0.142 C  
HETATM   29  C   UNL     1     -11.101   6.488  71.463  1.00  0.00    -0.265 C  
HETATM   30  C   UNL     1      -8.915   8.747  71.811  1.00  0.00    -0.212 C  
ENDBRANCH  23  24
ENDBRANCH  22  23
ENDBRANCH   4   7
ENDBRANCH   2   4
TORSDOF 4
ENDMDL
MODEL       63
REMARK 921   NORMALIZED FREE ENERGY PREDICTED BY IDOCK:   -5.45 KCAL/MOL
REMARK 922        TOTAL FREE ENERGY PREDICTED BY IDOCK:   -7.37 KCAL/MOL
REMARK 923 INTER-LIGAND FREE ENERGY PREDICTED BY IDOCK:   -7.48 KCAL/MOL
REMARK 924 INTRA-LIGAND FREE ENERGY PREDICTED BY IDOCK:    0.11 KCAL/MOL
REMARK 927      BINDING AFFINITY PREDICTED BY RF-SCORE:    0.00 PKD
ROOT
HETATM    1  C   UNL     1      -7.336  16.246  66.841  1.00  0.00    -0.231 C  
HETATM    2  N   UNL     1      -8.470  17.171  66.663  1.00  0.00    -0.231 N  
HETATM    3  C   UNL     1      -8.076  18.488  66.127  1.00  0.00    -0.176 C  
ENDROOT
BRANCH   2   4
HETATM    4  S   UNL     1      -9.909  16.512  66.022  1.00  0.00    -0.305 S  
HETATM    5  O   UNL     1      -9.546  15.455  65.093  1.00  0.00    -0.171 OA 
HETATM    6  O   UNL     1     -10.780  17.593  65.625  1.00  0.00    -0.495 OA 
BRANCH   4   7
HETATM    7  C   UNL     1     -10.628  15.721  67.453  1.00  0.00    -0.313 A  
HETATM    8  C   UNL     1     -10.499  14.332  67.597  1.00  0.00    -0.248 A  
HETATM    9  C   UNL     1     -11.064  13.583  68.653  1.00  0.00    -0.299 A  
HETATM   10  C   UNL     1     -11.766  14.362  69.590  1.00  0.00    -0.309 A  
HETATM   11  S   UNL     1     -12.545  13.751  71.052  1.00  0.00    -0.362 SA 
HETATM   12  C   UNL     1     -11.890  15.770  69.450  1.00  0.00    -0.361 A  
HETATM   13  C   UNL     1     -12.415  11.996  70.912  1.00  0.00    -0.288 A  
HETATM   14  C   UNL     1     -11.313  16.456  68.392  1.00  0.00    -0.268 A  
HETATM   15  C   UNL     1     -13.099  11.308  71.941  1.00  0.00    -0.510 A  
HETATM   16  C   UNL     1     -13.122   9.925  72.001  1.00  0.00    -0.545 A  
HETATM   17  C   UNL     1     -12.465   9.212  71.016  1.00  0.00    -0.238 A  
HETATM   18  C   UNL     1     -11.787   9.887  69.986  1.00  0.00    -0.131 A  
HETATM   19  C   UNL     1     -11.719  11.301  69.904  1.00  0.00    -0.430 A  
HETATM   20  C   UNL     1     -10.962  12.046  68.792  1.00  0.00    -0.282 C  
HETATM   21  C   UNL     1     -10.193  11.284  67.950  1.00  0.00    -0.201 C  
HETATM   22  C   UNL     1      -9.363  11.747  66.781  1.00  0.00    -0.199 C  
BRANCH  22  23
HETATM   23  C   UNL     1      -8.418  10.848  65.973  1.00  0.00    -0.167 C  
BRANCH  23  24
HETATM   24  N   UNL     1      -7.017  11.041  66.437  1.00  0.00    -0.136 NA 
HETATM   25  C   UNL     1      -6.790  12.223  67.310  1.00  0.00    -0.140 C  
HETATM   26  C   UNL     1      -7.248  12.097  68.789  1.00  0.00    -0.103 C  
HETATM   27  N   UNL     1      -6.997  10.806  69.468  1.00  0.00    -0.116 NA 
HETATM   28  C   UNL     1      -7.193   9.679  68.540  1.00  0.00    -0.070 C  
HETATM   29  C   UNL     1      -5.672  10.756  70.082  1.00  0.00    -0.082 C  
HETATM   30  C   UNL     1      -6.515   9.864  67.167  1.00  0.00    -0.069 C  
ENDBRANCH  23  24
ENDBRANCH  22  23
ENDBRANCH   4   7
ENDBRANCH   2   4
TORSDOF 4
ENDMDL
MODEL       64
REMARK 921   NORMALIZED FREE ENERGY PREDICTED BY IDOCK:   -5.34 KCAL/MOL
REMARK 922        TOTAL FREE ENERGY PREDICTED BY IDOCK:   -7.23 KCAL/MOL
REMARK 923 INTER-LIGAND FREE ENERGY PREDICTED BY IDOCK:   -6.66 KCAL/MOL
REMARK 924 INTRA-LIGAND FREE ENERGY PREDICTED BY IDOCK:   -0.58 KCAL/MOL
REMARK 927      BINDING AFFINITY PREDICTED BY RF-SCORE:    0.00 PKD
ROOT
HETATM    1  C   UNL     1     -10.176   7.445  73.614  1.00  0.00    -0.329 C  
HETATM    2  N   UNL     1     -10.689   6.568  72.545  1.00  0.00    -0.217 N  
HETATM    3  C   UNL     1     -11.429   5.396  73.051  1.00  0.00    -0.259 C  
ENDROOT
BRANCH   2   4
HETATM    4  S   UNL     1     -11.362   7.333  71.176  1.00  0.00    -0.278 S  
HETATM    5  O   UNL     1     -11.240   8.771  71.358  1.00  0.00    -0.252 OA 
HETATM    6  O   UNL     1     -12.635   6.721  70.878  1.00  0.00    -0.336 OA 
BRANCH   4   7
HETATM    7  C   UNL     1     -10.213   6.874  69.888  1.00  0.00    -0.199 A  
HETATM    8  C   UNL     1     -10.113   7.685  68.748  1.00  0.00    -0.202 A  
HETATM    9  C   UNL     1      -9.282   7.404  67.640  1.00  0.00    -0.132 A  
HETATM   10  C   UNL     1      -8.523   6.229  67.782  1.00  0.00    -0.116 A  
HETATM   11  S   UNL     1      -7.351   5.618  66.611  1.00  0.00    -0.084 SA 
HETATM   12  C   UNL     1      -8.617   5.412  68.941  1.00  0.00    -0.099 A  
HETATM   13  C   UNL     1      -7.542   6.678  65.212  1.00  0.00    -0.088 A  
HETATM   14  C   UNL     1      -9.450   5.735  70.001  1.00  0.00    -0.193 A  
HETATM   15  C   UNL     1      -6.766   6.272  64.102  1.00  0.00    -0.038 A  
HETATM   16  C   UNL     1      -6.786   6.970  62.906  1.00  0.00    -0.056 A  
HETATM   17  C   UNL     1      -7.600   8.082  62.806  1.00  0.00    -0.123 A  
HETATM   18  C   UNL     1      -8.379   8.490  63.902  1.00  0.00    -0.093 A  
HETATM   19  C   UNL     1      -8.367   7.818  65.151  1.00  0.00    -0.113 A  
HETATM   20  C   UNL     1      -9.202   8.270  66.362  1.00  0.00    -0.247 C  
HETATM   21  C   UNL     1      -9.850   9.473  66.250  1.00  0.00    -0.334 C  
HETATM   22  C   UNL     1     -10.735  10.146  67.267  1.00  0.00    -0.316 C  
BRANCH  22  23
HETATM   23  C   UNL     1     -11.312  11.560  67.120  1.00  0.00    -0.284 C  
BRANCH  23  24
HETATM   24  N   UNL     1     -10.984  12.101  65.772  1.00  0.00    -0.286 NA 
HETATM   25  C   UNL     1     -12.143  12.600  64.985  1.00  0.00    -0.444 C  
HETATM   26  C   UNL     1     -12.715  13.987  65.388  1.00  0.00    -0.471 C  
HETATM   27  N   UNL     1     -11.743  15.045  65.739  1.00  0.00    -0.185 NA 
HETATM   28  C   UNL     1     -10.599  14.481  66.476  1.00  0.00    -0.297 C  
HETATM   29  C   UNL     1     -11.294  15.791  64.566  1.00  0.00    -0.316 C  
HETATM   30  C   UNL     1     -10.008  13.202  65.847  1.00  0.00    -0.269 C  
ENDBRANCH  23  24
ENDBRANCH  22  23
ENDBRANCH   4   7
ENDBRANCH   2   4
TORSDOF 4
ENDMDL
MODEL       65
REMARK 921   NORMALIZED FREE ENERGY PREDICTED BY IDOCK:   -5.33 KCAL/MOL
REMARK 922        TOTAL FREE ENERGY PREDICTED BY IDOCK:   -7.22 KCAL/MOL
REMARK 923 INTER-LIGAND FREE ENERGY PREDICTED BY IDOCK:   -6.57 KCAL/MOL
REMARK 924 INTRA-LIGAND FREE ENERGY PREDICTED BY IDOCK:   -0.65 KCAL/MOL
REMARK 927      BINDING AFFINITY PREDICTED BY RF-SCORE:    0.00 PKD
ROOT
HETATM    1  C   UNL     1     -13.527   8.869  71.673  1.00  0.00    -0.378 C  
HETATM    2  N   UNL     1     -12.208   8.951  71.019  1.00  0.00    -0.251 N  
HETATM    3  C   UNL     1     -11.968  10.240  70.342  1.00  0.00    -0.303 C  
ENDROOT
BRANCH   2   4
HETATM    4  S   UNL     1     -10.880   8.308  71.877  1.00  0.00    -0.308 S  
HETATM    5  O   UNL     1     -11.379   7.742  73.120  1.00  0.00    -0.374 OA 
HETATM    6  O   UNL     1      -9.808   9.276  71.872  1.00  0.00    -0.235 OA 
BRANCH   4   7
HETATM    7  C   UNL     1     -10.393   6.938  70.840  1.00  0.00    -0.198 A  
HETATM    8  C   UNL     1     -10.110   7.178  69.488  1.00  0.00    -0.182 A  
HETATM    9  C   UNL     1      -9.765   6.176  68.554  1.00  0.00    -0.141 A  
HETATM   10  C   UNL     1      -9.702   4.883  69.106  1.00  0.00    -0.182 A  
HETATM   11  S   UNL     1      -9.251   3.417  68.232  1.00  0.00    -0.182 SA 
HETATM   12  C   UNL     1      -9.981   4.640  70.478  1.00  0.00    -0.295 A  
HETATM   13  C   UNL     1      -9.134   3.934  66.548  1.00  0.00    -0.149 A  
HETATM   14  C   UNL     1     -10.314   5.664  71.352  1.00  0.00    -0.287 A  
HETATM   15  C   UNL     1      -8.899   2.862  65.656  1.00  0.00    -0.136 A  
HETATM   16  C   UNL     1      -8.785   3.064  64.291  1.00  0.00    -0.094 A  
HETATM   17  C   UNL     1      -8.918   4.348  63.801  1.00  0.00    -0.143 A  
HETATM   18  C   UNL     1      -9.156   5.420  64.679  1.00  0.00     0.152 A  
HETATM   19  C   UNL     1      -9.254   5.259  66.084  1.00  0.00    -0.158 A  
HETATM   20  C   UNL     1      -9.496   6.429  67.053  1.00  0.00    -0.159 C  
HETATM   21  C   UNL     1      -9.446   7.692  66.521  1.00  0.00    -0.250 C  
HETATM   22  C   UNL     1      -9.653   9.005  67.231  1.00  0.00    -0.206 C  
BRANCH  22  23
HETATM   23  C   UNL     1      -9.442  10.383  66.592  1.00  0.00    -0.165 C  
BRANCH  23  24
HETATM   24  N   UNL     1     -10.744  11.097  66.491  1.00  0.00    -0.267 NA 
HETATM   25  C   UNL     1     -10.812  12.406  67.193  1.00  0.00    -0.245 C  
HETATM   26  C   UNL     1     -10.115  13.608  66.499  1.00  0.00    -0.286 C  
HETATM   27  N   UNL     1     -10.261  13.719  65.031  1.00  0.00    -0.365 NA 
HETATM   28  C   UNL     1     -10.232  12.389  64.399  1.00  0.00    -0.315 C  
HETATM   29  C   UNL     1     -11.465  14.454  64.651  1.00  0.00    -0.387 C  
HETATM   30  C   UNL     1     -11.128  11.340  65.090  1.00  0.00    -0.079 C  
ENDBRANCH  23  24
ENDBRANCH  22  23
ENDBRANCH   4   7
ENDBRANCH   2   4
TORSDOF 4
ENDMDL
MODEL       66
REMARK 921   NORMALIZED FREE ENERGY PREDICTED BY IDOCK:   -5.30 KCAL/MOL
REMARK 922        TOTAL FREE ENERGY PREDICTED BY IDOCK:   -7.19 KCAL/MOL
REMARK 923 INTER-LIGAND FREE ENERGY PREDICTED BY IDOCK:   -7.23 KCAL/MOL
REMARK 924 INTRA-LIGAND FREE ENERGY PREDICTED BY IDOCK:    0.05 KCAL/MOL
REMARK 927      BINDING AFFINITY PREDICTED BY RF-SCORE:    0.00 PKD
ROOT
HETATM    1  C   UNL     1     -10.488   9.345  68.414  1.00  0.00    -0.218 C  
HETATM    2  N   UNL     1      -9.388  10.020  69.127  1.00  0.00    -0.182 N  
HETATM    3  C   UNL     1      -9.269   9.615  70.541  1.00  0.00    -0.152 C  
ENDROOT
BRANCH   2   4
HETATM    4  S   UNL     1      -7.915  10.198  68.282  1.00  0.00    -0.103 S  
HETATM    5  O   UNL     1      -8.216  10.253  66.860  1.00  0.00    -0.121 OA 
HETATM    6  O   UNL     1      -6.958   9.254  68.809  1.00  0.00    -0.060 OA 
BRANCH   4   7
HETATM    7  C   UNL     1      -7.400  11.837  68.769  1.00  0.00    -0.114 A  
HETATM    8  C   UNL     1      -8.175  12.937  68.372  1.00  0.00    -0.121 A  
HETATM    9  C   UNL     1      -7.849  14.284  68.648  1.00  0.00    -0.140 A  
HETATM   10  C   UNL     1      -6.667  14.441  69.394  1.00  0.00    -0.140 A  
HETATM   11  S   UNL     1      -6.005  15.979  69.952  1.00  0.00    -0.153 SA 
HETATM   12  C   UNL     1      -5.887  13.326  69.804  1.00  0.00    -0.122 A  
HETATM   13  C   UNL     1      -7.025  17.196  69.181  1.00  0.00    -0.224 A  
HETATM   14  C   UNL     1      -6.254  12.023  69.506  1.00  0.00    -0.117 A  
HETATM   15  C   UNL     1      -6.574  18.518  69.407  1.00  0.00    -0.231 A  
HETATM   16  C   UNL     1      -7.237  19.612  68.877  1.00  0.00    -0.381 A  
HETATM   17  C   UNL     1      -8.357  19.392  68.100  1.00  0.00    -0.363 A  
HETATM   18  C   UNL     1      -8.810  18.082  67.866  1.00  0.00    -0.269 A  
HETATM   19  C   UNL     1      -8.175  16.937  68.411  1.00  0.00    -0.232 A  
HETATM   20  C   UNL     1      -8.676  15.501  68.175  1.00  0.00    -0.164 C  
HETATM   21  C   UNL     1      -9.884  15.365  67.541  1.00  0.00    -0.217 C  
HETATM   22  C   UNL     1     -10.600  14.090  67.178  1.00  0.00    -0.274 C  
BRANCH  22  23
HETATM   23  C   UNL     1     -12.018  14.023  66.595  1.00  0.00    -0.445 C  
BRANCH  23  24
HETATM   24  N   UNL     1     -12.256  12.680  65.999  1.00  0.00    -0.597 NA 
HETATM   25  C   UNL     1     -12.729  12.680  64.589  1.00  0.00    -0.377 C  
HETATM   26  C   UNL     1     -11.663  12.962  63.495  1.00  0.00    -0.512 C  
HETATM   27  N   UNL     1     -10.332  12.338  63.670  1.00  0.00    -0.434 NA 
HETATM   28  C   UNL     1      -9.941  12.327  65.090  1.00  0.00    -0.215 C  
HETATM   29  C   UNL     1     -10.275  10.995  63.099  1.00  0.00    -0.245 C  
HETATM   30  C   UNL     1     -11.048  11.838  66.047  1.00  0.00    -0.312 C  
ENDBRANCH  23  24
ENDBRANCH  22  23
ENDBRANCH   4   7
ENDBRANCH   2   4
TORSDOF 4
ENDMDL
MODEL       67
REMARK 921   NORMALIZED FREE ENERGY PREDICTED BY IDOCK:   -5.26 KCAL/MOL
REMARK 922        TOTAL FREE ENERGY PREDICTED BY IDOCK:   -7.14 KCAL/MOL
REMARK 923 INTER-LIGAND FREE ENERGY PREDICTED BY IDOCK:   -6.51 KCAL/MOL
REMARK 924 INTRA-LIGAND FREE ENERGY PREDICTED BY IDOCK:   -0.63 KCAL/MOL
REMARK 927      BINDING AFFINITY PREDICTED BY RF-SCORE:    0.00 PKD
ROOT
HETATM    1  C   UNL     1      -5.726  15.407  70.009  1.00  0.00    -0.137 C  
HETATM    2  N   UNL     1      -6.862  14.606  69.519  1.00  0.00    -0.156 N  
HETATM    3  C   UNL     1      -8.112  15.379  69.385  1.00  0.00    -0.249 C  
ENDROOT
BRANCH   2   4
HETATM    4  S   UNL     1      -6.540  13.498  68.260  1.00  0.00    -0.125 S  
HETATM    5  O   UNL     1      -5.134  13.614  67.908  1.00  0.00    -0.121 OA 
HETATM    6  O   UNL     1      -7.576  13.613  67.260  1.00  0.00    -0.152 OA 
BRANCH   4   7
HETATM    7  C   UNL     1      -6.741  11.927  69.085  1.00  0.00    -0.105 A  
HETATM    8  C   UNL     1      -7.681  11.014  68.585  1.00  0.00    -0.132 A  
HETATM    9  C   UNL     1      -7.970   9.763  69.174  1.00  0.00    -0.104 A  
HETATM   10  C   UNL     1      -7.205   9.484  70.321  1.00  0.00    -0.118 A  
HETATM   11  S   UNL     1      -7.278   7.994  71.265  1.00  0.00    -0.067 SA 
HETATM   12  C   UNL     1      -6.247  10.405  70.824  1.00  0.00    -0.033 A  
HETATM   13  C   UNL     1      -8.637   7.106  70.570  1.00  0.00    -0.144 A  
HETATM   14  C   UNL     1      -6.002  11.621  70.204  1.00  0.00    -0.161 A  
HETATM   15  C   UNL     1      -8.942   5.921  71.278  1.00  0.00    -0.145 A  
HETATM   16  C   UNL     1      -9.982   5.091  70.893  1.00  0.00    -0.286 A  
HETATM   17  C   UNL     1     -10.738   5.449  69.794  1.00  0.00    -0.280 A  
HETATM   18  C   UNL     1     -10.446   6.628  69.087  1.00  0.00    -0.250 A  
HETATM   19  C   UNL     1      -9.375   7.491  69.433  1.00  0.00    -0.152 A  
HETATM   20  C   UNL     1      -9.036   8.772  68.652  1.00  0.00    -0.141 C  
HETATM   21  C   UNL     1      -9.714   8.977  67.478  1.00  0.00    -0.206 C  
HETATM   22  C   UNL     1      -9.589  10.139  66.528  1.00  0.00    -0.236 C  
BRANCH  22  23
HETATM   23  C   UNL     1     -10.282  10.225  65.161  1.00  0.00    -0.224 C  
BRANCH  23  24
HETATM   24  N   UNL     1     -10.030  11.560  64.551  1.00  0.00    -0.252 NA 
HETATM   25  C   UNL     1     -10.802  11.854  63.315  1.00  0.00    -0.337 C  
HETATM   26  C   UNL     1     -12.296  12.237  63.501  1.00  0.00    -0.565 C  
HETATM   27  N   UNL     1     -12.631  13.130  64.632  1.00  0.00    -0.648 NA 
HETATM   28  C   UNL     1     -11.801  12.819  65.809  1.00  0.00    -0.434 C  
HETATM   29  C   UNL     1     -12.520  14.541  64.270  1.00  0.00    -0.264 C  
HETATM   30  C   UNL     1     -10.299  12.655  65.498  1.00  0.00    -0.286 C  
ENDBRANCH  23  24
ENDBRANCH  22  23
ENDBRANCH   4   7
ENDBRANCH   2   4
TORSDOF 4
ENDMDL
MODEL       68
REMARK 921   NORMALIZED FREE ENERGY PREDICTED BY IDOCK:   -5.24 KCAL/MOL
REMARK 922        TOTAL FREE ENERGY PREDICTED BY IDOCK:   -7.12 KCAL/MOL
REMARK 923 INTER-LIGAND FREE ENERGY PREDICTED BY IDOCK:   -6.59 KCAL/MOL
REMARK 924 INTRA-LIGAND FREE ENERGY PREDICTED BY IDOCK:   -0.53 KCAL/MOL
REMARK 927      BINDING AFFINITY PREDICTED BY RF-SCORE:    0.00 PKD
ROOT
HETATM    1  C   UNL     1      -6.665   8.244  72.177  1.00  0.00    -0.081 C  
HETATM    2  N   UNL     1      -7.300   8.779  70.959  1.00  0.00    -0.082 N  
HETATM    3  C   UNL     1      -8.728   9.106  71.136  1.00  0.00    -0.143 C  
ENDROOT
BRANCH   2   4
HETATM    4  S   UNL     1      -6.393   9.900  70.044  1.00  0.00    -0.084 S  
HETATM    5  O   UNL     1      -5.137   9.268  69.674  1.00  0.00    -0.034 OA 
HETATM    6  O   UNL     1      -6.419  11.179  70.715  1.00  0.00    -0.282 OA 
BRANCH   4   7
HETATM    7  C   UNL     1      -7.365  10.039  68.552  1.00  0.00    -0.077 A  
HETATM    8  C   UNL     1      -7.891  11.291  68.199  1.00  0.00    -0.127 A  
HETATM    9  C   UNL     1      -8.715  11.522  67.076  1.00  0.00    -0.169 A  
HETATM   10  C   UNL     1      -8.957  10.372  66.302  1.00  0.00    -0.155 A  
HETATM   11  S   UNL     1      -9.899  10.320  64.810  1.00  0.00    -0.309 SA 
HETATM   12  C   UNL     1      -8.418   9.106  66.655  1.00  0.00    -0.126 A  
HETATM   13  C   UNL     1     -10.599  11.936  64.682  1.00  0.00    -0.306 A  
HETATM   14  C   UNL     1      -7.612   8.935  67.770  1.00  0.00    -0.093 A  
HETATM   15  C   UNL     1     -11.501  12.063  63.600  1.00  0.00    -0.556 A  
HETATM   16  C   UNL     1     -12.160  13.252  63.339  1.00  0.00    -0.508 A  
HETATM   17  C   UNL     1     -11.930  14.330  64.172  1.00  0.00    -0.401 A  
HETATM   18  C   UNL     1     -11.039  14.212  65.252  1.00  0.00    -0.331 A  
HETATM   19  C   UNL     1     -10.325  13.020  65.538  1.00  0.00    -0.304 A  
HETATM   20  C   UNL     1      -9.333  12.890  66.707  1.00  0.00    -0.243 C  
HETATM   21  C   UNL     1      -9.024  14.040  67.385  1.00  0.00    -0.208 C  
HETATM   22  C   UNL     1      -8.098  14.199  68.564  1.00  0.00    -0.143 C  
BRANCH  22  23
HETATM   23  C   UNL     1      -7.695  15.546  69.179  1.00  0.00    -0.210 C  
BRANCH  23  24
HETATM   24  N   UNL     1      -7.031  16.392  68.150  1.00  0.00    -0.129 NA 
HETATM   25  C   UNL     1      -7.841  17.529  67.637  1.00  0.00    -0.201 C  
HETATM   26  C   UNL     1      -7.963  18.772  68.561  1.00  0.00    -0.345 C  
HETATM   27  N   UNL     1      -6.747  19.196  69.289  1.00  0.00    -0.307 NA 
HETATM   28  C   UNL     1      -5.966  18.028  69.730  1.00  0.00    -0.227 C  
HETATM   29  C   UNL     1      -5.925  20.110  68.501  1.00  0.00    -0.268 C  
HETATM   30  C   UNL     1      -5.761  16.955  68.640  1.00  0.00    -0.136 C  
ENDBRANCH  23  24
ENDBRANCH  22  23
ENDBRANCH   4   7
ENDBRANCH   2   4
TORSDOF 4
ENDMDL
MODEL       69
REMARK 921   NORMALIZED FREE ENERGY PREDICTED BY IDOCK:   -5.23 KCAL/MOL
REMARK 922        TOTAL FREE ENERGY PREDICTED BY IDOCK:   -7.11 KCAL/MOL
REMARK 923 INTER-LIGAND FREE ENERGY PREDICTED BY IDOCK:   -7.31 KCAL/MOL
REMARK 924 INTRA-LIGAND FREE ENERGY PREDICTED BY IDOCK:    0.21 KCAL/MOL
REMARK 927      BINDING AFFINITY PREDICTED BY RF-SCORE:    0.00 PKD
ROOT
HETATM    1  C   UNL     1      -8.724   6.016  67.398  1.00  0.00    -0.104 C  
HETATM    2  N   UNL     1      -8.363   7.216  68.177  1.00  0.00    -0.123 N  
HETATM    3  C   UNL     1      -7.040   7.120  68.823  1.00  0.00    -0.088 C  
ENDROOT
BRANCH   2   4
HETATM    4  S   UNL     1      -8.739   8.729  67.482  1.00  0.00    -0.135 S  
HETATM    5  O   UNL     1      -9.382   8.488  66.200  1.00  0.00    -0.199 OA 
HETATM    6  O   UNL     1      -7.587   9.592  67.592  1.00  0.00    -0.090 OA 
BRANCH   4   7
HETATM    7  C   UNL     1      -9.999   9.345  68.587  1.00  0.00    -0.173 A  
HETATM    8  C   UNL     1     -10.258  10.724  68.619  1.00  0.00    -0.198 A  
HETATM    9  C   UNL     1     -11.190  11.341  69.483  1.00  0.00    -0.337 A  
HETATM   10  C   UNL     1     -11.875  10.439  70.317  1.00  0.00    -0.312 A  
HETATM   11  S   UNL     1     -13.138  10.869  71.472  1.00  0.00    -0.343 SA 
HETATM   12  C   UNL     1     -11.619   9.042  70.279  1.00  0.00    -0.082 A  
HETATM   13  C   UNL     1     -13.148  12.635  71.468  1.00  0.00    -0.278 A  
HETATM   14  C   UNL     1     -10.693   8.488  69.409  1.00  0.00    -0.166 A  
HETATM   15  C   UNL     1     -14.020  13.185  72.436  1.00  0.00    -0.497 A  
HETATM   16  C   UNL     1     -14.161  14.553  72.594  1.00  0.00    -0.278 A  
HETATM   17  C   UNL     1     -13.414  15.390  71.787  1.00  0.00    -0.581 A  
HETATM   18  C   UNL     1     -12.540  14.853  70.826  1.00  0.00    -0.414 A  
HETATM   19  C   UNL     1     -12.387  13.459  70.616  1.00  0.00    -0.423 A  
HETATM   20  C   UNL     1     -11.447  12.864  69.553  1.00  0.00    -0.292 C  
HETATM   21  C   UNL     1     -10.869  13.745  68.677  1.00  0.00    -0.280 C  
HETATM   22  C   UNL     1      -9.912  13.441  67.554  1.00  0.00    -0.230 C  
BRANCH  22  23
HETATM   23  C   UNL     1      -9.418  14.468  66.527  1.00  0.00    -0.289 C  
BRANCH  23  24
HETATM   24  N   UNL     1     -10.515  15.420  66.199  1.00  0.00    -0.303 NA 
HETATM   25  C   UNL     1     -11.104  16.142  67.358  1.00  0.00    -0.134 C  
HETATM   26  C   UNL     1     -10.275  17.319  67.941  1.00  0.00    -0.332 C  
HETATM   27  N   UNL     1      -9.593  18.211  66.977  1.00  0.00    -0.278 NA 
HETATM   28  C   UNL     1      -9.073  17.444  65.831  1.00  0.00     0.068 C  
HETATM   29  C   UNL     1     -10.456  19.301  66.530  1.00  0.00    -0.462 C  
HETATM   30  C   UNL     1     -10.081  16.442  65.230  1.00  0.00     0.041 C  
ENDBRANCH  23  24
ENDBRANCH  22  23
ENDBRANCH   4   7
ENDBRANCH   2   4
TORSDOF 4
ENDMDL
MODEL       70
REMARK 921   NORMALIZED FREE ENERGY PREDICTED BY IDOCK:   -5.23 KCAL/MOL
REMARK 922        TOTAL FREE ENERGY PREDICTED BY IDOCK:   -7.10 KCAL/MOL
REMARK 923 INTER-LIGAND FREE ENERGY PREDICTED BY IDOCK:   -6.78 KCAL/MOL
REMARK 924 INTRA-LIGAND FREE ENERGY PREDICTED BY IDOCK:   -0.32 KCAL/MOL
REMARK 927      BINDING AFFINITY PREDICTED BY RF-SCORE:    0.00 PKD
ROOT
HETATM    1  C   UNL     1      -6.546  13.225  67.288  1.00  0.00     0.107 C  
HETATM    2  N   UNL     1      -7.048  11.857  67.513  1.00  0.00    -0.112 N  
HETATM    3  C   UNL     1      -7.562  11.212  66.290  1.00  0.00    -0.075 C  
ENDROOT
BRANCH   2   4
HETATM    4  S   UNL     1      -6.128  10.857  68.546  1.00  0.00    -0.042 S  
HETATM    5  O   UNL     1      -5.690  11.660  69.677  1.00  0.00    -0.067 OA 
HETATM    6  O   UNL     1      -5.185  10.106  67.751  1.00  0.00    -0.035 OA 
BRANCH   4   7
HETATM    7  C   UNL     1      -7.360   9.721  69.162  1.00  0.00    -0.079 A  
HETATM    8  C   UNL     1      -8.664  10.189  69.381  1.00  0.00    -0.186 A  
HETATM    9  C   UNL     1      -9.714   9.406  69.912  1.00  0.00    -0.236 A  
HETATM   10  C   UNL     1      -9.347   8.077  70.190  1.00  0.00    -0.156 A  
HETATM   11  S   UNL     1     -10.426   6.825  70.810  1.00  0.00    -0.218 SA 
HETATM   12  C   UNL     1      -8.029   7.601  69.961  1.00  0.00    -0.114 A  
HETATM   13  C   UNL     1     -11.924   7.685  71.178  1.00  0.00    -0.297 A  
HETATM   14  C   UNL     1      -7.035   8.413  69.436  1.00  0.00    -0.050 A  
HETATM   15  C   UNL     1     -12.889   6.867  71.811  1.00  0.00    -0.349 A  
HETATM   16  C   UNL     1     -14.126   7.362  72.187  1.00  0.00    -0.211 A  
HETATM   17  C   UNL     1     -14.406   8.693  71.944  1.00  0.00    -0.492 A  
HETATM   18  C   UNL     1     -13.451   9.514  71.320  1.00  0.00    -0.352 A  
HETATM   19  C   UNL     1     -12.184   9.041  70.897  1.00  0.00    -0.205 A  
HETATM   20  C   UNL     1     -11.141   9.929  70.196  1.00  0.00    -0.353 C  
HETATM   21  C   UNL     1     -11.547  11.187  69.832  1.00  0.00    -0.416 C  
HETATM   22  C   UNL     1     -10.738  12.258  69.148  1.00  0.00    -0.089 C  
BRANCH  22  23
HETATM   23  C   UNL     1     -11.307  13.593  68.647  1.00  0.00    -0.286 C  
BRANCH  23  24
HETATM   24  N   UNL     1     -10.730  13.919  67.314  1.00  0.00    -0.282 NA 
HETATM   25  C   UNL     1     -10.283  12.752  66.508  1.00  0.00    -0.253 C  
HETATM   26  C   UNL     1     -11.394  11.920  65.809  1.00  0.00    -0.299 C  
HETATM   27  N   UNL     1     -12.513  12.667  65.194  1.00  0.00    -0.609 NA 
HETATM   28  C   UNL     1     -12.878  13.835  66.015  1.00  0.00    -0.240 C  
HETATM   29  C   UNL     1     -12.221  13.064  63.819  1.00  0.00    -0.460 C  
HETATM   30  C   UNL     1     -11.675  14.682  66.481  1.00  0.00    -0.325 C  
ENDBRANCH  23  24
ENDBRANCH  22  23
ENDBRANCH   4   7
ENDBRANCH   2   4
TORSDOF 4
ENDMDL
MODEL       71
REMARK 921   NORMALIZED FREE ENERGY PREDICTED BY IDOCK:   -5.22 KCAL/MOL
REMARK 922        TOTAL FREE ENERGY PREDICTED BY IDOCK:   -7.08 KCAL/MOL
REMARK 923 INTER-LIGAND FREE ENERGY PREDICTED BY IDOCK:   -6.53 KCAL/MOL
REMARK 924 INTRA-LIGAND FREE ENERGY PREDICTED BY IDOCK:   -0.56 KCAL/MOL
REMARK 927      BINDING AFFINITY PREDICTED BY RF-SCORE:    0.00 PKD
ROOT
HETATM    1  C   UNL     1      -8.348   5.647  63.207  1.00  0.00    -0.056 C  
HETATM    2  N   UNL     1      -7.907   4.834  64.355  1.00  0.00    -0.082 N  
HETATM    3  C   UNL     1      -7.500   3.465  63.983  1.00  0.00    -0.067 C  
ENDROOT
BRANCH   2   4
HETATM    4  S   UNL     1      -6.923   5.608  65.516  1.00  0.00    -0.066 S  
HETATM    5  O   UNL     1      -6.714   6.981  65.085  1.00  0.00    -0.045 OA 
HETATM    6  O   UNL     1      -5.810   4.745  65.834  1.00  0.00    -0.021 OA 
BRANCH   4   7
HETATM    7  C   UNL     1      -8.000   5.667  66.939  1.00  0.00    -0.102 A  
HETATM    8  C   UNL     1      -8.713   6.847  67.201  1.00  0.00    -0.120 A  
HETATM    9  C   UNL     1      -9.555   7.039  68.318  1.00  0.00    -0.134 A  
HETATM   10  C   UNL     1      -9.647   5.915  69.160  1.00  0.00    -0.136 A  
HETATM   11  S   UNL     1     -10.650   5.799  70.608  1.00  0.00    -0.278 SA 
HETATM   12  C   UNL     1      -8.933   4.717  68.890  1.00  0.00    -0.142 A  
HETATM   13  C   UNL     1     -11.282   7.433  70.830  1.00  0.00    -0.270 A  
HETATM   14  C   UNL     1      -8.119   4.583  67.776  1.00  0.00    -0.099 A  
HETATM   15  C   UNL     1     -12.022   7.580  72.027  1.00  0.00    -0.330 A  
HETATM   16  C   UNL     1     -12.592   8.790  72.384  1.00  0.00    -0.430 A  
HETATM   17  C   UNL     1     -12.415   9.875  71.547  1.00  0.00    -0.506 A  
HETATM   18  C   UNL     1     -11.678   9.740  70.359  1.00  0.00    -0.301 A  
HETATM   19  C   UNL     1     -11.100   8.512  69.945  1.00  0.00    -0.114 A  
HETATM   20  C   UNL     1     -10.308   8.351  68.636  1.00  0.00    -0.222 C  
HETATM   21  C   UNL     1     -10.316   9.418  67.774  1.00  0.00    -0.291 C  
HETATM   22  C   UNL     1      -9.625   9.535  66.440  1.00  0.00    -0.273 C  
BRANCH  22  23
HETATM   23  C   UNL     1      -9.799  10.711  65.470  1.00  0.00    -0.258 C  
BRANCH  23  24
HETATM   24  N   UNL     1     -10.921  11.578  65.923  1.00  0.00    -0.272 NA 
HETATM   25  C   UNL     1     -10.524  12.787  66.691  1.00  0.00    -0.257 C  
HETATM   26  C   UNL     1      -9.953  13.978  65.872  1.00  0.00    -0.307 C  
HETATM   27  N   UNL     1     -10.607  14.287  64.582  1.00  0.00    -0.403 NA 
HETATM   28  C   UNL     1     -11.017  13.052  63.892  1.00  0.00    -0.339 C  
HETATM   29  C   UNL     1     -11.738  15.198  64.743  1.00  0.00    -0.331 C  
HETATM   30  C   UNL     1     -11.749  12.036  64.795  1.00  0.00    -0.275 C  
ENDBRANCH  23  24
ENDBRANCH  22  23
ENDBRANCH   4   7
ENDBRANCH   2   4
TORSDOF 4
ENDMDL
MODEL       72
REMARK 921   NORMALIZED FREE ENERGY PREDICTED BY IDOCK:   -5.16 KCAL/MOL
REMARK 922        TOTAL FREE ENERGY PREDICTED BY IDOCK:   -7.02 KCAL/MOL
REMARK 923 INTER-LIGAND FREE ENERGY PREDICTED BY IDOCK:   -6.50 KCAL/MOL
REMARK 924 INTRA-LIGAND FREE ENERGY PREDICTED BY IDOCK:   -0.52 KCAL/MOL
REMARK 927      BINDING AFFINITY PREDICTED BY RF-SCORE:    0.00 PKD
ROOT
HETATM    1  C   UNL     1      -9.684   5.693  74.482  1.00  0.00    -0.210 C  
HETATM    2  N   UNL     1      -9.853   6.713  73.431  1.00  0.00    -0.178 N  
HETATM    3  C   UNL     1      -8.616   7.461  73.134  1.00  0.00    -0.139 C  
ENDROOT
BRANCH   2   4
HETATM    4  S   UNL     1     -10.797   6.277  72.076  1.00  0.00    -0.257 S  
HETATM    5  O   UNL     1     -12.028   5.674  72.560  1.00  0.00    -0.258 OA 
HETATM    6  O   UNL     1      -9.954   5.598  71.120  1.00  0.00    -0.176 OA 
BRANCH   4   7
HETATM    7  C   UNL     1     -11.231   7.870  71.395  1.00  0.00    -0.247 A  
HETATM    8  C   UNL     1     -10.990   8.115  70.035  1.00  0.00    -0.199 A  
HETATM    9  C   UNL     1     -11.240   9.346  69.390  1.00  0.00    -0.019 A  
HETATM   10  C   UNL     1     -11.789  10.329  70.233  1.00  0.00    -0.288 A  
HETATM   11  S   UNL     1     -12.267  11.954  69.737  1.00  0.00    -0.117 SA 
HETATM   12  C   UNL     1     -12.042  10.079  71.609  1.00  0.00    -0.420 A  
HETATM   13  C   UNL     1     -11.699  12.085  68.071  1.00  0.00    -0.331 A  
HETATM   14  C   UNL     1     -11.777   8.849  72.192  1.00  0.00    -0.411 A  
HETATM   15  C   UNL     1     -11.880  13.377  67.525  1.00  0.00    -0.408 A  
HETATM   16  C   UNL     1     -11.489  13.681  66.232  1.00  0.00    -0.352 A  
HETATM   17  C   UNL     1     -10.899  12.691  65.472  1.00  0.00    -0.310 A  
HETATM   18  C   UNL     1     -10.710  11.405  66.007  1.00  0.00    -0.318 A  
HETATM   19  C   UNL     1     -11.119  11.046  67.316  1.00  0.00    -0.359 A  
HETATM   20  C   UNL     1     -10.935   9.636  67.902  1.00  0.00    -0.205 C  
HETATM   21  C   UNL     1     -10.502   8.661  67.040  1.00  0.00    -0.354 C  
HETATM   22  C   UNL     1     -10.230   7.210  67.344  1.00  0.00    -0.291 C  
BRANCH  22  23
HETATM   23  C   UNL     1      -9.882   6.150  66.291  1.00  0.00    -0.029 C  
BRANCH  23  24
HETATM   24  N   UNL     1      -8.407   5.963  66.232  1.00  0.00    -0.113 NA 
HETATM   25  C   UNL     1      -7.939   4.840  65.377  1.00  0.00    -0.099 C  
HETATM   26  C   UNL     1      -7.956   5.078  63.842  1.00  0.00    -0.102 C  
HETATM   27  N   UNL     1      -7.524   6.408  63.358  1.00  0.00    -0.067 NA 
HETATM   28  C   UNL     1      -7.978   7.471  64.271  1.00  0.00    -0.109 C  
HETATM   29  C   UNL     1      -6.079   6.475  63.152  1.00  0.00    -0.030 C  
HETATM   30  C   UNL     1      -7.719   7.178  65.763  1.00  0.00    -0.099 C  
ENDBRANCH  23  24
ENDBRANCH  22  23
ENDBRANCH   4   7
ENDBRANCH   2   4
TORSDOF 4
ENDMDL
MODEL       73
REMARK 921   NORMALIZED FREE ENERGY PREDICTED BY IDOCK:   -5.16 KCAL/MOL
REMARK 922        TOTAL FREE ENERGY PREDICTED BY IDOCK:   -7.01 KCAL/MOL
REMARK 923 INTER-LIGAND FREE ENERGY PREDICTED BY IDOCK:   -6.28 KCAL/MOL
REMARK 924 INTRA-LIGAND FREE ENERGY PREDICTED BY IDOCK:   -0.73 KCAL/MOL
REMARK 927      BINDING AFFINITY PREDICTED BY RF-SCORE:    0.00 PKD
ROOT
HETATM    1  C   UNL     1     -10.972   6.005  69.907  1.00  0.00    -0.388 C  
HETATM    2  N   UNL     1     -11.325   6.855  71.059  1.00  0.00    -0.282 N  
HETATM    3  C   UNL     1     -12.051   6.132  72.121  1.00  0.00    -0.207 C  
ENDROOT
BRANCH   2   4
HETATM    4  S   UNL     1     -10.139   7.961  71.595  1.00  0.00    -0.188 S  
HETATM    5  O   UNL     1      -8.886   7.632  70.933  1.00  0.00    -0.143 OA 
HETATM    6  O   UNL     1     -10.221   8.073  73.032  1.00  0.00    -0.315 OA 
BRANCH   4   7
HETATM    7  C   UNL     1     -10.714   9.496  70.887  1.00  0.00    -0.333 A  
HETATM    8  C   UNL     1     -10.032  10.032  69.784  1.00  0.00    -0.276 A  
HETATM    9  C   UNL     1     -10.354  11.261  69.167  1.00  0.00    -0.156 A  
HETATM   10  C   UNL     1     -11.458  11.914  69.744  1.00  0.00    -0.229 A  
HETATM   11  S   UNL     1     -12.155  13.437  69.185  1.00  0.00    -0.187 SA 
HETATM   12  C   UNL     1     -12.155  11.368  70.855  1.00  0.00    -0.383 A  
HETATM   13  C   UNL     1     -11.033  13.997  67.942  1.00  0.00    -0.247 A  
HETATM   14  C   UNL     1     -11.796  10.155  71.422  1.00  0.00    -0.414 A  
HETATM   15  C   UNL     1     -11.352  15.283  67.449  1.00  0.00    -0.285 A  
HETATM   16  C   UNL     1     -10.585  15.900  66.474  1.00  0.00    -0.297 A  
HETATM   17  C   UNL     1      -9.476  15.234  65.990  1.00  0.00    -0.372 A  
HETATM   18  C   UNL     1      -9.147  13.958  66.478  1.00  0.00    -0.165 A  
HETATM   19  C   UNL     1      -9.920  13.282  67.456  1.00  0.00    -0.223 A  
HETATM   20  C   UNL     1      -9.578  11.877  67.980  1.00  0.00    -0.193 C  
HETATM   21  C   UNL     1      -8.570  11.207  67.337  1.00  0.00    -0.137 C  
HETATM   22  C   UNL     1      -8.028   9.835  67.644  1.00  0.00    -0.105 C  
BRANCH  22  23
HETATM   23  C   UNL     1      -6.991   9.096  66.787  1.00  0.00    -0.081 C  
BRANCH  23  24
HETATM   24  N   UNL     1      -6.966   7.654  67.156  1.00  0.00    -0.078 NA 
HETATM   25  C   UNL     1      -8.246   7.106  67.679  1.00  0.00    -0.114 C  
HETATM   26  C   UNL     1      -9.356   6.807  66.634  1.00  0.00    -0.165 C  
HETATM   27  N   UNL     1      -8.933   6.197  65.353  1.00  0.00    -0.017 NA 
HETATM   28  C   UNL     1      -7.640   6.747  64.913  1.00  0.00    -0.102 C  
HETATM   29  C   UNL     1      -8.886   4.739  65.427  1.00  0.00    -0.146 C  
HETATM   30  C   UNL     1      -6.567   6.806  66.020  1.00  0.00    -0.051 C  
ENDBRANCH  23  24
ENDBRANCH  22  23
ENDBRANCH   4   7
ENDBRANCH   2   4
TORSDOF 4
ENDMDL
MODEL       74
REMARK 921   NORMALIZED FREE ENERGY PREDICTED BY IDOCK:   -5.13 KCAL/MOL
REMARK 922        TOTAL FREE ENERGY PREDICTED BY IDOCK:   -6.98 KCAL/MOL
REMARK 923 INTER-LIGAND FREE ENERGY PREDICTED BY IDOCK:   -6.31 KCAL/MOL
REMARK 924 INTRA-LIGAND FREE ENERGY PREDICTED BY IDOCK:   -0.67 KCAL/MOL
REMARK 927      BINDING AFFINITY PREDICTED BY RF-SCORE:    0.00 PKD
ROOT
HETATM    1  C   UNL     1     -13.684   7.219  71.509  1.00  0.00    -0.351 C  
HETATM    2  N   UNL     1     -12.719   8.325  71.369  1.00  0.00    -0.294 N  
HETATM    3  C   UNL     1     -13.318   9.657  71.578  1.00  0.00    -0.388 C  
ENDROOT
BRANCH   2   4
HETATM    4  S   UNL     1     -11.174   8.093  72.059  1.00  0.00    -0.336 S  
HETATM    5  O   UNL     1     -11.354   7.741  73.458  1.00  0.00    -0.193 OA 
HETATM    6  O   UNL     1     -10.318   9.188  71.665  1.00  0.00    -0.334 OA 
BRANCH   4   7
HETATM    7  C   UNL     1     -10.608   6.621  71.221  1.00  0.00    -0.223 A  
HETATM    8  C   UNL     1     -10.484   6.641  69.824  1.00  0.00    -0.248 A  
HETATM    9  C   UNL     1     -10.098   5.531  69.040  1.00  0.00    -0.275 A  
HETATM   10  C   UNL     1      -9.815   4.376  69.792  1.00  0.00    -0.214 A  
HETATM   11  S   UNL     1      -9.257   2.836  69.134  1.00  0.00    -0.140 SA 
HETATM   12  C   UNL     1      -9.932   4.358  71.208  1.00  0.00    -0.245 A  
HETATM   13  C   UNL     1      -9.364   3.047  67.385  1.00  0.00    -0.175 A  
HETATM   14  C   UNL     1     -10.315   5.479  71.928  1.00  0.00    -0.270 A  
HETATM   15  C   UNL     1      -9.072   1.864  66.667  1.00  0.00    -0.064 A  
HETATM   16  C   UNL     1      -9.111   1.825  65.283  1.00  0.00    -0.103 A  
HETATM   17  C   UNL     1      -9.457   2.975  64.601  1.00  0.00    -0.150 A  
HETATM   18  C   UNL     1      -9.753   4.155  65.306  1.00  0.00    -0.200 A  
HETATM   19  C   UNL     1      -9.699   4.243  66.720  1.00  0.00    -0.241 A  
HETATM   20  C   UNL     1     -10.003   5.535  67.497  1.00  0.00    -0.189 C  
HETATM   21  C   UNL     1     -10.169   6.677  66.756  1.00  0.00    -0.263 C  
HETATM   22  C   UNL     1     -10.481   8.065  67.253  1.00  0.00    -0.384 C  
BRANCH  22  23
HETATM   23  C   UNL     1     -10.513   9.319  66.369  1.00  0.00    -0.087 C  
BRANCH  23  24
HETATM   24  N   UNL     1      -9.722  10.407  67.007  1.00  0.00    -0.173 NA 
HETATM   25  C   UNL     1      -8.710   9.963  68.002  1.00  0.00    -0.125 C  
HETATM   26  C   UNL     1      -7.396   9.356  67.438  1.00  0.00    -0.087 C  
HETATM   27  N   UNL     1      -6.805  10.008  66.249  1.00  0.00    -0.094 NA 
HETATM   28  C   UNL     1      -7.858  10.466  65.325  1.00  0.00    -0.137 C  
HETATM   29  C   UNL     1      -5.910  11.105  66.610  1.00  0.00    -0.123 C  
HETATM   30  C   UNL     1      -9.013  11.226  66.009  1.00  0.00    -0.200 C  
ENDBRANCH  23  24
ENDBRANCH  22  23
ENDBRANCH   4   7
ENDBRANCH   2   4
TORSDOF 4
ENDMDL
MODEL       75
REMARK 921   NORMALIZED FREE ENERGY PREDICTED BY IDOCK:   -5.11 KCAL/MOL
REMARK 922        TOTAL FREE ENERGY PREDICTED BY IDOCK:   -6.95 KCAL/MOL
REMARK 923 INTER-LIGAND FREE ENERGY PREDICTED BY IDOCK:   -6.51 KCAL/MOL
REMARK 924 INTRA-LIGAND FREE ENERGY PREDICTED BY IDOCK:   -0.44 KCAL/MOL
REMARK 927      BINDING AFFINITY PREDICTED BY RF-SCORE:    0.00 PKD
ROOT
HETATM    1  C   UNL     1      -8.292   5.129  66.773  1.00  0.00    -0.107 C  
HETATM    2  N   UNL     1      -7.717   4.775  65.462  1.00  0.00    -0.085 N  
HETATM    3  C   UNL     1      -8.732   4.392  64.461  1.00  0.00    -0.144 C  
ENDROOT
BRANCH   2   4
HETATM    4  S   UNL     1      -6.444   5.756  64.887  1.00  0.00    -0.043 S  
HETATM    5  O   UNL     1      -5.853   5.097  63.733  1.00  0.00    -0.017 OA 
HETATM    6  O   UNL     1      -5.634   6.174  66.007  1.00  0.00    -0.013 OA 
BRANCH   4   7
HETATM    7  C   UNL     1      -7.321   7.186  64.275  1.00  0.00    -0.086 A  
HETATM    8  C   UNL     1      -7.998   8.009  65.188  1.00  0.00    -0.127 A  
HETATM    9  C   UNL     1      -8.768   9.137  64.828  1.00  0.00    -0.208 A  
HETATM   10  C   UNL     1      -8.786   9.394  63.445  1.00  0.00    -0.204 A  
HETATM   11  S   UNL     1      -9.605  10.749  62.665  1.00  0.00    -0.207 SA 
HETATM   12  C   UNL     1      -8.094   8.566  62.520  1.00  0.00    -0.175 A  
HETATM   13  C   UNL     1     -10.523  11.510  63.969  1.00  0.00    -0.370 A  
HETATM   14  C   UNL     1      -7.350   7.470  62.930  1.00  0.00    -0.099 A  
HETATM   15  C   UNL     1     -11.357  12.558  63.517  1.00  0.00    -0.556 A  
HETATM   16  C   UNL     1     -12.163  13.272  64.388  1.00  0.00    -0.449 A  
HETATM   17  C   UNL     1     -12.150  12.932  65.727  1.00  0.00    -0.513 A  
HETATM   18  C   UNL     1     -11.327  11.888  66.184  1.00  0.00    -0.383 A  
HETATM   19  C   UNL     1     -10.469  11.150  65.329  1.00  0.00    -0.326 A  
HETATM   20  C   UNL     1      -9.552  10.020  65.826  1.00  0.00    -0.291 C  
HETATM   21  C   UNL     1      -9.460   9.850  67.183  1.00  0.00    -0.190 C  
HETATM   22  C   UNL     1      -8.651   8.825  67.935  1.00  0.00    -0.130 C  
BRANCH  22  23
HETATM   23  C   UNL     1      -8.491   8.790  69.460  1.00  0.00    -0.128 C  
BRANCH  23  24
HETATM   24  N   UNL     1      -9.387   7.751  70.038  1.00  0.00    -0.157 NA 
HETATM   25  C   UNL     1      -9.299   7.579  71.512  1.00  0.00    -0.139 C  
HETATM   26  C   UNL     1     -10.007   8.654  72.383  1.00  0.00    -0.249 C  
HETATM   27  N   UNL     1     -11.328   9.136  71.923  1.00  0.00    -0.375 NA 
HETATM   28  C   UNL     1     -11.365   9.240  70.454  1.00  0.00    -0.242 C  
HETATM   29  C   UNL     1     -12.421   8.301  72.418  1.00  0.00    -0.302 C  
HETATM   30  C   UNL     1     -10.801   8.008  69.717  1.00  0.00    -0.194 C  
ENDBRANCH  23  24
ENDBRANCH  22  23
ENDBRANCH   4   7
ENDBRANCH   2   4
TORSDOF 4
ENDMDL
MODEL       76
REMARK 921   NORMALIZED FREE ENERGY PREDICTED BY IDOCK:   -5.09 KCAL/MOL
REMARK 922        TOTAL FREE ENERGY PREDICTED BY IDOCK:   -6.92 KCAL/MOL
REMARK 923 INTER-LIGAND FREE ENERGY PREDICTED BY IDOCK:   -6.22 KCAL/MOL
REMARK 924 INTRA-LIGAND FREE ENERGY PREDICTED BY IDOCK:   -0.71 KCAL/MOL
REMARK 927      BINDING AFFINITY PREDICTED BY RF-SCORE:    0.00 PKD
ROOT
HETATM    1  C   UNL     1      -6.641   5.322  70.426  1.00  0.00    -0.035 C  
HETATM    2  N   UNL     1      -7.152   5.430  69.047  1.00  0.00    -0.056 N  
HETATM    3  C   UNL     1      -6.111   5.247  68.018  1.00  0.00    -0.026 C  
ENDROOT
BRANCH   2   4
HETATM    4  S   UNL     1      -8.654   4.685  68.721  1.00  0.00    -0.086 S  
HETATM    5  O   UNL     1      -8.678   3.402  69.406  1.00  0.00    -0.066 OA 
HETATM    6  O   UNL     1      -8.926   4.784  67.306  1.00  0.00    -0.110 OA 
BRANCH   4   7
HETATM    7  C   UNL     1      -9.797   5.755  69.579  1.00  0.00    -0.178 A  
HETATM    8  C   UNL     1      -9.876   7.104  69.203  1.00  0.00    -0.160 A  
HETATM    9  C   UNL     1     -10.699   8.062  69.835  1.00  0.00    -0.242 A  
HETATM   10  C   UNL     1     -11.475   7.539  70.886  1.00  0.00    -0.281 A  
HETATM   11  S   UNL     1     -12.644   8.448  71.847  1.00  0.00    -0.367 SA 
HETATM   12  C   UNL     1     -11.401   6.171  71.262  1.00  0.00    -0.335 A  
HETATM   13  C   UNL     1     -12.426  10.121  71.327  1.00  0.00    -0.406 A  
HETATM   14  C   UNL     1     -10.575   5.272  70.606  1.00  0.00    -0.263 A  
HETATM   15  C   UNL     1     -13.197  11.038  72.079  1.00  0.00    -0.447 A  
HETATM   16  C   UNL     1     -13.157  12.399  71.828  1.00  0.00    -0.446 A  
HETATM   17  C   UNL     1     -12.328  12.860  70.823  1.00  0.00    -0.385 A  
HETATM   18  C   UNL     1     -11.554  11.957  70.074  1.00  0.00    -0.301 A  
HETATM   19  C   UNL     1     -11.586  10.555  70.282  1.00  0.00    -0.417 A  
HETATM   20  C   UNL     1     -10.757   9.559  69.454  1.00  0.00    -0.244 C  
HETATM   21  C   UNL     1     -10.092  10.064  68.366  1.00  0.00    -0.186 C  
HETATM   22  C   UNL     1      -9.209   9.323  67.396  1.00  0.00    -0.145 C  
BRANCH  22  23
HETATM   23  C   UNL     1      -8.613   9.934  66.121  1.00  0.00    -0.128 C  
BRANCH  23  24
HETATM   24  N   UNL     1      -8.881   9.041  64.960  1.00  0.00    -0.192 NA 
HETATM   25  C   UNL     1      -8.707   9.663  63.621  1.00  0.00    -0.224 C  
HETATM   26  C   UNL     1      -7.247   9.849  63.122  1.00  0.00    -0.128 C  
HETATM   27  N   UNL     1      -6.295   8.748  63.389  1.00  0.00    -0.088 NA 
HETATM   28  C   UNL     1      -6.549   8.145  64.709  1.00  0.00    -0.059 C  
HETATM   29  C   UNL     1      -6.315   7.736  62.336  1.00  0.00    -0.077 C  
HETATM   30  C   UNL     1      -8.034   7.836  64.989  1.00  0.00    -0.134 C  
ENDBRANCH  23  24
ENDBRANCH  22  23
ENDBRANCH   4   7
ENDBRANCH   2   4
TORSDOF 4
ENDMDL
MODEL       77
REMARK 921   NORMALIZED FREE ENERGY PREDICTED BY IDOCK:   -5.08 KCAL/MOL
REMARK 922        TOTAL FREE ENERGY PREDICTED BY IDOCK:   -6.91 KCAL/MOL
REMARK 923 INTER-LIGAND FREE ENERGY PREDICTED BY IDOCK:   -6.38 KCAL/MOL
REMARK 924 INTRA-LIGAND FREE ENERGY PREDICTED BY IDOCK:   -0.53 KCAL/MOL
REMARK 927      BINDING AFFINITY PREDICTED BY RF-SCORE:    0.00 PKD
ROOT
HETATM    1  C   UNL     1      -7.395   9.127  70.084  1.00  0.00    -0.077 C  
HETATM    2  N   UNL     1      -6.659  10.106  69.262  1.00  0.00    -0.049 N  
HETATM    3  C   UNL     1      -5.544   9.512  68.500  1.00  0.00    -0.040 C  
ENDROOT
BRANCH   2   4
HETATM    4  S   UNL     1      -7.591  11.266  68.425  1.00  0.00    -0.128 S  
HETATM    5  O   UNL     1      -8.960  11.176  68.907  1.00  0.00    -0.156 OA 
HETATM    6  O   UNL     1      -7.285  11.182  67.016  1.00  0.00    -0.112 OA 
BRANCH   4   7
HETATM    7  C   UNL     1      -6.921  12.801  69.045  1.00  0.00    -0.059 A  
HETATM    8  C   UNL     1      -7.495  14.010  68.624  1.00  0.00    -0.125 A  
HETATM    9  C   UNL     1      -7.026  15.289  69.001  1.00  0.00    -0.136 A  
HETATM   10  C   UNL     1      -5.924  15.256  69.874  1.00  0.00    -0.141 A  
HETATM   11  S   UNL     1      -5.130  16.668  70.576  1.00  0.00    -0.227 SA 
HETATM   12  C   UNL     1      -5.349  14.031  70.308  1.00  0.00    -0.106 A  
HETATM   13  C   UNL     1      -5.888  18.040  69.763  1.00  0.00    -0.240 A  
HETATM   14  C   UNL     1      -5.850  12.802  69.907  1.00  0.00    -0.134 A  
HETATM   15  C   UNL     1      -5.295  19.279  70.102  1.00  0.00    -0.229 A  
HETATM   16  C   UNL     1      -5.744  20.472  69.561  1.00  0.00    -0.395 A  
HETATM   17  C   UNL     1      -6.790  20.434  68.660  1.00  0.00    -0.205 A  
HETATM   18  C   UNL     1      -7.383  19.208  68.313  1.00  0.00    -0.322 A  
HETATM   19  C   UNL     1      -6.970  17.968  68.864  1.00  0.00    -0.263 A  
HETATM   20  C   UNL     1      -7.627  16.624  68.505  1.00  0.00    -0.212 C  
HETATM   21  C   UNL     1      -8.764  16.678  67.741  1.00  0.00    -0.201 C  
HETATM   22  C   UNL     1      -9.598  15.526  67.241  1.00  0.00    -0.216 C  
BRANCH  22  23
HETATM   23  C   UNL     1     -10.938  15.675  66.509  1.00  0.00    -0.206 C  
BRANCH  23  24
HETATM   24  N   UNL     1     -11.666  14.377  66.519  1.00  0.00    -0.383 NA 
HETATM   25  C   UNL     1     -12.641  14.181  65.414  1.00  0.00    -0.466 C  
HETATM   26  C   UNL     1     -12.054  13.826  64.020  1.00  0.00    -0.403 C  
HETATM   27  N   UNL     1     -10.924  12.871  63.985  1.00  0.00    -0.399 NA 
HETATM   28  C   UNL     1     -10.021  13.085  65.129  1.00  0.00    -0.152 C  
HETATM   29  C   UNL     1     -11.378  11.483  63.928  1.00  0.00    -0.312 C  
HETATM   30  C   UNL     1     -10.741  13.231  66.486  1.00  0.00    -0.285 C  
ENDBRANCH  23  24
ENDBRANCH  22  23
ENDBRANCH   4   7
ENDBRANCH   2   4
TORSDOF 4
ENDMDL
MODEL       78
REMARK 921   NORMALIZED FREE ENERGY PREDICTED BY IDOCK:   -5.05 KCAL/MOL
REMARK 922        TOTAL FREE ENERGY PREDICTED BY IDOCK:   -6.89 KCAL/MOL
REMARK 923 INTER-LIGAND FREE ENERGY PREDICTED BY IDOCK:   -6.68 KCAL/MOL
REMARK 924 INTRA-LIGAND FREE ENERGY PREDICTED BY IDOCK:   -0.20 KCAL/MOL
REMARK 927      BINDING AFFINITY PREDICTED BY RF-SCORE:    0.00 PKD
ROOT
HETATM    1  C   UNL     1     -12.110  13.701  64.945  1.00  0.00    -0.397 C  
HETATM    2  N   UNL     1     -10.908  14.101  65.699  1.00  0.00    -0.296 N  
HETATM    3  C   UNL     1     -10.214  15.268  65.120  1.00  0.00    -0.339 C  
ENDROOT
BRANCH   2   4
HETATM    4  S   UNL     1     -11.021  14.078  67.402  1.00  0.00    -0.299 S  
HETATM    5  O   UNL     1     -12.383  14.429  67.768  1.00  0.00    -0.236 OA 
HETATM    6  O   UNL     1      -9.890  14.786  67.954  1.00  0.00    -0.209 OA 
BRANCH   4   7
HETATM    7  C   UNL     1     -10.816  12.341  67.766  1.00  0.00    -0.221 A  
HETATM    8  C   UNL     1     -11.387  11.822  68.938  1.00  0.00    -0.326 A  
HETATM    9  C   UNL     1     -11.254  10.482  69.364  1.00  0.00    -0.327 A  
HETATM   10  C   UNL     1     -10.504   9.678  68.486  1.00  0.00    -0.212 A  
HETATM   11  S   UNL     1     -10.192   7.953  68.691  1.00  0.00    -0.203 SA 
HETATM   12  C   UNL     1      -9.932  10.202  67.296  1.00  0.00    -0.241 A  
HETATM   13  C   UNL     1     -10.831   7.583  70.295  1.00  0.00    -0.246 A  
HETATM   14  C   UNL     1     -10.095  11.527  66.924  1.00  0.00    -0.241 A  
HETATM   15  C   UNL     1     -10.564   6.256  70.703  1.00  0.00    -0.301 A  
HETATM   16  C   UNL     1     -10.977   5.777  71.935  1.00  0.00    -0.318 A  
HETATM   17  C   UNL     1     -11.656   6.633  72.780  1.00  0.00    -0.100 A  
HETATM   18  C   UNL     1     -11.923   7.955  72.385  1.00  0.00    -0.373 A  
HETATM   19  C   UNL     1     -11.539   8.476  71.123  1.00  0.00    -0.325 A  
HETATM   20  C   UNL     1     -11.844   9.916  70.676  1.00  0.00    -0.386 C  
HETATM   21  C   UNL     1     -12.666  10.653  71.488  1.00  0.00    -0.549 C  
HETATM   22  C   UNL     1     -13.118  12.078  71.298  1.00  0.00    -0.209 C  
BRANCH  22  23
HETATM   23  C   UNL     1     -14.154  12.788  72.180  1.00  0.00     0.063 C  
BRANCH  23  24
HETATM   24  N   UNL     1     -13.529  13.965  72.844  1.00  0.00    -0.650 NA 
HETATM   25  C   UNL     1     -12.045  14.026  72.775  1.00  0.00     0.519 C  
HETATM   26  C   UNL     1     -11.428  14.478  71.422  1.00  0.00     0.088 C  
HETATM   27  N   UNL     1     -12.097  15.589  70.711  1.00  0.00    -0.357 NA 
HETATM   28  C   UNL     1     -13.561  15.499  70.856  1.00  0.00    -0.197 C  
HETATM   29  C   UNL     1     -11.607  16.895  71.145  1.00  0.00     0.760 C  
HETATM   30  C   UNL     1     -14.039  15.235  72.299  1.00  0.00    -0.554 C  
ENDBRANCH  23  24
ENDBRANCH  22  23
ENDBRANCH   4   7
ENDBRANCH   2   4
TORSDOF 4
ENDMDL
MODEL       79
REMARK 921   NORMALIZED FREE ENERGY PREDICTED BY IDOCK:   -5.02 KCAL/MOL
REMARK 922        TOTAL FREE ENERGY PREDICTED BY IDOCK:   -6.85 KCAL/MOL
REMARK 923 INTER-LIGAND FREE ENERGY PREDICTED BY IDOCK:   -6.04 KCAL/MOL
REMARK 924 INTRA-LIGAND FREE ENERGY PREDICTED BY IDOCK:   -0.80 KCAL/MOL
REMARK 927      BINDING AFFINITY PREDICTED BY RF-SCORE:    0.00 PKD
ROOT
HETATM    1  C   UNL     1      -7.883   6.699  64.077  1.00  0.00    -0.112 C  
HETATM    2  N   UNL     1      -7.405   8.069  64.339  1.00  0.00    -0.085 N  
HETATM    3  C   UNL     1      -5.936   8.170  64.438  1.00  0.00    -0.056 C  
ENDROOT
BRANCH   2   4
HETATM    4  S   UNL     1      -8.177   9.332  63.489  1.00  0.00    -0.184 S  
HETATM    5  O   UNL     1      -9.135   8.736  62.571  1.00  0.00    -0.038 OA 
HETATM    6  O   UNL     1      -7.176  10.264  63.027  1.00  0.00    -0.140 OA 
BRANCH   4   7
HETATM    7  C   UNL     1      -9.120  10.129  64.780  1.00  0.00    -0.222 A  
HETATM    8  C   UNL     1      -9.240   9.492  66.024  1.00  0.00    -0.248 A  
HETATM    9  C   UNL     1      -9.998   9.991  67.106  1.00  0.00    -0.251 A  
HETATM   10  C   UNL     1     -10.622  11.224  66.842  1.00  0.00    -0.257 A  
HETATM   11  S   UNL     1     -11.596  12.146  67.989  1.00  0.00    -0.349 SA 
HETATM   12  C   UNL     1     -10.494  11.874  65.585  1.00  0.00    -0.302 A  
HETATM   13  C   UNL     1     -11.758  11.074  69.382  1.00  0.00    -0.323 A  
HETATM   14  C   UNL     1      -9.735  11.338  64.555  1.00  0.00    -0.293 A  
HETATM   15  C   UNL     1     -12.621  11.588  70.378  1.00  0.00    -0.238 A  
HETATM   16  C   UNL     1     -12.883  10.889  71.544  1.00  0.00    -0.560 A  
HETATM   17  C   UNL     1     -12.289   9.654  71.720  1.00  0.00    -0.474 A  
HETATM   18  C   UNL     1     -11.434   9.132  70.734  1.00  0.00    -0.337 A  
HETATM   19  C   UNL     1     -11.120   9.827  69.538  1.00  0.00    -0.226 A  
HETATM   20  C   UNL     1     -10.170   9.272  68.464  1.00  0.00    -0.225 C  
HETATM   21  C   UNL     1      -9.485   8.127  68.777  1.00  0.00    -0.148 C  
HETATM   22  C   UNL     1      -8.506   7.368  67.918  1.00  0.00    -0.122 C  
BRANCH  22  23
HETATM   23  C   UNL     1      -7.674   6.171  68.395  1.00  0.00    -0.103 C  
BRANCH  23  24
HETATM   24  N   UNL     1      -8.055   4.953  67.629  1.00  0.00    -0.094 NA 
HETATM   25  C   UNL     1      -7.191   3.763  67.848  1.00  0.00    -0.059 C  
HETATM   26  C   UNL     1      -7.404   2.980  69.172  1.00  0.00    -0.048 C  
HETATM   27  N   UNL     1      -8.799   2.788  69.628  1.00  0.00    -0.078 NA 
HETATM   28  C   UNL     1      -9.613   3.982  69.342  1.00  0.00    -0.187 C  
HETATM   29  C   UNL     1      -9.405   1.589  69.054  1.00  0.00    -0.130 C  
HETATM   30  C   UNL     1      -9.440   4.539  67.914  1.00  0.00    -0.155 C  
ENDBRANCH  23  24
ENDBRANCH  22  23
ENDBRANCH   4   7
ENDBRANCH   2   4
TORSDOF 4
ENDMDL
MODEL       80
REMARK 921   NORMALIZED FREE ENERGY PREDICTED BY IDOCK:   -5.01 KCAL/MOL
REMARK 922        TOTAL FREE ENERGY PREDICTED BY IDOCK:   -6.83 KCAL/MOL
REMARK 923 INTER-LIGAND FREE ENERGY PREDICTED BY IDOCK:   -6.39 KCAL/MOL
REMARK 924 INTRA-LIGAND FREE ENERGY PREDICTED BY IDOCK:   -0.44 KCAL/MOL
REMARK 927      BINDING AFFINITY PREDICTED BY RF-SCORE:    0.00 PKD
ROOT
HETATM    1  C   UNL     1     -12.633  11.638  63.672  1.00  0.00    -0.196 C  
HETATM    2  N   UNL     1     -11.683  12.585  64.285  1.00  0.00    -0.356 N  
HETATM    3  C   UNL     1     -10.384  12.648  63.587  1.00  0.00    -0.251 C  
ENDROOT
BRANCH   2   4
HETATM    4  S   UNL     1     -12.315  14.082  64.808  1.00  0.00    -0.388 S  
HETATM    5  O   UNL     1     -13.358  13.813  65.786  1.00  0.00    -0.471 OA 
HETATM    6  O   UNL     1     -12.567  14.911  63.653  1.00  0.00    -0.724 OA 
BRANCH   4   7
HETATM    7  C   UNL     1     -10.934  14.780  65.699  1.00  0.00    -0.344 A  
HETATM    8  C   UNL     1     -10.154  13.940  66.507  1.00  0.00    -0.286 A  
HETATM    9  C   UNL     1      -9.070  14.377  67.300  1.00  0.00    -0.221 A  
HETATM   10  C   UNL     1      -8.809  15.755  67.195  1.00  0.00    -0.203 A  
HETATM   11  S   UNL     1      -7.498  16.615  68.008  1.00  0.00    -0.169 SA 
HETATM   12  C   UNL     1      -9.593  16.605  66.370  1.00  0.00    -0.308 A  
HETATM   13  C   UNL     1      -6.795  15.410  69.091  1.00  0.00    -0.144 A  
HETATM   14  C   UNL     1     -10.648  16.122  65.611  1.00  0.00    -0.377 A  
HETATM   15  C   UNL     1      -5.793  15.944  69.934  1.00  0.00    -0.159 A  
HETATM   16  C   UNL     1      -5.129  15.158  70.861  1.00  0.00    -0.141 A  
HETATM   17  C   UNL     1      -5.472  13.824  70.961  1.00  0.00    -0.188 A  
HETATM   18  C   UNL     1      -6.470  13.286  70.131  1.00  0.00     0.122 A  
HETATM   19  C   UNL     1      -7.156  14.050  69.152  1.00  0.00    -0.085 A  
HETATM   20  C   UNL     1      -8.235  13.463  68.227  1.00  0.00    -0.160 C  
HETATM   21  C   UNL     1      -8.405  12.103  68.260  1.00  0.00    -0.172 C  
HETATM   22  C   UNL     1      -9.386  11.273  67.473  1.00  0.00    -0.166 C  
BRANCH  22  23
HETATM   23  C   UNL     1      -9.417   9.739  67.463  1.00  0.00    -0.147 C  
BRANCH  23  24
HETATM   24  N   UNL     1      -9.324   9.241  66.063  1.00  0.00    -0.204 NA 
HETATM   25  C   UNL     1      -8.537  10.093  65.133  1.00  0.00    -0.164 C  
HETATM   26  C   UNL     1      -6.990  10.011  65.250  1.00  0.00    -0.132 C  
HETATM   27  N   UNL     1      -6.398   8.672  65.467  1.00  0.00    -0.055 NA 
HETATM   28  C   UNL     1      -7.246   7.862  66.359  1.00  0.00    -0.082 C  
HETATM   29  C   UNL     1      -6.141   7.974  64.210  1.00  0.00    -0.057 C  
HETATM   30  C   UNL     1      -8.747   7.888  66.001  1.00  0.00    -0.158 C  
ENDBRANCH  23  24
ENDBRANCH  22  23
ENDBRANCH   4   7
ENDBRANCH   2   4
TORSDOF 4
ENDMDL
MODEL       81
REMARK 921   NORMALIZED FREE ENERGY PREDICTED BY IDOCK:   -4.99 KCAL/MOL
REMARK 922        TOTAL FREE ENERGY PREDICTED BY IDOCK:   -6.81 KCAL/MOL
REMARK 923 INTER-LIGAND FREE ENERGY PREDICTED BY IDOCK:   -6.61 KCAL/MOL
REMARK 924 INTRA-LIGAND FREE ENERGY PREDICTED BY IDOCK:   -0.20 KCAL/MOL
REMARK 927      BINDING AFFINITY PREDICTED BY RF-SCORE:    0.00 PKD
ROOT
HETATM    1  C   UNL     1     -11.546  12.470  67.664  1.00  0.00    -0.355 C  
HETATM    2  N   UNL     1     -10.812  11.442  66.904  1.00  0.00    -0.272 N  
HETATM    3  C   UNL     1     -11.024  11.525  65.446  1.00  0.00    -0.226 C  
ENDROOT
BRANCH   2   4
HETATM    4  S   UNL     1      -9.212  11.112  67.401  1.00  0.00    -0.153 S  
HETATM    5  O   UNL     1      -9.210  10.971  68.849  1.00  0.00    -0.179 OA 
HETATM    6  O   UNL     1      -8.318  12.030  66.736  1.00  0.00    -0.181 OA 
BRANCH   4   7
HETATM    7  C   UNL     1      -8.938   9.484  66.720  1.00  0.00    -0.138 A  
HETATM    8  C   UNL     1      -9.360   8.363  67.451  1.00  0.00    -0.178 A  
HETATM    9  C   UNL     1      -9.157   7.025  67.048  1.00  0.00    -0.150 A  
HETATM   10  C   UNL     1      -8.501   6.897  65.810  1.00  0.00    -0.146 A  
HETATM   11  S   UNL     1      -8.139   5.375  64.994  1.00  0.00    -0.126 SA 
HETATM   12  C   UNL     1      -8.081   8.032  65.065  1.00  0.00    -0.145 A  
HETATM   13  C   UNL     1      -8.582   4.135  66.171  1.00  0.00    -0.113 A  
HETATM   14  C   UNL     1      -8.307   9.326  65.509  1.00  0.00    -0.139 A  
HETATM   15  C   UNL     1      -8.247   2.828  65.748  1.00  0.00    -0.089 A  
HETATM   16  C   UNL     1      -8.507   1.720  66.538  1.00  0.00    -0.097 A  
HETATM   17  C   UNL     1      -9.097   1.914  67.771  1.00  0.00    -0.197 A  
HETATM   18  C   UNL     1      -9.429   3.209  68.202  1.00  0.00    -0.217 A  
HETATM   19  C   UNL     1      -9.203   4.367  67.414  1.00  0.00    -0.162 A  
HETATM   20  C   UNL     1      -9.582   5.786  67.870  1.00  0.00    -0.124 C  
HETATM   21  C   UNL     1     -10.316   5.889  69.023  1.00  0.00    -0.297 C  
HETATM   22  C   UNL     1     -10.810   7.143  69.697  1.00  0.00    -0.254 C  
BRANCH  22  23
HETATM   23  C   UNL     1     -11.747   7.167  70.912  1.00  0.00    -0.328 C  
BRANCH  23  24
HETATM   24  N   UNL     1     -11.400   8.315  71.795  1.00  0.00    -0.270 NA 
HETATM   25  C   UNL     1     -10.838   9.505  71.104  1.00  0.00    -0.355 C  
HETATM   26  C   UNL     1     -11.846  10.412  70.345  1.00  0.00    -0.328 C  
HETATM   27  N   UNL     1     -13.149  10.669  70.997  1.00  0.00    -0.341 NA 
HETATM   28  C   UNL     1     -13.629   9.467  71.701  1.00  0.00    -0.365 C  
HETATM   29  C   UNL     1     -13.098  11.818  71.897  1.00  0.00    -0.376 C  
HETATM   30  C   UNL     1     -12.561   8.776  72.574  1.00  0.00    -0.306 C  
ENDBRANCH  23  24
ENDBRANCH  22  23
ENDBRANCH   4   7
ENDBRANCH   2   4
TORSDOF 4
ENDMDL
MODEL       82
REMARK 921   NORMALIZED FREE ENERGY PREDICTED BY IDOCK:   -4.98 KCAL/MOL
REMARK 922        TOTAL FREE ENERGY PREDICTED BY IDOCK:   -6.80 KCAL/MOL
REMARK 923 INTER-LIGAND FREE ENERGY PREDICTED BY IDOCK:   -6.90 KCAL/MOL
REMARK 924 INTRA-LIGAND FREE ENERGY PREDICTED BY IDOCK:    0.10 KCAL/MOL
REMARK 927      BINDING AFFINITY PREDICTED BY RF-SCORE:    0.00 PKD
ROOT
HETATM    1  C   UNL     1      -7.866   9.569  70.354  1.00  0.00    -0.172 C  
HETATM    2  N   UNL     1      -7.313   9.577  68.987  1.00  0.00    -0.071 N  
HETATM    3  C   UNL     1      -6.738   8.281  68.579  1.00  0.00    -0.063 C  
ENDROOT
BRANCH   2   4
HETATM    4  S   UNL     1      -8.221  10.393  67.793  1.00  0.00    -0.110 S  
HETATM    5  O   UNL     1      -9.589  10.511  68.270  1.00  0.00    -0.150 OA 
HETATM    6  O   UNL     1      -7.924   9.813  66.504  1.00  0.00    -0.111 OA 
BRANCH   4   7
HETATM    7  C   UNL     1      -7.511  12.031  67.838  1.00  0.00    -0.114 A  
HETATM    8  C   UNL     1      -8.337  13.120  68.153  1.00  0.00    -0.161 A  
HETATM    9  C   UNL     1      -7.910  14.466  68.172  1.00  0.00    -0.138 A  
HETATM   10  C   UNL     1      -6.548  14.635  67.865  1.00  0.00    -0.164 A  
HETATM   11  S   UNL     1      -5.684  16.174  67.851  1.00  0.00    -0.141 SA 
HETATM   12  C   UNL     1      -5.708  13.531  67.554  1.00  0.00     0.027 A  
HETATM   13  C   UNL     1      -6.948  17.384  68.082  1.00  0.00    -0.190 A  
HETATM   14  C   UNL     1      -6.180  12.228  67.552  1.00  0.00    -0.140 A  
HETATM   15  C   UNL     1      -6.469  18.711  67.976  1.00  0.00    -0.219 A  
HETATM   16  C   UNL     1      -7.311  19.801  68.118  1.00  0.00    -0.338 A  
HETATM   17  C   UNL     1      -8.652  19.572  68.357  1.00  0.00    -0.389 A  
HETATM   18  C   UNL     1      -9.138  18.257  68.459  1.00  0.00    -0.328 A  
HETATM   19  C   UNL     1      -8.306  17.115  68.345  1.00  0.00    -0.251 A  
HETATM   20  C   UNL     1      -8.827  15.674  68.475  1.00  0.00    -0.187 C  
HETATM   21  C   UNL     1     -10.128  15.522  68.880  1.00  0.00    -0.214 C  
HETATM   22  C   UNL     1     -10.892  14.238  69.080  1.00  0.00    -0.264 C  
BRANCH  22  23
HETATM   23  C   UNL     1     -12.304  14.149  69.672  1.00  0.00    -0.256 C  
BRANCH  23  24
HETATM   24  N   UNL     1     -12.649  15.428  70.351  1.00  0.00    -0.404 NA 
HETATM   25  C   UNL     1     -13.914  15.416  71.133  1.00  0.00    -0.316 C  
HETATM   26  C   UNL     1     -13.872  14.710  72.516  1.00  0.00    -0.458 C  
HETATM   27  N   UNL     1     -12.666  14.920  73.348  1.00  0.00    -0.514 NA 
HETATM   28  C   UNL     1     -11.455  14.968  72.511  1.00  0.00    -0.160 C  
HETATM   29  C   UNL     1     -12.775  16.114  74.183  1.00  0.00    -0.451 C  
HETATM   30  C   UNL     1     -11.581  15.868  71.264  1.00  0.00    -0.452 C  
ENDBRANCH  23  24
ENDBRANCH  22  23
ENDBRANCH   4   7
ENDBRANCH   2   4
TORSDOF 4
ENDMDL
MODEL       83
REMARK 921   NORMALIZED FREE ENERGY PREDICTED BY IDOCK:   -4.92 KCAL/MOL
REMARK 922        TOTAL FREE ENERGY PREDICTED BY IDOCK:   -6.72 KCAL/MOL
REMARK 923 INTER-LIGAND FREE ENERGY PREDICTED BY IDOCK:   -6.72 KCAL/MOL
REMARK 924 INTRA-LIGAND FREE ENERGY PREDICTED BY IDOCK:    0.00 KCAL/MOL
REMARK 927      BINDING AFFINITY PREDICTED BY RF-SCORE:    0.00 PKD
ROOT
HETATM    1  C   UNL     1     -10.119  18.866  68.545  1.00  0.00    -0.402 C  
HETATM    2  N   UNL     1      -8.903  19.366  67.877  1.00  0.00    -0.308 N  
HETATM    3  C   UNL     1      -7.775  19.589  68.801  1.00  0.00    -0.340 C  
ENDROOT
BRANCH   2   4
HETATM    4  S   UNL     1      -8.501  18.659  66.375  1.00  0.00    -0.235 S  
HETATM    5  O   UNL     1      -7.582  19.553  65.689  1.00  0.00    -0.412 OA 
HETATM    6  O   UNL     1      -9.711  18.194  65.739  1.00  0.00    -0.503 OA 
BRANCH   4   7
HETATM    7  C   UNL     1      -7.557  17.228  66.877  1.00  0.00    -0.213 A  
HETATM    8  C   UNL     1      -8.237  16.041  67.186  1.00  0.00    -0.226 A  
HETATM    9  C   UNL     1      -7.613  14.859  67.643  1.00  0.00    -0.201 A  
HETATM   10  C   UNL     1      -6.213  14.959  67.745  1.00  0.00    -0.145 A  
HETATM   11  S   UNL     1      -5.126  13.656  68.232  1.00  0.00    -0.109 SA 
HETATM   12  C   UNL     1      -5.523  16.158  67.424  1.00  0.00    -0.117 A  
HETATM   13  C   UNL     1      -6.207  12.357  68.743  1.00  0.00    -0.073 A  
HETATM   14  C   UNL     1      -6.187  17.291  66.979  1.00  0.00    -0.203 A  
HETATM   15  C   UNL     1      -5.518  11.251  69.294  1.00  0.00    -0.040 A  
HETATM   16  C   UNL     1      -6.192  10.135  69.761  1.00  0.00    -0.058 A  
HETATM   17  C   UNL     1      -7.571  10.121  69.692  1.00  0.00    -0.158 A  
HETATM   18  C   UNL     1      -8.265  11.217  69.150  1.00  0.00    -0.007 A  
HETATM   19  C   UNL     1      -7.611  12.367  68.638  1.00  0.00    -0.082 A  
HETATM   20  C   UNL     1      -8.362  13.562  68.027  1.00  0.00    -0.168 C  
HETATM   21  C   UNL     1      -9.710  13.410  67.832  1.00  0.00    -0.226 C  
HETATM   22  C   UNL     1     -10.682  14.413  67.265  1.00  0.00    -0.285 C  
BRANCH  22  23
HETATM   23  C   UNL     1     -12.154  14.116  66.948  1.00  0.00    -0.432 C  
BRANCH  23  24
HETATM   24  N   UNL     1     -12.344  14.018  65.475  1.00  0.00    -0.456 NA 
HETATM   25  C   UNL     1     -11.180  14.438  64.651  1.00  0.00    -0.360 C  
HETATM   26  C   UNL     1      -9.997  13.435  64.551  1.00  0.00    -0.048 C  
HETATM   27  N   UNL     1     -10.335  12.002  64.407  1.00  0.00    -0.288 NA 
HETATM   28  C   UNL     1     -11.522  11.660  65.209  1.00  0.00    -0.105 C  
HETATM   29  C   UNL     1     -10.519  11.618  63.009  1.00  0.00    -0.197 C  
HETATM   30  C   UNL     1     -12.696  12.650  65.058  1.00  0.00    -0.324 C  
ENDBRANCH  23  24
ENDBRANCH  22  23
ENDBRANCH   4   7
ENDBRANCH   2   4
TORSDOF 4
ENDMDL
MODEL       84
REMARK 921   NORMALIZED FREE ENERGY PREDICTED BY IDOCK:   -4.90 KCAL/MOL
REMARK 922        TOTAL FREE ENERGY PREDICTED BY IDOCK:   -6.70 KCAL/MOL
REMARK 923 INTER-LIGAND FREE ENERGY PREDICTED BY IDOCK:   -6.52 KCAL/MOL
REMARK 924 INTRA-LIGAND FREE ENERGY PREDICTED BY IDOCK:   -0.17 KCAL/MOL
REMARK 927      BINDING AFFINITY PREDICTED BY RF-SCORE:    0.00 PKD
ROOT
HETATM    1  C   UNL     1     -12.910  11.864  63.159  1.00  0.00    -0.013 C  
HETATM    2  N   UNL     1     -11.883  12.543  63.970  1.00  0.00    -0.393 N  
HETATM    3  C   UNL     1     -10.528  12.458  63.392  1.00  0.00    -0.311 C  
ENDROOT
BRANCH   2   4
HETATM    4  S   UNL     1     -12.306  14.054  64.644  1.00  0.00    -0.363 S  
HETATM    5  O   UNL     1     -13.474  13.858  65.488  1.00  0.00    -0.657 OA 
HETATM    6  O   UNL     1     -12.295  15.050  63.599  1.00  0.00    -0.568 OA 
BRANCH   4   7
HETATM    7  C   UNL     1     -10.927  14.377  65.732  1.00  0.00    -0.314 A  
HETATM    8  C   UNL     1     -10.217  13.292  66.267  1.00  0.00    -0.296 A  
HETATM    9  C   UNL     1      -9.143  13.412  67.177  1.00  0.00    -0.235 A  
HETATM   10  C   UNL     1      -8.815  14.743  67.495  1.00  0.00    -0.190 A  
HETATM   11  S   UNL     1      -7.496  15.247  68.555  1.00  0.00    -0.128 SA 
HETATM   12  C   UNL     1      -9.528  15.842  66.947  1.00  0.00    -0.244 A  
HETATM   13  C   UNL     1      -6.890  13.737  69.242  1.00  0.00    -0.078 A  
HETATM   14  C   UNL     1     -10.576  15.666  66.056  1.00  0.00    -0.336 A  
HETATM   15  C   UNL     1      -5.895  13.939  70.227  1.00  0.00    -0.150 A  
HETATM   16  C   UNL     1      -5.302  12.877  70.889  1.00  0.00    -0.176 A  
HETATM   17  C   UNL     1      -5.710  11.595  70.577  1.00  0.00    -0.148 A  
HETATM   18  C   UNL     1      -6.701  11.385  69.603  1.00  0.00    -0.105 A  
HETATM   19  C   UNL     1      -7.315  12.443  68.885  1.00  0.00    -0.031 A  
HETATM   20  C   UNL     1      -8.386  12.219  67.804  1.00  0.00    -0.162 C  
HETATM   21  C   UNL     1      -8.620  10.923  67.425  1.00  0.00    -0.127 C  
HETATM   22  C   UNL     1      -9.609  10.420  66.405  1.00  0.00    -0.225 C  
BRANCH  22  23
HETATM   23  C   UNL     1      -9.711   8.963  65.935  1.00  0.00    -0.189 C  
BRANCH  23  24
HETATM   24  N   UNL     1      -9.252   8.050  67.018  1.00  0.00    -0.141 NA 
HETATM   25  C   UNL     1     -10.218   6.991  67.413  1.00  0.00    -0.215 C  
HETATM   26  C   UNL     1     -10.346   5.772  66.458  1.00  0.00    -0.209 C  
HETATM   27  N   UNL     1      -9.098   5.241  65.867  1.00  0.00    -0.153 NA 
HETATM   28  C   UNL     1      -8.166   6.334  65.540  1.00  0.00    -0.145 C  
HETATM   29  C   UNL     1      -8.461   4.248  66.728  1.00  0.00    -0.104 C  
HETATM   30  C   UNL     1      -7.991   7.375  66.666  1.00  0.00    -0.121 C  
ENDBRANCH  23  24
ENDBRANCH  22  23
ENDBRANCH   4   7
ENDBRANCH   2   4
TORSDOF 4
ENDMDL
MODEL       85
REMARK 921   NORMALIZED FREE ENERGY PREDICTED BY IDOCK:   -4.90 KCAL/MOL
REMARK 922        TOTAL FREE ENERGY PREDICTED BY IDOCK:   -6.70 KCAL/MOL
REMARK 923 INTER-LIGAND FREE ENERGY PREDICTED BY IDOCK:   -6.01 KCAL/MOL
REMARK 924 INTRA-LIGAND FREE ENERGY PREDICTED BY IDOCK:   -0.69 KCAL/MOL
REMARK 927      BINDING AFFINITY PREDICTED BY RF-SCORE:    0.00 PKD
ROOT
HETATM    1  C   UNL     1      -5.971   5.303  67.431  1.00  0.00    -0.026 C  
HETATM    2  N   UNL     1      -7.006   4.253  67.449  1.00  0.00    -0.062 N  
HETATM    3  C   UNL     1      -7.628   4.064  68.774  1.00  0.00    -0.054 C  
ENDROOT
BRANCH   2   4
HETATM    4  S   UNL     1      -8.073   4.198  66.117  1.00  0.00    -0.098 S  
HETATM    5  O   UNL     1      -9.374   3.765  66.600  1.00  0.00    -0.166 OA 
HETATM    6  O   UNL     1      -7.417   3.522  65.022  1.00  0.00    -0.071 OA 
BRANCH   4   7
HETATM    7  C   UNL     1      -8.225   5.925  65.689  1.00  0.00    -0.134 A  
HETATM    8  C   UNL     1      -8.978   6.766  66.521  1.00  0.00    -0.162 A  
HETATM    9  C   UNL     1      -9.217   8.135  66.267  1.00  0.00    -0.245 A  
HETATM   10  C   UNL     1      -8.604   8.610  65.093  1.00  0.00    -0.173 A  
HETATM   11  S   UNL     1      -8.656  10.276  64.511  1.00  0.00    -0.193 SA 
HETATM   12  C   UNL     1      -7.834   7.760  64.254  1.00  0.00    -0.138 A  
HETATM   13  C   UNL     1      -9.795  11.079  65.596  1.00  0.00    -0.239 A  
HETATM   14  C   UNL     1      -7.631   6.422  64.552  1.00  0.00    -0.100 A  
HETATM   15  C   UNL     1     -10.073  12.412  65.216  1.00  0.00    -0.285 A  
HETATM   16  C   UNL     1     -10.950  13.206  65.936  1.00  0.00    -0.288 A  
HETATM   17  C   UNL     1     -11.570  12.663  67.045  1.00  0.00    -0.431 A  
HETATM   18  C   UNL     1     -11.304  11.338  67.428  1.00  0.00    -0.349 A  
HETATM   19  C   UNL     1     -10.394  10.501  66.733  1.00  0.00    -0.301 A  
HETATM   20  C   UNL     1     -10.082   9.056  67.157  1.00  0.00    -0.309 C  
HETATM   21  C   UNL     1     -10.597   8.640  68.358  1.00  0.00    -0.169 C  
HETATM   22  C   UNL     1     -10.457   7.287  69.006  1.00  0.00    -0.219 C  
BRANCH  22  23
HETATM   23  C   UNL     1     -10.946   6.944  70.420  1.00  0.00    -0.274 C  
BRANCH  23  24
HETATM   24  N   UNL     1      -9.829   6.361  71.213  1.00  0.00    -0.181 NA 
HETATM   25  C   UNL     1      -8.511   7.028  71.047  1.00  0.00    -0.133 C  
HETATM   26  C   UNL     1      -8.314   8.379  71.788  1.00  0.00    -0.160 C  
HETATM   27  N   UNL     1      -8.859   8.485  73.159  1.00  0.00    -0.337 NA 
HETATM   28  C   UNL     1     -10.140   7.767  73.271  1.00  0.00    -0.310 C  
HETATM   29  C   UNL     1      -7.908   8.021  74.166  1.00  0.00    -0.220 C  
HETATM   30  C   UNL     1     -10.129   6.352  72.655  1.00  0.00    -0.178 C  
ENDBRANCH  23  24
ENDBRANCH  22  23
ENDBRANCH   4   7
ENDBRANCH   2   4
TORSDOF 4
ENDMDL
MODEL       86
REMARK 921   NORMALIZED FREE ENERGY PREDICTED BY IDOCK:   -4.88 KCAL/MOL
REMARK 922        TOTAL FREE ENERGY PREDICTED BY IDOCK:   -6.67 KCAL/MOL
REMARK 923 INTER-LIGAND FREE ENERGY PREDICTED BY IDOCK:   -5.95 KCAL/MOL
REMARK 924 INTRA-LIGAND FREE ENERGY PREDICTED BY IDOCK:   -0.72 KCAL/MOL
REMARK 927      BINDING AFFINITY PREDICTED BY RF-SCORE:    0.00 PKD
ROOT
HETATM    1  C   UNL     1     -10.039   4.746  70.927  1.00  0.00    -0.205 C  
HETATM    2  N   UNL     1     -10.620   5.496  72.056  1.00  0.00    -0.222 N  
HETATM    3  C   UNL     1     -11.225   4.630  73.086  1.00  0.00    -0.281 C  
ENDROOT
BRANCH   2   4
HETATM    4  S   UNL     1      -9.724   6.827  72.641  1.00  0.00    -0.150 S  
HETATM    5  O   UNL     1      -8.366   6.713  72.134  1.00  0.00    -0.106 OA 
HETATM    6  O   UNL     1      -9.988   6.982  74.052  1.00  0.00    -0.302 OA 
BRANCH   4   7
HETATM    7  C   UNL     1     -10.486   8.196  71.783  1.00  0.00    -0.242 A  
HETATM    8  C   UNL     1      -9.904   8.658  70.593  1.00  0.00    -0.220 A  
HETATM    9  C   UNL     1     -10.378   9.762  69.850  1.00  0.00    -0.291 A  
HETATM   10  C   UNL     1     -11.526  10.364  70.396  1.00  0.00    -0.337 A  
HETATM   11  S   UNL     1     -12.401  11.726  69.693  1.00  0.00     0.004 SA 
HETATM   12  C   UNL     1     -12.121   9.890  71.596  1.00  0.00    -0.457 A  
HETATM   13  C   UNL     1     -11.390  12.241  68.340  1.00  0.00    -0.292 A  
HETATM   14  C   UNL     1     -11.614   8.800  72.286  1.00  0.00    -0.391 A  
HETATM   15  C   UNL     1     -11.864  13.417  67.713  1.00  0.00    -0.395 A  
HETATM   16  C   UNL     1     -11.201  13.984  66.637  1.00  0.00    -0.330 A  
HETATM   17  C   UNL     1     -10.044  13.382  66.184  1.00  0.00    -0.304 A  
HETATM   18  C   UNL     1      -9.562  12.216  66.804  1.00  0.00    -0.216 A  
HETATM   19  C   UNL     1     -10.224  11.590  67.891  1.00  0.00    -0.200 A  
HETATM   20  C   UNL     1      -9.714  10.303  68.563  1.00  0.00    -0.167 C  
HETATM   21  C   UNL     1      -8.662   9.667  67.957  1.00  0.00    -0.119 C  
HETATM   22  C   UNL     1      -7.964   8.406  68.400  1.00  0.00    -0.118 C  
BRANCH  22  23
HETATM   23  C   UNL     1      -6.883   7.679  67.589  1.00  0.00    -0.069 C  
BRANCH  23  24
HETATM   24  N   UNL     1      -7.452   7.211  66.295  1.00  0.00    -0.085 NA 
HETATM   25  C   UNL     1      -6.494   6.529  65.385  1.00  0.00    -0.039 C  
HETATM   26  C   UNL     1      -6.122   5.062  65.736  1.00  0.00    -0.030 C  
HETATM   27  N   UNL     1      -7.213   4.182  66.210  1.00  0.00    -0.067 NA 
HETATM   28  C   UNL     1      -8.152   4.927  67.068  1.00  0.00    -0.107 C  
HETATM   29  C   UNL     1      -7.914   3.531  65.106  1.00  0.00    -0.086 C  
HETATM   30  C   UNL     1      -8.585   6.292  66.496  1.00  0.00    -0.128 C  
ENDBRANCH  23  24
ENDBRANCH  22  23
ENDBRANCH   4   7
ENDBRANCH   2   4
TORSDOF 4
ENDMDL
MODEL       87
REMARK 921   NORMALIZED FREE ENERGY PREDICTED BY IDOCK:   -4.87 KCAL/MOL
REMARK 922        TOTAL FREE ENERGY PREDICTED BY IDOCK:   -6.66 KCAL/MOL
REMARK 923 INTER-LIGAND FREE ENERGY PREDICTED BY IDOCK:   -6.07 KCAL/MOL
REMARK 924 INTRA-LIGAND FREE ENERGY PREDICTED BY IDOCK:   -0.59 KCAL/MOL
REMARK 927      BINDING AFFINITY PREDICTED BY RF-SCORE:    0.00 PKD
ROOT
HETATM    1  C   UNL     1      -6.519  12.971  67.593  1.00  0.00    -0.160 C  
HETATM    2  N   UNL     1      -7.072  11.607  67.686  1.00  0.00    -0.088 N  
HETATM    3  C   UNL     1      -7.661  11.125  66.423  1.00  0.00    -0.124 C  
ENDROOT
BRANCH   2   4
HETATM    4  S   UNL     1      -6.156  10.461  68.560  1.00  0.00    -0.043 S  
HETATM    5  O   UNL     1      -5.591  11.129  69.722  1.00  0.00    -0.050 OA 
HETATM    6  O   UNL     1      -5.321   9.729  67.637  1.00  0.00    -0.036 OA 
BRANCH   4   7
HETATM    7  C   UNL     1      -7.420   9.352  69.161  1.00  0.00    -0.073 A  
HETATM    8  C   UNL     1      -8.691   9.868  69.454  1.00  0.00    -0.186 A  
HETATM    9  C   UNL     1      -9.758   9.107  69.982  1.00  0.00    -0.217 A  
HETATM   10  C   UNL     1      -9.448   7.749  70.174  1.00  0.00    -0.160 A  
HETATM   11  S   UNL     1     -10.564   6.517  70.767  1.00  0.00    -0.242 SA 
HETATM   12  C   UNL     1      -8.163   7.225  69.870  1.00  0.00    -0.133 A  
HETATM   13  C   UNL     1     -12.003   7.425  71.238  1.00  0.00    -0.313 A  
HETATM   14  C   UNL     1      -7.150   8.017  69.352  1.00  0.00    -0.063 A  
HETATM   15  C   UNL     1     -12.984   6.619  71.862  1.00  0.00    -0.163 A  
HETATM   16  C   UNL     1     -14.181   7.150  72.312  1.00  0.00    -0.103 A  
HETATM   17  C   UNL     1     -14.404   8.504  72.151  1.00  0.00    -0.529 A  
HETATM   18  C   UNL     1     -13.433   9.313  71.536  1.00  0.00    -0.437 A  
HETATM   19  C   UNL     1     -12.206   8.804  71.040  1.00  0.00    -0.226 A  
HETATM   20  C   UNL     1     -11.147   9.680  70.348  1.00  0.00    -0.346 C  
HETATM   21  C   UNL     1     -11.503  10.974  70.068  1.00  0.00    -0.398 C  
HETATM   22  C   UNL     1     -10.667  12.042  69.412  1.00  0.00     0.022 C  
BRANCH  22  23
HETATM   23  C   UNL     1     -11.187  13.428  69.005  1.00  0.00    -0.275 C  
BRANCH  23  24
HETATM   24  N   UNL     1     -10.042  14.353  68.788  1.00  0.00    -0.239 NA 
HETATM   25  C   UNL     1      -9.778  14.723  67.373  1.00  0.00    -0.214 C  
HETATM   26  C   UNL     1     -10.730  15.774  66.737  1.00  0.00    -0.293 C  
HETATM   27  N   UNL     1     -11.132  16.921  67.581  1.00  0.00    -0.153 NA 
HETATM   28  C   UNL     1     -11.333  16.499  68.978  1.00  0.00    -0.181 C  
HETATM   29  C   UNL     1     -10.180  18.026  67.499  1.00  0.00    -0.369 C  
HETATM   30  C   UNL     1     -10.204  15.610  69.539  1.00  0.00    -0.277 C  
ENDBRANCH  23  24
ENDBRANCH  22  23
ENDBRANCH   4   7
ENDBRANCH   2   4
TORSDOF 4
ENDMDL
MODEL       88
REMARK 921   NORMALIZED FREE ENERGY PREDICTED BY IDOCK:   -4.87 KCAL/MOL
REMARK 922        TOTAL FREE ENERGY PREDICTED BY IDOCK:   -6.66 KCAL/MOL
REMARK 923 INTER-LIGAND FREE ENERGY PREDICTED BY IDOCK:   -6.08 KCAL/MOL
REMARK 924 INTRA-LIGAND FREE ENERGY PREDICTED BY IDOCK:   -0.58 KCAL/MOL
REMARK 927      BINDING AFFINITY PREDICTED BY RF-SCORE:    0.00 PKD
ROOT
HETATM    1  C   UNL     1      -9.258  15.426  68.074  1.00  0.00    -0.184 C  
HETATM    2  N   UNL     1      -8.020  15.293  67.284  1.00  0.00    -0.186 N  
HETATM    3  C   UNL     1      -7.666  16.516  66.537  1.00  0.00    -0.288 C  
ENDROOT
BRANCH   2   4
HETATM    4  S   UNL     1      -6.716  14.475  68.023  1.00  0.00    -0.161 S  
HETATM    5  O   UNL     1      -6.948  14.465  69.459  1.00  0.00    -0.144 OA 
HETATM    6  O   UNL     1      -5.479  14.970  67.467  1.00  0.00    -0.328 OA 
BRANCH   4   7
HETATM    7  C   UNL     1      -6.951  12.801  67.447  1.00  0.00    -0.129 A  
HETATM    8  C   UNL     1      -8.148  12.138  67.758  1.00  0.00    -0.152 A  
HETATM    9  C   UNL     1      -8.434  10.800  67.406  1.00  0.00    -0.119 A  
HETATM   10  C   UNL     1      -7.407  10.173  66.678  1.00  0.00    -0.106 A  
HETATM   11  S   UNL     1      -7.461   8.527  66.040  1.00  0.00    -0.086 SA 
HETATM   12  C   UNL     1      -6.198  10.846  66.355  1.00  0.00    -0.130 A  
HETATM   13  C   UNL     1      -8.947   7.850  66.712  1.00  0.00    -0.145 A  
HETATM   14  C   UNL     1      -5.970  12.162  66.726  1.00  0.00     0.121 A  
HETATM   15  C   UNL     1      -9.112   6.478  66.414  1.00  0.00    -0.172 A  
HETATM   16  C   UNL     1     -10.212   5.764  66.860  1.00  0.00    -0.265 A  
HETATM   17  C   UNL     1     -11.157   6.420  67.624  1.00  0.00    -0.388 A  
HETATM   18  C   UNL     1     -11.000   7.783  67.930  1.00  0.00     0.040 A  
HETATM   19  C   UNL     1      -9.902   8.555  67.471  1.00  0.00    -0.231 A  
HETATM   20  C   UNL     1      -9.732  10.051  67.785  1.00  0.00    -0.174 C  
HETATM   21  C   UNL     1     -10.786  10.677  68.398  1.00  0.00    -0.282 C  
HETATM   22  C   UNL     1     -10.886  12.119  68.824  1.00  0.00    -0.265 C  
BRANCH  22  23
HETATM   23  C   UNL     1     -12.156  12.777  69.379  1.00  0.00    -0.192 C  
BRANCH  23  24
HETATM   24  N   UNL     1     -11.922  13.224  70.780  1.00  0.00    -0.216 NA 
HETATM   25  C   UNL     1     -11.445  14.624  70.933  1.00  0.00    -0.165 C  
HETATM   26  C   UNL     1     -12.507  15.746  70.766  1.00  0.00    -0.374 C  
HETATM   27  N   UNL     1     -13.841  15.509  71.362  1.00  0.00    -0.545 NA 
HETATM   28  C   UNL     1     -14.236  14.097  71.219  1.00  0.00    -0.011 C  
HETATM   29  C   UNL     1     -13.902  15.932  72.759  1.00  0.00    -0.459 C  
HETATM   30  C   UNL     1     -13.134  13.089  71.607  1.00  0.00    -0.347 C  
ENDBRANCH  23  24
ENDBRANCH  22  23
ENDBRANCH   4   7
ENDBRANCH   2   4
TORSDOF 4
ENDMDL
MODEL       89
REMARK 921   NORMALIZED FREE ENERGY PREDICTED BY IDOCK:   -4.87 KCAL/MOL
REMARK 922        TOTAL FREE ENERGY PREDICTED BY IDOCK:   -6.65 KCAL/MOL
REMARK 923 INTER-LIGAND FREE ENERGY PREDICTED BY IDOCK:   -7.07 KCAL/MOL
REMARK 924 INTRA-LIGAND FREE ENERGY PREDICTED BY IDOCK:    0.41 KCAL/MOL
REMARK 927      BINDING AFFINITY PREDICTED BY RF-SCORE:    0.00 PKD
ROOT
HETATM    1  C   UNL     1     -14.381  15.712  72.434  1.00  0.00    -0.332 C  
HETATM    2  N   UNL     1     -12.916  15.773  72.277  1.00  0.00    -0.442 N  
HETATM    3  C   UNL     1     -12.178  15.341  73.480  1.00  0.00    -0.519 C  
ENDROOT
BRANCH   2   4
HETATM    4  S   UNL     1     -12.277  15.240  70.786  1.00  0.00    -0.397 S  
HETATM    5  O   UNL     1     -10.873  15.617  70.738  1.00  0.00    -0.325 OA 
HETATM    6  O   UNL     1     -13.189  15.609  69.729  1.00  0.00     0.161 OA 
BRANCH   4   7
HETATM    7  C   UNL     1     -12.332  13.464  70.969  1.00  0.00    -0.315 A  
HETATM    8  C   UNL     1     -11.452  12.677  70.212  1.00  0.00     0.133 A  
HETATM    9  C   UNL     1     -11.431  11.264  70.227  1.00  0.00    -0.286 A  
HETATM   10  C   UNL     1     -12.371  10.692  71.103  1.00  0.00    -0.400 A  
HETATM   11  S   UNL     1     -12.574   8.963  71.401  1.00  0.00    -0.276 SA 
HETATM   12  C   UNL     1     -13.257  11.489  71.876  1.00  0.00    -0.479 A  
HETATM   13  C   UNL     1     -11.514   8.192  70.218  1.00  0.00    -0.065 A  
HETATM   14  C   UNL     1     -13.234  12.874  71.823  1.00  0.00    -0.479 A  
HETATM   15  C   UNL     1     -11.628   6.782  70.212  1.00  0.00    -0.417 A  
HETATM   16  C   UNL     1     -10.884   5.997  69.347  1.00  0.00    -0.433 A  
HETATM   17  C   UNL     1     -10.022   6.621  68.466  1.00  0.00    -0.152 A  
HETATM   18  C   UNL     1      -9.906   8.021  68.462  1.00  0.00    -0.185 A  
HETATM   19  C   UNL     1     -10.630   8.859  69.348  1.00  0.00    -0.226 A  
HETATM   20  C   UNL     1     -10.493  10.391  69.362  1.00  0.00    -0.261 C  
HETATM   21  C   UNL     1      -9.500  10.930  68.586  1.00  0.00    -0.192 C  
HETATM   22  C   UNL     1      -9.152  12.385  68.407  1.00  0.00    -0.141 C  
BRANCH  22  23
HETATM   23  C   UNL     1      -7.934  12.899  67.629  1.00  0.00    -0.167 C  
BRANCH  23  24
HETATM   24  N   UNL     1      -8.045  14.371  67.431  1.00  0.00    -0.189 NA 
HETATM   25  C   UNL     1      -8.727  15.113  68.524  1.00  0.00    -0.172 C  
HETATM   26  C   UNL     1      -7.903  15.362  69.818  1.00  0.00    -0.059 C  
HETATM   27  N   UNL     1      -6.480  15.732  69.653  1.00  0.00    -0.176 NA 
HETATM   28  C   UNL     1      -5.875  14.999  68.528  1.00  0.00    -0.096 C  
HETATM   29  C   UNL     1      -6.300  17.173  69.498  1.00  0.00    -0.230 C  
HETATM   30  C   UNL     1      -6.726  14.999  67.241  1.00  0.00     0.050 C  
ENDBRANCH  23  24
ENDBRANCH  22  23
ENDBRANCH   4   7
ENDBRANCH   2   4
TORSDOF 4
ENDMDL
MODEL       90
REMARK 921   NORMALIZED FREE ENERGY PREDICTED BY IDOCK:   -4.86 KCAL/MOL
REMARK 922        TOTAL FREE ENERGY PREDICTED BY IDOCK:   -6.64 KCAL/MOL
REMARK 923 INTER-LIGAND FREE ENERGY PREDICTED BY IDOCK:   -5.85 KCAL/MOL
REMARK 924 INTRA-LIGAND FREE ENERGY PREDICTED BY IDOCK:   -0.79 KCAL/MOL
REMARK 927      BINDING AFFINITY PREDICTED BY RF-SCORE:    0.00 PKD
ROOT
HETATM    1  C   UNL     1     -10.978  16.798  67.898  1.00  0.00    -0.260 C  
HETATM    2  N   UNL     1     -11.004  15.340  68.122  1.00  0.00    -0.280 N  
HETATM    3  C   UNL     1     -11.902  14.930  69.218  1.00  0.00    -0.318 C  
ENDROOT
BRANCH   2   4
HETATM    4  S   UNL     1     -11.029  14.347  66.733  1.00  0.00    -0.322 S  
HETATM    5  O   UNL     1      -9.900  14.716  65.895  1.00  0.00    -0.305 OA 
HETATM    6  O   UNL     1     -12.374  14.314  66.208  1.00  0.00    -0.443 OA 
BRANCH   4   7
HETATM    7  C   UNL     1     -10.664  12.738  67.418  1.00  0.00    -0.230 A  
HETATM    8  C   UNL     1      -9.391  12.505  67.958  1.00  0.00    -0.205 A  
HETATM    9  C   UNL     1      -8.961  11.265  68.482  1.00  0.00    -0.166 A  
HETATM   10  C   UNL     1      -9.945  10.260  68.442  1.00  0.00    -0.157 A  
HETATM   11  S   UNL     1      -9.757   8.617  69.060  1.00  0.00    -0.177 SA 
HETATM   12  C   UNL     1     -11.237  10.498  67.902  1.00  0.00    -0.358 A  
HETATM   13  C   UNL     1      -8.050   8.512  69.501  1.00  0.00    -0.111 A  
HETATM   14  C   UNL     1     -11.607  11.737  67.401  1.00  0.00    -0.352 A  
HETATM   15  C   UNL     1      -7.665   7.214  69.909  1.00  0.00    -0.108 A  
HETATM   16  C   UNL     1      -6.363   6.927  70.287  1.00  0.00    -0.039 A  
HETATM   17  C   UNL     1      -5.427   7.942  70.247  1.00  0.00    -0.023 A  
HETATM   18  C   UNL     1      -5.799   9.233  69.838  1.00  0.00    -0.035 A  
HETATM   19  C   UNL     1      -7.126   9.574  69.468  1.00  0.00    -0.068 A  
HETATM   20  C   UNL     1      -7.545  10.990  69.038  1.00  0.00    -0.134 C  
HETATM   21  C   UNL     1      -6.611  11.982  69.185  1.00  0.00    -0.107 C  
HETATM   22  C   UNL     1      -6.748  13.442  68.839  1.00  0.00    -0.110 C  
BRANCH  22  23
HETATM   23  C   UNL     1      -5.703  14.517  69.165  1.00  0.00    -0.091 C  
BRANCH  23  24
HETATM   24  N   UNL     1      -6.339  15.624  69.931  1.00  0.00    -0.167 NA 
HETATM   25  C   UNL     1      -5.488  16.824  70.146  1.00  0.00    -0.209 C  
HETATM   26  C   UNL     1      -5.313  17.781  68.934  1.00  0.00    -0.169 C  
HETATM   27  N   UNL     1      -6.508  18.047  68.104  1.00  0.00    -0.187 NA 
HETATM   28  C   UNL     1      -7.332  16.833  67.967  1.00  0.00    -0.161 C  
HETATM   29  C   UNL     1      -7.299  19.163  68.617  1.00  0.00    -0.330 C  
HETATM   30  C   UNL     1      -7.583  16.086  69.293  1.00  0.00    -0.230 C  
ENDBRANCH  23  24
ENDBRANCH  22  23
ENDBRANCH   4   7
ENDBRANCH   2   4
TORSDOF 4
ENDMDL
MODEL       91
REMARK 921   NORMALIZED FREE ENERGY PREDICTED BY IDOCK:   -4.85 KCAL/MOL
REMARK 922        TOTAL FREE ENERGY PREDICTED BY IDOCK:   -6.63 KCAL/MOL
REMARK 923 INTER-LIGAND FREE ENERGY PREDICTED BY IDOCK:   -5.92 KCAL/MOL
REMARK 924 INTRA-LIGAND FREE ENERGY PREDICTED BY IDOCK:   -0.72 KCAL/MOL
REMARK 927      BINDING AFFINITY PREDICTED BY RF-SCORE:    0.00 PKD
ROOT
HETATM    1  C   UNL     1      -6.959   7.167  70.117  1.00  0.00    -0.061 C  
HETATM    2  N   UNL     1      -7.497   8.536  70.228  1.00  0.00    -0.061 N  
HETATM    3  C   UNL     1      -8.548   8.672  71.256  1.00  0.00    -0.187 C  
ENDROOT
BRANCH   2   4
HETATM    4  S   UNL     1      -6.372   9.817  70.147  1.00  0.00    -0.089 S  
HETATM    5  O   UNL     1      -5.255   9.384  69.322  1.00  0.00    -0.036 OA 
HETATM    6  O   UNL     1      -6.162  10.339  71.477  1.00  0.00    -0.307 OA 
BRANCH   4   7
HETATM    7  C   UNL     1      -7.268  11.043  69.207  1.00  0.00    -0.124 A  
HETATM    8  C   UNL     1      -8.257  10.618  68.308  1.00  0.00    -0.120 A  
HETATM    9  C   UNL     1      -8.999  11.481  67.472  1.00  0.00    -0.159 A  
HETATM   10  C   UNL     1      -8.678  12.841  67.631  1.00  0.00    -0.180 A  
HETATM   11  S   UNL     1      -9.450  14.183  66.782  1.00  0.00    -0.286 SA 
HETATM   12  C   UNL     1      -7.682  13.273  68.548  1.00  0.00    -0.120 A  
HETATM   13  C   UNL     1     -10.497  13.400  65.595  1.00  0.00    -0.290 A  
HETATM   14  C   UNL     1      -6.983  12.381  69.347  1.00  0.00     0.084 A  
HETATM   15  C   UNL     1     -11.121  14.318  64.718  1.00  0.00    -0.398 A  
HETATM   16  C   UNL     1     -11.973  13.898  63.712  1.00  0.00    -0.305 A  
HETATM   17  C   UNL     1     -12.202  12.544  63.565  1.00  0.00    -0.652 A  
HETATM   18  C   UNL     1     -11.583  11.623  64.428  1.00  0.00    -0.270 A  
HETATM   19  C   UNL     1     -10.724  12.014  65.486  1.00  0.00    -0.318 A  
HETATM   20  C   UNL     1     -10.059  11.014  66.447  1.00  0.00    -0.275 C  
HETATM   21  C   UNL     1     -10.462   9.707  66.354  1.00  0.00    -0.181 C  
HETATM   22  C   UNL     1      -9.975   8.529  67.158  1.00  0.00    -0.304 C  
BRANCH  22  23
HETATM   23  C   UNL     1     -10.578   7.120  67.090  1.00  0.00    -0.347 C  
BRANCH  23  24
HETATM   24  N   UNL     1      -9.522   6.105  67.357  1.00  0.00    -0.114 NA 
HETATM   25  C   UNL     1      -9.915   4.693  67.112  1.00  0.00    -0.177 C  
HETATM   26  C   UNL     1      -9.966   4.230  65.630  1.00  0.00    -0.224 C  
HETATM   27  N   UNL     1      -8.888   4.705  64.735  1.00  0.00    -0.149 NA 
HETATM   28  C   UNL     1      -8.512   6.092  65.058  1.00  0.00    -0.069 C  
HETATM   29  C   UNL     1      -7.721   3.826  64.762  1.00  0.00    -0.081 C  
HETATM   30  C   UNL     1      -8.307   6.359  66.564  1.00  0.00    -0.115 C  
ENDBRANCH  23  24
ENDBRANCH  22  23
ENDBRANCH   4   7
ENDBRANCH   2   4
TORSDOF 4
ENDMDL
MODEL       92
REMARK 921   NORMALIZED FREE ENERGY PREDICTED BY IDOCK:   -4.81 KCAL/MOL
REMARK 922        TOTAL FREE ENERGY PREDICTED BY IDOCK:   -6.59 KCAL/MOL
REMARK 923 INTER-LIGAND FREE ENERGY PREDICTED BY IDOCK:   -6.18 KCAL/MOL
REMARK 924 INTRA-LIGAND FREE ENERGY PREDICTED BY IDOCK:   -0.40 KCAL/MOL
REMARK 927      BINDING AFFINITY PREDICTED BY RF-SCORE:    0.00 PKD
ROOT
HETATM    1  C   UNL     1      -5.261   6.245  68.919  1.00  0.00    -0.004 C  
HETATM    2  N   UNL     1      -6.579   5.756  69.364  1.00  0.00    -0.052 N  
HETATM    3  C   UNL     1      -7.303   6.715  70.219  1.00  0.00    -0.085 C  
ENDROOT
BRANCH   2   4
HETATM    4  S   UNL     1      -7.528   4.934  68.206  1.00  0.00    -0.075 S  
HETATM    5  O   UNL     1      -8.832   4.675  68.795  1.00  0.00    -0.095 OA 
HETATM    6  O   UNL     1      -6.741   3.870  67.628  1.00  0.00    -0.042 OA 
BRANCH   4   7
HETATM    7  C   UNL     1      -7.762   6.189  66.957  1.00  0.00    -0.100 A  
HETATM    8  C   UNL     1      -8.650   7.244  67.215  1.00  0.00    -0.121 A  
HETATM    9  C   UNL     1      -8.961   8.269  66.293  1.00  0.00    -0.221 A  
HETATM   10  C   UNL     1      -8.275   8.160  65.070  1.00  0.00    -0.154 A  
HETATM   11  S   UNL     1      -8.392   9.297  63.724  1.00  0.00    -0.186 SA 
HETATM   12  C   UNL     1      -7.369   7.096  64.811  1.00  0.00    -0.082 A  
HETATM   13  C   UNL     1      -9.683  10.402  64.201  1.00  0.00    -0.324 A  
HETATM   14  C   UNL     1      -7.100   6.116  65.754  1.00  0.00    -0.073 A  
HETATM   15  C   UNL     1     -10.019  11.328  63.187  1.00  0.00    -0.398 A  
HETATM   16  C   UNL     1     -11.016  12.273  63.366  1.00  0.00    -0.467 A  
HETATM   17  C   UNL     1     -11.698  12.291  64.567  1.00  0.00    -0.421 A  
HETATM   18  C   UNL     1     -11.375  11.372  65.579  1.00  0.00    -0.067 A  
HETATM   19  C   UNL     1     -10.345  10.406  65.445  1.00  0.00    -0.270 A  
HETATM   20  C   UNL     1      -9.971   9.409  66.555  1.00  0.00    -0.339 C  
HETATM   21  C   UNL     1     -10.567   9.593  67.776  1.00  0.00    -0.320 C  
HETATM   22  C   UNL     1     -10.393   8.768  69.025  1.00  0.00    -0.227 C  
BRANCH  22  23
HETATM   23  C   UNL     1     -10.988   9.124  70.393  1.00  0.00    -0.248 C  
BRANCH  23  24
HETATM   24  N   UNL     1     -12.034   8.130  70.763  1.00  0.00    -0.183 NA 
HETATM   25  C   UNL     1     -11.847   6.766  70.200  1.00  0.00    -0.262 C  
HETATM   26  C   UNL     1     -10.775   5.872  70.881  1.00  0.00    -0.273 C  
HETATM   27  N   UNL     1     -10.695   5.916  72.358  1.00  0.00    -0.220 NA 
HETATM   28  C   UNL     1     -10.934   7.282  72.855  1.00  0.00    -0.337 C  
HETATM   29  C   UNL     1     -11.605   4.962  72.987  1.00  0.00    -0.197 C  
HETATM   30  C   UNL     1     -12.156   7.981  72.223  1.00  0.00    -0.341 C  
ENDBRANCH  23  24
ENDBRANCH  22  23
ENDBRANCH   4   7
ENDBRANCH   2   4
TORSDOF 4
ENDMDL
MODEL       93
REMARK 921   NORMALIZED FREE ENERGY PREDICTED BY IDOCK:   -4.81 KCAL/MOL
REMARK 922        TOTAL FREE ENERGY PREDICTED BY IDOCK:   -6.58 KCAL/MOL
REMARK 923 INTER-LIGAND FREE ENERGY PREDICTED BY IDOCK:   -6.12 KCAL/MOL
REMARK 924 INTRA-LIGAND FREE ENERGY PREDICTED BY IDOCK:   -0.47 KCAL/MOL
REMARK 927      BINDING AFFINITY PREDICTED BY RF-SCORE:    0.00 PKD
ROOT
HETATM    1  C   UNL     1      -8.813  14.115  67.047  1.00  0.00    -0.221 C  
HETATM    2  N   UNL     1     -10.283  14.168  67.140  1.00  0.00    -0.256 N  
HETATM    3  C   UNL     1     -10.795  15.469  67.610  1.00  0.00    -0.306 C  
ENDROOT
BRANCH   2   4
HETATM    4  S   UNL     1     -11.163  13.442  65.869  1.00  0.00    -0.304 S  
HETATM    5  O   UNL     1     -10.810  14.120  64.632  1.00  0.00    -0.403 OA 
HETATM    6  O   UNL     1     -12.541  13.298  66.278  1.00  0.00    -0.334 OA 
BRANCH   4   7
HETATM    7  C   UNL     1     -10.436  11.812  65.794  1.00  0.00    -0.260 A  
HETATM    8  C   UNL     1     -10.323  11.066  66.977  1.00  0.00    -0.269 A  
HETATM    9  C   UNL     1      -9.722   9.790  67.060  1.00  0.00    -0.233 A  
HETATM   10  C   UNL     1      -9.255   9.300  65.827  1.00  0.00    -0.224 A  
HETATM   11  S   UNL     1      -8.504   7.723  65.568  1.00  0.00    -0.102 SA 
HETATM   12  C   UNL     1      -9.378  10.052  64.627  1.00  0.00    -0.338 A  
HETATM   13  C   UNL     1      -8.301   7.068  67.195  1.00  0.00    -0.121 A  
HETATM   14  C   UNL     1      -9.978  11.302  64.603  1.00  0.00    -0.331 A  
HETATM   15  C   UNL     1      -7.593   5.844  67.212  1.00  0.00    -0.096 A  
HETATM   16  C   UNL     1      -7.324   5.176  68.395  1.00  0.00    -0.071 A  
HETATM   17  C   UNL     1      -7.754   5.738  69.581  1.00  0.00    -0.091 A  
HETATM   18  C   UNL     1      -8.454   6.957  69.575  1.00  0.00    -0.133 A  
HETATM   19  C   UNL     1      -8.771   7.658  68.384  1.00  0.00    -0.127 A  
HETATM   20  C   UNL     1      -9.554   8.982  68.367  1.00  0.00    -0.163 C  
HETATM   21  C   UNL     1     -10.097   9.394  69.557  1.00  0.00    -0.214 C  
HETATM   22  C   UNL     1     -10.896  10.642  69.828  1.00  0.00    -0.317 C  
BRANCH  22  23
HETATM   23  C   UNL     1     -11.590  10.961  71.158  1.00  0.00     0.238 C  
BRANCH  23  24
HETATM   24  N   UNL     1     -12.848  11.715  70.904  1.00  0.00    -0.232 NA 
HETATM   25  C   UNL     1     -13.455  12.367  72.094  1.00  0.00    -0.378 C  
HETATM   26  C   UNL     1     -12.785  13.678  72.590  1.00  0.00    -0.032 C  
HETATM   27  N   UNL     1     -12.333  14.639  71.559  1.00  0.00    -0.335 NA 
HETATM   28  C   UNL     1     -11.785  13.931  70.388  1.00  0.00    -0.199 C  
HETATM   29  C   UNL     1     -13.393  15.563  71.165  1.00  0.00    -0.480 C  
HETATM   30  C   UNL     1     -12.661  12.764  69.887  1.00  0.00     0.215 C  
ENDBRANCH  23  24
ENDBRANCH  22  23
ENDBRANCH   4   7
ENDBRANCH   2   4
TORSDOF 4
ENDMDL
MODEL       94
REMARK 921   NORMALIZED FREE ENERGY PREDICTED BY IDOCK:   -4.80 KCAL/MOL
REMARK 922        TOTAL FREE ENERGY PREDICTED BY IDOCK:   -6.58 KCAL/MOL
REMARK 923 INTER-LIGAND FREE ENERGY PREDICTED BY IDOCK:   -5.78 KCAL/MOL
REMARK 924 INTRA-LIGAND FREE ENERGY PREDICTED BY IDOCK:   -0.80 KCAL/MOL
REMARK 927      BINDING AFFINITY PREDICTED BY RF-SCORE:    0.00 PKD
ROOT
HETATM    1  C   UNL     1     -10.325  11.259  65.286  1.00  0.00    -0.280 C  
HETATM    2  N   UNL     1      -9.798  10.237  64.363  1.00  0.00    -0.330 N  
HETATM    3  C   UNL     1      -9.640  10.721  62.978  1.00  0.00    -0.353 C  
ENDROOT
BRANCH   2   4
HETATM    4  S   UNL     1      -8.536   9.246  64.949  1.00  0.00    -0.188 S  
HETATM    5  O   UNL     1      -7.468  10.111  65.422  1.00  0.00    -0.133 OA 
HETATM    6  O   UNL     1      -8.282   8.198  63.988  1.00  0.00    -0.149 OA 
BRANCH   4   7
HETATM    7  C   UNL     1      -9.283   8.505  66.392  1.00  0.00    -0.199 A  
HETATM    8  C   UNL     1      -8.831   8.890  67.663  1.00  0.00    -0.137 A  
HETATM    9  C   UNL     1      -9.302   8.343  68.877  1.00  0.00    -0.147 A  
HETATM   10  C   UNL     1     -10.305   7.371  68.711  1.00  0.00    -0.199 A  
HETATM   11  S   UNL     1     -11.144   6.530  70.017  1.00  0.00    -0.395 SA 
HETATM   12  C   UNL     1     -10.769   6.986  67.424  1.00  0.00    -0.383 A  
HETATM   13  C   UNL     1     -10.286   7.031  71.477  1.00  0.00    -0.203 A  
HETATM   14  C   UNL     1     -10.272   7.558  66.263  1.00  0.00     0.167 A  
HETATM   15  C   UNL     1     -10.734   6.360  72.638  1.00  0.00    -0.262 A  
HETATM   16  C   UNL     1     -10.178   6.609  73.882  1.00  0.00    -0.379 A  
HETATM   17  C   UNL     1      -9.153   7.530  73.973  1.00  0.00    -0.295 A  
HETATM   18  C   UNL     1      -8.697   8.199  72.824  1.00  0.00    -0.281 A  
HETATM   19  C   UNL     1      -9.257   7.991  71.537  1.00  0.00    -0.188 A  
HETATM   20  C   UNL     1      -8.777   8.733  70.278  1.00  0.00    -0.170 C  
HETATM   21  C   UNL     1      -7.879   9.752  70.466  1.00  0.00    -0.075 C  
HETATM   22  C   UNL     1      -7.243  10.630  69.420  1.00  0.00    -0.126 C  
BRANCH  22  23
HETATM   23  C   UNL     1      -6.354  11.843  69.724  1.00  0.00    -0.118 C  
BRANCH  23  24
HETATM   24  N   UNL     1      -6.251  12.709  68.518  1.00  0.00    -0.063 NA 
HETATM   25  C   UNL     1      -7.458  12.743  67.650  1.00  0.00    -0.144 C  
HETATM   26  C   UNL     1      -8.652  13.604  68.149  1.00  0.00    -0.176 C  
HETATM   27  N   UNL     1      -8.333  14.910  68.767  1.00  0.00    -0.163 NA 
HETATM   28  C   UNL     1      -7.104  14.821  69.575  1.00  0.00    -0.172 C  
HETATM   29  C   UNL     1      -8.234  15.978  67.776  1.00  0.00    -0.149 C  
HETATM   30  C   UNL     1      -5.934  14.104  68.871  1.00  0.00    -0.087 C  
ENDBRANCH  23  24
ENDBRANCH  22  23
ENDBRANCH   4   7
ENDBRANCH   2   4
TORSDOF 4
ENDMDL
MODEL       95
REMARK 921   NORMALIZED FREE ENERGY PREDICTED BY IDOCK:   -4.77 KCAL/MOL
REMARK 922        TOTAL FREE ENERGY PREDICTED BY IDOCK:   -6.53 KCAL/MOL
REMARK 923 INTER-LIGAND FREE ENERGY PREDICTED BY IDOCK:   -6.04 KCAL/MOL
REMARK 924 INTRA-LIGAND FREE ENERGY PREDICTED BY IDOCK:   -0.49 KCAL/MOL
REMARK 927      BINDING AFFINITY PREDICTED BY RF-SCORE:    0.00 PKD
ROOT
HETATM    1  C   UNL     1     -10.117   6.912  66.923  1.00  0.00    -0.218 C  
HETATM    2  N   UNL     1      -8.791   7.154  66.325  1.00  0.00    -0.145 N  
HETATM    3  C   UNL     1      -8.852   7.597  64.919  1.00  0.00     0.356 C  
ENDROOT
BRANCH   2   4
HETATM    4  S   UNL     1      -7.637   7.948  67.301  1.00  0.00    -0.102 S  
HETATM    5  O   UNL     1      -6.516   8.327  66.456  1.00  0.00    -0.053 OA 
HETATM    6  O   UNL     1      -7.440   7.181  68.509  1.00  0.00    -0.100 OA 
BRANCH   4   7
HETATM    7  C   UNL     1      -8.492   9.455  67.738  1.00  0.00    -0.116 A  
HETATM    8  C   UNL     1      -9.331   9.457  68.862  1.00  0.00    -0.154 A  
HETATM    9  C   UNL     1     -10.099  10.565  69.282  1.00  0.00    -0.244 A  
HETATM   10  C   UNL     1      -9.936  11.707  68.477  1.00  0.00    -0.194 A  
HETATM   11  S   UNL     1     -10.706  13.272  68.751  1.00  0.00    -0.190 SA 
HETATM   12  C   UNL     1      -9.080  11.708  67.343  1.00  0.00    -0.169 A  
HETATM   13  C   UNL     1     -11.835  12.975  70.075  1.00  0.00    -0.285 A  
HETATM   14  C   UNL     1      -8.346  10.590  66.976  1.00  0.00    -0.128 A  
HETATM   15  C   UNL     1     -12.650  14.093  70.367  1.00  0.00    -0.397 A  
HETATM   16  C   UNL     1     -13.606  14.054  71.369  1.00  0.00    -0.327 A  
HETATM   17  C   UNL     1     -13.763  12.883  72.084  1.00  0.00    -0.505 A  
HETATM   18  C   UNL     1     -12.961  11.765  71.799  1.00  0.00    -0.466 A  
HETATM   19  C   UNL     1     -11.955  11.772  70.799  1.00  0.00    -0.228 A  
HETATM   20  C   UNL     1     -11.059  10.559  70.494  1.00  0.00    -0.267 C  
HETATM   21  C   UNL     1     -11.150   9.494  71.351  1.00  0.00    -0.438 C  
HETATM   22  C   UNL     1     -10.403   8.186  71.285  1.00  0.00    -0.243 C  
BRANCH  22  23
HETATM   23  C   UNL     1     -10.458   7.097  72.364  1.00  0.00    -0.218 C  
BRANCH  23  24
HETATM   24  N   UNL     1     -11.030   5.847  71.792  1.00  0.00    -0.263 NA 
HETATM   25  C   UNL     1     -10.191   5.171  70.768  1.00  0.00    -0.238 C  
HETATM   26  C   UNL     1      -8.973   4.359  71.288  1.00  0.00    -0.122 C  
HETATM   27  N   UNL     1      -9.170   3.554  72.514  1.00  0.00    -0.099 NA 
HETATM   28  C   UNL     1     -10.045   4.257  73.468  1.00  0.00    -0.146 C  
HETATM   29  C   UNL     1      -9.682   2.218  72.218  1.00  0.00    -0.122 C  
HETATM   30  C   UNL     1     -11.321   4.851  72.837  1.00  0.00    -0.216 C  
ENDBRANCH  23  24
ENDBRANCH  22  23
ENDBRANCH   4   7
ENDBRANCH   2   4
TORSDOF 4
ENDMDL
MODEL       96
REMARK 921   NORMALIZED FREE ENERGY PREDICTED BY IDOCK:   -4.71 KCAL/MOL
REMARK 922        TOTAL FREE ENERGY PREDICTED BY IDOCK:   -6.47 KCAL/MOL
REMARK 923 INTER-LIGAND FREE ENERGY PREDICTED BY IDOCK:   -5.74 KCAL/MOL
REMARK 924 INTRA-LIGAND FREE ENERGY PREDICTED BY IDOCK:   -0.73 KCAL/MOL
REMARK 927      BINDING AFFINITY PREDICTED BY RF-SCORE:    0.00 PKD
ROOT
HETATM    1  C   UNL     1     -12.372  14.739  72.523  1.00  0.00    -0.300 C  
HETATM    2  N   UNL     1     -12.228  14.782  71.056  1.00  0.00    -0.306 N  
HETATM    3  C   UNL     1     -13.506  14.984  70.347  1.00  0.00     0.096 C  
ENDROOT
BRANCH   2   4
HETATM    4  S   UNL     1     -10.893  15.648  70.437  1.00  0.00    -0.320 S  
HETATM    5  O   UNL     1      -9.690  15.135  71.071  1.00  0.00     0.851 OA 
HETATM    6  O   UNL     1     -11.205  17.058  70.452  1.00  0.00     0.136 OA 
BRANCH   4   7
HETATM    7  C   UNL     1     -10.854  15.109  68.735  1.00  0.00    -0.247 A  
HETATM    8  C   UNL     1     -10.585  13.760  68.457  1.00  0.00    -0.261 A  
HETATM    9  C   UNL     1     -10.477  13.220  67.156  1.00  0.00    -0.248 A  
HETATM   10  C   UNL     1     -10.689  14.159  66.131  1.00  0.00    -0.297 A  
HETATM   11  S   UNL     1     -10.678  13.808  64.401  1.00  0.00    -0.205 SA 
HETATM   12  C   UNL     1     -10.970  15.524  66.412  1.00  0.00    -0.238 A  
HETATM   13  C   UNL     1     -10.139  12.130  64.302  1.00  0.00    -0.290 A  
HETATM   14  C   UNL     1     -11.067  16.001  67.710  1.00  0.00    -0.273 A  
HETATM   15  C   UNL     1      -9.943  11.691  62.972  1.00  0.00    -0.321 A  
HETATM   16  C   UNL     1      -9.512  10.406  62.687  1.00  0.00    -0.324 A  
HETATM   17  C   UNL     1      -9.260   9.547  63.739  1.00  0.00    -0.076 A  
HETATM   18  C   UNL     1      -9.447   9.976  65.064  1.00  0.00    -0.339 A  
HETATM   19  C   UNL     1      -9.911  11.274  65.397  1.00  0.00    -0.281 A  
HETATM   20  C   UNL     1     -10.137  11.745  66.844  1.00  0.00    -0.231 C  
HETATM   21  C   UNL     1     -10.033  10.793  67.826  1.00  0.00    -0.195 C  
HETATM   22  C   UNL     1     -10.195  10.976  69.313  1.00  0.00    -0.153 C  
BRANCH  22  23
HETATM   23  C   UNL     1     -10.202   9.832  70.336  1.00  0.00    -0.281 C  
BRANCH  23  24
HETATM   24  N   UNL     1     -11.400   8.973  70.123  1.00  0.00    -0.180 NA 
HETATM   25  C   UNL     1     -11.510   7.796  71.024  1.00  0.00    -0.281 C  
HETATM   26  C   UNL     1     -11.982   8.071  72.478  1.00  0.00    -0.327 C  
HETATM   27  N   UNL     1     -13.070   9.057  72.662  1.00  0.00    -0.384 NA 
HETATM   28  C   UNL     1     -12.931  10.174  71.711  1.00  0.00    -0.462 C  
HETATM   29  C   UNL     1     -14.392   8.443  72.560  1.00  0.00    -0.187 C  
HETATM   30  C   UNL     1     -12.652   9.737  70.258  1.00  0.00     0.183 C  
ENDBRANCH  23  24
ENDBRANCH  22  23
ENDBRANCH   4   7
ENDBRANCH   2   4
TORSDOF 4
ENDMDL
MODEL       97
REMARK 921   NORMALIZED FREE ENERGY PREDICTED BY IDOCK:   -4.65 KCAL/MOL
REMARK 922        TOTAL FREE ENERGY PREDICTED BY IDOCK:   -6.38 KCAL/MOL
REMARK 923 INTER-LIGAND FREE ENERGY PREDICTED BY IDOCK:   -6.50 KCAL/MOL
REMARK 924 INTRA-LIGAND FREE ENERGY PREDICTED BY IDOCK:    0.12 KCAL/MOL
REMARK 927      BINDING AFFINITY PREDICTED BY RF-SCORE:    0.00 PKD
ROOT
HETATM    1  C   UNL     1      -9.957  13.557  65.928  1.00  0.00    -0.283 C  
HETATM    2  N   UNL     1     -11.243  14.032  65.385  1.00  0.00    -0.311 N  
HETATM    3  C   UNL     1     -11.207  15.438  64.936  1.00  0.00    -0.403 C  
ENDROOT
BRANCH   2   4
HETATM    4  S   UNL     1     -12.099  12.955  64.375  1.00  0.00    -0.432 S  
HETATM    5  O   UNL     1     -12.292  13.602  63.087  1.00  0.00    -0.729 OA 
HETATM    6  O   UNL     1     -13.214  12.409  65.114  1.00  0.00    -0.458 OA 
BRANCH   4   7
HETATM    7  C   UNL     1     -10.908  11.648  64.127  1.00  0.00    -0.372 A  
HETATM    8  C   UNL     1     -10.434  10.942  65.242  1.00  0.00    -0.299 A  
HETATM    9  C   UNL     1      -9.456   9.924  65.185  1.00  0.00    -0.338 A  
HETATM   10  C   UNL     1      -8.998   9.648  63.884  1.00  0.00    -0.218 A  
HETATM   11  S   UNL     1      -7.820   8.405  63.455  1.00  0.00    -0.156 SA 
HETATM   12  C   UNL     1      -9.484  10.357  62.753  1.00  0.00    -0.351 A  
HETATM   13  C   UNL     1      -7.241   7.800  65.009  1.00  0.00    -0.065 A  
HETATM   14  C   UNL     1     -10.447  11.348  62.866  1.00  0.00    -0.093 A  
HETATM   15  C   UNL     1      -6.185   6.868  64.879  1.00  0.00    -0.036 A  
HETATM   16  C   UNL     1      -5.590   6.286  65.986  1.00  0.00    -0.014 A  
HETATM   17  C   UNL     1      -6.041   6.643  67.242  1.00  0.00    -0.028 A  
HETATM   18  C   UNL     1      -7.087   7.572  67.380  1.00  0.00    -0.085 A  
HETATM   19  C   UNL     1      -7.739   8.171  66.273  1.00  0.00    -0.094 A  
HETATM   20  C   UNL     1      -8.897   9.173  66.416  1.00  0.00    -0.165 C  
HETATM   21  C   UNL     1      -9.407   9.352  67.676  1.00  0.00    -0.146 C  
HETATM   22  C   UNL     1     -10.525  10.269  68.101  1.00  0.00    -0.224 C  
BRANCH  22  23
HETATM   23  C   UNL     1     -11.132  10.308  69.510  1.00  0.00    -0.262 C  
BRANCH  23  24
HETATM   24  N   UNL     1     -12.461  10.976  69.469  1.00  0.00    -0.299 NA 
HETATM   25  C   UNL     1     -13.167  11.077  70.773  1.00  0.00     0.107 C  
HETATM   26  C   UNL     1     -12.664  12.169  71.757  1.00  0.00    -0.160 C  
HETATM   27  N   UNL     1     -12.300  13.482  71.181  1.00  0.00    -0.340 NA 
HETATM   28  C   UNL     1     -11.647  13.317  69.870  1.00  0.00    -0.190 C  
HETATM   29  C   UNL     1     -13.449  14.379  71.085  1.00  0.00    -0.306 C  
HETATM   30  C   UNL     1     -12.371  12.340  68.921  1.00  0.00     0.255 C  
ENDBRANCH  23  24
ENDBRANCH  22  23
ENDBRANCH   4   7
ENDBRANCH   2   4
TORSDOF 4
ENDMDL
MODEL       98
REMARK 921   NORMALIZED FREE ENERGY PREDICTED BY IDOCK:   -4.62 KCAL/MOL
REMARK 922        TOTAL FREE ENERGY PREDICTED BY IDOCK:   -6.35 KCAL/MOL
REMARK 923 INTER-LIGAND FREE ENERGY PREDICTED BY IDOCK:   -5.82 KCAL/MOL
REMARK 924 INTRA-LIGAND FREE ENERGY PREDICTED BY IDOCK:   -0.53 KCAL/MOL
REMARK 927      BINDING AFFINITY PREDICTED BY RF-SCORE:    0.00 PKD
ROOT
HETATM    1  C   UNL     1      -6.325   5.593  66.932  1.00  0.00    -0.035 C  
HETATM    2  N   UNL     1      -7.403   5.219  65.998  1.00  0.00    -0.080 N  
HETATM    3  C   UNL     1      -7.113   3.996  65.226  1.00  0.00    -0.063 C  
ENDROOT
BRANCH   2   4
HETATM    4  S   UNL     1      -9.005   5.371  66.569  1.00  0.00    -0.123 S  
HETATM    5  O   UNL     1      -9.035   4.923  67.952  1.00  0.00    -0.106 OA 
HETATM    6  O   UNL     1      -9.906   4.821  65.583  1.00  0.00    -0.177 OA 
BRANCH   4   7
HETATM    7  C   UNL     1      -9.227   7.143  66.592  1.00  0.00    -0.160 A  
HETATM    8  C   UNL     1      -9.824   7.737  67.714  1.00  0.00    -0.200 A  
HETATM    9  C   UNL     1     -10.102   9.117  67.833  1.00  0.00    -0.246 A  
HETATM   10  C   UNL     1      -9.699   9.876  66.719  1.00  0.00    -0.192 A  
HETATM   11  S   UNL     1      -9.849  11.628  66.564  1.00  0.00    -0.209 SA 
HETATM   12  C   UNL     1      -9.086   9.276  65.586  1.00  0.00    -0.268 A  
HETATM   13  C   UNL     1     -10.783  12.111  67.983  1.00  0.00    -0.213 A  
HETATM   14  C   UNL     1      -8.836   7.914  65.522  1.00  0.00    -0.070 A  
HETATM   15  C   UNL     1     -11.121  13.484  67.980  1.00  0.00    -0.283 A  
HETATM   16  C   UNL     1     -11.860  14.053  69.004  1.00  0.00    -0.391 A  
HETATM   17  C   UNL     1     -12.281  13.243  70.041  1.00  0.00    -0.345 A  
HETATM   18  C   UNL     1     -11.954  11.876  70.050  1.00  0.00    -0.409 A  
HETATM   19  C   UNL     1     -11.178  11.261  69.035  1.00  0.00    -0.321 A  
HETATM   20  C   UNL     1     -10.800   9.770  69.048  1.00  0.00    -0.223 C  
HETATM   21  C   UNL     1     -11.101   9.067  70.185  1.00  0.00    -0.228 C  
HETATM   22  C   UNL     1     -10.854   7.607  70.463  1.00  0.00    -0.249 C  
BRANCH  22  23
HETATM   23  C   UNL     1     -11.093   6.925  71.817  1.00  0.00    -0.244 C  
BRANCH  23  24
HETATM   24  N   UNL     1     -10.612   5.517  71.765  1.00  0.00    -0.231 NA 
HETATM   25  C   UNL     1      -9.368   5.294  70.982  1.00  0.00    -0.150 C  
HETATM   26  C   UNL     1      -8.033   5.710  71.660  1.00  0.00    -0.117 C  
HETATM   27  N   UNL     1      -7.884   5.412  73.102  1.00  0.00    -0.100 NA 
HETATM   28  C   UNL     1      -9.160   5.606  73.812  1.00  0.00    -0.127 C  
HETATM   29  C   UNL     1      -7.354   4.070  73.334  1.00  0.00    -0.070 C  
HETATM   30  C   UNL     1     -10.378   4.969  73.112  1.00  0.00    -0.187 C  
ENDBRANCH  23  24
ENDBRANCH  22  23
ENDBRANCH   4   7
ENDBRANCH   2   4
TORSDOF 4
ENDMDL
MODEL       99
REMARK 921   NORMALIZED FREE ENERGY PREDICTED BY IDOCK:   -4.62 KCAL/MOL
REMARK 922        TOTAL FREE ENERGY PREDICTED BY IDOCK:   -6.34 KCAL/MOL
REMARK 923 INTER-LIGAND FREE ENERGY PREDICTED BY IDOCK:   -5.78 KCAL/MOL
REMARK 924 INTRA-LIGAND FREE ENERGY PREDICTED BY IDOCK:   -0.56 KCAL/MOL
REMARK 927      BINDING AFFINITY PREDICTED BY RF-SCORE:    0.00 PKD
ROOT
HETATM    1  C   UNL     1      -9.957   8.027  72.772  1.00  0.00    -0.294 C  
HETATM    2  N   UNL     1     -11.315   8.215  72.230  1.00  0.00    -0.337 N  
HETATM    3  C   UNL     1     -11.434   9.380  71.333  1.00  0.00    -0.379 C  
ENDROOT
BRANCH   2   4
HETATM    4  S   UNL     1     -12.149   6.810  71.733  1.00  0.00    -0.354 S  
HETATM    5  O   UNL     1     -13.296   7.224  70.940  1.00  0.00    -0.185 OA 
HETATM    6  O   UNL     1     -12.301   5.931  72.869  1.00  0.00     0.122 OA 
BRANCH   4   7
HETATM    7  C   UNL     1     -10.982   6.061  70.608  1.00  0.00    -0.307 A  
HETATM    8  C   UNL     1     -10.684   6.717  69.404  1.00  0.00    -0.291 A  
HETATM    9  C   UNL     1      -9.820   6.207  68.410  1.00  0.00    -0.142 A  
HETATM   10  C   UNL     1      -9.245   4.966  68.739  1.00  0.00    -0.119 A  
HETATM   11  S   UNL     1      -8.085   4.079  67.747  1.00  0.00    -0.090 SA 
HETATM   12  C   UNL     1      -9.540   4.305  69.962  1.00  0.00    -0.274 A  
HETATM   13  C   UNL     1      -8.021   4.989  66.236  1.00  0.00    -0.107 A  
HETATM   14  C   UNL     1     -10.396   4.853  70.904  1.00  0.00    -0.225 A  
HETATM   15  C   UNL     1      -7.227   4.362  65.247  1.00  0.00    -0.068 A  
HETATM   16  C   UNL     1      -7.060   4.917  63.989  1.00  0.00    -0.049 A  
HETATM   17  C   UNL     1      -7.700   6.107  63.704  1.00  0.00    -0.101 A  
HETATM   18  C   UNL     1      -8.495   6.736  64.678  1.00  0.00     0.128 A  
HETATM   19  C   UNL     1      -8.671   6.213  65.985  1.00  0.00    -0.157 A  
HETATM   20  C   UNL     1      -9.523   6.905  67.063  1.00  0.00    -0.183 C  
HETATM   21  C   UNL     1      -9.987   8.162  66.771  1.00  0.00    -0.349 C  
HETATM   22  C   UNL     1     -10.843   9.055  67.631  1.00  0.00    -0.133 C  
BRANCH  22  23
HETATM   23  C   UNL     1     -11.204  10.507  67.289  1.00  0.00    -0.125 C  
BRANCH  23  24
HETATM   24  N   UNL     1     -10.264  11.436  67.975  1.00  0.00    -0.180 NA 
HETATM   25  C   UNL     1      -9.522  12.368  67.086  1.00  0.00    -0.198 C  
HETATM   26  C   UNL     1     -10.312  13.590  66.541  1.00  0.00    -0.282 C  
HETATM   27  N   UNL     1     -11.229  14.275  67.478  1.00  0.00    -0.295 NA 
HETATM   28  C   UNL     1     -11.897  13.304  68.362  1.00  0.00    -0.360 C  
HETATM   29  C   UNL     1     -10.551  15.310  68.255  1.00  0.00    -0.244 C  
HETATM   30  C   UNL     1     -10.950  12.259  68.986  1.00  0.00    -0.201 C  
ENDBRANCH  23  24
ENDBRANCH  22  23
ENDBRANCH   4   7
ENDBRANCH   2   4
TORSDOF 4
ENDMDL
MODEL      100
REMARK 921   NORMALIZED FREE ENERGY PREDICTED BY IDOCK:   -4.60 KCAL/MOL
REMARK 922        TOTAL FREE ENERGY PREDICTED BY IDOCK:   -6.32 KCAL/MOL
REMARK 923 INTER-LIGAND FREE ENERGY PREDICTED BY IDOCK:   -5.57 KCAL/MOL
REMARK 924 INTRA-LIGAND FREE ENERGY PREDICTED BY IDOCK:   -0.76 KCAL/MOL
REMARK 927      BINDING AFFINITY PREDICTED BY RF-SCORE:    0.00 PKD
ROOT
HETATM    1  C   UNL     1      -8.377   6.203  65.460  1.00  0.00    -0.147 C  
HETATM    2  N   UNL     1      -7.662   7.369  66.010  1.00  0.00    -0.091 N  
HETATM    3  C   UNL     1      -6.412   7.015  66.710  1.00  0.00    -0.051 C  
ENDROOT
BRANCH   2   4
HETATM    4  S   UNL     1      -7.591   8.765  65.029  1.00  0.00    -0.105 S  
HETATM    5  O   UNL     1      -8.364   8.509  63.825  1.00  0.00    -0.155 OA 
HETATM    6  O   UNL     1      -6.221   9.216  64.958  1.00  0.00    -0.064 OA 
BRANCH   4   7
HETATM    7  C   UNL     1      -8.513   9.949  65.997  1.00  0.00    -0.129 A  
HETATM    8  C   UNL     1      -9.041   9.550  67.234  1.00  0.00    -0.146 A  
HETATM    9  C   UNL     1      -9.830  10.373  68.068  1.00  0.00    -0.170 A  
HETATM   10  C   UNL     1     -10.030  11.670  67.561  1.00  0.00    -0.187 A  
HETATM   11  S   UNL     1     -10.919  12.962  68.372  1.00  0.00    -0.271 SA 
HETATM   12  C   UNL     1      -9.487  12.078  66.313  1.00  0.00    -0.237 A  
HETATM   13  C   UNL     1     -11.634  12.176  69.783  1.00  0.00    -0.262 A  
HETATM   14  C   UNL     1      -8.718  11.228  65.533  1.00  0.00    -0.038 A  
HETATM   15  C   UNL     1     -12.501  13.027  70.508  1.00  0.00    -0.306 A  
HETATM   16  C   UNL     1     -13.166  12.592  71.642  1.00  0.00    -0.381 A  
HETATM   17  C   UNL     1     -12.977  11.288  72.056  1.00  0.00    -0.379 A  
HETATM   18  C   UNL     1     -12.123  10.433  71.339  1.00  0.00    -0.424 A  
HETATM   19  C   UNL     1     -11.404  10.848  70.189  1.00  0.00    -0.367 A  
HETATM   20  C   UNL     1     -10.452   9.924  69.410  1.00  0.00    -0.250 C  
HETATM   21  C   UNL     1     -10.180   8.703  69.971  1.00  0.00    -0.201 C  
HETATM   22  C   UNL     1      -9.298   7.610  69.426  1.00  0.00    -0.152 C  
BRANCH  22  23
HETATM   23  C   UNL     1      -8.933   6.326  70.183  1.00  0.00    -0.149 C  
BRANCH  23  24
HETATM   24  N   UNL     1      -9.461   6.393  71.574  1.00  0.00    -0.155 NA 
HETATM   25  C   UNL     1     -10.349   5.270  71.975  1.00  0.00    -0.215 C  
HETATM   26  C   UNL     1      -9.657   3.922  72.317  1.00  0.00    -0.142 C  
HETATM   27  N   UNL     1      -8.399   3.984  73.093  1.00  0.00    -0.089 NA 
HETATM   28  C   UNL     1      -7.586   5.142  72.681  1.00  0.00    -0.097 C  
HETATM   29  C   UNL     1      -8.640   3.998  74.533  1.00  0.00    -0.091 C  
HETATM   30  C   UNL     1      -8.377   6.462  72.568  1.00  0.00    -0.116 C  
ENDBRANCH  23  24
ENDBRANCH  22  23
ENDBRANCH   4   7
ENDBRANCH   2   4
TORSDOF 4
ENDMDL
MODEL      101
REMARK 921   NORMALIZED FREE ENERGY PREDICTED BY IDOCK:   -4.57 KCAL/MOL
REMARK 922        TOTAL FREE ENERGY PREDICTED BY IDOCK:   -6.29 KCAL/MOL
REMARK 923 INTER-LIGAND FREE ENERGY PREDICTED BY IDOCK:   -5.50 KCAL/MOL
REMARK 924 INTRA-LIGAND FREE ENERGY PREDICTED BY IDOCK:   -0.79 KCAL/MOL
REMARK 927      BINDING AFFINITY PREDICTED BY RF-SCORE:    0.00 PKD
ROOT
HETATM    1  C   UNL     1      -7.915  11.130  66.060  1.00  0.00    -0.041 C  
HETATM    2  N   UNL     1      -8.693  11.041  67.309  1.00  0.00    -0.129 N  
HETATM    3  C   UNL     1      -8.429  12.149  68.246  1.00  0.00    -0.176 C  
ENDROOT
BRANCH   2   4
HETATM    4  S   UNL     1     -10.327  10.565  67.167  1.00  0.00    -0.248 S  
HETATM    5  O   UNL     1     -10.421   9.591  66.092  1.00  0.00    -0.170 OA 
HETATM    6  O   UNL     1     -11.160  11.745  67.184  1.00  0.00    -0.262 OA 
BRANCH   4   7
HETATM    7  C   UNL     1     -10.593   9.681  68.696  1.00  0.00    -0.217 A  
HETATM    8  C   UNL     1     -10.147   8.355  68.798  1.00  0.00    -0.209 A  
HETATM    9  C   UNL     1     -10.340   7.532  69.930  1.00  0.00    -0.224 A  
HETATM   10  C   UNL     1     -11.013   8.171  70.988  1.00  0.00    -0.244 A  
HETATM   11  S   UNL     1     -11.370   7.450  72.559  1.00  0.00    -0.309 SA 
HETATM   12  C   UNL     1     -11.457   9.517  70.888  1.00  0.00    -0.405 A  
HETATM   13  C   UNL     1     -10.895   5.759  72.379  1.00  0.00    -0.247 A  
HETATM   14  C   UNL     1     -11.239  10.280  69.751  1.00  0.00    -0.339 A  
HETATM   15  C   UNL     1     -11.222   4.971  73.507  1.00  0.00    -0.341 A  
HETATM   16  C   UNL     1     -10.938   3.617  73.554  1.00  0.00    -0.333 A  
HETATM   17  C   UNL     1     -10.332   3.032  72.459  1.00  0.00    -0.184 A  
HETATM   18  C   UNL     1     -10.009   3.806  71.331  1.00  0.00    -0.178 A  
HETATM   19  C   UNL     1     -10.259   5.199  71.254  1.00  0.00    -0.292 A  
HETATM   20  C   UNL     1      -9.890   6.057  70.031  1.00  0.00    -0.215 C  
HETATM   21  C   UNL     1      -9.141   5.451  69.056  1.00  0.00    -0.136 C  
HETATM   22  C   UNL     1      -8.651   6.047  67.761  1.00  0.00    -0.106 C  
BRANCH  22  23
HETATM   23  C   UNL     1      -7.697   5.345  66.786  1.00  0.00    -0.100 C  
BRANCH  23  24
HETATM   24  N   UNL     1      -6.612   6.281  66.381  1.00  0.00    -0.047 NA 
HETATM   25  C   UNL     1      -5.622   5.733  65.416  1.00  0.00    -0.016 C  
HETATM   26  C   UNL     1      -6.074   5.636  63.933  1.00  0.00    -0.025 C  
HETATM   27  N   UNL     1      -6.864   6.764  63.390  1.00  0.00    -0.048 NA 
HETATM   28  C   UNL     1      -7.790   7.291  64.407  1.00  0.00    -0.126 C  
HETATM   29  C   UNL     1      -6.013   7.824  62.855  1.00  0.00    -0.067 C  
HETATM   30  C   UNL     1      -7.149   7.519  65.791  1.00  0.00    -0.065 C  
ENDBRANCH  23  24
ENDBRANCH  22  23
ENDBRANCH   4   7
ENDBRANCH   2   4
TORSDOF 4
ENDMDL
MODEL      102
REMARK 921   NORMALIZED FREE ENERGY PREDICTED BY IDOCK:   -4.49 KCAL/MOL
REMARK 922        TOTAL FREE ENERGY PREDICTED BY IDOCK:   -6.19 KCAL/MOL
REMARK 923 INTER-LIGAND FREE ENERGY PREDICTED BY IDOCK:   -5.48 KCAL/MOL
REMARK 924 INTRA-LIGAND FREE ENERGY PREDICTED BY IDOCK:   -0.71 KCAL/MOL
REMARK 927      BINDING AFFINITY PREDICTED BY RF-SCORE:    0.00 PKD
ROOT
HETATM    1  C   UNL     1      -5.308   9.842  68.200  1.00  0.00    -0.039 C  
HETATM    2  N   UNL     1      -6.327  10.806  67.744  1.00  0.00    -0.058 N  
HETATM    3  C   UNL     1      -7.106  10.332  66.584  1.00  0.00    -0.108 C  
ENDROOT
BRANCH   2   4
HETATM    4  S   UNL     1      -7.219  11.616  68.954  1.00  0.00    -0.096 S  
HETATM    5  O   UNL     1      -6.552  11.397  70.227  1.00  0.00    -0.201 OA 
HETATM    6  O   UNL     1      -8.621  11.314  68.781  1.00  0.00    -0.158 OA 
BRANCH   4   7
HETATM    7  C   UNL     1      -6.965  13.330  68.521  1.00  0.00    -0.103 A  
HETATM    8  C   UNL     1      -7.989  14.253  68.779  1.00  0.00    -0.119 A  
HETATM    9  C   UNL     1      -7.933  15.623  68.439  1.00  0.00    -0.136 A  
HETATM   10  C   UNL     1      -6.726  16.007  67.826  1.00  0.00    -0.154 A  
HETATM   11  S   UNL     1      -6.309  17.647  67.324  1.00  0.00    -0.152 SA 
HETATM   12  C   UNL     1      -5.685  15.074  67.572  1.00  0.00     0.065 A  
HETATM   13  C   UNL     1      -7.795  18.568  67.569  1.00  0.00    -0.232 A  
HETATM   14  C   UNL     1      -5.794  13.738  67.928  1.00  0.00    -0.135 A  
HETATM   15  C   UNL     1      -7.702  19.900  67.102  1.00  0.00    -0.310 A  
HETATM   16  C   UNL     1      -8.768  20.779  67.198  1.00  0.00    -0.223 A  
HETATM   17  C   UNL     1      -9.949  20.326  67.753  1.00  0.00    -0.529 A  
HETATM   18  C   UNL     1     -10.052  19.003  68.215  1.00  0.00    -0.466 A  
HETATM   19  C   UNL     1      -8.977  18.079  68.159  1.00  0.00    -0.287 A  
HETATM   20  C   UNL     1      -9.076  16.635  68.681  1.00  0.00    -0.245 C  
HETATM   21  C   UNL     1     -10.213  16.305  69.372  1.00  0.00    -0.265 C  
HETATM   22  C   UNL     1     -10.573  14.974  69.980  1.00  0.00    -0.178 C  
BRANCH  22  23
HETATM   23  C   UNL     1     -11.803  14.724  70.862  1.00  0.00    -0.322 C  
BRANCH  23  24
HETATM   24  N   UNL     1     -12.752  13.817  70.158  1.00  0.00    -0.181 NA 
HETATM   25  C   UNL     1     -12.128  12.690  69.416  1.00  0.00    -0.179 C  
HETATM   26  C   UNL     1     -11.629  11.487  70.264  1.00  0.00    -0.214 C  
HETATM   27  N   UNL     1     -12.486  11.051  71.389  1.00  0.00    -0.354 NA 
HETATM   28  C   UNL     1     -13.110  12.208  72.053  1.00  0.00    -0.357 C  
HETATM   29  C   UNL     1     -13.494  10.080  70.968  1.00  0.00    -0.189 C  
HETATM   30  C   UNL     1     -13.737  13.232  71.083  1.00  0.00     0.444 C  
ENDBRANCH  23  24
ENDBRANCH  22  23
ENDBRANCH   4   7
ENDBRANCH   2   4
TORSDOF 4
ENDMDL
MODEL      103
REMARK 921   NORMALIZED FREE ENERGY PREDICTED BY IDOCK:   -4.46 KCAL/MOL
REMARK 922        TOTAL FREE ENERGY PREDICTED BY IDOCK:   -6.15 KCAL/MOL
REMARK 923 INTER-LIGAND FREE ENERGY PREDICTED BY IDOCK:   -5.57 KCAL/MOL
REMARK 924 INTRA-LIGAND FREE ENERGY PREDICTED BY IDOCK:   -0.58 KCAL/MOL
REMARK 927      BINDING AFFINITY PREDICTED BY RF-SCORE:    0.00 PKD
ROOT
HETATM    1  C   UNL     1      -7.567   5.191  70.119  1.00  0.00    -0.070 C  
HETATM    2  N   UNL     1      -8.007   6.553  70.473  1.00  0.00    -0.110 N  
HETATM    3  C   UNL     1      -8.428   6.687  71.881  1.00  0.00    -0.114 C  
ENDROOT
BRANCH   2   4
HETATM    4  S   UNL     1      -7.083   7.848  69.851  1.00  0.00    -0.062 S  
HETATM    5  O   UNL     1      -6.372   7.370  68.676  1.00  0.00    -0.037 OA 
HETATM    6  O   UNL     1      -6.385   8.489  70.941  1.00  0.00    -0.036 OA 
BRANCH   4   7
HETATM    7  C   UNL     1      -8.350   8.966  69.272  1.00  0.00    -0.119 A  
HETATM    8  C   UNL     1      -8.517   9.144  67.891  1.00  0.00    -0.117 A  
HETATM    9  C   UNL     1      -9.446  10.036  67.308  1.00  0.00    -0.179 A  
HETATM   10  C   UNL     1     -10.229  10.733  68.246  1.00  0.00    -0.167 A  
HETATM   11  S   UNL     1     -11.514  11.880  67.857  1.00  0.00    -0.319 SA 
HETATM   12  C   UNL     1     -10.065  10.546  69.645  1.00  0.00    -0.177 A  
HETATM   13  C   UNL     1     -11.404  12.076  66.106  1.00  0.00    -0.351 A  
HETATM   14  C   UNL     1      -9.138   9.656  70.163  1.00  0.00    -0.280 A  
HETATM   15  C   UNL     1     -12.283  13.065  65.605  1.00  0.00    -0.521 A  
HETATM   16  C   UNL     1     -12.339  13.373  64.256  1.00  0.00    -0.396 A  
HETATM   17  C   UNL     1     -11.500  12.697  63.391  1.00  0.00    -0.499 A  
HETATM   18  C   UNL     1     -10.620  11.717  63.879  1.00  0.00    -0.446 A  
HETATM   19  C   UNL     1     -10.551  11.355  65.249  1.00  0.00    -0.336 A  
HETATM   20  C   UNL     1      -9.604  10.269  65.788  1.00  0.00    -0.279 C  
HETATM   21  C   UNL     1      -8.927   9.522  64.858  1.00  0.00    -0.264 C  
HETATM   22  C   UNL     1      -7.940   8.411  65.104  1.00  0.00    -0.136 C  
BRANCH  22  23
HETATM   23  C   UNL     1      -7.330   7.528  64.007  1.00  0.00    -0.095 C  
BRANCH  23  24
HETATM   24  N   UNL     1      -8.270   6.424  63.668  1.00  0.00    -0.022 NA 
HETATM   25  C   UNL     1      -7.949   5.670  62.428  1.00  0.00    -0.089 C  
HETATM   26  C   UNL     1      -6.791   4.638  62.518  1.00  0.00    -0.031 C  
HETATM   27  N   UNL     1      -6.711   3.816  63.746  1.00  0.00    -0.042 NA 
HETATM   28  C   UNL     1      -7.085   4.606  64.931  1.00  0.00    -0.062 C  
HETATM   29  C   UNL     1      -7.519   2.603  63.648  1.00  0.00    -0.062 C  
HETATM   30  C   UNL     1      -8.372   5.439  64.758  1.00  0.00    -0.145 C  
ENDBRANCH  23  24
ENDBRANCH  22  23
ENDBRANCH   4   7
ENDBRANCH   2   4
TORSDOF 4
ENDMDL
MODEL      104
REMARK 921   NORMALIZED FREE ENERGY PREDICTED BY IDOCK:   -4.46 KCAL/MOL
REMARK 922        TOTAL FREE ENERGY PREDICTED BY IDOCK:   -6.15 KCAL/MOL
REMARK 923 INTER-LIGAND FREE ENERGY PREDICTED BY IDOCK:   -5.88 KCAL/MOL
REMARK 924 INTRA-LIGAND FREE ENERGY PREDICTED BY IDOCK:   -0.27 KCAL/MOL
REMARK 927      BINDING AFFINITY PREDICTED BY RF-SCORE:    0.00 PKD
ROOT
HETATM    1  C   UNL     1      -9.567  10.169  63.657  1.00  0.00    -0.207 C  
HETATM    2  N   UNL     1      -8.188   9.670  63.809  1.00  0.00    -0.150 N  
HETATM    3  C   UNL     1      -7.190  10.467  63.069  1.00  0.00    -0.085 C  
ENDROOT
BRANCH   2   4
HETATM    4  S   UNL     1      -7.718   9.162  65.370  1.00  0.00    -0.101 S  
HETATM    5  O   UNL     1      -6.290   9.395  65.508  1.00  0.00    -0.063 OA 
HETATM    6  O   UNL     1      -8.295   7.864  65.631  1.00  0.00    -0.129 OA 
BRANCH   4   7
HETATM    7  C   UNL     1      -8.543  10.353  66.414  1.00  0.00    -0.132 A  
HETATM    8  C   UNL     1      -9.306   9.893  67.497  1.00  0.00    -0.159 A  
HETATM    9  C   UNL     1     -10.045  10.727  68.365  1.00  0.00    -0.183 A  
HETATM   10  C   UNL     1      -9.936  12.097  68.065  1.00  0.00    -0.203 A  
HETATM   11  S   UNL     1     -10.687  13.408  68.978  1.00  0.00    -0.059 SA 
HETATM   12  C   UNL     1      -9.156  12.565  66.974  1.00  0.00    -0.213 A  
HETATM   13  C   UNL     1     -11.725  12.586  70.145  1.00  0.00    -0.175 A  
HETATM   14  C   UNL     1      -8.448  11.700  66.153  1.00  0.00    -0.008 A  
HETATM   15  C   UNL     1     -12.520  13.478  70.901  1.00  0.00    -0.448 A  
HETATM   16  C   UNL     1     -13.408  13.025  71.863  1.00  0.00    -0.539 A  
HETATM   17  C   UNL     1     -13.517  11.663  72.069  1.00  0.00    -0.304 A  
HETATM   18  C   UNL     1     -12.735  10.768  71.319  1.00  0.00    -0.546 A  
HETATM   19  C   UNL     1     -11.797  11.193  70.344  1.00  0.00    -0.462 A  
HETATM   20  C   UNL     1     -10.923  10.221  69.533  1.00  0.00    -0.300 C  
HETATM   21  C   UNL     1     -10.957   8.902  69.906  1.00  0.00    -0.190 C  
HETATM   22  C   UNL     1     -10.215   7.746  69.286  1.00  0.00    -0.211 C  
BRANCH  22  23
HETATM   23  C   UNL     1     -10.198   6.320  69.852  1.00  0.00    -0.184 C  
BRANCH  23  24
HETATM   24  N   UNL     1      -8.821   5.970  70.296  1.00  0.00    -0.142 NA 
HETATM   25  C   UNL     1      -7.997   7.108  70.783  1.00  0.00    -0.100 C  
HETATM   26  C   UNL     1      -8.310   7.635  72.211  1.00  0.00    -0.108 C  
HETATM   27  N   UNL     1      -8.599   6.627  73.256  1.00  0.00    -0.119 NA 
HETATM   28  C   UNL     1      -9.376   5.506  72.701  1.00  0.00    -0.140 C  
HETATM   29  C   UNL     1      -7.385   6.150  73.912  1.00  0.00    -0.087 C  
HETATM   30  C   UNL     1      -8.831   4.957  71.366  1.00  0.00    -0.133 C  
ENDBRANCH  23  24
ENDBRANCH  22  23
ENDBRANCH   4   7
ENDBRANCH   2   4
TORSDOF 4
ENDMDL
MODEL      105
REMARK 921   NORMALIZED FREE ENERGY PREDICTED BY IDOCK:   -4.43 KCAL/MOL
REMARK 922        TOTAL FREE ENERGY PREDICTED BY IDOCK:   -6.12 KCAL/MOL
REMARK 923 INTER-LIGAND FREE ENERGY PREDICTED BY IDOCK:   -6.06 KCAL/MOL
REMARK 924 INTRA-LIGAND FREE ENERGY PREDICTED BY IDOCK:   -0.06 KCAL/MOL
REMARK 927      BINDING AFFINITY PREDICTED BY RF-SCORE:    0.00 PKD
ROOT
HETATM    1  C   UNL     1     -13.223   9.972  70.692  1.00  0.00    -0.118 C  
HETATM    2  N   UNL     1     -12.715  11.297  70.294  1.00  0.00    -0.147 N  
HETATM    3  C   UNL     1     -12.501  12.211  71.432  1.00  0.00    -0.117 C  
ENDROOT
BRANCH   2   4
HETATM    4  S   UNL     1     -11.511  11.330  69.083  1.00  0.00    -0.329 S  
HETATM    5  O   UNL     1     -12.116  10.894  67.835  1.00  0.00    -0.527 OA 
HETATM    6  O   UNL     1     -10.316  10.703  69.597  1.00  0.00    -0.216 OA 
BRANCH   4   7
HETATM    7  C   UNL     1     -11.191  13.080  68.922  1.00  0.00    -0.278 A  
HETATM    8  C   UNL     1      -9.902  13.503  68.564  1.00  0.00    -0.189 A  
HETATM    9  C   UNL     1      -9.508  14.856  68.454  1.00  0.00    -0.209 A  
HETATM   10  C   UNL     1     -10.543  15.772  68.715  1.00  0.00    -0.239 A  
HETATM   11  S   UNL     1     -10.406  17.529  68.615  1.00  0.00    -0.349 SA 
HETATM   12  C   UNL     1     -11.851  15.343  69.069  1.00  0.00    -0.357 A  
HETATM   13  C   UNL     1      -8.684  17.815  68.345  1.00  0.00    -0.292 A  
HETATM   14  C   UNL     1     -12.184  14.001  69.162  1.00  0.00    -0.299 A  
HETATM   15  C   UNL     1      -8.344  19.187  68.359  1.00  0.00    -0.384 A  
HETATM   16  C   UNL     1      -7.040  19.615  68.174  1.00  0.00    -0.327 A  
HETATM   17  C   UNL     1      -6.056  18.665  67.984  1.00  0.00    -0.196 A  
HETATM   18  C   UNL     1      -6.383  17.298  67.973  1.00  0.00    -0.150 A  
HETATM   19  C   UNL     1      -7.709  16.821  68.133  1.00  0.00    -0.180 A  
HETATM   20  C   UNL     1      -8.079  15.328  68.103  1.00  0.00    -0.136 C  
HETATM   21  C   UNL     1      -7.087  14.453  67.741  1.00  0.00    -0.191 C  
HETATM   22  C   UNL     1      -7.168  12.952  67.638  1.00  0.00    -0.147 C  
BRANCH  22  23
HETATM   23  C   UNL     1      -6.051  12.055  67.089  1.00  0.00    -0.155 C  
BRANCH  23  24
HETATM   24  N   UNL     1      -6.638  10.970  66.256  1.00  0.00    -0.126 NA 
HETATM   25  C   UNL     1      -5.682   9.930  65.794  1.00  0.00    -0.059 C  
HETATM   26  C   UNL     1      -5.244   8.870  66.842  1.00  0.00    -0.039 C  
HETATM   27  N   UNL     1      -6.285   8.349  67.755  1.00  0.00    -0.051 NA 
HETATM   28  C   UNL     1      -7.226   9.415  68.139  1.00  0.00    -0.078 C  
HETATM   29  C   UNL     1      -6.993   7.204  67.186  1.00  0.00    -0.078 C  
HETATM   30  C   UNL     1      -7.729  10.271  66.958  1.00  0.00    -0.100 C  
ENDBRANCH  23  24
ENDBRANCH  22  23
ENDBRANCH   4   7
ENDBRANCH   2   4
TORSDOF 4
ENDMDL
MODEL      106
REMARK 921   NORMALIZED FREE ENERGY PREDICTED BY IDOCK:   -4.41 KCAL/MOL
REMARK 922        TOTAL FREE ENERGY PREDICTED BY IDOCK:   -6.09 KCAL/MOL
REMARK 923 INTER-LIGAND FREE ENERGY PREDICTED BY IDOCK:   -5.90 KCAL/MOL
REMARK 924 INTRA-LIGAND FREE ENERGY PREDICTED BY IDOCK:   -0.19 KCAL/MOL
REMARK 927      BINDING AFFINITY PREDICTED BY RF-SCORE:    0.00 PKD
ROOT
HETATM    1  C   UNL     1     -11.526  15.964  64.379  1.00  0.00    -0.264 C  
HETATM    2  N   UNL     1     -10.581  15.303  65.298  1.00  0.00    -0.386 N  
HETATM    3  C   UNL     1      -9.792  16.250  66.109  1.00  0.00    -0.334 C  
ENDROOT
BRANCH   2   4
HETATM    4  S   UNL     1     -11.144  13.916  66.119  1.00  0.00    -0.303 S  
HETATM    5  O   UNL     1     -12.594  13.891  66.017  1.00  0.00    -0.467 OA 
HETATM    6  O   UNL     1     -10.481  13.830  67.399  1.00  0.00    -0.253 OA 
BRANCH   4   7
HETATM    7  C   UNL     1     -10.527  12.595  65.087  1.00  0.00    -0.296 A  
HETATM    8  C   UNL     1      -9.879  11.508  65.692  1.00  0.00    -0.269 A  
HETATM    9  C   UNL     1      -9.303  10.429  64.986  1.00  0.00    -0.279 A  
HETATM   10  C   UNL     1      -9.455  10.517  63.591  1.00  0.00    -0.304 A  
HETATM   11  S   UNL     1      -8.902   9.315  62.422  1.00  0.00    -0.198 SA 
HETATM   12  C   UNL     1     -10.119  11.613  62.978  1.00  0.00    -0.311 A  
HETATM   13  C   UNL     1      -7.969   8.168  63.387  1.00  0.00    -0.147 A  
HETATM   14  C   UNL     1     -10.668  12.647  63.720  1.00  0.00    -0.454 A  
HETATM   15  C   UNL     1      -7.328   7.180  62.603  1.00  0.00    -0.084 A  
HETATM   16  C   UNL     1      -6.542   6.195  63.176  1.00  0.00    -0.039 A  
HETATM   17  C   UNL     1      -6.380   6.196  64.548  1.00  0.00    -0.030 A  
HETATM   18  C   UNL     1      -7.008   7.177  65.335  1.00  0.00    -0.056 A  
HETATM   19  C   UNL     1      -7.841   8.187  64.789  1.00  0.00    -0.137 A  
HETATM   20  C   UNL     1      -8.549   9.251  65.645  1.00  0.00    -0.172 C  
HETATM   21  C   UNL     1      -8.484   9.093  67.006  1.00  0.00    -0.123 C  
HETATM   22  C   UNL     1      -9.073   9.981  68.070  1.00  0.00    -0.132 C  
BRANCH  22  23
HETATM   23  C   UNL     1      -9.077   9.659  69.570  1.00  0.00    -0.199 C  
BRANCH  23  24
HETATM   24  N   UNL     1      -8.626   8.256  69.786  1.00  0.00    -0.128 NA 
HETATM   25  C   UNL     1      -7.157   8.037  69.707  1.00  0.00    -0.060 C  
HETATM   26  C   UNL     1      -6.318   8.482  70.936  1.00  0.00    -0.041 C  
HETATM   27  N   UNL     1      -6.883   8.209  72.276  1.00  0.00    -0.077 NA 
HETATM   28  C   UNL     1      -8.344   8.398  72.277  1.00  0.00    -0.155 C  
HETATM   29  C   UNL     1      -6.526   6.879  72.763  1.00  0.00    -0.058 C  
HETATM   30  C   UNL     1      -9.069   7.733  71.089  1.00  0.00    -0.142 C  
ENDBRANCH  23  24
ENDBRANCH  22  23
ENDBRANCH   4   7
ENDBRANCH   2   4
TORSDOF 4
ENDMDL
MODEL      107
REMARK 921   NORMALIZED FREE ENERGY PREDICTED BY IDOCK:   -4.41 KCAL/MOL
REMARK 922        TOTAL FREE ENERGY PREDICTED BY IDOCK:   -6.08 KCAL/MOL
REMARK 923 INTER-LIGAND FREE ENERGY PREDICTED BY IDOCK:   -5.76 KCAL/MOL
REMARK 924 INTRA-LIGAND FREE ENERGY PREDICTED BY IDOCK:   -0.32 KCAL/MOL
REMARK 927      BINDING AFFINITY PREDICTED BY RF-SCORE:    0.00 PKD
ROOT
HETATM    1  C   UNL     1      -6.241   5.569  67.076  1.00  0.00    -0.034 C  
HETATM    2  N   UNL     1      -6.746   6.855  66.559  1.00  0.00    -0.051 N  
HETATM    3  C   UNL     1      -5.675   7.781  66.144  1.00  0.00    -0.037 C  
ENDROOT
BRANCH   2   4
HETATM    4  S   UNL     1      -8.109   6.792  65.533  1.00  0.00    -0.131 S  
HETATM    5  O   UNL     1      -9.105   5.937  66.159  1.00  0.00    -0.148 OA 
HETATM    6  O   UNL     1      -7.664   6.557  64.180  1.00  0.00    -0.094 OA 
BRANCH   4   7
HETATM    7  C   UNL     1      -8.726   8.465  65.629  1.00  0.00    -0.172 A  
HETATM    8  C   UNL     1      -9.176   8.952  66.866  1.00  0.00    -0.185 A  
HETATM    9  C   UNL     1      -9.733  10.235  67.063  1.00  0.00    -0.217 A  
HETATM   10  C   UNL     1      -9.781  11.019  65.897  1.00  0.00    -0.224 A  
HETATM   11  S   UNL     1     -10.366  12.682  65.803  1.00  0.00    -0.282 SA 
HETATM   12  C   UNL     1      -9.317  10.530  64.646  1.00  0.00    -0.294 A  
HETATM   13  C   UNL     1     -11.041  12.996  67.404  1.00  0.00    -0.272 A  
HETATM   14  C   UNL     1      -8.778   9.260  64.509  1.00  0.00    -0.218 A  
HETATM   15  C   UNL     1     -11.681  14.253  67.497  1.00  0.00    -0.415 A  
HETATM   16  C   UNL     1     -12.281  14.679  68.670  1.00  0.00    -0.138 A  
HETATM   17  C   UNL     1     -12.256  13.838  69.766  1.00  0.00    -0.368 A  
HETATM   18  C   UNL     1     -11.626  12.584  69.682  1.00  0.00    -0.323 A  
HETATM   19  C   UNL     1     -10.979  12.122  68.508  1.00  0.00    -0.276 A  
HETATM   20  C   UNL     1     -10.271  10.760  68.414  1.00  0.00    -0.192 C  
HETATM   21  C   UNL     1     -10.135  10.054  69.581  1.00  0.00    -0.263 C  
HETATM   22  C   UNL     1      -9.497   8.702  69.776  1.00  0.00    -0.166 C  
BRANCH  22  23
HETATM   23  C   UNL     1      -9.259   8.040  71.140  1.00  0.00    -0.149 C  
BRANCH  23  24
HETATM   24  N   UNL     1     -10.077   6.802  71.250  1.00  0.00    -0.187 NA 
HETATM   25  C   UNL     1     -10.700   6.332  69.984  1.00  0.00    -0.285 C  
HETATM   26  C   UNL     1      -9.768   5.610  68.974  1.00  0.00    -0.141 C  
HETATM   27  N   UNL     1      -8.773   4.664  69.527  1.00  0.00    -0.081 NA 
HETATM   28  C   UNL     1      -8.228   5.163  70.801  1.00  0.00    -0.105 C  
HETATM   29  C   UNL     1      -9.320   3.318  69.681  1.00  0.00    -0.166 C  
HETATM   30  C   UNL     1      -9.296   5.676  71.789  1.00  0.00    -0.145 C  
ENDBRANCH  23  24
ENDBRANCH  22  23
ENDBRANCH   4   7
ENDBRANCH   2   4
TORSDOF 4
ENDMDL
MODEL      108
REMARK 921   NORMALIZED FREE ENERGY PREDICTED BY IDOCK:   -4.40 KCAL/MOL
REMARK 922        TOTAL FREE ENERGY PREDICTED BY IDOCK:   -6.07 KCAL/MOL
REMARK 923 INTER-LIGAND FREE ENERGY PREDICTED BY IDOCK:   -5.87 KCAL/MOL
REMARK 924 INTRA-LIGAND FREE ENERGY PREDICTED BY IDOCK:   -0.21 KCAL/MOL
REMARK 927      BINDING AFFINITY PREDICTED BY RF-SCORE:    0.00 PKD
ROOT
HETATM    1  C   UNL     1      -6.188   6.158  67.164  1.00  0.00    -0.029 C  
HETATM    2  N   UNL     1      -6.927   4.882  67.203  1.00  0.00    -0.063 N  
HETATM    3  C   UNL     1      -6.726   4.126  68.455  1.00  0.00    -0.047 C  
ENDROOT
BRANCH   2   4
HETATM    4  S   UNL     1      -8.522   4.894  66.594  1.00  0.00    -0.105 S  
HETATM    5  O   UNL     1      -9.306   3.944  67.366  1.00  0.00    -0.162 OA 
HETATM    6  O   UNL     1      -8.471   4.828  65.152  1.00  0.00    -0.123 OA 
BRANCH   4   7
HETATM    7  C   UNL     1      -9.084   6.526  67.052  1.00  0.00    -0.128 A  
HETATM    8  C   UNL     1      -9.706   6.704  68.297  1.00  0.00    -0.132 A  
HETATM    9  C   UNL     1     -10.239   7.929  68.755  1.00  0.00    -0.218 A  
HETATM   10  C   UNL     1     -10.073   8.994  67.851  1.00  0.00    -0.197 A  
HETATM   11  S   UNL     1     -10.575  10.663  68.131  1.00  0.00    -0.220 SA 
HETATM   12  C   UNL     1      -9.437   8.816  66.593  1.00  0.00    -0.263 A  
HETATM   13  C   UNL     1     -11.482  10.596  69.644  1.00  0.00    -0.291 A  
HETATM   14  C   UNL     1      -8.929   7.589  66.194  1.00  0.00    -0.188 A  
HETATM   15  C   UNL     1     -12.083  11.831  69.983  1.00  0.00    -0.387 A  
HETATM   16  C   UNL     1     -12.844  11.979  71.130  1.00  0.00    -0.331 A  
HETATM   17  C   UNL     1     -13.023  10.880  71.948  1.00  0.00    -0.502 A  
HETATM   18  C   UNL     1     -12.435   9.647  71.617  1.00  0.00    -0.494 A  
HETATM   19  C   UNL     1     -11.627   9.462  70.466  1.00  0.00    -0.291 A  
HETATM   20  C   UNL     1     -10.964   8.121  70.107  1.00  0.00    -0.223 C  
HETATM   21  C   UNL     1     -11.040   7.124  71.045  1.00  0.00    -0.287 C  
HETATM   22  C   UNL     1     -10.491   5.723  70.954  1.00  0.00    -0.317 C  
BRANCH  22  23
HETATM   23  C   UNL     1     -10.495   4.710  72.106  1.00  0.00    -0.148 C  
BRANCH  23  24
HETATM   24  N   UNL     1      -9.096   4.369  72.483  1.00  0.00    -0.118 NA 
HETATM   25  C   UNL     1      -8.037   5.011  71.660  1.00  0.00    -0.114 C  
HETATM   26  C   UNL     1      -7.737   6.507  71.952  1.00  0.00    -0.098 C  
HETATM   27  N   UNL     1      -7.718   6.929  73.370  1.00  0.00    -0.090 NA 
HETATM   28  C   UNL     1      -8.758   6.225  74.140  1.00  0.00    -0.127 C  
HETATM   29  C   UNL     1      -6.402   6.751  73.980  1.00  0.00    -0.068 C  
HETATM   30  C   UNL     1      -8.811   4.704  73.889  1.00  0.00    -0.104 C  
ENDBRANCH  23  24
ENDBRANCH  22  23
ENDBRANCH   4   7
ENDBRANCH   2   4
TORSDOF 4
ENDMDL
MODEL      109
REMARK 921   NORMALIZED FREE ENERGY PREDICTED BY IDOCK:   -4.39 KCAL/MOL
REMARK 922        TOTAL FREE ENERGY PREDICTED BY IDOCK:   -6.07 KCAL/MOL
REMARK 923 INTER-LIGAND FREE ENERGY PREDICTED BY IDOCK:   -5.69 KCAL/MOL
REMARK 924 INTRA-LIGAND FREE ENERGY PREDICTED BY IDOCK:   -0.38 KCAL/MOL
REMARK 927      BINDING AFFINITY PREDICTED BY RF-SCORE:    0.00 PKD
ROOT
HETATM    1  C   UNL     1      -7.413  18.037  68.638  1.00  0.00    -0.286 C  
HETATM    2  N   UNL     1      -7.817  16.620  68.710  1.00  0.00    -0.228 N  
HETATM    3  C   UNL     1      -9.256  16.433  68.973  1.00  0.00    -0.247 C  
ENDROOT
BRANCH   2   4
HETATM    4  S   UNL     1      -7.131  15.563  67.558  1.00  0.00    -0.203 S  
HETATM    5  O   UNL     1      -5.918  16.181  67.046  1.00  0.00    -0.322 OA 
HETATM    6  O   UNL     1      -8.172  15.104  66.669  1.00  0.00    -0.202 OA 
BRANCH   4   7
HETATM    7  C   UNL     1      -6.623  14.184  68.573  1.00  0.00    -0.096 A  
HETATM    8  C   UNL     1      -7.314  12.968  68.460  1.00  0.00    -0.115 A  
HETATM    9  C   UNL     1      -7.044  11.822  69.240  1.00  0.00    -0.032 A  
HETATM   10  C   UNL     1      -5.983  11.989  70.148  1.00  0.00    -0.159 A  
HETATM   11  S   UNL     1      -5.355  10.745  71.232  1.00  0.00    -0.002 SA 
HETATM   12  C   UNL     1      -5.277  13.217  70.257  1.00  0.00    -0.104 A  
HETATM   13  C   UNL     1      -6.485   9.400  71.048  1.00  0.00    -0.086 A  
HETATM   14  C   UNL     1      -5.583  14.313  69.464  1.00  0.00    -0.093 A  
HETATM   15  C   UNL     1      -6.222   8.333  71.939  1.00  0.00    -0.052 A  
HETATM   16  C   UNL     1      -7.004   7.190  71.956  1.00  0.00    -0.060 A  
HETATM   17  C   UNL     1      -8.071   7.110  71.083  1.00  0.00    -0.104 A  
HETATM   18  C   UNL     1      -8.343   8.167  70.197  1.00  0.00    -0.125 A  
HETATM   19  C   UNL     1      -7.552   9.342  70.131  1.00  0.00    -0.111 A  
HETATM   20  C   UNL     1      -7.831  10.494  69.151  1.00  0.00    -0.138 C  
HETATM   21  C   UNL     1      -8.795  10.277  68.201  1.00  0.00    -0.123 C  
HETATM   22  C   UNL     1      -9.273  11.226  67.133  1.00  0.00    -0.169 C  
BRANCH  22  23
HETATM   23  C   UNL     1     -10.258  10.856  66.016  1.00  0.00    -0.254 C  
BRANCH  23  24
HETATM   24  N   UNL     1     -10.138  11.828  64.895  1.00  0.00    -0.253 NA 
HETATM   25  C   UNL     1     -11.212  11.756  63.869  1.00  0.00    -0.414 C  
HETATM   26  C   UNL     1     -12.582  12.384  64.248  1.00  0.00    -0.401 C  
HETATM   27  N   UNL     1     -12.558  13.665  64.988  1.00  0.00    -0.626 NA 
HETATM   28  C   UNL     1     -11.446  13.691  65.954  1.00  0.00    -0.316 C  
HETATM   29  C   UNL     1     -12.503  14.817  64.092  1.00  0.00    -0.111 C  
HETATM   30  C   UNL     1     -10.096  13.219  65.378  1.00  0.00    -0.253 C  
ENDBRANCH  23  24
ENDBRANCH  22  23
ENDBRANCH   4   7
ENDBRANCH   2   4
TORSDOF 4
ENDMDL
MODEL      110
REMARK 921   NORMALIZED FREE ENERGY PREDICTED BY IDOCK:   -4.37 KCAL/MOL
REMARK 922        TOTAL FREE ENERGY PREDICTED BY IDOCK:   -6.04 KCAL/MOL
REMARK 923 INTER-LIGAND FREE ENERGY PREDICTED BY IDOCK:   -5.43 KCAL/MOL
REMARK 924 INTRA-LIGAND FREE ENERGY PREDICTED BY IDOCK:   -0.61 KCAL/MOL
REMARK 927      BINDING AFFINITY PREDICTED BY RF-SCORE:    0.00 PKD
ROOT
HETATM    1  C   UNL     1     -10.910  12.058  66.147  1.00  0.00    -0.286 C  
HETATM    2  N   UNL     1     -10.502  11.742  67.529  1.00  0.00    -0.198 N  
HETATM    3  C   UNL     1     -11.480  10.908  68.253  1.00  0.00    -0.305 C  
ENDROOT
BRANCH   2   4
HETATM    4  S   UNL     1      -8.861  11.343  67.777  1.00  0.00    -0.148 S  
HETATM    5  O   UNL     1      -8.758  10.625  69.037  1.00  0.00    -0.153 OA 
HETATM    6  O   UNL     1      -8.051  12.508  67.509  1.00  0.00    -0.154 OA 
BRANCH   4   7
HETATM    7  C   UNL     1      -8.565  10.154  66.477  1.00  0.00    -0.126 A  
HETATM    8  C   UNL     1      -8.961   8.823  66.673  1.00  0.00    -0.168 A  
HETATM    9  C   UNL     1      -8.739   7.780  65.746  1.00  0.00    -0.160 A  
HETATM   10  C   UNL     1      -8.093   8.195  64.567  1.00  0.00    -0.142 A  
HETATM   11  S   UNL     1      -7.712   7.161  63.188  1.00  0.00    -0.113 SA 
HETATM   12  C   UNL     1      -7.699   9.545  64.365  1.00  0.00    -0.123 A  
HETATM   13  C   UNL     1      -8.122   5.534  63.740  1.00  0.00    -0.121 A  
HETATM   14  C   UNL     1      -7.944  10.531  65.309  1.00  0.00    -0.112 A  
HETATM   15  C   UNL     1      -7.768   4.530  62.809  1.00  0.00    -0.062 A  
HETATM   16  C   UNL     1      -8.001   3.189  63.063  1.00  0.00    -0.072 A  
HETATM   17  C   UNL     1      -8.582   2.837  64.265  1.00  0.00    -0.090 A  
HETATM   18  C   UNL     1      -8.932   3.827  65.199  1.00  0.00    -0.132 A  
HETATM   19  C   UNL     1      -8.734   5.212  64.967  1.00  0.00    -0.148 A  
HETATM   20  C   UNL     1      -9.133   6.303  65.976  1.00  0.00    -0.126 C  
HETATM   21  C   UNL     1      -9.857   5.899  67.067  1.00  0.00    -0.173 C  
HETATM   22  C   UNL     1     -10.366   6.746  68.205  1.00  0.00    -0.219 C  
BRANCH  22  23
HETATM   23  C   UNL     1     -11.292   6.241  69.320  1.00  0.00    -0.341 C  
BRANCH  23  24
HETATM   24  N   UNL     1     -11.348   7.242  70.420  1.00  0.00    -0.283 NA 
HETATM   25  C   UNL     1     -12.185   6.861  71.589  1.00  0.00    -0.361 C  
HETATM   26  C   UNL     1     -11.576   5.829  72.577  1.00  0.00    -0.267 C  
HETATM   27  N   UNL     1     -10.139   5.970  72.902  1.00  0.00    -0.178 NA 
HETATM   28  C   UNL     1      -9.373   6.393  71.718  1.00  0.00    -0.150 C  
HETATM   29  C   UNL     1      -9.915   6.879  74.024  1.00  0.00    -0.336 C  
HETATM   30  C   UNL     1     -10.007   7.563  70.938  1.00  0.00    -0.180 C  
ENDBRANCH  23  24
ENDBRANCH  22  23
ENDBRANCH   4   7
ENDBRANCH   2   4
TORSDOF 4
ENDMDL
MODEL      111
REMARK 921   NORMALIZED FREE ENERGY PREDICTED BY IDOCK:   -4.36 KCAL/MOL
REMARK 922        TOTAL FREE ENERGY PREDICTED BY IDOCK:   -6.03 KCAL/MOL
REMARK 923 INTER-LIGAND FREE ENERGY PREDICTED BY IDOCK:   -5.72 KCAL/MOL
REMARK 924 INTRA-LIGAND FREE ENERGY PREDICTED BY IDOCK:   -0.30 KCAL/MOL
REMARK 927      BINDING AFFINITY PREDICTED BY RF-SCORE:    0.00 PKD
ROOT
HETATM    1  C   UNL     1     -10.459  13.658  65.652  1.00  0.00    -0.299 C  
HETATM    2  N   UNL     1      -9.854  13.147  66.896  1.00  0.00    -0.243 N  
HETATM    3  C   UNL     1      -9.400  14.213  67.809  1.00  0.00    -0.200 C  
ENDROOT
BRANCH   2   4
HETATM    4  S   UNL     1     -10.623  11.815  67.638  1.00  0.00    -0.213 S  
HETATM    5  O   UNL     1     -12.023  11.829  67.247  1.00  0.00    -0.618 OA 
HETATM    6  O   UNL     1     -10.233  11.766  69.028  1.00  0.00    -0.145 OA 
BRANCH   4   7
HETATM    7  C   UNL     1      -9.864  10.432  66.802  1.00  0.00    -0.195 A  
HETATM    8  C   UNL     1      -9.176   9.474  67.562  1.00  0.00    -0.142 A  
HETATM    9  C   UNL     1      -8.491   8.365  67.018  1.00  0.00    -0.122 A  
HETATM   10  C   UNL     1      -8.574   8.278  65.616  1.00  0.00    -0.166 A  
HETATM   11  S   UNL     1      -7.879   6.991  64.627  1.00  0.00    -0.115 SA 
HETATM   12  C   UNL     1      -9.278   9.242  64.847  1.00  0.00    -0.206 A  
HETATM   13  C   UNL     1      -6.923   6.037  65.764  1.00  0.00    -0.061 A  
HETATM   14  C   UNL     1      -9.935  10.313  65.434  1.00  0.00    -0.371 A  
HETATM   15  C   UNL     1      -6.176   5.015  65.135  1.00  0.00    -0.034 A  
HETATM   16  C   UNL     1      -5.356   4.164  65.857  1.00  0.00    -0.009 A  
HETATM   17  C   UNL     1      -5.267   4.339  67.224  1.00  0.00    -0.012 A  
HETATM   18  C   UNL     1      -6.002   5.355  67.858  1.00  0.00    -0.018 A  
HETATM   19  C   UNL     1      -6.871   6.230  67.158  1.00  0.00    -0.066 A  
HETATM   20  C   UNL     1      -7.694   7.332  67.847  1.00  0.00    -0.113 C  
HETATM   21  C   UNL     1      -7.691   7.339  69.218  1.00  0.00    -0.107 C  
HETATM   22  C   UNL     1      -8.395   8.300  70.141  1.00  0.00    -0.124 C  
BRANCH  22  23
HETATM   23  C   UNL     1      -8.456   8.156  71.667  1.00  0.00    -0.136 C  
BRANCH  23  24
HETATM   24  N   UNL     1      -9.749   8.695  72.173  1.00  0.00    -0.314 NA 
HETATM   25  C   UNL     1     -10.678   9.210  71.134  1.00  0.00    -0.310 C  
HETATM   26  C   UNL     1     -11.459   8.149  70.309  1.00  0.00    -0.065 C  
HETATM   27  N   UNL     1     -11.985   6.976  71.040  1.00  0.00    -0.346 NA 
HETATM   28  C   UNL     1     -11.040   6.543  72.085  1.00  0.00    -0.260 C  
HETATM   29  C   UNL     1     -13.310   7.225  71.602  1.00  0.00    -0.358 C  
HETATM   30  C   UNL     1     -10.490   7.691  72.956  1.00  0.00    -0.356 C  
ENDBRANCH  23  24
ENDBRANCH  22  23
ENDBRANCH   4   7
ENDBRANCH   2   4
TORSDOF 4
ENDMDL
MODEL      112
REMARK 921   NORMALIZED FREE ENERGY PREDICTED BY IDOCK:   -4.32 KCAL/MOL
REMARK 922        TOTAL FREE ENERGY PREDICTED BY IDOCK:   -5.98 KCAL/MOL
REMARK 923 INTER-LIGAND FREE ENERGY PREDICTED BY IDOCK:   -6.52 KCAL/MOL
REMARK 924 INTRA-LIGAND FREE ENERGY PREDICTED BY IDOCK:    0.54 KCAL/MOL
REMARK 927      BINDING AFFINITY PREDICTED BY RF-SCORE:    0.00 PKD
ROOT
HETATM    1  C   UNL     1      -9.055  18.251  68.176  1.00  0.00    -0.298 C  
HETATM    2  N   UNL     1      -7.669  17.771  68.021  1.00  0.00    -0.231 N  
HETATM    3  C   UNL     1      -7.058  17.324  69.287  1.00  0.00    -0.155 C  
ENDROOT
BRANCH   2   4
HETATM    4  S   UNL     1      -7.337  16.800  66.656  1.00  0.00    -0.265 S  
HETATM    5  O   UNL     1      -6.017  17.157  66.161  1.00  0.00    -0.261 OA 
HETATM    6  O   UNL     1      -8.490  16.806  65.787  1.00  0.00    -0.472 OA 
BRANCH   4   7
HETATM    7  C   UNL     1      -7.198  15.173  67.379  1.00  0.00    -0.199 A  
HETATM    8  C   UNL     1      -8.362  14.411  67.562  1.00  0.00    -0.198 A  
HETATM    9  C   UNL     1      -8.393  13.135  68.167  1.00  0.00    -0.161 A  
HETATM   10  C   UNL     1      -7.129  12.663  68.562  1.00  0.00    -0.101 A  
HETATM   11  S   UNL     1      -6.806  11.091  69.299  1.00  0.00    -0.122 SA 
HETATM   12  C   UNL     1      -5.949  13.430  68.370  1.00  0.00    -0.092 A  
HETATM   13  C   UNL     1      -8.409  10.414  69.596  1.00  0.00    -0.068 A  
HETATM   14  C   UNL     1      -5.975  14.679  67.768  1.00  0.00    -0.119 A  
HETATM   15  C   UNL     1      -8.369   9.191  70.306  1.00  0.00    -0.187 A  
HETATM   16  C   UNL     1      -9.526   8.508  70.643  1.00  0.00    -0.203 A  
HETATM   17  C   UNL     1     -10.742   9.054  70.282  1.00  0.00    -0.262 A  
HETATM   18  C   UNL     1     -10.793  10.271  69.581  1.00  0.00    -0.311 A  
HETATM   19  C   UNL     1      -9.631  10.988  69.195  1.00  0.00    -0.081 A  
HETATM   20  C   UNL     1      -9.678  12.311  68.411  1.00  0.00    -0.191 C  
HETATM   21  C   UNL     1     -10.902  12.705  67.937  1.00  0.00    -0.244 C  
HETATM   22  C   UNL     1     -11.235  13.949  67.154  1.00  0.00    -0.328 C  
BRANCH  22  23
HETATM   23  C   UNL     1     -12.608  14.248  66.538  1.00  0.00    -0.052 C  
BRANCH  23  24
HETATM   24  N   UNL     1     -12.529  14.149  65.055  1.00  0.00    -0.553 NA 
HETATM   25  C   UNL     1     -11.216  14.510  64.459  1.00  0.00    -0.294 C  
HETATM   26  C   UNL     1     -10.081  13.455  64.577  1.00  0.00    -0.192 C  
HETATM   27  N   UNL     1     -10.451  12.038  64.371  1.00  0.00    -0.291 NA 
HETATM   28  C   UNL     1     -11.779  11.754  64.942  1.00  0.00    -0.118 C  
HETATM   29  C   UNL     1     -10.393  11.652  62.963  1.00  0.00    -0.232 C  
HETATM   30  C   UNL     1     -12.860  12.794  64.579  1.00  0.00    -0.241 C  
ENDBRANCH  23  24
ENDBRANCH  22  23
ENDBRANCH   4   7
ENDBRANCH   2   4
TORSDOF 4
ENDMDL
MODEL      113
REMARK 921   NORMALIZED FREE ENERGY PREDICTED BY IDOCK:   -4.29 KCAL/MOL
REMARK 922        TOTAL FREE ENERGY PREDICTED BY IDOCK:   -5.95 KCAL/MOL
REMARK 923 INTER-LIGAND FREE ENERGY PREDICTED BY IDOCK:   -5.52 KCAL/MOL
REMARK 924 INTRA-LIGAND FREE ENERGY PREDICTED BY IDOCK:   -0.43 KCAL/MOL
REMARK 927      BINDING AFFINITY PREDICTED BY RF-SCORE:    0.00 PKD
ROOT
HETATM    1  C   UNL     1      -9.727   6.930  66.491  1.00  0.00    -0.124 C  
HETATM    2  N   UNL     1      -8.322   6.767  66.074  1.00  0.00    -0.128 N  
HETATM    3  C   UNL     1      -8.095   7.067  64.647  1.00  0.00    -0.083 C  
ENDROOT
BRANCH   2   4
HETATM    4  S   UNL     1      -7.126   7.337  67.150  1.00  0.00    -0.090 S  
HETATM    5  O   UNL     1      -5.834   7.216  66.492  1.00  0.00    -0.032 OA 
HETATM    6  O   UNL     1      -7.359   6.764  68.454  1.00  0.00    -0.082 OA 
BRANCH   4   7
HETATM    7  C   UNL     1      -7.503   9.081  67.237  1.00  0.00    -0.084 A  
HETATM    8  C   UNL     1      -8.568   9.504  68.045  1.00  0.00    -0.120 A  
HETATM    9  C   UNL     1      -8.999  10.845  68.159  1.00  0.00    -0.144 A  
HETATM   10  C   UNL     1      -8.240  11.753  67.398  1.00  0.00    -0.160 A  
HETATM   11  S   UNL     1      -8.476  13.502  67.355  1.00  0.00    -0.201 SA 
HETATM   12  C   UNL     1      -7.155  11.325  66.587  1.00  0.00    -0.127 A  
HETATM   13  C   UNL     1      -9.960  13.762  68.276  1.00  0.00    -0.243 A  
HETATM   14  C   UNL     1      -6.774   9.994  66.512  1.00  0.00    -0.082 A  
HETATM   15  C   UNL     1     -10.393  15.108  68.253  1.00  0.00    -0.231 A  
HETATM   16  C   UNL     1     -11.544  15.512  68.911  1.00  0.00    -0.384 A  
HETATM   17  C   UNL     1     -12.282  14.563  69.590  1.00  0.00    -0.336 A  
HETATM   18  C   UNL     1     -11.862  13.222  69.613  1.00  0.00    -0.391 A  
HETATM   19  C   UNL     1     -10.678  12.773  68.975  1.00  0.00    -0.136 A  
HETATM   20  C   UNL     1     -10.201  11.311  69.013  1.00  0.00    -0.169 C  
HETATM   21  C   UNL     1     -10.883  10.460  69.843  1.00  0.00    -0.353 C  
HETATM   22  C   UNL     1     -10.638   8.990  70.066  1.00  0.00    -0.246 C  
BRANCH  22  23
HETATM   23  C   UNL     1     -11.358   8.137  71.120  1.00  0.00    -0.269 C  
BRANCH  23  24
HETATM   24  N   UNL     1     -10.605   8.180  72.403  1.00  0.00    -0.298 NA 
HETATM   25  C   UNL     1     -10.993   7.154  73.407  1.00  0.00    -0.236 C  
HETATM   26  C   UNL     1     -10.473   5.710  73.165  1.00  0.00    -0.221 C  
HETATM   27  N   UNL     1      -9.083   5.563  72.680  1.00  0.00    -0.138 NA 
HETATM   28  C   UNL     1      -8.745   6.634  71.726  1.00  0.00    -0.129 C  
HETATM   29  C   UNL     1      -8.119   5.514  73.777  1.00  0.00    -0.111 C  
HETATM   30  C   UNL     1      -9.153   8.048  72.191  1.00  0.00    -0.168 C  
ENDBRANCH  23  24
ENDBRANCH  22  23
ENDBRANCH   4   7
ENDBRANCH   2   4
TORSDOF 4
ENDMDL
MODEL      114
REMARK 921   NORMALIZED FREE ENERGY PREDICTED BY IDOCK:   -4.28 KCAL/MOL
REMARK 922        TOTAL FREE ENERGY PREDICTED BY IDOCK:   -5.93 KCAL/MOL
REMARK 923 INTER-LIGAND FREE ENERGY PREDICTED BY IDOCK:   -5.73 KCAL/MOL
REMARK 924 INTRA-LIGAND FREE ENERGY PREDICTED BY IDOCK:   -0.20 KCAL/MOL
REMARK 927      BINDING AFFINITY PREDICTED BY RF-SCORE:    0.00 PKD
ROOT
HETATM    1  C   UNL     1     -10.342  10.769  64.562  1.00  0.00    -0.331 C  
HETATM    2  N   UNL     1      -9.461  10.167  63.544  1.00  0.00    -0.289 N  
HETATM    3  C   UNL     1      -9.232  11.039  62.375  1.00  0.00    -0.239 C  
ENDROOT
BRANCH   2   4
HETATM    4  S   UNL     1      -8.093   9.318  64.112  1.00  0.00    -0.156 S  
HETATM    5  O   UNL     1      -6.916  10.129  63.844  1.00  0.00    -0.130 OA 
HETATM    6  O   UNL     1      -8.176   7.947  63.664  1.00  0.00    -0.113 OA 
BRANCH   4   7
HETATM    7  C   UNL     1      -8.348   9.338  65.879  1.00  0.00    -0.118 A  
HETATM    8  C   UNL     1      -9.074   8.295  66.472  1.00  0.00    -0.219 A  
HETATM    9  C   UNL     1      -9.388   8.221  67.847  1.00  0.00    -0.150 A  
HETATM   10  C   UNL     1      -8.880   9.293  68.604  1.00  0.00    -0.132 A  
HETATM   11  S   UNL     1      -9.044   9.482  70.351  1.00  0.00    -0.200 SA 
HETATM   12  C   UNL     1      -8.137  10.346  68.005  1.00  0.00    -0.110 A  
HETATM   13  C   UNL     1     -10.136   8.179  70.828  1.00  0.00    -0.189 A  
HETATM   14  C   UNL     1      -7.857  10.368  66.648  1.00  0.00    -0.120 A  
HETATM   15  C   UNL     1     -10.496   8.234  72.195  1.00  0.00    -0.371 A  
HETATM   16  C   UNL     1     -11.352   7.302  72.758  1.00  0.00    -0.318 A  
HETATM   17  C   UNL     1     -11.869   6.308  71.950  1.00  0.00    -0.359 A  
HETATM   18  C   UNL     1     -11.520   6.249  70.590  1.00  0.00    -0.397 A  
HETATM   19  C   UNL     1     -10.627   7.167  69.981  1.00  0.00    -0.248 A  
HETATM   20  C   UNL     1     -10.226   7.097  68.498  1.00  0.00    -0.189 C  
HETATM   21  C   UNL     1     -10.636   5.991  67.799  1.00  0.00    -0.337 C  
HETATM   22  C   UNL     1     -10.394   5.672  66.346  1.00  0.00    -0.241 C  
BRANCH  22  23
HETATM   23  C   UNL     1     -10.767   4.345  65.672  1.00  0.00    -0.043 C  
BRANCH  23  24
HETATM   24  N   UNL     1      -9.721   3.972  64.680  1.00  0.00    -0.176 NA 
HETATM   25  C   UNL     1      -8.461   4.757  64.753  1.00  0.00    -0.141 C  
HETATM   26  C   UNL     1      -7.480   4.396  65.902  1.00  0.00    -0.081 C  
HETATM   27  N   UNL     1      -7.298   2.961  66.212  1.00  0.00    -0.066 NA 
HETATM   28  C   UNL     1      -8.571   2.231  66.077  1.00  0.00    -0.111 C  
HETATM   29  C   UNL     1      -6.254   2.349  65.395  1.00  0.00    -0.023 C  
HETATM   30  C   UNL     1      -9.350   2.550  64.785  1.00  0.00    -0.127 C  
ENDBRANCH  23  24
ENDBRANCH  22  23
ENDBRANCH   4   7
ENDBRANCH   2   4
TORSDOF 4
ENDMDL
MODEL      115
REMARK 921   NORMALIZED FREE ENERGY PREDICTED BY IDOCK:   -4.21 KCAL/MOL
REMARK 922        TOTAL FREE ENERGY PREDICTED BY IDOCK:   -5.85 KCAL/MOL
REMARK 923 INTER-LIGAND FREE ENERGY PREDICTED BY IDOCK:   -5.33 KCAL/MOL
REMARK 924 INTRA-LIGAND FREE ENERGY PREDICTED BY IDOCK:   -0.52 KCAL/MOL
REMARK 927      BINDING AFFINITY PREDICTED BY RF-SCORE:    0.00 PKD
ROOT
HETATM    1  C   UNL     1      -8.716   5.196  74.253  1.00  0.00    -0.113 C  
HETATM    2  N   UNL     1      -9.774   4.647  73.384  1.00  0.00    -0.131 N  
HETATM    3  C   UNL     1     -10.877   4.014  74.131  1.00  0.00    -0.176 C  
ENDROOT
BRANCH   2   4
HETATM    4  S   UNL     1     -10.238   5.595  72.041  1.00  0.00    -0.212 S  
HETATM    5  O   UNL     1      -9.368   6.759  71.990  1.00  0.00    -0.143 OA 
HETATM    6  O   UNL     1     -11.675   5.732  72.042  1.00  0.00    -0.234 OA 
BRANCH   4   7
HETATM    7  C   UNL     1      -9.783   4.546  70.669  1.00  0.00    -0.212 A  
HETATM    8  C   UNL     1      -9.845   5.067  69.368  1.00  0.00    -0.273 A  
HETATM    9  C   UNL     1      -9.562   4.327  68.198  1.00  0.00    -0.196 A  
HETATM   10  C   UNL     1      -9.178   2.997  68.446  1.00  0.00    -0.185 A  
HETATM   11  S   UNL     1      -8.707   1.821  67.217  1.00  0.00    -0.112 SA 
HETATM   12  C   UNL     1      -9.106   2.472  69.764  1.00  0.00    -0.183 A  
HETATM   13  C   UNL     1      -9.045   2.633  65.686  1.00  0.00    -0.121 A  
HETATM   14  C   UNL     1      -9.395   3.244  70.879  1.00  0.00    -0.220 A  
HETATM   15  C   UNL     1      -8.848   1.798  64.562  1.00  0.00    -0.106 A  
HETATM   16  C   UNL     1      -9.069   2.250  63.272  1.00  0.00    -0.092 A  
HETATM   17  C   UNL     1      -9.506   3.548  63.095  1.00  0.00    -0.104 A  
HETATM   18  C   UNL     1      -9.710   4.385  64.206  1.00  0.00    -0.050 A  
HETATM   19  C   UNL     1      -9.470   3.968  65.540  1.00  0.00    -0.176 A  
HETATM   20  C   UNL     1      -9.672   4.884  66.760  1.00  0.00    -0.195 C  
HETATM   21  C   UNL     1      -9.940   6.204  66.503  1.00  0.00    -0.179 C  
HETATM   22  C   UNL     1     -10.187   7.308  67.498  1.00  0.00    -0.284 C  
BRANCH  22  23
HETATM   23  C   UNL     1     -10.340   8.791  67.133  1.00  0.00    -0.293 C  
BRANCH  23  24
HETATM   24  N   UNL     1     -10.548   9.596  68.368  1.00  0.00    -0.223 NA 
HETATM   25  C   UNL     1      -9.320  10.195  68.954  1.00  0.00    -0.179 C  
HETATM   26  C   UNL     1      -8.752  11.455  68.245  1.00  0.00    -0.160 C  
HETATM   27  N   UNL     1      -9.726  12.459  67.765  1.00  0.00    -0.195 NA 
HETATM   28  C   UNL     1     -10.937  11.805  67.240  1.00  0.00    -0.267 C  
HETATM   29  C   UNL     1     -10.064  13.436  68.797  1.00  0.00    -0.085 C  
HETATM   30  C   UNL     1     -11.503  10.696  68.150  1.00  0.00    -0.228 C  
ENDBRANCH  23  24
ENDBRANCH  22  23
ENDBRANCH   4   7
ENDBRANCH   2   4
TORSDOF 4
ENDMDL
MODEL      116
REMARK 921   NORMALIZED FREE ENERGY PREDICTED BY IDOCK:   -4.20 KCAL/MOL
REMARK 922        TOTAL FREE ENERGY PREDICTED BY IDOCK:   -5.83 KCAL/MOL
REMARK 923 INTER-LIGAND FREE ENERGY PREDICTED BY IDOCK:   -5.33 KCAL/MOL
REMARK 924 INTRA-LIGAND FREE ENERGY PREDICTED BY IDOCK:   -0.50 KCAL/MOL
REMARK 927      BINDING AFFINITY PREDICTED BY RF-SCORE:    0.00 PKD
ROOT
HETATM    1  C   UNL     1      -8.604   7.517  62.335  1.00  0.00     0.137 C  
HETATM    2  N   UNL     1      -7.675   7.582  63.478  1.00  0.00    -0.122 N  
HETATM    3  C   UNL     1      -6.259   7.429  63.092  1.00  0.00    -0.054 C  
ENDROOT
BRANCH   2   4
HETATM    4  S   UNL     1      -7.993   8.767  64.666  1.00  0.00    -0.142 S  
HETATM    5  O   UNL     1      -9.070   9.614  64.179  1.00  0.00    -0.241 OA 
HETATM    6  O   UNL     1      -6.740   9.329  65.112  1.00  0.00    -0.075 OA 
BRANCH   4   7
HETATM    7  C   UNL     1      -8.665   7.787  66.000  1.00  0.00    -0.161 A  
HETATM    8  C   UNL     1      -8.997   8.421  67.206  1.00  0.00    -0.142 A  
HETATM    9  C   UNL     1      -9.486   7.753  68.350  1.00  0.00    -0.148 A  
HETATM   10  C   UNL     1      -9.643   6.366  68.175  1.00  0.00    -0.115 A  
HETATM   11  S   UNL     1     -10.280   5.246  69.382  1.00  0.00    -0.236 SA 
HETATM   12  C   UNL     1      -9.316   5.725  66.950  1.00  0.00    -0.132 A  
HETATM   13  C   UNL     1     -10.438   6.225  70.842  1.00  0.00    -0.223 A  
HETATM   14  C   UNL     1      -8.839   6.431  65.856  1.00  0.00    -0.142 A  
HETATM   15  C   UNL     1     -10.823   5.470  71.974  1.00  0.00    -0.287 A  
HETATM   16  C   UNL     1     -10.991   6.057  73.217  1.00  0.00    -0.244 A  
HETATM   17  C   UNL     1     -10.762   7.413  73.341  1.00  0.00    -0.407 A  
HETATM   18  C   UNL     1     -10.374   8.172  72.223  1.00  0.00    -0.361 A  
HETATM   19  C   UNL     1     -10.216   7.613  70.929  1.00  0.00    -0.202 A  
HETATM   20  C   UNL     1      -9.811   8.440  69.697  1.00  0.00    -0.184 C  
HETATM   21  C   UNL     1      -9.768   9.801  69.854  1.00  0.00    -0.273 C  
HETATM   22  C   UNL     1      -9.398  10.840  68.826  1.00  0.00    -0.186 C  
BRANCH  22  23
HETATM   23  C   UNL     1      -9.510  12.355  69.041  1.00  0.00     0.394 C  
BRANCH  23  24
HETATM   24  N   UNL     1     -10.855  12.828  68.612  1.00  0.00    -0.249 NA 
HETATM   25  C   UNL     1     -11.996  12.335  69.429  1.00  0.00    -0.259 C  
HETATM   26  C   UNL     1     -12.211  13.015  70.809  1.00  0.00    -0.272 C  
HETATM   27  N   UNL     1     -12.028  14.482  70.877  1.00  0.00    -0.315 NA 
HETATM   28  C   UNL     1     -10.915  14.912  70.013  1.00  0.00    -0.206 C  
HETATM   29  C   UNL     1     -13.254  15.206  70.551  1.00  0.00    -0.227 C  
HETATM   30  C   UNL     1     -10.939  14.298  68.597  1.00  0.00    -0.252 C  
ENDBRANCH  23  24
ENDBRANCH  22  23
ENDBRANCH   4   7
ENDBRANCH   2   4
TORSDOF 4
ENDMDL
MODEL      117
REMARK 921   NORMALIZED FREE ENERGY PREDICTED BY IDOCK:   -4.16 KCAL/MOL
REMARK 922        TOTAL FREE ENERGY PREDICTED BY IDOCK:   -5.79 KCAL/MOL
REMARK 923 INTER-LIGAND FREE ENERGY PREDICTED BY IDOCK:   -5.16 KCAL/MOL
REMARK 924 INTRA-LIGAND FREE ENERGY PREDICTED BY IDOCK:   -0.62 KCAL/MOL
REMARK 927      BINDING AFFINITY PREDICTED BY RF-SCORE:    0.00 PKD
ROOT
HETATM    1  C   UNL     1      -6.671   6.594  66.038  1.00  0.00    -0.048 C  
HETATM    2  N   UNL     1      -6.547   8.059  66.161  1.00  0.00    -0.046 N  
HETATM    3  C   UNL     1      -5.156   8.518  66.336  1.00  0.00    -0.030 C  
ENDROOT
BRANCH   2   4
HETATM    4  S   UNL     1      -7.513   9.004  65.118  1.00  0.00    -0.099 S  
HETATM    5  O   UNL     1      -8.249   8.103  64.245  1.00  0.00    -0.153 OA 
HETATM    6  O   UNL     1      -6.709  10.077  64.581  1.00  0.00    -0.118 OA 
BRANCH   4   7
HETATM    7  C   UNL     1      -8.699   9.715  66.248  1.00  0.00    -0.142 A  
HETATM    8  C   UNL     1      -8.982   9.042  67.446  1.00  0.00    -0.135 A  
HETATM    9  C   UNL     1      -9.934   9.471  68.397  1.00  0.00    -0.184 A  
HETATM   10  C   UNL     1     -10.578  10.674  68.053  1.00  0.00    -0.211 A  
HETATM   11  S   UNL     1     -11.778  11.512  69.040  1.00  0.00    -0.355 SA 
HETATM   12  C   UNL     1     -10.285  11.361  66.845  1.00  0.00    -0.254 A  
HETATM   13  C   UNL     1     -12.101  10.398  70.371  1.00  0.00    -0.315 A  
HETATM   14  C   UNL     1      -9.339  10.894  65.946  1.00  0.00    -0.226 A  
HETATM   15  C   UNL     1     -13.143  10.838  71.219  1.00  0.00    -0.427 A  
HETATM   16  C   UNL     1     -13.550  10.097  72.316  1.00  0.00    -0.224 A  
HETATM   17  C   UNL     1     -12.922   8.892  72.567  1.00  0.00    -0.415 A  
HETATM   18  C   UNL     1     -11.889   8.444  71.726  1.00  0.00    -0.374 A  
HETATM   19  C   UNL     1     -11.426   9.185  70.609  1.00  0.00    -0.310 A  
HETATM   20  C   UNL     1     -10.282   8.710  69.696  1.00  0.00    -0.208 C  
HETATM   21  C   UNL     1      -9.592   7.596  70.100  1.00  0.00    -0.168 C  
HETATM   22  C   UNL     1      -8.444   6.915  69.401  1.00  0.00    -0.133 C  
BRANCH  22  23
HETATM   23  C   UNL     1      -7.632   5.754  69.989  1.00  0.00    -0.083 C  
BRANCH  23  24
HETATM   24  N   UNL     1      -8.356   4.471  69.774  1.00  0.00    -0.063 NA 
HETATM   25  C   UNL     1      -7.499   3.258  69.695  1.00  0.00    -0.044 C  
HETATM   26  C   UNL     1      -6.946   2.706  71.037  1.00  0.00    -0.033 C  
HETATM   27  N   UNL     1      -7.864   2.704  72.198  1.00  0.00    -0.053 NA 
HETATM   28  C   UNL     1      -8.716   3.905  72.194  1.00  0.00    -0.104 C  
HETATM   29  C   UNL     1      -8.672   1.488  72.259  1.00  0.00    -0.056 C  
HETATM   30  C   UNL     1      -9.356   4.224  70.827  1.00  0.00    -0.152 C  
ENDBRANCH  23  24
ENDBRANCH  22  23
ENDBRANCH   4   7
ENDBRANCH   2   4
TORSDOF 4
ENDMDL
MODEL      118
REMARK 921   NORMALIZED FREE ENERGY PREDICTED BY IDOCK:   -4.16 KCAL/MOL
REMARK 922        TOTAL FREE ENERGY PREDICTED BY IDOCK:   -5.78 KCAL/MOL
REMARK 923 INTER-LIGAND FREE ENERGY PREDICTED BY IDOCK:   -5.46 KCAL/MOL
REMARK 924 INTRA-LIGAND FREE ENERGY PREDICTED BY IDOCK:   -0.32 KCAL/MOL
REMARK 927      BINDING AFFINITY PREDICTED BY RF-SCORE:    0.00 PKD
ROOT
HETATM    1  C   UNL     1      -5.959   5.901  65.621  1.00  0.00    -0.028 C  
HETATM    2  N   UNL     1      -6.396   7.192  65.058  1.00  0.00    -0.037 N  
HETATM    3  C   UNL     1      -5.299   8.165  64.899  1.00  0.00    -0.036 C  
ENDROOT
BRANCH   2   4
HETATM    4  S   UNL     1      -7.524   7.133  63.777  1.00  0.00    -0.106 S  
HETATM    5  O   UNL     1      -8.488   6.086  64.074  1.00  0.00    -0.027 OA 
HETATM    6  O   UNL     1      -6.807   7.159  62.523  1.00  0.00    -0.057 OA 
BRANCH   4   7
HETATM    7  C   UNL     1      -8.377   8.692  63.958  1.00  0.00    -0.120 A  
HETATM    8  C   UNL     1      -8.613   9.189  65.248  1.00  0.00    -0.191 A  
HETATM    9  C   UNL     1      -9.320  10.381  65.527  1.00  0.00    -0.244 A  
HETATM   10  C   UNL     1      -9.759  11.062  64.378  1.00  0.00    -0.280 A  
HETATM   11  S   UNL     1     -10.622  12.603  64.368  1.00  0.00    -0.387 SA 
HETATM   12  C   UNL     1      -9.512  10.564  63.071  1.00  0.00    -0.364 A  
HETATM   13  C   UNL     1     -10.964  12.920  66.070  1.00  0.00    -0.276 A  
HETATM   14  C   UNL     1      -8.811   9.387  62.854  1.00  0.00    -0.216 A  
HETATM   15  C   UNL     1     -11.770  14.065  66.267  1.00  0.00    -0.401 A  
HETATM   16  C   UNL     1     -12.154  14.475  67.533  1.00  0.00    -0.284 A  
HETATM   17  C   UNL     1     -11.743  13.728  68.620  1.00  0.00    -0.391 A  
HETATM   18  C   UNL     1     -10.947  12.586  68.434  1.00  0.00    -0.277 A  
HETATM   19  C   UNL     1     -10.510  12.148  67.158  1.00  0.00    -0.241 A  
HETATM   20  C   UNL     1      -9.622  10.910  66.948  1.00  0.00    -0.203 C  
HETATM   21  C   UNL     1      -9.111  10.318  68.074  1.00  0.00    -0.132 C  
HETATM   22  C   UNL     1      -8.228   9.100  68.160  1.00  0.00    -0.116 C  
BRANCH  22  23
HETATM   23  C   UNL     1      -7.582   8.583  69.452  1.00  0.00    -0.090 C  
BRANCH  23  24
HETATM   24  N   UNL     1      -8.636   8.090  70.381  1.00  0.00    -0.130 NA 
HETATM   25  C   UNL     1      -9.909   7.670  69.738  1.00  0.00    -0.181 C  
HETATM   26  C   UNL     1      -9.909   6.289  69.026  1.00  0.00    -0.143 C  
HETATM   27  N   UNL     1      -9.195   5.181  69.698  1.00  0.00    -0.114 NA 
HETATM   28  C   UNL     1      -7.969   5.669  70.353  1.00  0.00    -0.104 C  
HETATM   29  C   UNL     1     -10.049   4.470  70.646  1.00  0.00    -0.162 C  
HETATM   30  C   UNL     1      -8.164   6.951  71.188  1.00  0.00    -0.118 C  
ENDBRANCH  23  24
ENDBRANCH  22  23
ENDBRANCH   4   7
ENDBRANCH   2   4
TORSDOF 4
ENDMDL
MODEL      119
REMARK 921   NORMALIZED FREE ENERGY PREDICTED BY IDOCK:   -4.16 KCAL/MOL
REMARK 922        TOTAL FREE ENERGY PREDICTED BY IDOCK:   -5.78 KCAL/MOL
REMARK 923 INTER-LIGAND FREE ENERGY PREDICTED BY IDOCK:   -6.16 KCAL/MOL
REMARK 924 INTRA-LIGAND FREE ENERGY PREDICTED BY IDOCK:    0.38 KCAL/MOL
REMARK 927      BINDING AFFINITY PREDICTED BY RF-SCORE:    0.00 PKD
ROOT
HETATM    1  C   UNL     1     -12.367  13.697  65.571  1.00  0.00    -0.482 C  
HETATM    2  N   UNL     1     -11.313  14.688  65.285  1.00  0.00    -0.341 N  
HETATM    3  C   UNL     1     -11.747  15.757  64.365  1.00  0.00    -0.201 C  
ENDROOT
BRANCH   2   4
HETATM    4  S   UNL     1     -10.349  15.191  66.602  1.00  0.00    -0.282 S  
HETATM    5  O   UNL     1     -10.544  16.621  66.782  1.00  0.00    -0.293 OA 
HETATM    6  O   UNL     1      -9.027  14.627  66.454  1.00  0.00    -0.244 OA 
BRANCH   4   7
HETATM    7  C   UNL     1     -11.145  14.380  67.979  1.00  0.00    -0.272 A  
HETATM    8  C   UNL     1     -10.829  13.041  68.253  1.00  0.00    -0.267 A  
HETATM    9  C   UNL     1     -11.425  12.274  69.279  1.00  0.00    -0.352 A  
HETATM   10  C   UNL     1     -12.370  12.983  70.042  1.00  0.00    -0.152 A  
HETATM   11  S   UNL     1     -13.257  12.342  71.427  1.00  0.00     0.071 SA 
HETATM   12  C   UNL     1     -12.684  14.342  69.771  1.00  0.00    -0.025 A  
HETATM   13  C   UNL     1     -12.842  10.626  71.452  1.00  0.00    -0.451 A  
HETATM   14  C   UNL     1     -12.067  15.049  68.751  1.00  0.00    -0.215 A  
HETATM   15  C   UNL     1     -13.560   9.898  72.429  1.00  0.00    -0.258 A  
HETATM   16  C   UNL     1     -13.380   8.536  72.598  1.00  0.00    -0.191 A  
HETATM   17  C   UNL     1     -12.484   7.882  71.776  1.00  0.00    -0.352 A  
HETATM   18  C   UNL     1     -11.769   8.595  70.798  1.00  0.00    -0.239 A  
HETATM   19  C   UNL     1     -11.905   9.995  70.610  1.00  0.00    -0.411 A  
HETATM   20  C   UNL     1     -11.112  10.786  69.556  1.00  0.00    -0.334 C  
HETATM   21  C   UNL     1     -10.120  10.110  68.894  1.00  0.00    -0.211 C  
HETATM   22  C   UNL     1      -9.204  10.632  67.818  1.00  0.00    -0.151 C  
BRANCH  22  23
HETATM   23  C   UNL     1      -8.023   9.851  67.225  1.00  0.00    -0.109 C  
BRANCH  23  24
HETATM   24  N   UNL     1      -6.775  10.187  67.964  1.00  0.00    -0.063 NA 
HETATM   25  C   UNL     1      -6.969  10.842  69.284  1.00  0.00    -0.112 C  
HETATM   26  C   UNL     1      -7.404   9.926  70.461  1.00  0.00    -0.068 C  
HETATM   27  N   UNL     1      -6.766   8.594  70.553  1.00  0.00    -0.037 NA 
HETATM   28  C   UNL     1      -6.558   8.019  69.213  1.00  0.00    -0.036 C  
HETATM   29  C   UNL     1      -5.515   8.634  71.306  1.00  0.00    -0.035 C  
HETATM   30  C   UNL     1      -5.938   8.996  68.193  1.00  0.00    -0.046 C  
ENDBRANCH  23  24
ENDBRANCH  22  23
ENDBRANCH   4   7
ENDBRANCH   2   4
TORSDOF 4
ENDMDL
MODEL      120
REMARK 921   NORMALIZED FREE ENERGY PREDICTED BY IDOCK:   -4.16 KCAL/MOL
REMARK 922        TOTAL FREE ENERGY PREDICTED BY IDOCK:   -5.78 KCAL/MOL
REMARK 923 INTER-LIGAND FREE ENERGY PREDICTED BY IDOCK:   -5.50 KCAL/MOL
REMARK 924 INTRA-LIGAND FREE ENERGY PREDICTED BY IDOCK:   -0.28 KCAL/MOL
REMARK 927      BINDING AFFINITY PREDICTED BY RF-SCORE:    0.00 PKD
ROOT
HETATM    1  C   UNL     1     -10.764  18.533  67.746  1.00  0.00    -0.339 C  
HETATM    2  N   UNL     1     -10.109  19.833  67.981  1.00  0.00    -0.423 N  
HETATM    3  C   UNL     1     -10.284  20.339  69.356  1.00  0.00     0.147 C  
ENDROOT
BRANCH   2   4
HETATM    4  S   UNL     1      -8.556  20.048  67.305  1.00  0.00    -0.344 S  
HETATM    5  O   UNL     1      -8.049  21.339  67.744  1.00  0.00    -0.025 OA 
HETATM    6  O   UNL     1      -8.605  19.699  65.904  1.00  0.00    -0.396 OA 
BRANCH   4   7
HETATM    7  C   UNL     1      -7.603  18.799  68.153  1.00  0.00    -0.272 A  
HETATM    8  C   UNL     1      -7.823  17.450  67.840  1.00  0.00    -0.201 A  
HETATM    9  C   UNL     1      -7.172  16.368  68.475  1.00  0.00    -0.170 A  
HETATM   10  C   UNL     1      -6.243  16.759  69.455  1.00  0.00    -0.227 A  
HETATM   11  S   UNL     1      -5.226  15.666  70.397  1.00  0.00    -0.154 SA 
HETATM   12  C   UNL     1      -6.014  18.126  69.767  1.00  0.00    -0.231 A  
HETATM   13  C   UNL     1      -5.810  14.055  69.972  1.00  0.00    -0.133 A  
HETATM   14  C   UNL     1      -6.681  19.150  69.111  1.00  0.00    -0.346 A  
HETATM   15  C   UNL     1      -5.195  13.028  70.726  1.00  0.00    -0.148 A  
HETATM   16  C   UNL     1      -5.527  11.696  70.545  1.00  0.00    -0.144 A  
HETATM   17  C   UNL     1      -6.492  11.378  69.610  1.00  0.00    -0.133 A  
HETATM   18  C   UNL     1      -7.112  12.391  68.859  1.00  0.00    -0.078 A  
HETATM   19  C   UNL     1      -6.783  13.764  68.996  1.00  0.00    -0.111 A  
HETATM   20  C   UNL     1      -7.443  14.877  68.165  1.00  0.00    -0.118 C  
HETATM   21  C   UNL     1      -8.263  14.479  67.141  1.00  0.00    -0.214 C  
HETATM   22  C   UNL     1      -9.037  15.349  66.183  1.00  0.00    -0.339 C  
BRANCH  22  23
HETATM   23  C   UNL     1      -9.822  14.826  64.973  1.00  0.00    -0.036 C  
BRANCH  23  24
HETATM   24  N   UNL     1     -11.131  14.274  65.421  1.00  0.00    -0.314 NA 
HETATM   25  C   UNL     1     -12.289  14.579  64.539  1.00  0.00    -0.414 C  
HETATM   26  C   UNL     1     -12.404  13.752  63.229  1.00  0.00     0.155 C  
HETATM   27  N   UNL     1     -12.087  12.309  63.308  1.00  0.00    -0.474 NA 
HETATM   28  C   UNL     1     -10.964  12.069  64.231  1.00  0.00    -0.346 C  
HETATM   29  C   UNL     1     -13.252  11.510  63.681  1.00  0.00     0.609 C  
HETATM   30  C   UNL     1     -11.082  12.811  65.578  1.00  0.00    -0.285 C  
ENDBRANCH  23  24
ENDBRANCH  22  23
ENDBRANCH   4   7
ENDBRANCH   2   4
TORSDOF 4
ENDMDL
MODEL      121
REMARK 921   NORMALIZED FREE ENERGY PREDICTED BY IDOCK:   -4.14 KCAL/MOL
REMARK 922        TOTAL FREE ENERGY PREDICTED BY IDOCK:   -5.75 KCAL/MOL
REMARK 923 INTER-LIGAND FREE ENERGY PREDICTED BY IDOCK:   -5.16 KCAL/MOL
REMARK 924 INTRA-LIGAND FREE ENERGY PREDICTED BY IDOCK:   -0.60 KCAL/MOL
REMARK 927      BINDING AFFINITY PREDICTED BY RF-SCORE:    0.00 PKD
ROOT
HETATM    1  C   UNL     1     -10.195  11.821  66.757  1.00  0.00    -0.211 C  
HETATM    2  N   UNL     1      -9.868  10.703  65.854  1.00  0.00    -0.230 N  
HETATM    3  C   UNL     1     -10.260  10.946  64.452  1.00  0.00    -0.358 C  
ENDROOT
BRANCH   2   4
HETATM    4  S   UNL     1      -8.354   9.947  66.078  1.00  0.00    -0.125 S  
HETATM    5  O   UNL     1      -7.321  10.963  65.956  1.00  0.00    -0.142 OA 
HETATM    6  O   UNL     1      -8.314   8.739  65.288  1.00  0.00    -0.141 OA 
BRANCH   4   7
HETATM    7  C   UNL     1      -8.421   9.478  67.800  1.00  0.00    -0.119 A  
HETATM    8  C   UNL     1      -9.007   8.252  68.147  1.00  0.00    -0.139 A  
HETATM    9  C   UNL     1      -9.168   7.791  69.472  1.00  0.00    -0.149 A  
HETATM   10  C   UNL     1      -8.659   8.670  70.445  1.00  0.00    -0.153 A  
HETATM   11  S   UNL     1      -8.650   8.377  72.186  1.00  0.00    -0.180 SA 
HETATM   12  C   UNL     1      -8.057   9.908  70.094  1.00  0.00    -0.169 A  
HETATM   13  C   UNL     1      -9.592   6.897  72.382  1.00  0.00    -0.153 A  
HETATM   14  C   UNL     1      -7.924  10.312  68.774  1.00  0.00    -0.113 A  
HETATM   15  C   UNL     1      -9.809   6.556  73.738  1.00  0.00    -0.247 A  
HETATM   16  C   UNL     1     -10.534   5.433  74.098  1.00  0.00    -0.310 A  
HETATM   17  C   UNL     1     -11.063   4.641  73.097  1.00  0.00    -0.371 A  
HETATM   18  C   UNL     1     -10.857   4.974  71.747  1.00  0.00    -0.094 A  
HETATM   19  C   UNL     1     -10.099   6.101  71.337  1.00  0.00    -0.230 A  
HETATM   20  C   UNL     1      -9.853   6.461  69.862  1.00  0.00    -0.191 C  
HETATM   21  C   UNL     1     -10.257   5.543  68.927  1.00  0.00    -0.284 C  
HETATM   22  C   UNL     1     -10.148   5.641  67.427  1.00  0.00    -0.206 C  
BRANCH  22  23
HETATM   23  C   UNL     1     -10.497   4.508  66.453  1.00  0.00    -0.058 C  
BRANCH  23  24
HETATM   24  N   UNL     1      -9.772   4.706  65.167  1.00  0.00    -0.142 NA 
HETATM   25  C   UNL     1      -8.314   4.968  65.289  1.00  0.00    -0.135 C  
HETATM   26  C   UNL     1      -7.408   3.744  65.596  1.00  0.00    -0.072 C  
HETATM   27  N   UNL     1      -7.723   2.478  64.898  1.00  0.00    -0.072 NA 
HETATM   28  C   UNL     1      -9.179   2.299  64.768  1.00  0.00    -0.131 C  
HETATM   29  C   UNL     1      -7.065   2.388  63.597  1.00  0.00    -0.041 C  
HETATM   30  C   UNL     1      -9.929   3.551  64.267  1.00  0.00    -0.191 C  
ENDBRANCH  23  24
ENDBRANCH  22  23
ENDBRANCH   4   7
ENDBRANCH   2   4
TORSDOF 4
ENDMDL
MODEL      122
REMARK 921   NORMALIZED FREE ENERGY PREDICTED BY IDOCK:   -4.13 KCAL/MOL
REMARK 922        TOTAL FREE ENERGY PREDICTED BY IDOCK:   -5.74 KCAL/MOL
REMARK 923 INTER-LIGAND FREE ENERGY PREDICTED BY IDOCK:   -5.18 KCAL/MOL
REMARK 924 INTRA-LIGAND FREE ENERGY PREDICTED BY IDOCK:   -0.56 KCAL/MOL
REMARK 927      BINDING AFFINITY PREDICTED BY RF-SCORE:    0.00 PKD
ROOT
HETATM    1  C   UNL     1      -8.770   4.565  62.913  1.00  0.00    -0.118 C  
HETATM    2  N   UNL     1      -9.006   4.310  64.346  1.00  0.00    -0.143 N  
HETATM    3  C   UNL     1     -10.269   3.596  64.616  1.00  0.00    -0.140 C  
ENDROOT
BRANCH   2   4
HETATM    4  S   UNL     1      -7.661   3.810  65.273  1.00  0.00    -0.082 S  
HETATM    5  O   UNL     1      -6.669   4.873  65.236  1.00  0.00    -0.049 OA 
HETATM    6  O   UNL     1      -7.322   2.454  64.908  1.00  0.00    -0.059 OA 
BRANCH   4   7
HETATM    7  C   UNL     1      -8.335   3.785  66.926  1.00  0.00    -0.100 A  
HETATM    8  C   UNL     1      -8.601   5.004  67.568  1.00  0.00    -0.104 A  
HETATM    9  C   UNL     1      -9.085   5.120  68.891  1.00  0.00    -0.135 A  
HETATM   10  C   UNL     1      -9.310   3.884  69.524  1.00  0.00    -0.176 A  
HETATM   11  S   UNL     1      -9.959   3.671  71.151  1.00  0.00     0.064 SA 
HETATM   12  C   UNL     1      -9.050   2.650  68.871  1.00  0.00    -0.200 A  
HETATM   13  C   UNL     1     -10.028   5.307  71.810  1.00  0.00    -0.190 A  
HETATM   14  C   UNL     1      -8.575   2.594  67.569  1.00  0.00    -0.121 A  
HETATM   15  C   UNL     1     -10.411   5.339  73.171  1.00  0.00    -0.251 A  
HETATM   16  C   UNL     1     -10.514   6.530  73.870  1.00  0.00    -0.329 A  
HETATM   17  C   UNL     1     -10.220   7.708  73.211  1.00  0.00    -0.398 A  
HETATM   18  C   UNL     1      -9.833   7.686  71.860  1.00  0.00    -0.205 A  
HETATM   19  C   UNL     1      -9.740   6.491  71.103  1.00  0.00    -0.188 A  
HETATM   20  C   UNL     1      -9.337   6.461  69.618  1.00  0.00    -0.148 C  
HETATM   21  C   UNL     1      -9.226   7.671  68.984  1.00  0.00    -0.140 C  
HETATM   22  C   UNL     1      -8.841   7.933  67.551  1.00  0.00    -0.128 C  
BRANCH  22  23
HETATM   23  C   UNL     1      -8.877   9.311  66.877  1.00  0.00    -0.127 C  
BRANCH  23  24
HETATM   24  N   UNL     1     -10.241   9.575  66.341  1.00  0.00    -0.256 NA 
HETATM   25  C   UNL     1     -11.150  10.325  67.246  1.00  0.00    -0.142 C  
HETATM   26  C   UNL     1     -10.914  11.856  67.362  1.00  0.00    -0.263 C  
HETATM   27  N   UNL     1     -10.589  12.586  66.117  1.00  0.00    -0.249 NA 
HETATM   28  C   UNL     1      -9.724  11.774  65.243  1.00  0.00    -0.211 C  
HETATM   29  C   UNL     1     -11.787  13.026  65.407  1.00  0.00    -0.388 C  
HETATM   30  C   UNL     1     -10.194  10.315  65.068  1.00  0.00    -0.207 C  
ENDBRANCH  23  24
ENDBRANCH  22  23
ENDBRANCH   4   7
ENDBRANCH   2   4
TORSDOF 4
ENDMDL
MODEL      123
REMARK 921   NORMALIZED FREE ENERGY PREDICTED BY IDOCK:   -4.07 KCAL/MOL
REMARK 922        TOTAL FREE ENERGY PREDICTED BY IDOCK:   -5.67 KCAL/MOL
REMARK 923 INTER-LIGAND FREE ENERGY PREDICTED BY IDOCK:   -5.08 KCAL/MOL
REMARK 924 INTRA-LIGAND FREE ENERGY PREDICTED BY IDOCK:   -0.59 KCAL/MOL
REMARK 927      BINDING AFFINITY PREDICTED BY RF-SCORE:    0.00 PKD
ROOT
HETATM    1  C   UNL     1     -11.759  14.971  64.617  1.00  0.00    -0.382 C  
HETATM    2  N   UNL     1     -11.357  14.244  65.836  1.00  0.00    -0.322 N  
HETATM    3  C   UNL     1     -12.216  14.532  67.001  1.00  0.00    -0.164 C  
ENDROOT
BRANCH   2   4
HETATM    4  S   UNL     1     -10.895  12.612  65.644  1.00  0.00    -0.283 S  
HETATM    5  O   UNL     1     -10.340  12.455  64.309  1.00  0.00    -0.325 OA 
HETATM    6  O   UNL     1     -11.966  11.765  66.115  1.00  0.00    -0.464 OA 
BRANCH   4   7
HETATM    7  C   UNL     1      -9.534  12.471  66.792  1.00  0.00    -0.231 A  
HETATM    8  C   UNL     1      -9.372  11.276  67.508  1.00  0.00    -0.166 A  
HETATM    9  C   UNL     1      -8.370  11.058  68.480  1.00  0.00    -0.149 A  
HETATM   10  C   UNL     1      -7.508  12.154  68.663  1.00  0.00    -0.105 A  
HETATM   11  S   UNL     1      -6.123  12.197  69.758  1.00  0.00    -0.137 SA 
HETATM   12  C   UNL     1      -7.667  13.362  67.932  1.00  0.00    -0.153 A  
HETATM   13  C   UNL     1      -6.240  10.687  70.665  1.00  0.00    -0.044 A  
HETATM   14  C   UNL     1      -8.669  13.522  66.988  1.00  0.00    -0.197 A  
HETATM   15  C   UNL     1      -5.277  10.586  71.696  1.00  0.00    -0.016 A  
HETATM   16  C   UNL     1      -5.212   9.479  72.525  1.00  0.00    -0.061 A  
HETATM   17  C   UNL     1      -6.126   8.461  72.336  1.00  0.00    -0.067 A  
HETATM   18  C   UNL     1      -7.090   8.554  71.318  1.00  0.00    -0.078 A  
HETATM   19  C   UNL     1      -7.174   9.658  70.432  1.00  0.00    -0.147 A  
HETATM   20  C   UNL     1      -8.213   9.759  69.303  1.00  0.00    -0.132 C  
HETATM   21  C   UNL     1      -8.974   8.643  69.064  1.00  0.00    -0.142 C  
HETATM   22  C   UNL     1     -10.061   8.468  68.035  1.00  0.00    -0.245 C  
BRANCH  22  23
HETATM   23  C   UNL     1     -10.771   7.141  67.735  1.00  0.00    -0.212 C  
BRANCH  23  24
HETATM   24  N   UNL     1     -10.237   6.557  66.474  1.00  0.00    -0.116 NA 
HETATM   25  C   UNL     1      -8.758   6.594  66.328  1.00  0.00    -0.145 C  
HETATM   26  C   UNL     1      -7.950   5.545  67.141  1.00  0.00    -0.102 C  
HETATM   27  N   UNL     1      -8.500   4.174  67.212  1.00  0.00    -0.099 NA 
HETATM   28  C   UNL     1      -9.970   4.204  67.309  1.00  0.00    -0.038 C  
HETATM   29  C   UNL     1      -8.065   3.347  66.089  1.00  0.00    -0.092 C  
HETATM   30  C   UNL     1     -10.651   5.154  66.303  1.00  0.00    -0.266 C  
ENDBRANCH  23  24
ENDBRANCH  22  23
ENDBRANCH   4   7
ENDBRANCH   2   4
TORSDOF 4
ENDMDL
MODEL      124
REMARK 921   NORMALIZED FREE ENERGY PREDICTED BY IDOCK:   -4.06 KCAL/MOL
REMARK 922        TOTAL FREE ENERGY PREDICTED BY IDOCK:   -5.65 KCAL/MOL
REMARK 923 INTER-LIGAND FREE ENERGY PREDICTED BY IDOCK:   -6.21 KCAL/MOL
REMARK 924 INTRA-LIGAND FREE ENERGY PREDICTED BY IDOCK:    0.55 KCAL/MOL
REMARK 927      BINDING AFFINITY PREDICTED BY RF-SCORE:    0.00 PKD
ROOT
HETATM    1  C   UNL     1      -6.557   5.393  69.964  1.00  0.00    -0.046 C  
HETATM    2  N   UNL     1      -6.639   4.328  68.947  1.00  0.00    -0.044 N  
HETATM    3  C   UNL     1      -5.440   3.470  68.898  1.00  0.00    -0.013 C  
ENDROOT
BRANCH   2   4
HETATM    4  S   UNL     1      -8.135   3.519  68.797  1.00  0.00    -0.061 S  
HETATM    5  O   UNL     1      -8.051   2.276  69.547  1.00  0.00    -0.045 OA 
HETATM    6  O   UNL     1      -8.535   3.532  67.409  1.00  0.00    -0.093 OA 
BRANCH   4   7
HETATM    7  C   UNL     1      -9.235   4.597  69.700  1.00  0.00    -0.124 A  
HETATM    8  C   UNL     1      -9.511   5.872  69.183  1.00  0.00    -0.151 A  
HETATM    9  C   UNL     1     -10.322   6.835  69.824  1.00  0.00    -0.226 A  
HETATM   10  C   UNL     1     -10.867   6.397  71.044  1.00  0.00    -0.262 A  
HETATM   11  S   UNL     1     -11.961   7.328  72.071  1.00  0.00    -0.283 SA 
HETATM   12  C   UNL     1     -10.595   5.103  71.564  1.00  0.00    -0.217 A  
HETATM   13  C   UNL     1     -12.000   8.927  71.324  1.00  0.00    -0.307 A  
HETATM   14  C   UNL     1      -9.791   4.195  70.892  1.00  0.00    -0.247 A  
HETATM   15  C   UNL     1     -12.737   9.870  72.079  1.00  0.00    -0.456 A  
HETATM   16  C   UNL     1     -12.877  11.184  71.663  1.00  0.00    -0.524 A  
HETATM   17  C   UNL     1     -12.266  11.571  70.486  1.00  0.00    -0.469 A  
HETATM   18  C   UNL     1     -11.528  10.642  69.732  1.00  0.00    -0.375 A  
HETATM   19  C   UNL     1     -11.382   9.283  70.110  1.00  0.00    -0.193 A  
HETATM   20  C   UNL     1     -10.593   8.256  69.280  1.00  0.00    -0.191 C  
HETATM   21  C   UNL     1     -10.160   8.663  68.044  1.00  0.00    -0.241 C  
HETATM   22  C   UNL     1      -9.365   7.873  67.036  1.00  0.00    -0.200 C  
BRANCH  22  23
HETATM   23  C   UNL     1      -9.040   8.353  65.615  1.00  0.00    -0.097 C  
BRANCH  23  24
HETATM   24  N   UNL     1      -8.655   9.791  65.644  1.00  0.00    -0.136 NA 
HETATM   25  C   UNL     1      -8.178  10.351  64.352  1.00  0.00    -0.125 C  
HETATM   26  C   UNL     1      -9.265  10.677  63.290  1.00  0.00    -0.278 C  
HETATM   27  N   UNL     1     -10.520  11.295  63.773  1.00  0.00    -0.372 NA 
HETATM   28  C   UNL     1     -10.913  10.732  65.077  1.00  0.00     0.148 C  
HETATM   29  C   UNL     1     -10.427  12.751  63.838  1.00  0.00    -0.372 C  
HETATM   30  C   UNL     1      -9.763  10.646  66.102  1.00  0.00    -0.205 C  
ENDBRANCH  23  24
ENDBRANCH  22  23
ENDBRANCH   4   7
ENDBRANCH   2   4
TORSDOF 4
ENDMDL
MODEL      125
REMARK 921   NORMALIZED FREE ENERGY PREDICTED BY IDOCK:   -4.04 KCAL/MOL
REMARK 922        TOTAL FREE ENERGY PREDICTED BY IDOCK:   -5.63 KCAL/MOL
REMARK 923 INTER-LIGAND FREE ENERGY PREDICTED BY IDOCK:   -5.19 KCAL/MOL
REMARK 924 INTRA-LIGAND FREE ENERGY PREDICTED BY IDOCK:   -0.44 KCAL/MOL
REMARK 927      BINDING AFFINITY PREDICTED BY RF-SCORE:    0.00 PKD
ROOT
HETATM    1  C   UNL     1      -9.849   5.072  73.627  1.00  0.00    -0.154 C  
HETATM    2  N   UNL     1      -9.993   6.129  72.609  1.00  0.00    -0.174 N  
HETATM    3  C   UNL     1      -8.733   6.449  71.911  1.00  0.00    -0.134 C  
ENDROOT
BRANCH   2   4
HETATM    4  S   UNL     1     -11.388   6.069  71.626  1.00  0.00    -0.212 S  
HETATM    5  O   UNL     1     -12.516   5.699  72.467  1.00  0.00    -0.056 OA 
HETATM    6  O   UNL     1     -11.079   5.335  70.422  1.00  0.00    -0.063 OA 
BRANCH   4   7
HETATM    7  C   UNL     1     -11.609   7.785  71.185  1.00  0.00    -0.281 A  
HETATM    8  C   UNL     1     -10.709   8.376  70.286  1.00  0.00    -0.240 A  
HETATM    9  C   UNL     1     -10.744   9.734  69.898  1.00  0.00    -0.303 A  
HETATM   10  C   UNL     1     -11.797  10.464  70.479  1.00  0.00    -0.337 A  
HETATM   11  S   UNL     1     -12.158  12.164  70.169  1.00  0.00    -0.225 SA 
HETATM   12  C   UNL     1     -12.714   9.864  71.383  1.00  0.00    -0.503 A  
HETATM   13  C   UNL     1     -10.805  12.723  69.182  1.00  0.00    -0.075 A  
HETATM   14  C   UNL     1     -12.633   8.524  71.730  1.00  0.00    -0.387 A  
HETATM   15  C   UNL     1     -10.846  14.113  68.927  1.00  0.00    -0.276 A  
HETATM   16  C   UNL     1      -9.866  14.743  68.177  1.00  0.00    -0.221 A  
HETATM   17  C   UNL     1      -8.823  13.983  67.684  1.00  0.00    -0.190 A  
HETATM   18  C   UNL     1      -8.771  12.602  67.937  1.00  0.00    -0.181 A  
HETATM   19  C   UNL     1      -9.767  11.915  68.678  1.00  0.00    -0.116 A  
HETATM   20  C   UNL     1      -9.728  10.400  68.942  1.00  0.00    -0.203 C  
HETATM   21  C   UNL     1      -8.763   9.683  68.283  1.00  0.00    -0.120 C  
HETATM   22  C   UNL     1      -8.494   8.203  68.362  1.00  0.00    -0.126 C  
BRANCH  22  23
HETATM   23  C   UNL     1      -7.484   7.453  67.484  1.00  0.00    -0.100 C  
BRANCH  23  24
HETATM   24  N   UNL     1      -7.181   6.125  68.085  1.00  0.00    -0.082 NA 
HETATM   25  C   UNL     1      -8.331   5.187  68.176  1.00  0.00    -0.097 C  
HETATM   26  C   UNL     1      -8.760   4.479  66.861  1.00  0.00    -0.111 C  
HETATM   27  N   UNL     1      -7.683   4.005  65.965  1.00  0.00    -0.089 NA 
HETATM   28  C   UNL     1      -6.555   4.953  65.954  1.00  0.00    -0.045 C  
HETATM   29  C   UNL     1      -7.233   2.659  66.309  1.00  0.00    -0.065 C  
HETATM   30  C   UNL     1      -6.111   5.425  67.354  1.00  0.00    -0.030 C  
ENDBRANCH  23  24
ENDBRANCH  22  23
ENDBRANCH   4   7
ENDBRANCH   2   4
TORSDOF 4
ENDMDL
MODEL      126
REMARK 921   NORMALIZED FREE ENERGY PREDICTED BY IDOCK:   -3.99 KCAL/MOL
REMARK 922        TOTAL FREE ENERGY PREDICTED BY IDOCK:   -5.57 KCAL/MOL
REMARK 923 INTER-LIGAND FREE ENERGY PREDICTED BY IDOCK:   -4.74 KCAL/MOL
REMARK 924 INTRA-LIGAND FREE ENERGY PREDICTED BY IDOCK:   -0.83 KCAL/MOL
REMARK 927      BINDING AFFINITY PREDICTED BY RF-SCORE:    0.00 PKD
ROOT
HETATM    1  C   UNL     1      -7.531   6.452  71.262  1.00  0.00    -0.089 C  
HETATM    2  N   UNL     1      -7.290   7.802  71.803  1.00  0.00    -0.065 N  
HETATM    3  C   UNL     1      -7.612   7.927  73.238  1.00  0.00    -0.131 C  
ENDROOT
BRANCH   2   4
HETATM    4  S   UNL     1      -5.867   8.595  71.292  1.00  0.00    -0.046 S  
HETATM    5  O   UNL     1      -5.166   7.714  70.372  1.00  0.00    -0.023 OA 
HETATM    6  O   UNL     1      -5.203   9.152  72.448  1.00  0.00    -0.060 OA 
BRANCH   4   7
HETATM    7  C   UNL     1      -6.518   9.947  70.324  1.00  0.00    -0.103 A  
HETATM    8  C   UNL     1      -7.757   9.788  69.686  1.00  0.00    -0.136 A  
HETATM    9  C   UNL     1      -8.356  10.759  68.853  1.00  0.00    -0.147 A  
HETATM   10  C   UNL     1      -7.604  11.941  68.727  1.00  0.00    -0.090 A  
HETATM   11  S   UNL     1      -8.085  13.369  67.807  1.00  0.00    -0.190 SA 
HETATM   12  C   UNL     1      -6.353  12.106  69.381  1.00  0.00    -0.116 A  
HETATM   13  C   UNL     1      -9.550  12.865  66.959  1.00  0.00    -0.231 A  
HETATM   14  C   UNL     1      -5.811  11.119  70.189  1.00  0.00    -0.124 A  
HETATM   15  C   UNL     1     -10.030  13.844  66.058  1.00  0.00    -0.325 A  
HETATM   16  C   UNL     1     -11.164  13.632  65.291  1.00  0.00    -0.307 A  
HETATM   17  C   UNL     1     -11.825  12.426  65.412  1.00  0.00    -0.460 A  
HETATM   18  C   UNL     1     -11.353  11.445  66.301  1.00  0.00    -0.140 A  
HETATM   19  C   UNL     1     -10.211  11.633  67.122  1.00  0.00    -0.240 A  
HETATM   20  C   UNL     1      -9.700  10.572  68.112  1.00  0.00    -0.166 C  
HETATM   21  C   UNL     1     -10.496   9.473  68.306  1.00  0.00    -0.265 C  
HETATM   22  C   UNL     1     -10.239   8.290  69.202  1.00  0.00    -0.223 C  
BRANCH  22  23
HETATM   23  C   UNL     1     -11.247   7.165  69.472  1.00  0.00    -0.087 C  
BRANCH  23  24
HETATM   24  N   UNL     1     -11.500   7.054  70.934  1.00  0.00    -0.292 NA 
HETATM   25  C   UNL     1     -11.105   8.237  71.744  1.00  0.00    -0.278 C  
HETATM   26  C   UNL     1     -12.050   9.468  71.688  1.00  0.00    -0.398 C  
HETATM   27  N   UNL     1     -13.506   9.205  71.701  1.00  0.00    -0.377 NA 
HETATM   28  C   UNL     1     -13.828   7.997  70.922  1.00  0.00     0.258 C  
HETATM   29  C   UNL     1     -14.036   9.109  73.060  1.00  0.00     0.254 C  
HETATM   30  C   UNL     1     -12.919   6.787  71.225  1.00  0.00    -0.146 C  
ENDBRANCH  23  24
ENDBRANCH  22  23
ENDBRANCH   4   7
ENDBRANCH   2   4
TORSDOF 4
ENDMDL
MODEL      127
REMARK 921   NORMALIZED FREE ENERGY PREDICTED BY IDOCK:   -3.99 KCAL/MOL
REMARK 922        TOTAL FREE ENERGY PREDICTED BY IDOCK:   -5.57 KCAL/MOL
REMARK 923 INTER-LIGAND FREE ENERGY PREDICTED BY IDOCK:   -4.92 KCAL/MOL
REMARK 924 INTRA-LIGAND FREE ENERGY PREDICTED BY IDOCK:   -0.65 KCAL/MOL
REMARK 927      BINDING AFFINITY PREDICTED BY RF-SCORE:    0.00 PKD
ROOT
HETATM    1  C   UNL     1     -13.392   7.995  71.441  1.00  0.00    -0.224 C  
HETATM    2  N   UNL     1     -12.351   8.788  70.759  1.00  0.00    -0.067 N  
HETATM    3  C   UNL     1     -12.762  10.177  70.477  1.00  0.00    -0.197 C  
ENDROOT
BRANCH   2   4
HETATM    4  S   UNL     1     -10.746   8.587  71.307  1.00  0.00    -0.259 S  
HETATM    5  O   UNL     1     -10.778   7.756  72.499  1.00  0.00    -0.259 OA 
HETATM    6  O   UNL     1     -10.090   9.874  71.307  1.00  0.00     0.059 OA 
BRANCH   4   7
HETATM    7  C   UNL     1     -10.028   7.600  70.004  1.00  0.00    -0.190 A  
HETATM    8  C   UNL     1      -9.696   8.219  68.789  1.00  0.00    -0.160 A  
HETATM    9  C   UNL     1      -9.170   7.541  67.666  1.00  0.00    -0.135 A  
HETATM   10  C   UNL     1      -8.977   6.164  67.873  1.00  0.00    -0.112 A  
HETATM   11  S   UNL     1      -8.291   5.037  66.699  1.00  0.00    -0.106 SA 
HETATM   12  C   UNL     1      -9.305   5.538  69.106  1.00  0.00    -0.158 A  
HETATM   13  C   UNL     1      -8.139   5.991  65.221  1.00  0.00    -0.134 A  
HETATM   14  C   UNL     1      -9.818   6.252  70.178  1.00  0.00    -0.201 A  
HETATM   15  C   UNL     1      -7.716   5.224  64.110  1.00  0.00    -0.083 A  
HETATM   16  C   UNL     1      -7.545   5.790  62.858  1.00  0.00    -0.077 A  
HETATM   17  C   UNL     1      -7.811   7.137  62.703  1.00  0.00    -0.135 A  
HETATM   18  C   UNL     1      -8.236   7.906  63.799  1.00  0.00    -0.011 A  
HETATM   19  C   UNL     1      -8.398   7.370  65.102  1.00  0.00    -0.085 A  
HETATM   20  C   UNL     1      -8.844   8.210  66.311  1.00  0.00    -0.193 C  
HETATM   21  C   UNL     1      -8.924   9.566  66.125  1.00  0.00    -0.191 C  
HETATM   22  C   UNL     1      -9.338  10.615  67.125  1.00  0.00    -0.172 C  
BRANCH  22  23
HETATM   23  C   UNL     1      -9.266  12.128  66.881  1.00  0.00    -0.203 C  
BRANCH  23  24
HETATM   24  N   UNL     1      -9.154  12.844  68.181  1.00  0.00    -0.205 NA 
HETATM   25  C   UNL     1      -8.471  14.163  68.128  1.00  0.00    -0.173 C  
HETATM   26  C   UNL     1      -9.293  15.352  67.559  1.00  0.00    -0.203 C  
HETATM   27  N   UNL     1     -10.716  15.441  67.954  1.00  0.00    -0.278 NA 
HETATM   28  C   UNL     1     -11.323  14.101  68.033  1.00  0.00    -0.299 C  
HETATM   29  C   UNL     1     -10.896  16.174  69.205  1.00  0.00    -0.298 C  
HETATM   30  C   UNL     1     -10.472  13.066  68.799  1.00  0.00    -0.164 C  
ENDBRANCH  23  24
ENDBRANCH  22  23
ENDBRANCH   4   7
ENDBRANCH   2   4
TORSDOF 4
ENDMDL
MODEL      128
REMARK 921   NORMALIZED FREE ENERGY PREDICTED BY IDOCK:   -3.93 KCAL/MOL
REMARK 922        TOTAL FREE ENERGY PREDICTED BY IDOCK:   -5.50 KCAL/MOL
REMARK 923 INTER-LIGAND FREE ENERGY PREDICTED BY IDOCK:   -5.31 KCAL/MOL
REMARK 924 INTRA-LIGAND FREE ENERGY PREDICTED BY IDOCK:   -0.19 KCAL/MOL
REMARK 927      BINDING AFFINITY PREDICTED BY RF-SCORE:    0.00 PKD
ROOT
HETATM    1  C   UNL     1     -10.885   5.760  69.461  1.00  0.00    -0.340 C  
HETATM    2  N   UNL     1      -9.476   5.856  69.885  1.00  0.00    -0.148 N  
HETATM    3  C   UNL     1      -9.083   4.818  70.857  1.00  0.00    -0.134 C  
ENDROOT
BRANCH   2   4
HETATM    4  S   UNL     1      -8.327   6.204  68.671  1.00  0.00    -0.114 S  
HETATM    5  O   UNL     1      -9.047   6.577  67.464  1.00  0.00    -0.117 OA 
HETATM    6  O   UNL     1      -7.331   5.158  68.657  1.00  0.00    -0.064 OA 
BRANCH   4   7
HETATM    7  C   UNL     1      -7.560   7.690  69.298  1.00  0.00    -0.096 A  
HETATM    8  C   UNL     1      -7.810   8.908  68.649  1.00  0.00    -0.102 A  
HETATM    9  C   UNL     1      -7.226  10.141  69.014  1.00  0.00    -0.076 A  
HETATM   10  C   UNL     1      -6.367  10.057  70.125  1.00  0.00    -0.093 A  
HETATM   11  S   UNL     1      -5.520  11.414  70.871  1.00  0.00    -0.064 SA 
HETATM   12  C   UNL     1      -6.120   8.825  70.788  1.00  0.00    -0.037 A  
HETATM   13  C   UNL     1      -5.833  12.771  69.785  1.00  0.00    -0.123 A  
HETATM   14  C   UNL     1      -6.722   7.642  70.388  1.00  0.00    -0.042 A  
HETATM   15  C   UNL     1      -5.127  13.941  70.147  1.00  0.00    -0.091 A  
HETATM   16  C   UNL     1      -5.234  15.111  69.413  1.00  0.00    -0.092 A  
HETATM   17  C   UNL     1      -6.045  15.115  68.295  1.00  0.00    -0.121 A  
HETATM   18  C   UNL     1      -6.746  13.955  67.924  1.00  0.00    -0.165 A  
HETATM   19  C   UNL     1      -6.684  12.746  68.663  1.00  0.00    -0.088 A  
HETATM   20  C   UNL     1      -7.464  11.478  68.275  1.00  0.00    -0.103 C  
HETATM   21  C   UNL     1      -8.377  11.602  67.260  1.00  0.00    -0.158 C  
HETATM   22  C   UNL     1      -9.263  10.531  66.677  1.00  0.00    -0.177 C  
BRANCH  22  23
HETATM   23  C   UNL     1     -10.362  10.782  65.635  1.00  0.00    -0.230 C  
BRANCH  23  24
HETATM   24  N   UNL     1     -10.095  12.059  64.919  1.00  0.00    -0.264 NA 
HETATM   25  C   UNL     1     -10.769  12.206  63.601  1.00  0.00    -0.467 C  
HETATM   26  C   UNL     1     -12.284  12.551  63.627  1.00  0.00    -0.550 C  
HETATM   27  N   UNL     1     -12.736  13.537  64.633  1.00  0.00    -0.672 NA 
HETATM   28  C   UNL     1     -12.000  13.370  65.898  1.00  0.00    -0.409 C  
HETATM   29  C   UNL     1     -12.634  14.910  64.144  1.00  0.00     0.113 C  
HETATM   30  C   UNL     1     -10.473  13.230  65.729  1.00  0.00    -0.284 C  
ENDBRANCH  23  24
ENDBRANCH  22  23
ENDBRANCH   4   7
ENDBRANCH   2   4
TORSDOF 4
ENDMDL
MODEL      129
REMARK 921   NORMALIZED FREE ENERGY PREDICTED BY IDOCK:   -3.90 KCAL/MOL
REMARK 922        TOTAL FREE ENERGY PREDICTED BY IDOCK:   -5.46 KCAL/MOL
REMARK 923 INTER-LIGAND FREE ENERGY PREDICTED BY IDOCK:   -5.50 KCAL/MOL
REMARK 924 INTRA-LIGAND FREE ENERGY PREDICTED BY IDOCK:    0.04 KCAL/MOL
REMARK 927      BINDING AFFINITY PREDICTED BY RF-SCORE:    0.00 PKD
ROOT
HETATM    1  C   UNL     1      -9.067  14.499  68.855  1.00  0.00    -0.111 C  
HETATM    2  N   UNL     1      -8.641  13.544  67.815  1.00  0.00    -0.169 N  
HETATM    3  C   UNL     1      -9.068  13.926  66.456  1.00  0.00    -0.143 C  
ENDROOT
BRANCH   2   4
HETATM    4  S   UNL     1      -7.057  12.919  67.945  1.00  0.00    -0.146 S  
HETATM    5  O   UNL     1      -6.835  12.540  69.331  1.00  0.00    -0.068 OA 
HETATM    6  O   UNL     1      -6.148  13.804  67.255  1.00  0.00    -0.321 OA 
BRANCH   4   7
HETATM    7  C   UNL     1      -7.175  11.405  67.005  1.00  0.00    -0.141 A  
HETATM    8  C   UNL     1      -8.200  10.497  67.307  1.00  0.00    -0.119 A  
HETATM    9  C   UNL     1      -8.370   9.246  66.674  1.00  0.00    -0.122 A  
HETATM   10  C   UNL     1      -7.420   8.983  65.671  1.00  0.00    -0.086 A  
HETATM   11  S   UNL     1      -7.376   7.541  64.654  1.00  0.00    -0.084 SA 
HETATM   12  C   UNL     1      -6.386   9.906  65.358  1.00  0.00    -0.089 A  
HETATM   13  C   UNL     1      -8.617   6.488  65.339  1.00  0.00    -0.068 A  
HETATM   14  C   UNL     1      -6.266  11.123  66.012  1.00  0.00    -0.023 A  
HETATM   15  C   UNL     1      -8.655   5.212  64.732  1.00  0.00    -0.148 A  
HETATM   16  C   UNL     1      -9.555   4.240  65.137  1.00  0.00    -0.185 A  
HETATM   17  C   UNL     1     -10.423   4.536  66.170  1.00  0.00    -0.198 A  
HETATM   18  C   UNL     1     -10.389   5.800  66.784  1.00  0.00    -0.312 A  
HETATM   19  C   UNL     1      -9.501   6.830  66.381  1.00  0.00    -0.166 A  
HETATM   20  C   UNL     1      -9.471   8.222  67.035  1.00  0.00    -0.226 C  
HETATM   21  C   UNL     1     -10.469   8.505  67.932  1.00  0.00    -0.262 C  
HETATM   22  C   UNL     1     -10.675   9.774  68.717  1.00  0.00    -0.243 C  
BRANCH  22  23
HETATM   23  C   UNL     1     -11.898  10.065  69.597  1.00  0.00     0.030 C  
BRANCH  23  24
HETATM   24  N   UNL     1     -11.504  10.037  71.033  1.00  0.00    -0.374 NA 
HETATM   25  C   UNL     1     -12.549   9.553  71.973  1.00  0.00    -0.376 C  
HETATM   26  C   UNL     1     -12.786   8.019  72.023  1.00  0.00    -0.287 C  
HETATM   27  N   UNL     1     -11.592   7.147  71.970  1.00  0.00    -0.272 NA 
HETATM   28  C   UNL     1     -10.577   7.704  71.059  1.00  0.00    -0.217 C  
HETATM   29  C   UNL     1     -11.029   6.903  73.296  1.00  0.00    -0.237 C  
HETATM   30  C   UNL     1     -10.307   9.210  71.256  1.00  0.00    -0.334 C  
ENDBRANCH  23  24
ENDBRANCH  22  23
ENDBRANCH   4   7
ENDBRANCH   2   4
TORSDOF 4
ENDMDL
MODEL      130
REMARK 921   NORMALIZED FREE ENERGY PREDICTED BY IDOCK:   -3.75 KCAL/MOL
REMARK 922        TOTAL FREE ENERGY PREDICTED BY IDOCK:   -5.27 KCAL/MOL
REMARK 923 INTER-LIGAND FREE ENERGY PREDICTED BY IDOCK:   -6.02 KCAL/MOL
REMARK 924 INTRA-LIGAND FREE ENERGY PREDICTED BY IDOCK:    0.75 KCAL/MOL
REMARK 927      BINDING AFFINITY PREDICTED BY RF-SCORE:    0.00 PKD
ROOT
HETATM    1  C   UNL     1     -13.897   9.247  71.264  1.00  0.00    -0.138 C  
HETATM    2  N   UNL     1     -13.326  10.582  71.007  1.00  0.00    -0.224 N  
HETATM    3  C   UNL     1     -13.308  11.453  72.198  1.00  0.00    -0.166 C  
ENDROOT
BRANCH   2   4
HETATM    4  S   UNL     1     -11.934  10.650  70.021  1.00  0.00    -0.332 S  
HETATM    5  O   UNL     1     -12.285  10.127  68.710  1.00  0.00     0.116 OA 
HETATM    6  O   UNL     1     -10.811  10.123  70.762  1.00  0.00    -0.307 OA 
BRANCH   4   7
HETATM    7  C   UNL     1     -11.694  12.409  69.832  1.00  0.00    -0.266 A  
HETATM    8  C   UNL     1     -11.029  12.885  68.692  1.00  0.00    -0.295 A  
HETATM    9  C   UNL     1     -10.732  14.245  68.450  1.00  0.00    -0.257 A  
HETATM   10  C   UNL     1     -11.190  15.114  69.457  1.00  0.00    -0.273 A  
HETATM   11  S   UNL     1     -11.033  16.872  69.443  1.00  0.00     0.060 SA 
HETATM   12  C   UNL     1     -11.872  14.634  70.608  1.00  0.00    -0.367 A  
HETATM   13  C   UNL     1     -10.015  17.205  68.039  1.00  0.00    -0.295 A  
HETATM   14  C   UNL     1     -12.138  13.286  70.794  1.00  0.00    -0.311 A  
HETATM   15  C   UNL     1      -9.665  18.570  67.923  1.00  0.00    -0.339 A  
HETATM   16  C   UNL     1      -8.864  19.030  66.891  1.00  0.00    -0.314 A  
HETATM   17  C   UNL     1      -8.392  18.118  65.966  1.00  0.00    -0.064 A  
HETATM   18  C   UNL     1      -8.731  16.759  66.076  1.00  0.00    -0.218 A  
HETATM   19  C   UNL     1      -9.569  16.252  67.102  1.00  0.00    -0.238 A  
HETATM   20  C   UNL     1      -9.960  14.769  67.218  1.00  0.00    -0.231 C  
HETATM   21  C   UNL     1      -9.601  13.953  66.177  1.00  0.00    -0.249 C  
HETATM   22  C   UNL     1      -9.846  12.473  66.034  1.00  0.00    -0.266 C  
BRANCH  22  23
HETATM   23  C   UNL     1      -9.537  11.657  64.771  1.00  0.00    -0.134 C  
BRANCH  23  24
HETATM   24  N   UNL     1      -8.412  10.720  65.039  1.00  0.00    -0.130 NA 
HETATM   25  C   UNL     1      -7.842  10.781  66.411  1.00  0.00    -0.148 C  
HETATM   26  C   UNL     1      -8.662  10.096  67.539  1.00  0.00    -0.125 C  
HETATM   27  N   UNL     1      -9.297   8.798  67.221  1.00  0.00    -0.144 NA 
HETATM   28  C   UNL     1      -9.800   8.785  65.837  1.00  0.00    -0.066 C  
HETATM   29  C   UNL     1      -8.398   7.672  67.464  1.00  0.00    -0.120 C  
HETATM   30  C   UNL     1      -8.796   9.319  64.794  1.00  0.00    -0.185 C  
ENDBRANCH  23  24
ENDBRANCH  22  23
ENDBRANCH   4   7
ENDBRANCH   2   4
TORSDOF 4
ENDMDL
MODEL      131
REMARK 921   NORMALIZED FREE ENERGY PREDICTED BY IDOCK:   -3.74 KCAL/MOL
REMARK 922        TOTAL FREE ENERGY PREDICTED BY IDOCK:   -5.27 KCAL/MOL
REMARK 923 INTER-LIGAND FREE ENERGY PREDICTED BY IDOCK:   -6.79 KCAL/MOL
REMARK 924 INTRA-LIGAND FREE ENERGY PREDICTED BY IDOCK:    1.52 KCAL/MOL
REMARK 927      BINDING AFFINITY PREDICTED BY RF-SCORE:    0.00 PKD
ROOT
HETATM    1  C   UNL     1     -14.368  13.920  72.247  1.00  0.00    -0.409 C  
HETATM    2  N   UNL     1     -13.081  13.408  71.741  1.00  0.00    -0.389 N  
HETATM    3  C   UNL     1     -13.080  11.950  71.509  1.00  0.00    -0.275 C  
ENDROOT
BRANCH   2   4
HETATM    4  S   UNL     1     -12.290  14.346  70.553  1.00  0.00    -0.365 S  
HETATM    5  O   UNL     1     -11.195  15.054  71.196  1.00  0.00    -0.297 OA 
HETATM    6  O   UNL     1     -13.283  15.049  69.776  1.00  0.00     0.227 OA 
BRANCH   4   7
HETATM    7  C   UNL     1     -11.559  13.092  69.513  1.00  0.00    -0.283 A  
HETATM    8  C   UNL     1     -11.225  13.419  68.190  1.00  0.00    -0.304 A  
HETATM    9  C   UNL     1     -10.690  12.507  67.253  1.00  0.00    -0.259 A  
HETATM   10  C   UNL     1     -10.489  11.215  67.770  1.00  0.00    -0.193 A  
HETATM   11  S   UNL     1      -9.790   9.855  66.887  1.00  0.00    -0.210 SA 
HETATM   12  C   UNL     1     -10.818  10.885  69.112  1.00  0.00    -0.280 A  
HETATM   13  C   UNL     1      -9.637  10.446  65.230  1.00  0.00    -0.259 A  
HETATM   14  C   UNL     1     -11.341  11.822  69.991  1.00  0.00    -0.130 A  
HETATM   15  C   UNL     1      -9.204   9.449  64.326  1.00  0.00    -0.073 A  
HETATM   16  C   UNL     1      -9.032   9.715  62.978  1.00  0.00    -0.257 A  
HETATM   17  C   UNL     1      -9.305  10.988  62.518  1.00  0.00    -0.295 A  
HETATM   18  C   UNL     1      -9.741  11.985  63.408  1.00  0.00    -0.211 A  
HETATM   19  C   UNL     1      -9.905  11.760  64.798  1.00  0.00    -0.238 A  
HETATM   20  C   UNL     1     -10.363  12.851  65.782  1.00  0.00    -0.297 C  
HETATM   21  C   UNL     1     -10.451  14.127  65.291  1.00  0.00    -0.402 C  
HETATM   22  C   UNL     1     -10.876  15.374  66.023  1.00  0.00    -0.315 C  
BRANCH  22  23
HETATM   23  C   UNL     1     -10.813  16.791  65.440  1.00  0.00    -0.141 C  
BRANCH  23  24
HETATM   24  N   UNL     1     -10.249  17.728  66.450  1.00  0.00    -0.355 NA 
HETATM   25  C   UNL     1      -9.999  17.145  67.794  1.00  0.00    -0.290 C  
HETATM   26  C   UNL     1      -8.738  16.249  67.942  1.00  0.00    -0.175 C  
HETATM   27  N   UNL     1      -7.506  16.695  67.254  1.00  0.00    -0.153 NA 
HETATM   28  C   UNL     1      -7.825  17.305  65.951  1.00  0.00    -0.019 C  
HETATM   29  C   UNL     1      -6.714  17.604  68.079  1.00  0.00    -0.187 C  
HETATM   30  C   UNL     1      -8.982  18.325  65.996  1.00  0.00     0.043 C  
ENDBRANCH  23  24
ENDBRANCH  22  23
ENDBRANCH   4   7
ENDBRANCH   2   4
TORSDOF 4
ENDMDL
MODEL      132
REMARK 921   NORMALIZED FREE ENERGY PREDICTED BY IDOCK:   -3.72 KCAL/MOL
REMARK 922        TOTAL FREE ENERGY PREDICTED BY IDOCK:   -5.23 KCAL/MOL
REMARK 923 INTER-LIGAND FREE ENERGY PREDICTED BY IDOCK:   -5.22 KCAL/MOL
REMARK 924 INTRA-LIGAND FREE ENERGY PREDICTED BY IDOCK:   -0.01 KCAL/MOL
REMARK 927      BINDING AFFINITY PREDICTED BY RF-SCORE:    0.00 PKD
ROOT
HETATM    1  C   UNL     1      -6.211   5.577  69.771  1.00  0.00    -0.026 C  
HETATM    2  N   UNL     1      -7.305   6.562  69.847  1.00  0.00    -0.084 N  
HETATM    3  C   UNL     1      -6.871   7.945  69.572  1.00  0.00    -0.047 C  
ENDROOT
BRANCH   2   4
HETATM    4  S   UNL     1      -8.802   6.107  69.162  1.00  0.00    -0.123 S  
HETATM    5  O   UNL     1      -9.544   5.356  70.162  1.00  0.00    -0.158 OA 
HETATM    6  O   UNL     1      -8.567   5.570  67.842  1.00  0.00    -0.105 OA 
BRANCH   4   7
HETATM    7  C   UNL     1      -9.624   7.682  68.979  1.00  0.00    -0.151 A  
HETATM    8  C   UNL     1      -9.526   8.359  67.755  1.00  0.00    -0.171 A  
HETATM    9  C   UNL     1     -10.086   9.631  67.500  1.00  0.00    -0.247 A  
HETATM   10  C   UNL     1     -10.789  10.172  68.592  1.00  0.00    -0.235 A  
HETATM   11  S   UNL     1     -11.649  11.713  68.594  1.00  0.00    -0.333 SA 
HETATM   12  C   UNL     1     -10.895   9.482  69.829  1.00  0.00    -0.264 A  
HETATM   13  C   UNL     1     -11.227  12.449  67.046  1.00  0.00    -0.303 A  
HETATM   14  C   UNL     1     -10.326   8.233  70.025  1.00  0.00    -0.212 A  
HETATM   15  C   UNL     1     -11.726  13.765  66.906  1.00  0.00    -0.424 A  
HETATM   16  C   UNL     1     -11.493  14.513  65.764  1.00  0.00    -0.342 A  
HETATM   17  C   UNL     1     -10.742  13.950  64.750  1.00  0.00    -0.437 A  
HETATM   18  C   UNL     1     -10.238  12.645  64.882  1.00  0.00    -0.295 A  
HETATM   19  C   UNL     1     -10.476  11.838  66.023  1.00  0.00    -0.286 A  
HETATM   20  C   UNL     1      -9.944  10.402  66.167  1.00  0.00    -0.290 C  
HETATM   21  C   UNL     1      -9.356   9.847  65.059  1.00  0.00    -0.323 C  
HETATM   22  C   UNL     1      -8.748   8.475  64.923  1.00  0.00    -0.090 C  
BRANCH  22  23
HETATM   23  C   UNL     1      -8.235   7.877  63.607  1.00  0.00    -0.007 C  
BRANCH  23  24
HETATM   24  N   UNL     1      -6.795   7.522  63.740  1.00  0.00    -0.053 NA 
HETATM   25  C   UNL     1      -6.346   7.177  65.115  1.00  0.00    -0.037 C  
HETATM   26  C   UNL     1      -6.728   5.766  65.640  1.00  0.00    -0.048 C  
HETATM   27  N   UNL     1      -6.627   4.639  64.687  1.00  0.00    -0.042 NA 
HETATM   28  C   UNL     1      -7.041   5.056  63.336  1.00  0.00    -0.047 C  
HETATM   29  C   UNL     1      -5.289   4.052  64.668  1.00  0.00    -0.009 C  
HETATM   30  C   UNL     1      -6.427   6.392  62.870  1.00  0.00    -0.034 C  
ENDBRANCH  23  24
ENDBRANCH  22  23
ENDBRANCH   4   7
ENDBRANCH   2   4
TORSDOF 4
ENDMDL
MODEL      133
REMARK 921   NORMALIZED FREE ENERGY PREDICTED BY IDOCK:   -3.68 KCAL/MOL
REMARK 922        TOTAL FREE ENERGY PREDICTED BY IDOCK:   -5.19 KCAL/MOL
REMARK 923 INTER-LIGAND FREE ENERGY PREDICTED BY IDOCK:   -4.67 KCAL/MOL
REMARK 924 INTRA-LIGAND FREE ENERGY PREDICTED BY IDOCK:   -0.52 KCAL/MOL
REMARK 927      BINDING AFFINITY PREDICTED BY RF-SCORE:    0.00 PKD
ROOT
HETATM    1  C   UNL     1      -7.854   3.914  71.930  1.00  0.00    -0.070 C  
HETATM    2  N   UNL     1      -8.131   5.187  72.619  1.00  0.00    -0.108 N  
HETATM    3  C   UNL     1      -9.174   5.078  73.657  1.00  0.00    -0.122 C  
ENDROOT
BRANCH   2   4
HETATM    4  S   UNL     1      -6.784   6.155  73.024  1.00  0.00    -0.075 S  
HETATM    5  O   UNL     1      -5.609   5.300  73.056  1.00  0.00    -0.020 OA 
HETATM    6  O   UNL     1      -7.133   6.993  74.147  1.00  0.00    -0.088 OA 
BRANCH   4   7
HETATM    7  C   UNL     1      -6.629   7.199  71.583  1.00  0.00    -0.048 A  
HETATM    8  C   UNL     1      -7.750   7.396  70.764  1.00  0.00    -0.088 A  
HETATM    9  C   UNL     1      -7.745   8.154  69.572  1.00  0.00    -0.102 A  
HETATM   10  C   UNL     1      -6.499   8.735  69.274  1.00  0.00    -0.042 A  
HETATM   11  S   UNL     1      -6.160   9.782  67.893  1.00  0.00    -0.051 SA 
HETATM   12  C   UNL     1      -5.365   8.544  70.108  1.00  0.00    -0.022 A  
HETATM   13  C   UNL     1      -7.639   9.722  66.930  1.00  0.00    -0.095 A  
HETATM   14  C   UNL     1      -5.426   7.788  71.269  1.00  0.00    -0.034 A  
HETATM   15  C   UNL     1      -7.523  10.408  65.699  1.00  0.00    -0.149 A  
HETATM   16  C   UNL     1      -8.574  10.468  64.799  1.00  0.00    -0.173 A  
HETATM   17  C   UNL     1      -9.754   9.825  65.120  1.00  0.00    -0.338 A  
HETATM   18  C   UNL     1      -9.876   9.136  66.338  1.00  0.00    -0.350 A  
HETATM   19  C   UNL     1      -8.833   9.073  67.298  1.00  0.00    -0.126 A  
HETATM   20  C   UNL     1      -8.966   8.337  68.642  1.00  0.00    -0.137 C  
HETATM   21  C   UNL     1     -10.213   7.870  68.970  1.00  0.00    -0.216 C  
HETATM   22  C   UNL     1     -10.622   7.114  70.208  1.00  0.00    -0.245 C  
BRANCH  22  23
HETATM   23  C   UNL     1     -12.069   6.749  70.567  1.00  0.00    -0.274 C  
BRANCH  23  24
HETATM   24  N   UNL     1     -12.490   7.494  71.785  1.00  0.00    -0.320 NA 
HETATM   25  C   UNL     1     -11.516   8.497  72.290  1.00  0.00    -0.375 C  
HETATM   26  C   UNL     1     -11.433   9.841  71.514  1.00  0.00    -0.323 C  
HETATM   27  N   UNL     1     -12.706  10.436  71.053  1.00  0.00    -0.365 NA 
HETATM   28  C   UNL     1     -13.644   9.389  70.610  1.00  0.00     0.323 C  
HETATM   29  C   UNL     1     -13.315  11.289  72.070  1.00  0.00    -0.280 C  
HETATM   30  C   UNL     1     -13.768   8.198  71.582  1.00  0.00    -0.355 C  
ENDBRANCH  23  24
ENDBRANCH  22  23
ENDBRANCH   4   7
ENDBRANCH   2   4
TORSDOF 4
ENDMDL
MODEL      134
REMARK 921   NORMALIZED FREE ENERGY PREDICTED BY IDOCK:   -3.56 KCAL/MOL
REMARK 922        TOTAL FREE ENERGY PREDICTED BY IDOCK:   -5.05 KCAL/MOL
REMARK 923 INTER-LIGAND FREE ENERGY PREDICTED BY IDOCK:   -4.71 KCAL/MOL
REMARK 924 INTRA-LIGAND FREE ENERGY PREDICTED BY IDOCK:   -0.33 KCAL/MOL
REMARK 927      BINDING AFFINITY PREDICTED BY RF-SCORE:    0.00 PKD
ROOT
HETATM    1  C   UNL     1     -13.351  14.019  65.485  1.00  0.00     0.308 C  
HETATM    2  N   UNL     1     -11.966  14.474  65.707  1.00  0.00    -0.341 N  
HETATM    3  C   UNL     1     -11.542  15.537  64.776  1.00  0.00    -0.256 C  
ENDROOT
BRANCH   2   4
HETATM    4  S   UNL     1     -11.468  14.668  67.328  1.00  0.00    -0.376 S  
HETATM    5  O   UNL     1     -12.646  14.961  68.129  1.00  0.00     0.236 OA 
HETATM    6  O   UNL     1     -10.307  15.527  67.360  1.00  0.00    -0.256 OA 
BRANCH   4   7
HETATM    7  C   UNL     1     -10.944  13.016  67.759  1.00  0.00    -0.251 A  
HETATM    8  C   UNL     1      -9.572  12.742  67.851  1.00  0.00    -0.211 A  
HETATM    9  C   UNL     1      -9.029  11.468  68.133  1.00  0.00    -0.172 A  
HETATM   10  C   UNL     1      -9.999  10.472  68.343  1.00  0.00    -0.164 A  
HETATM   11  S   UNL     1      -9.666   8.790  68.764  1.00  0.00    -0.169 SA 
HETATM   12  C   UNL     1     -11.390  10.751  68.258  1.00  0.00    -0.376 A  
HETATM   13  C   UNL     1      -7.911   8.650  68.634  1.00  0.00    -0.107 A  
HETATM   14  C   UNL     1     -11.868  12.022  67.979  1.00  0.00    -0.338 A  
HETATM   15  C   UNL     1      -7.448   7.326  68.815  1.00  0.00    -0.102 A  
HETATM   16  C   UNL     1      -6.102   7.010  68.741  1.00  0.00    -0.027 A  
HETATM   17  C   UNL     1      -5.201   8.021  68.470  1.00  0.00    -0.031 A  
HETATM   18  C   UNL     1      -5.652   9.339  68.283  1.00  0.00    -0.038 A  
HETATM   19  C   UNL     1      -7.018   9.708  68.376  1.00  0.00    -0.065 A  
HETATM   20  C   UNL     1      -7.517  11.152  68.192  1.00  0.00    -0.093 C  
HETATM   21  C   UNL     1      -6.560  12.129  68.097  1.00  0.00    -0.061 C  
HETATM   22  C   UNL     1      -6.764  13.609  67.905  1.00  0.00    -0.156 C  
BRANCH  22  23
HETATM   23  C   UNL     1      -5.643  14.656  67.950  1.00  0.00    -0.102 C  
BRANCH  23  24
HETATM   24  N   UNL     1      -6.049  15.863  67.179  1.00  0.00    -0.332 NA 
HETATM   25  C   UNL     1      -7.427  16.355  67.440  1.00  0.00    -0.149 C  
HETATM   26  C   UNL     1      -7.649  17.142  68.761  1.00  0.00    -0.259 C  
HETATM   27  N   UNL     1      -6.595  18.099  69.164  1.00  0.00    -0.256 NA 
HETATM   28  C   UNL     1      -5.258  17.574  68.837  1.00  0.00    -0.155 C  
HETATM   29  C   UNL     1      -6.798  19.421  68.576  1.00  0.00    -0.291 C  
HETATM   30  C   UNL     1      -5.135  16.995  67.413  1.00  0.00    -0.127 C  
ENDBRANCH  23  24
ENDBRANCH  22  23
ENDBRANCH   4   7
ENDBRANCH   2   4
TORSDOF 4
ENDMDL
MODEL      135
REMARK 921   NORMALIZED FREE ENERGY PREDICTED BY IDOCK:   -3.52 KCAL/MOL
REMARK 922        TOTAL FREE ENERGY PREDICTED BY IDOCK:   -4.99 KCAL/MOL
REMARK 923 INTER-LIGAND FREE ENERGY PREDICTED BY IDOCK:   -4.31 KCAL/MOL
REMARK 924 INTRA-LIGAND FREE ENERGY PREDICTED BY IDOCK:   -0.68 KCAL/MOL
REMARK 927      BINDING AFFINITY PREDICTED BY RF-SCORE:    0.00 PKD
ROOT
HETATM    1  C   UNL     1      -5.840   3.099  71.674  1.00  0.00    -0.013 C  
HETATM    2  N   UNL     1      -7.078   3.836  71.987  1.00  0.00    -0.047 N  
HETATM    3  C   UNL     1      -8.295   3.008  71.890  1.00  0.00    -0.058 C  
ENDROOT
BRANCH   2   4
HETATM    4  S   UNL     1      -7.020   4.914  73.310  1.00  0.00    -0.073 S  
HETATM    5  O   UNL     1      -5.778   5.664  73.225  1.00  0.00    -0.030 OA 
HETATM    6  O   UNL     1      -7.384   4.199  74.511  1.00  0.00    -0.068 OA 
BRANCH   4   7
HETATM    7  C   UNL     1      -8.342   6.052  72.922  1.00  0.00    -0.117 A  
HETATM    8  C   UNL     1      -8.323   6.717  71.688  1.00  0.00    -0.111 A  
HETATM    9  C   UNL     1      -9.279   7.676  71.284  1.00  0.00    -0.155 A  
HETATM   10  C   UNL     1     -10.293   7.902  72.232  1.00  0.00    -0.253 A  
HETATM   11  S   UNL     1     -11.665   8.993  72.025  1.00  0.00    -0.303 SA 
HETATM   12  C   UNL     1     -10.317   7.222  73.479  1.00  0.00    -0.412 A  
HETATM   13  C   UNL     1     -11.323   9.838  70.513  1.00  0.00    -0.314 A  
HETATM   14  C   UNL     1      -9.352   6.287  73.825  1.00  0.00    -0.144 A  
HETATM   15  C   UNL     1     -12.258  10.861  70.228  1.00  0.00    -0.432 A  
HETATM   16  C   UNL     1     -12.155  11.643  69.090  1.00  0.00    -0.315 A  
HETATM   17  C   UNL     1     -11.101  11.416  68.227  1.00  0.00    -0.300 A  
HETATM   18  C   UNL     1     -10.164  10.406  68.504  1.00  0.00    -0.191 A  
HETATM   19  C   UNL     1     -10.248   9.566  69.644  1.00  0.00    -0.234 A  
HETATM   20  C   UNL     1      -9.238   8.445  69.943  1.00  0.00    -0.151 C  
HETATM   21  C   UNL     1      -8.322   8.162  68.964  1.00  0.00    -0.128 C  
HETATM   22  C   UNL     1      -7.223   7.131  68.994  1.00  0.00    -0.086 C  
BRANCH  22  23
HETATM   23  C   UNL     1      -6.326   6.779  67.800  1.00  0.00    -0.048 C  
BRANCH  23  24
HETATM   24  N   UNL     1      -7.070   5.907  66.850  1.00  0.00    -0.069 NA 
HETATM   25  C   UNL     1      -6.232   5.182  65.858  1.00  0.00    -0.034 C  
HETATM   26  C   UNL     1      -5.459   3.937  66.375  1.00  0.00    -0.013 C  
HETATM   27  N   UNL     1      -6.169   3.041  67.313  1.00  0.00    -0.028 NA 
HETATM   28  C   UNL     1      -7.016   3.815  68.238  1.00  0.00    -0.051 C  
HETATM   29  C   UNL     1      -6.949   2.021  66.617  1.00  0.00    -0.043 C  
HETATM   30  C   UNL     1      -7.877   4.895  67.553  1.00  0.00    -0.094 C  
ENDBRANCH  23  24
ENDBRANCH  22  23
ENDBRANCH   4   7
ENDBRANCH   2   4
TORSDOF 4
ENDMDL
MODEL      136
REMARK 921   NORMALIZED FREE ENERGY PREDICTED BY IDOCK:   -3.41 KCAL/MOL
REMARK 922        TOTAL FREE ENERGY PREDICTED BY IDOCK:   -4.86 KCAL/MOL
REMARK 923 INTER-LIGAND FREE ENERGY PREDICTED BY IDOCK:   -4.93 KCAL/MOL
REMARK 924 INTRA-LIGAND FREE ENERGY PREDICTED BY IDOCK:    0.07 KCAL/MOL
REMARK 927      BINDING AFFINITY PREDICTED BY RF-SCORE:    0.00 PKD
ROOT
HETATM    1  C   UNL     1      -7.394  14.973  68.981  1.00  0.00    -0.151 C  
HETATM    2  N   UNL     1      -7.826  13.730  68.316  1.00  0.00    -0.135 N  
HETATM    3  C   UNL     1      -8.678  13.962  67.134  1.00  0.00    -0.221 C  
ENDROOT
BRANCH   2   4
HETATM    4  S   UNL     1      -6.658  12.495  68.154  1.00  0.00    -0.090 S  
HETATM    5  O   UNL     1      -5.577  12.773  69.086  1.00  0.00    -0.068 OA 
HETATM    6  O   UNL     1      -6.400  12.277  66.750  1.00  0.00    -0.143 OA 
BRANCH   4   7
HETATM    7  C   UNL     1      -7.531  11.070  68.784  1.00  0.00    -0.116 A  
HETATM    8  C   UNL     1      -8.899  11.186  69.073  1.00  0.00    -0.025 A  
HETATM    9  C   UNL     1      -9.689  10.152  69.622  1.00  0.00    -0.250 A  
HETATM   10  C   UNL     1      -8.986   8.953  69.839  1.00  0.00    -0.156 A  
HETATM   11  S   UNL     1      -9.681   7.455  70.462  1.00  0.00    -0.174 SA 
HETATM   12  C   UNL     1      -7.603   8.832  69.538  1.00  0.00    -0.080 A  
HETATM   13  C   UNL     1     -11.327   7.899  70.923  1.00  0.00    -0.277 A  
HETATM   14  C   UNL     1      -6.874   9.881  68.999  1.00  0.00    -0.054 A  
HETATM   15  C   UNL     1     -12.021   6.850  71.568  1.00  0.00    -0.386 A  
HETATM   16  C   UNL     1     -13.323   7.006  72.014  1.00  0.00    -0.146 A  
HETATM   17  C   UNL     1     -13.941   8.227  71.828  1.00  0.00    -0.476 A  
HETATM   18  C   UNL     1     -13.258   9.277  71.192  1.00  0.00    -0.244 A  
HETATM   19  C   UNL     1     -11.934   9.150  70.699  1.00  0.00    -0.171 A  
HETATM   20  C   UNL     1     -11.186  10.289  69.985  1.00  0.00    -0.376 C  
HETATM   21  C   UNL     1     -11.914  11.410  69.681  1.00  0.00    -0.416 C  
HETATM   22  C   UNL     1     -11.437  12.667  68.999  1.00  0.00    -0.354 C  
BRANCH  22  23
HETATM   23  C   UNL     1     -12.348  13.824  68.569  1.00  0.00     0.031 C  
BRANCH  23  24
HETATM   24  N   UNL     1     -11.923  15.080  69.246  1.00  0.00    -0.305 NA 
HETATM   25  C   UNL     1     -13.019  15.884  69.848  1.00  0.00     0.723 C  
HETATM   26  C   UNL     1     -13.602  15.371  71.194  1.00  0.00    -0.462 C  
HETATM   27  N   UNL     1     -12.644  14.843  72.190  1.00  0.00    -0.315 NA 
HETATM   28  C   UNL     1     -11.559  14.097  71.528  1.00  0.00     0.515 C  
HETATM   29  C   UNL     1     -12.108  15.895  73.050  1.00  0.00    -0.509 C  
HETATM   30  C   UNL     1     -10.942  14.820  70.314  1.00  0.00    -0.097 C  
ENDBRANCH  23  24
ENDBRANCH  22  23
ENDBRANCH   4   7
ENDBRANCH   2   4
TORSDOF 4
ENDMDL
MODEL      137
REMARK 921   NORMALIZED FREE ENERGY PREDICTED BY IDOCK:   -3.38 KCAL/MOL
REMARK 922        TOTAL FREE ENERGY PREDICTED BY IDOCK:   -4.82 KCAL/MOL
REMARK 923 INTER-LIGAND FREE ENERGY PREDICTED BY IDOCK:   -5.00 KCAL/MOL
REMARK 924 INTRA-LIGAND FREE ENERGY PREDICTED BY IDOCK:    0.18 KCAL/MOL
REMARK 927      BINDING AFFINITY PREDICTED BY RF-SCORE:    0.00 PKD
ROOT
HETATM    1  C   UNL     1     -10.002  12.139  63.893  1.00  0.00    -0.303 C  
HETATM    2  N   UNL     1     -11.080  13.044  64.334  1.00  0.00    -0.350 N  
HETATM    3  C   UNL     1     -12.410  12.667  63.819  1.00  0.00    -0.478 C  
ENDROOT
BRANCH   2   4
HETATM    4  S   UNL     1     -11.035  13.561  65.960  1.00  0.00    -0.276 S  
HETATM    5  O   UNL     1     -12.402  13.807  66.392  1.00  0.00    -0.439 OA 
HETATM    6  O   UNL     1     -10.012  14.571  66.101  1.00  0.00    -0.283 OA 
BRANCH   4   7
HETATM    7  C   UNL     1     -10.480  12.090  66.806  1.00  0.00    -0.214 A  
HETATM    8  C   UNL     1      -9.372  12.177  67.662  1.00  0.00    -0.187 A  
HETATM    9  C   UNL     1      -8.805  11.080  68.348  1.00  0.00    -0.151 A  
HETATM   10  C   UNL     1      -9.470   9.861  68.118  1.00  0.00    -0.138 A  
HETATM   11  S   UNL     1      -9.054   8.313  68.857  1.00  0.00    -0.147 SA 
HETATM   12  C   UNL     1     -10.597   9.774  67.258  1.00  0.00    -0.320 A  
HETATM   13  C   UNL     1      -7.547   8.633  69.719  1.00  0.00    -0.079 A  
HETATM   14  C   UNL     1     -11.114  10.885  66.609  1.00  0.00    -0.155 A  
HETATM   15  C   UNL     1      -6.977   7.469  70.285  1.00  0.00    -0.055 A  
HETATM   16  C   UNL     1      -5.788   7.513  70.993  1.00  0.00    -0.035 A  
HETATM   17  C   UNL     1      -5.148   8.729  71.133  1.00  0.00    -0.028 A  
HETATM   18  C   UNL     1      -5.705   9.891  70.570  1.00  0.00    -0.062 A  
HETATM   19  C   UNL     1      -6.932   9.892  69.859  1.00  0.00    -0.105 A  
HETATM   20  C   UNL     1      -7.557  11.162  69.257  1.00  0.00    -0.057 C  
HETATM   21  C   UNL     1      -6.962  12.355  69.578  1.00  0.00     0.161 C  
HETATM   22  C   UNL     1      -7.357  13.737  69.125  1.00  0.00     0.019 C  
BRANCH  22  23
HETATM   23  C   UNL     1      -6.725  15.036  69.642  1.00  0.00    -0.177 C  
BRANCH  23  24
HETATM   24  N   UNL     1      -7.513  16.206  69.166  1.00  0.00    -0.214 NA 
HETATM   25  C   UNL     1      -6.772  17.493  69.103  1.00  0.00    -0.243 C  
HETATM   26  C   UNL     1      -5.799  17.680  67.907  1.00  0.00    -0.149 C  
HETATM   27  N   UNL     1      -6.250  17.195  66.584  1.00  0.00    -0.203 NA 
HETATM   28  C   UNL     1      -7.015  15.943  66.719  1.00  0.00     0.093 C  
HETATM   29  C   UNL     1      -7.018  18.204  65.860  1.00  0.00    -0.284 C  
HETATM   30  C   UNL     1      -8.086  15.972  67.829  1.00  0.00    -0.142 C  
ENDBRANCH  23  24
ENDBRANCH  22  23
ENDBRANCH   4   7
ENDBRANCH   2   4
TORSDOF 4
ENDMDL
MODEL      138
REMARK 921   NORMALIZED FREE ENERGY PREDICTED BY IDOCK:   -3.34 KCAL/MOL
REMARK 922        TOTAL FREE ENERGY PREDICTED BY IDOCK:   -4.77 KCAL/MOL
REMARK 923 INTER-LIGAND FREE ENERGY PREDICTED BY IDOCK:   -4.74 KCAL/MOL
REMARK 924 INTRA-LIGAND FREE ENERGY PREDICTED BY IDOCK:   -0.03 KCAL/MOL
REMARK 927      BINDING AFFINITY PREDICTED BY RF-SCORE:    0.00 PKD
ROOT
HETATM    1  C   UNL     1      -9.425   8.826  71.722  1.00  0.00    -0.293 C  
HETATM    2  N   UNL     1     -10.646   8.004  71.625  1.00  0.00    -0.220 N  
HETATM    3  C   UNL     1     -11.885   8.760  71.891  1.00  0.00    -0.367 C  
ENDROOT
BRANCH   2   4
HETATM    4  S   UNL     1     -10.723   6.887  70.337  1.00  0.00    -0.258 S  
HETATM    5  O   UNL     1     -12.084   6.380  70.262  1.00  0.00    -0.294 OA 
HETATM    6  O   UNL     1      -9.594   5.992  70.427  1.00  0.00    -0.161 OA 
BRANCH   4   7
HETATM    7  C   UNL     1     -10.482   7.939  68.914  1.00  0.00    -0.190 A  
HETATM    8  C   UNL     1      -9.613   7.516  67.898  1.00  0.00    -0.161 A  
HETATM    9  C   UNL     1      -9.298   8.276  66.749  1.00  0.00    -0.232 A  
HETATM   10  C   UNL     1      -9.960   9.516  66.690  1.00  0.00    -0.247 A  
HETATM   11  S   UNL     1      -9.833  10.683  65.371  1.00  0.00    -0.288 SA 
HETATM   12  C   UNL     1     -10.847   9.941  67.715  1.00  0.00    -0.321 A  
HETATM   13  C   UNL     1      -8.564  10.028  64.332  1.00  0.00    -0.190 A  
HETATM   14  C   UNL     1     -11.121   9.153  68.822  1.00  0.00     0.100 A  
HETATM   15  C   UNL     1      -8.222  10.893  63.267  1.00  0.00     0.097 A  
HETATM   16  C   UNL     1      -7.241  10.561  62.348  1.00  0.00    -0.161 A  
HETATM   17  C   UNL     1      -6.581   9.356  62.495  1.00  0.00    -0.096 A  
HETATM   18  C   UNL     1      -6.911   8.492  63.553  1.00  0.00    -0.088 A  
HETATM   19  C   UNL     1      -7.926   8.783  64.499  1.00  0.00    -0.141 A  
HETATM   20  C   UNL     1      -8.307   7.834  65.648  1.00  0.00    -0.143 C  
HETATM   21  C   UNL     1      -7.735   6.588  65.634  1.00  0.00    -0.094 C  
HETATM   22  C   UNL     1      -7.922   5.473  66.631  1.00  0.00    -0.101 C  
BRANCH  22  23
HETATM   23  C   UNL     1      -7.356   4.056  66.468  1.00  0.00    -0.076 C  
BRANCH  23  24
HETATM   24  N   UNL     1      -8.472   3.075  66.370  1.00  0.00    -0.102 NA 
HETATM   25  C   UNL     1      -9.832   3.663  66.250  1.00  0.00     0.008 C  
HETATM   26  C   UNL     1     -10.227   4.231  64.859  1.00  0.00    -0.175 C  
HETATM   27  N   UNL     1      -9.813   3.455  63.669  1.00  0.00    -0.140 NA 
HETATM   28  C   UNL     1      -8.480   2.861  63.868  1.00  0.00    -0.086 C  
HETATM   29  C   UNL     1     -10.794   2.434  63.310  1.00  0.00    -0.234 C  
HETATM   30  C   UNL     1      -8.296   2.160  65.230  1.00  0.00    -0.090 C  
ENDBRANCH  23  24
ENDBRANCH  22  23
ENDBRANCH   4   7
ENDBRANCH   2   4
TORSDOF 4
ENDMDL
MODEL      139
REMARK 921   NORMALIZED FREE ENERGY PREDICTED BY IDOCK:   -3.33 KCAL/MOL
REMARK 922        TOTAL FREE ENERGY PREDICTED BY IDOCK:   -4.76 KCAL/MOL
REMARK 923 INTER-LIGAND FREE ENERGY PREDICTED BY IDOCK:   -4.36 KCAL/MOL
REMARK 924 INTRA-LIGAND FREE ENERGY PREDICTED BY IDOCK:   -0.39 KCAL/MOL
REMARK 927      BINDING AFFINITY PREDICTED BY RF-SCORE:    0.00 PKD
ROOT
HETATM    1  C   UNL     1      -9.748   5.805  74.533  1.00  0.00    -0.221 C  
HETATM    2  N   UNL     1      -9.425   6.925  73.630  1.00  0.00    -0.170 N  
HETATM    3  C   UNL     1      -7.983   7.056  73.350  1.00  0.00    -0.096 C  
ENDROOT
BRANCH   2   4
HETATM    4  S   UNL     1     -10.463   7.164  72.296  1.00  0.00    -0.217 S  
HETATM    5  O   UNL     1     -10.389   8.564  71.913  1.00  0.00    -0.252 OA 
HETATM    6  O   UNL     1     -11.730   6.528  72.571  1.00  0.00    -0.250 OA 
BRANCH   4   7
HETATM    7  C   UNL     1      -9.643   6.230  71.013  1.00  0.00    -0.175 A  
HETATM    8  C   UNL     1      -9.306   6.876  69.814  1.00  0.00    -0.146 A  
HETATM    9  C   UNL     1      -8.703   6.239  68.707  1.00  0.00    -0.121 A  
HETATM   10  C   UNL     1      -8.438   4.873  68.912  1.00  0.00    -0.082 A  
HETATM   11  S   UNL     1      -7.647   3.798  67.756  1.00  0.00    -0.067 SA 
HETATM   12  C   UNL     1      -8.771   4.220  70.129  1.00  0.00    -0.115 A  
HETATM   13  C   UNL     1      -7.499   4.770  66.290  1.00  0.00    -0.086 A  
HETATM   14  C   UNL     1      -9.362   4.895  71.186  1.00  0.00    -0.204 A  
HETATM   15  C   UNL     1      -6.994   4.037  65.191  1.00  0.00    -0.058 A  
HETATM   16  C   UNL     1      -6.813   4.623  63.949  1.00  0.00    -0.044 A  
HETATM   17  C   UNL     1      -7.151   5.953  63.792  1.00  0.00    -0.052 A  
HETATM   18  C   UNL     1      -7.658   6.688  64.877  1.00  0.00    -0.101 A  
HETATM   19  C   UNL     1      -7.834   6.133  66.170  1.00  0.00    -0.105 A  
HETATM   20  C   UNL     1      -8.370   6.936  67.368  1.00  0.00    -0.122 C  
HETATM   21  C   UNL     1      -8.522   8.286  67.187  1.00  0.00    -0.123 C  
HETATM   22  C   UNL     1      -9.031   9.301  68.178  1.00  0.00    -0.128 C  
BRANCH  22  23
HETATM   23  C   UNL     1      -9.038  10.818  67.945  1.00  0.00    -0.150 C  
BRANCH  23  24
HETATM   24  N   UNL     1     -10.424  11.276  67.649  1.00  0.00    -0.186 NA 
HETATM   25  C   UNL     1     -11.359  11.273  68.805  1.00  0.00    -0.270 C  
HETATM   26  C   UNL     1     -11.208  12.432  69.829  1.00  0.00     0.046 C  
HETATM   27  N   UNL     1     -10.946  13.783  69.287  1.00  0.00    -0.208 NA 
HETATM   28  C   UNL     1     -10.052  13.715  68.118  1.00  0.00    -0.245 C  
HETATM   29  C   UNL     1     -12.180  14.495  68.963  1.00  0.00    -0.180 C  
HETATM   30  C   UNL     1     -10.441  12.637  67.086  1.00  0.00    -0.235 C  
ENDBRANCH  23  24
ENDBRANCH  22  23
ENDBRANCH   4   7
ENDBRANCH   2   4
TORSDOF 4
ENDMDL
MODEL      140
REMARK 921   NORMALIZED FREE ENERGY PREDICTED BY IDOCK:   -3.26 KCAL/MOL
REMARK 922        TOTAL FREE ENERGY PREDICTED BY IDOCK:   -4.67 KCAL/MOL
REMARK 923 INTER-LIGAND FREE ENERGY PREDICTED BY IDOCK:   -4.56 KCAL/MOL
REMARK 924 INTRA-LIGAND FREE ENERGY PREDICTED BY IDOCK:   -0.11 KCAL/MOL
REMARK 927      BINDING AFFINITY PREDICTED BY RF-SCORE:    0.00 PKD
ROOT
HETATM    1  C   UNL     1      -7.193  16.431  66.761  1.00  0.00    -0.210 C  
HETATM    2  N   UNL     1      -6.510  15.504  67.682  1.00  0.00    -0.159 N  
HETATM    3  C   UNL     1      -5.167  15.961  68.086  1.00  0.00    -0.115 C  
ENDROOT
BRANCH   2   4
HETATM    4  S   UNL     1      -7.458  14.806  68.919  1.00  0.00    -0.145 S  
HETATM    5  O   UNL     1      -8.833  14.743  68.451  1.00  0.00    -0.168 OA 
HETATM    6  O   UNL     1      -7.121  15.436  70.175  1.00  0.00    -0.063 OA 
BRANCH   4   7
HETATM    7  C   UNL     1      -6.844  13.130  68.960  1.00  0.00    -0.090 A  
HETATM    8  C   UNL     1      -7.636  12.105  68.421  1.00  0.00    -0.128 A  
HETATM    9  C   UNL     1      -7.289  10.735  68.438  1.00  0.00    -0.092 A  
HETATM   10  C   UNL     1      -6.041  10.473  69.031  1.00  0.00    -0.040 A  
HETATM   11  S   UNL     1      -5.285   8.883  69.167  1.00  0.00    -0.036 SA 
HETATM   12  C   UNL     1      -5.234  11.512  69.568  1.00  0.00    -0.053 A  
HETATM   13  C   UNL     1      -6.529   7.762  68.608  1.00  0.00    -0.048 A  
HETATM   14  C   UNL     1      -5.624  12.841  69.525  1.00  0.00    -0.090 A  
HETATM   15  C   UNL     1      -6.158   6.406  68.759  1.00  0.00    -0.029 A  
HETATM   16  C   UNL     1      -7.004   5.375  68.386  1.00  0.00    -0.061 A  
HETATM   17  C   UNL     1      -8.243   5.694  67.866  1.00  0.00    -0.101 A  
HETATM   18  C   UNL     1      -8.623   7.039  67.718  1.00  0.00    -0.122 A  
HETATM   19  C   UNL     1      -7.777   8.123  68.064  1.00  0.00    -0.114 A  
HETATM   20  C   UNL     1      -8.178   9.598  67.886  1.00  0.00    -0.106 C  
HETATM   21  C   UNL     1      -9.345   9.842  67.209  1.00  0.00    -0.167 C  
HETATM   22  C   UNL     1      -9.975  11.177  66.902  1.00  0.00    -0.230 C  
BRANCH  22  23
HETATM   23  C   UNL     1     -11.212  11.373  66.017  1.00  0.00    -0.112 C  
BRANCH  23  24
HETATM   24  N   UNL     1     -11.866  12.670  66.342  1.00  0.00    -0.462 NA 
HETATM   25  C   UNL     1     -10.945  13.771  66.728  1.00  0.00    -0.304 C  
HETATM   26  C   UNL     1     -10.168  14.467  65.576  1.00  0.00    -0.370 C  
HETATM   27  N   UNL     1     -10.909  14.731  64.323  1.00  0.00     0.056 NA 
HETATM   28  C   UNL     1     -11.836  13.627  64.021  1.00  0.00    -0.400 C  
HETATM   29  C   UNL     1     -11.610  16.011  64.357  1.00  0.00    -0.212 C  
HETATM   30  C   UNL     1     -12.685  13.166  65.223  1.00  0.00    -0.394 C  
ENDBRANCH  23  24
ENDBRANCH  22  23
ENDBRANCH   4   7
ENDBRANCH   2   4
TORSDOF 4
ENDMDL
MODEL      141
REMARK 921   NORMALIZED FREE ENERGY PREDICTED BY IDOCK:   -3.21 KCAL/MOL
REMARK 922        TOTAL FREE ENERGY PREDICTED BY IDOCK:   -4.61 KCAL/MOL
REMARK 923 INTER-LIGAND FREE ENERGY PREDICTED BY IDOCK:   -4.10 KCAL/MOL
REMARK 924 INTRA-LIGAND FREE ENERGY PREDICTED BY IDOCK:   -0.51 KCAL/MOL
REMARK 927      BINDING AFFINITY PREDICTED BY RF-SCORE:    0.00 PKD
ROOT
HETATM    1  C   UNL     1     -11.570  11.094  69.534  1.00  0.00    -0.321 C  
HETATM    2  N   UNL     1     -10.583  10.248  70.230  1.00  0.00    -0.261 N  
HETATM    3  C   UNL     1     -11.130   8.951  70.673  1.00  0.00    -0.262 C  
ENDROOT
BRANCH   2   4
HETATM    4  S   UNL     1      -9.007  10.200  69.575  1.00  0.00    -0.157 S  
HETATM    5  O   UNL     1      -8.088   9.831  70.639  1.00  0.00    -0.264 OA 
HETATM    6  O   UNL     1      -8.797  11.388  68.781  1.00  0.00    -0.150 OA 
BRANCH   4   7
HETATM    7  C   UNL     1      -9.106   8.805  68.465  1.00  0.00    -0.138 A  
HETATM    8  C   UNL     1      -8.597   7.567  68.885  1.00  0.00    -0.129 A  
HETATM    9  C   UNL     1      -8.569   6.403  68.086  1.00  0.00    -0.117 A  
HETATM   10  C   UNL     1      -9.128   6.578  66.807  1.00  0.00    -0.144 A  
HETATM   11  S   UNL     1      -9.298   5.318  65.582  1.00  0.00    -0.064 SA 
HETATM   12  C   UNL     1      -9.651   7.829  66.384  1.00  0.00    -0.235 A  
HETATM   13  C   UNL     1      -8.430   3.936  66.257  1.00  0.00    -0.109 A  
HETATM   14  C   UNL     1      -9.655   8.941  67.211  1.00  0.00    -0.212 A  
HETATM   15  C   UNL     1      -8.344   2.847  65.359  1.00  0.00    -0.094 A  
HETATM   16  C   UNL     1      -7.693   1.673  65.701  1.00  0.00    -0.067 A  
HETATM   17  C   UNL     1      -7.109   1.583  66.949  1.00  0.00    -0.046 A  
HETATM   18  C   UNL     1      -7.185   2.662  67.846  1.00  0.00    -0.049 A  
HETATM   19  C   UNL     1      -7.863   3.871  67.544  1.00  0.00    -0.086 A  
HETATM   20  C   UNL     1      -7.968   5.048  68.528  1.00  0.00    -0.086 C  
HETATM   21  C   UNL     1      -7.518   4.829  69.804  1.00  0.00    -0.055 C  
HETATM   22  C   UNL     1      -7.493   5.799  70.957  1.00  0.00    -0.090 C  
BRANCH  22  23
HETATM   23  C   UNL     1      -7.103   5.433  72.395  1.00  0.00    -0.083 C  
BRANCH  23  24
HETATM   24  N   UNL     1      -8.283   5.577  73.291  1.00  0.00    -0.114 NA 
HETATM   25  C   UNL     1      -9.607   5.547  72.615  1.00  0.00    -0.150 C  
HETATM   26  C   UNL     1     -10.131   4.154  72.170  1.00  0.00    -0.178 C  
HETATM   27  N   UNL     1      -9.918   3.022  73.098  1.00  0.00    -0.113 NA 
HETATM   28  C   UNL     1      -8.612   3.134  73.770  1.00  0.00    -0.074 C  
HETATM   29  C   UNL     1     -11.000   2.897  74.072  1.00  0.00    -0.150 C  
HETATM   30  C   UNL     1      -8.308   4.537  74.334  1.00  0.00    -0.097 C  
ENDBRANCH  23  24
ENDBRANCH  22  23
ENDBRANCH   4   7
ENDBRANCH   2   4
TORSDOF 4
ENDMDL
MODEL      142
REMARK 921   NORMALIZED FREE ENERGY PREDICTED BY IDOCK:   -3.16 KCAL/MOL
REMARK 922        TOTAL FREE ENERGY PREDICTED BY IDOCK:   -4.55 KCAL/MOL
REMARK 923 INTER-LIGAND FREE ENERGY PREDICTED BY IDOCK:   -4.90 KCAL/MOL
REMARK 924 INTRA-LIGAND FREE ENERGY PREDICTED BY IDOCK:    0.34 KCAL/MOL
REMARK 927      BINDING AFFINITY PREDICTED BY RF-SCORE:    0.00 PKD
ROOT
HETATM    1  C   UNL     1      -5.172  10.128  67.605  1.00  0.00    -0.037 C  
HETATM    2  N   UNL     1      -6.052  11.234  67.184  1.00  0.00    -0.079 N  
HETATM    3  C   UNL     1      -6.443  11.164  65.763  1.00  0.00     0.148 C  
ENDROOT
BRANCH   2   4
HETATM    4  S   UNL     1      -7.287  11.695  68.269  1.00  0.00    -0.101 S  
HETATM    5  O   UNL     1      -7.141  10.901  69.479  1.00  0.00    -0.115 OA 
HETATM    6  O   UNL     1      -8.540  11.748  67.554  1.00  0.00    -0.146 OA 
BRANCH   4   7
HETATM    7  C   UNL     1      -6.815  13.366  68.684  1.00  0.00    -0.098 A  
HETATM    8  C   UNL     1      -7.361  14.427  67.947  1.00  0.00    -0.163 A  
HETATM    9  C   UNL     1      -7.030  15.787  68.142  1.00  0.00    -0.125 A  
HETATM   10  C   UNL     1      -6.104  16.004  69.177  1.00  0.00    -0.136 A  
HETATM   11  S   UNL     1      -5.519  17.580  69.715  1.00  0.00    -0.230 SA 
HETATM   12  C   UNL     1      -5.558  14.930  69.930  1.00  0.00    -0.110 A  
HETATM   13  C   UNL     1      -6.183  18.715  68.537  1.00  0.00    -0.214 A  
HETATM   14  C   UNL     1      -5.918  13.612  69.697  1.00  0.00    -0.115 A  
HETATM   15  C   UNL     1      -5.721  20.039  68.724  1.00  0.00    -0.272 A  
HETATM   16  C   UNL     1      -6.122  21.073  67.895  1.00  0.00    -0.408 A  
HETATM   17  C   UNL     1      -6.985  20.787  66.855  1.00  0.00    -0.361 A  
HETATM   18  C   UNL     1      -7.446  19.474  66.658  1.00  0.00    -0.264 A  
HETATM   19  C   UNL     1      -7.080  18.392  67.500  1.00  0.00    -0.207 A  
HETATM   20  C   UNL     1      -7.595  16.956  67.302  1.00  0.00    -0.199 C  
HETATM   21  C   UNL     1      -8.577  16.777  66.363  1.00  0.00    -0.338 C  
HETATM   22  C   UNL     1      -9.250  15.489  65.962  1.00  0.00    -0.361 C  
BRANCH  22  23
HETATM   23  C   UNL     1     -10.442  15.392  65.001  1.00  0.00    -0.381 C  
BRANCH  23  24
HETATM   24  N   UNL     1     -11.708  15.277  65.775  1.00  0.00    -0.023 NA 
HETATM   25  C   UNL     1     -12.555  14.101  65.445  1.00  0.00    -0.466 C  
HETATM   26  C   UNL     1     -12.098  12.729  66.014  1.00  0.00    -0.395 C  
HETATM   27  N   UNL     1     -11.578  12.710  67.399  1.00  0.00    -0.340 NA 
HETATM   28  C   UNL     1     -10.787  13.921  67.678  1.00  0.00    -0.254 C  
HETATM   29  C   UNL     1     -12.643  12.540  68.384  1.00  0.00     1.116 C  
HETATM   30  C   UNL     1     -11.459  15.235  67.227  1.00  0.00    -0.224 C  
ENDBRANCH  23  24
ENDBRANCH  22  23
ENDBRANCH   4   7
ENDBRANCH   2   4
TORSDOF 4
ENDMDL
MODEL      143
REMARK 921   NORMALIZED FREE ENERGY PREDICTED BY IDOCK:   -3.16 KCAL/MOL
REMARK 922        TOTAL FREE ENERGY PREDICTED BY IDOCK:   -4.55 KCAL/MOL
REMARK 923 INTER-LIGAND FREE ENERGY PREDICTED BY IDOCK:   -5.24 KCAL/MOL
REMARK 924 INTRA-LIGAND FREE ENERGY PREDICTED BY IDOCK:    0.69 KCAL/MOL
REMARK 927      BINDING AFFINITY PREDICTED BY RF-SCORE:    0.00 PKD
ROOT
HETATM    1  C   UNL     1     -10.900  17.627  68.357  1.00  0.00    -0.143 C  
HETATM    2  N   UNL     1     -10.150  18.857  68.047  1.00  0.00    -0.358 N  
HETATM    3  C   UNL     1     -10.019  19.771  69.199  1.00  0.00    -0.308 C  
ENDROOT
BRANCH   2   4
HETATM    4  S   UNL     1      -8.756  18.688  67.076  1.00  0.00    -0.288 S  
HETATM    5  O   UNL     1      -8.044  19.955  67.085  1.00  0.00    -0.282 OA 
HETATM    6  O   UNL     1      -9.126  18.045  65.837  1.00  0.00    -0.513 OA 
BRANCH   4   7
HETATM    7  C   UNL     1      -7.777  17.534  68.025  1.00  0.00    -0.211 A  
HETATM    8  C   UNL     1      -7.977  16.159  67.835  1.00  0.00    -0.150 A  
HETATM    9  C   UNL     1      -7.305  15.148  68.558  1.00  0.00    -0.119 A  
HETATM   10  C   UNL     1      -6.377  15.639  69.493  1.00  0.00    -0.166 A  
HETATM   11  S   UNL     1      -5.335  14.651  70.520  1.00  0.00    -0.136 SA 
HETATM   12  C   UNL     1      -6.168  17.032  69.680  1.00  0.00    -0.232 A  
HETATM   13  C   UNL     1      -5.896  12.999  70.245  1.00  0.00    -0.157 A  
HETATM   14  C   UNL     1      -6.855  17.983  68.941  1.00  0.00    -0.256 A  
HETATM   15  C   UNL     1      -5.260  12.054  71.083  1.00  0.00    -0.115 A  
HETATM   16  C   UNL     1      -5.571  10.705  71.024  1.00  0.00    -0.064 A  
HETATM   17  C   UNL     1      -6.537  10.290  70.128  1.00  0.00    -0.138 A  
HETATM   18  C   UNL     1      -7.178  11.223  69.295  1.00  0.00    -0.094 A  
HETATM   19  C   UNL     1      -6.871  12.608  69.307  1.00  0.00    -0.012 A  
HETATM   20  C   UNL     1      -7.554  13.632  68.384  1.00  0.00    -0.132 C  
HETATM   21  C   UNL     1      -8.374  13.131  67.406  1.00  0.00    -0.188 C  
HETATM   22  C   UNL     1      -9.167  13.899  66.381  1.00  0.00    -0.174 C  
BRANCH  22  23
HETATM   23  C   UNL     1      -9.952  13.259  65.228  1.00  0.00    -0.173 C  
BRANCH  23  24
HETATM   24  N   UNL     1     -10.208  11.824  65.529  1.00  0.00    -0.242 NA 
HETATM   25  C   UNL     1     -10.872  11.052  64.445  1.00  0.00    -0.192 C  
HETATM   26  C   UNL     1      -9.982  10.628  63.244  1.00  0.00    -0.255 C  
HETATM   27  N   UNL     1      -8.613  10.156  63.550  1.00  0.00    -0.183 NA 
HETATM   28  C   UNL     1      -8.029  10.928  64.660  1.00  0.00     0.284 C  
HETATM   29  C   UNL     1      -8.574   8.723  63.829  1.00  0.00    -0.042 C  
HETATM   30  C   UNL     1      -8.968  11.106  65.871  1.00  0.00    -0.199 C  
ENDBRANCH  23  24
ENDBRANCH  22  23
ENDBRANCH   4   7
ENDBRANCH   2   4
TORSDOF 4
ENDMDL
MODEL      144
REMARK 921   NORMALIZED FREE ENERGY PREDICTED BY IDOCK:   -3.14 KCAL/MOL
REMARK 922        TOTAL FREE ENERGY PREDICTED BY IDOCK:   -4.53 KCAL/MOL
REMARK 923 INTER-LIGAND FREE ENERGY PREDICTED BY IDOCK:   -4.61 KCAL/MOL
REMARK 924 INTRA-LIGAND FREE ENERGY PREDICTED BY IDOCK:    0.09 KCAL/MOL
REMARK 927      BINDING AFFINITY PREDICTED BY RF-SCORE:    0.00 PKD
ROOT
HETATM    1  C   UNL     1      -6.037   4.550  68.142  1.00  0.00    -0.031 C  
HETATM    2  N   UNL     1      -7.140   3.607  68.403  1.00  0.00    -0.050 N  
HETATM    3  C   UNL     1      -7.889   3.907  69.638  1.00  0.00    -0.052 C  
ENDROOT
BRANCH   2   4
HETATM    4  S   UNL     1      -8.084   3.132  67.062  1.00  0.00    -0.080 S  
HETATM    5  O   UNL     1      -9.470   3.050  67.494  1.00  0.00    -0.204 OA 
HETATM    6  O   UNL     1      -7.436   2.021  66.405  1.00  0.00    -0.060 OA 
BRANCH   4   7
HETATM    7  C   UNL     1      -7.956   4.557  65.993  1.00  0.00    -0.099 A  
HETATM    8  C   UNL     1      -8.637   5.732  66.345  1.00  0.00    -0.125 A  
HETATM    9  C   UNL     1      -8.658   6.907  65.561  1.00  0.00    -0.087 A  
HETATM   10  C   UNL     1      -7.903   6.814  64.377  1.00  0.00    -0.113 A  
HETATM   11  S   UNL     1      -7.675   8.112  63.203  1.00  0.00    -0.144 SA 
HETATM   12  C   UNL     1      -7.206   5.627  64.025  1.00  0.00    -0.055 A  
HETATM   13  C   UNL     1      -8.759   9.392  63.755  1.00  0.00    -0.201 A  
HETATM   14  C   UNL     1      -7.219   4.501  64.833  1.00  0.00    -0.067 A  
HETATM   15  C   UNL     1      -8.816  10.489  62.864  1.00  0.00    -0.240 A  
HETATM   16  C   UNL     1      -9.617  11.590  63.117  1.00  0.00    -0.381 A  
HETATM   17  C   UNL     1     -10.385  11.596  64.265  1.00  0.00    -0.371 A  
HETATM   18  C   UNL     1     -10.339  10.509  65.154  1.00  0.00    -0.310 A  
HETATM   19  C   UNL     1      -9.512   9.375  64.944  1.00  0.00    -0.150 A  
HETATM   20  C   UNL     1      -9.442   8.189  65.922  1.00  0.00    -0.082 C  
HETATM   21  C   UNL     1     -10.093   8.337  67.119  1.00  0.00    -0.334 C  
HETATM   22  C   UNL     1     -10.195   7.342  68.246  1.00  0.00    -0.208 C  
BRANCH  22  23
HETATM   23  C   UNL     1     -10.825   7.636  69.614  1.00  0.00    -0.191 C  
BRANCH  23  24
HETATM   24  N   UNL     1      -9.764   7.700  70.656  1.00  0.00    -0.175 NA 
HETATM   25  C   UNL     1      -8.438   7.162  70.252  1.00  0.00    -0.138 C  
HETATM   26  C   UNL     1      -7.570   8.065  69.332  1.00  0.00    -0.102 C  
HETATM   27  N   UNL     1      -7.553   9.514  69.627  1.00  0.00    -0.091 NA 
HETATM   28  C   UNL     1      -8.882   9.975  70.066  1.00  0.00    -0.080 C  
HETATM   29  C   UNL     1      -6.527   9.865  70.606  1.00  0.00    -0.106 C  
HETATM   30  C   UNL     1      -9.545   9.077  71.130  1.00  0.00    -0.286 C  
ENDBRANCH  23  24
ENDBRANCH  22  23
ENDBRANCH   4   7
ENDBRANCH   2   4
TORSDOF 4
ENDMDL
MODEL      145
REMARK 921   NORMALIZED FREE ENERGY PREDICTED BY IDOCK:   -3.14 KCAL/MOL
REMARK 922        TOTAL FREE ENERGY PREDICTED BY IDOCK:   -4.52 KCAL/MOL
REMARK 923 INTER-LIGAND FREE ENERGY PREDICTED BY IDOCK:   -4.38 KCAL/MOL
REMARK 924 INTRA-LIGAND FREE ENERGY PREDICTED BY IDOCK:   -0.13 KCAL/MOL
REMARK 927      BINDING AFFINITY PREDICTED BY RF-SCORE:    0.00 PKD
ROOT
HETATM    1  C   UNL     1     -11.960  13.683  62.733  1.00  0.00     1.412 C  
HETATM    2  N   UNL     1     -11.679  14.023  64.140  1.00  0.00    -0.356 N  
HETATM    3  C   UNL     1     -11.395  15.456  64.352  1.00  0.00    -0.238 C  
ENDROOT
BRANCH   2   4
HETATM    4  S   UNL     1     -12.658  13.279  65.325  1.00  0.00    -0.412 S  
HETATM    5  O   UNL     1     -13.451  12.251  64.672  1.00  0.00    -0.620 OA 
HETATM    6  O   UNL     1     -13.277  14.306  66.130  1.00  0.00     0.021 OA 
BRANCH   4   7
HETATM    7  C   UNL     1     -11.448  12.439  66.336  1.00  0.00    -0.373 A  
HETATM    8  C   UNL     1     -10.536  13.204  67.078  1.00  0.00    -0.259 A  
HETATM    9  C   UNL     1      -9.502  12.662  67.873  1.00  0.00    -0.204 A  
HETATM   10  C   UNL     1      -9.471  11.256  67.883  1.00  0.00    -0.178 A  
HETATM   11  S   UNL     1      -8.344  10.262  68.811  1.00  0.00    -0.133 SA 
HETATM   12  C   UNL     1     -10.400  10.481  67.138  1.00  0.00    -0.285 A  
HETATM   13  C   UNL     1      -7.202  11.423  69.493  1.00  0.00     0.025 A  
HETATM   14  C   UNL     1     -11.397  11.065  66.374  1.00  0.00     0.097 A  
HETATM   15  C   UNL     1      -6.131  10.806  70.180  1.00  0.00    -0.118 A  
HETATM   16  C   UNL     1      -5.126  11.548  70.777  1.00  0.00    -0.120 A  
HETATM   17  C   UNL     1      -5.178  12.925  70.681  1.00  0.00    -0.139 A  
HETATM   18  C   UNL     1      -6.235  13.548  69.995  1.00  0.00    -0.098 A  
HETATM   19  C   UNL     1      -7.296  12.825  69.393  1.00  0.00     0.356 A  
HETATM   20  C   UNL     1      -8.467  13.500  68.658  1.00  0.00    -0.017 C  
HETATM   21  C   UNL     1      -8.547  14.866  68.747  1.00  0.00    -0.177 C  
HETATM   22  C   UNL     1      -9.574  15.776  68.125  1.00  0.00    -0.199 C  
BRANCH  22  23
HETATM   23  C   UNL     1      -9.675  17.284  68.388  1.00  0.00    -0.293 C  
BRANCH  23  24
HETATM   24  N   UNL     1      -8.312  17.877  68.458  1.00  0.00    -0.302 NA 
HETATM   25  C   UNL     1      -7.304  17.274  67.545  1.00  0.00    -0.166 C  
HETATM   26  C   UNL     1      -7.389  17.679  66.048  1.00  0.00    -0.266 C  
HETATM   27  N   UNL     1      -7.684  19.097  65.746  1.00  0.00    -0.459 NA 
HETATM   28  C   UNL     1      -8.651  19.649  66.711  1.00  0.00    -0.320 C  
HETATM   29  C   UNL     1      -6.473  19.912  65.693  1.00  0.00    -0.242 C  
HETATM   30  C   UNL     1      -8.329  19.324  68.185  1.00  0.00    -0.323 C  
ENDBRANCH  23  24
ENDBRANCH  22  23
ENDBRANCH   4   7
ENDBRANCH   2   4
TORSDOF 4
ENDMDL
MODEL      146
REMARK 921   NORMALIZED FREE ENERGY PREDICTED BY IDOCK:   -3.10 KCAL/MOL
REMARK 922        TOTAL FREE ENERGY PREDICTED BY IDOCK:   -4.47 KCAL/MOL
REMARK 923 INTER-LIGAND FREE ENERGY PREDICTED BY IDOCK:   -3.83 KCAL/MOL
REMARK 924 INTRA-LIGAND FREE ENERGY PREDICTED BY IDOCK:   -0.64 KCAL/MOL
REMARK 927      BINDING AFFINITY PREDICTED BY RF-SCORE:    0.00 PKD
ROOT
HETATM    1  C   UNL     1     -10.131  11.343  69.310  1.00  0.00     0.070 C  
HETATM    2  N   UNL     1      -8.982  10.439  69.502  1.00  0.00    -0.154 N  
HETATM    3  C   UNL     1      -7.727  11.144  69.825  1.00  0.00     0.410 C  
ENDROOT
BRANCH   2   4
HETATM    4  S   UNL     1      -9.269   9.001  70.377  1.00  0.00    -0.229 S  
HETATM    5  O   UNL     1     -10.697   8.728  70.337  1.00  0.00    -0.213 OA 
HETATM    6  O   UNL     1      -8.552   9.066  71.629  1.00  0.00    -0.333 OA 
BRANCH   4   7
HETATM    7  C   UNL     1      -8.477   7.774  69.349  1.00  0.00    -0.134 A  
HETATM    8  C   UNL     1      -8.565   7.898  67.955  1.00  0.00    -0.125 A  
HETATM    9  C   UNL     1      -8.027   6.969  67.036  1.00  0.00    -0.116 A  
HETATM   10  C   UNL     1      -7.357   5.892  67.643  1.00  0.00    -0.077 A  
HETATM   11  S   UNL     1      -6.529   4.588  66.789  1.00  0.00    -0.042 SA 
HETATM   12  C   UNL     1      -7.260   5.770  69.055  1.00  0.00    -0.078 A  
HETATM   13  C   UNL     1      -6.936   4.854  65.091  1.00  0.00    -0.062 A  
HETATM   14  C   UNL     1      -7.807   6.713  69.912  1.00  0.00    -0.115 A  
HETATM   15  C   UNL     1      -6.462   3.826  64.242  1.00  0.00    -0.037 A  
HETATM   16  C   UNL     1      -6.688   3.850  62.876  1.00  0.00    -0.034 A  
HETATM   17  C   UNL     1      -7.407   4.903  62.346  1.00  0.00    -0.042 A  
HETATM   18  C   UNL     1      -7.887   5.926  63.182  1.00  0.00    -0.099 A  
HETATM   19  C   UNL     1      -7.654   5.952  64.581  1.00  0.00    -0.089 A  
HETATM   20  C   UNL     1      -8.159   7.078  65.499  1.00  0.00    -0.132 C  
HETATM   21  C   UNL     1      -8.713   8.172  64.887  1.00  0.00     0.041 C  
HETATM   22  C   UNL     1      -9.290   9.403  65.538  1.00  0.00    -0.315 C  
BRANCH  22  23
HETATM   23  C   UNL     1      -9.765  10.649  64.777  1.00  0.00    -0.292 C  
BRANCH  23  24
HETATM   24  N   UNL     1     -10.677  11.449  65.639  1.00  0.00    -0.261 NA 
HETATM   25  C   UNL     1     -10.151  12.769  66.076  1.00  0.00    -0.268 C  
HETATM   26  C   UNL     1     -10.167  13.910  65.023  1.00  0.00    -0.358 C  
HETATM   27  N   UNL     1     -11.359  14.011  64.151  1.00  0.00    -0.241 NA 
HETATM   28  C   UNL     1     -11.859  12.673  63.792  1.00  0.00    -0.498 C  
HETATM   29  C   UNL     1     -12.414  14.821  64.754  1.00  0.00    -0.210 C  
HETATM   30  C   UNL     1     -11.972  11.698  64.982  1.00  0.00     0.199 C  
ENDBRANCH  23  24
ENDBRANCH  22  23
ENDBRANCH   4   7
ENDBRANCH   2   4
TORSDOF 4
ENDMDL
MODEL      147
REMARK 921   NORMALIZED FREE ENERGY PREDICTED BY IDOCK:   -3.07 KCAL/MOL
REMARK 922        TOTAL FREE ENERGY PREDICTED BY IDOCK:   -4.44 KCAL/MOL
REMARK 923 INTER-LIGAND FREE ENERGY PREDICTED BY IDOCK:   -5.04 KCAL/MOL
REMARK 924 INTRA-LIGAND FREE ENERGY PREDICTED BY IDOCK:    0.60 KCAL/MOL
REMARK 927      BINDING AFFINITY PREDICTED BY RF-SCORE:    0.00 PKD
ROOT
HETATM    1  C   UNL     1     -11.605  14.824  72.131  1.00  0.00    -0.052 C  
HETATM    2  N   UNL     1     -11.543  14.550  70.684  1.00  0.00    -0.257 N  
HETATM    3  C   UNL     1     -12.867  14.336  70.069  1.00  0.00     0.011 C  
ENDROOT
BRANCH   2   4
HETATM    4  S   UNL     1     -10.445  15.483  69.768  1.00  0.00    -0.313 S  
HETATM    5  O   UNL     1      -9.103  15.204  70.254  1.00  0.00     0.252 OA 
HETATM    6  O   UNL     1     -10.943  16.835  69.678  1.00  0.00    -0.287 OA 
BRANCH   4   7
HETATM    7  C   UNL     1     -10.577  14.736  68.151  1.00  0.00    -0.241 A  
HETATM    8  C   UNL     1     -10.016  13.467  67.942  1.00  0.00    -0.245 A  
HETATM    9  C   UNL     1     -10.009  12.792  66.701  1.00  0.00    -0.246 A  
HETATM   10  C   UNL     1     -10.647  13.500  65.666  1.00  0.00    -0.284 A  
HETATM   11  S   UNL     1     -10.861  12.924  64.011  1.00  0.00    -0.377 SA 
HETATM   12  C   UNL     1     -11.223  14.781  65.879  1.00  0.00    -0.340 A  
HETATM   13  C   UNL     1      -9.924  11.428  63.948  1.00  0.00    -0.315 A  
HETATM   14  C   UNL     1     -11.203  15.398  67.121  1.00  0.00    -0.256 A  
HETATM   15  C   UNL     1      -9.867  10.868  62.650  1.00  0.00    -0.178 A  
HETATM   16  C   UNL     1      -9.170   9.698  62.394  1.00  0.00    -0.248 A  
HETATM   17  C   UNL     1      -8.511   9.082  63.440  1.00  0.00    -0.176 A  
HETATM   18  C   UNL     1      -8.558   9.634  64.731  1.00  0.00    -0.197 A  
HETATM   19  C   UNL     1      -9.280  10.815  65.040  1.00  0.00    -0.241 A  
HETATM   20  C   UNL     1      -9.353  11.414  66.455  1.00  0.00    -0.219 C  
HETATM   21  C   UNL     1      -8.823  10.663  67.471  1.00  0.00    -0.132 C  
HETATM   22  C   UNL     1      -8.752  11.008  68.937  1.00  0.00    -0.122 C  
BRANCH  22  23
HETATM   23  C   UNL     1      -8.268  10.051  70.034  1.00  0.00    -0.116 C  
BRANCH  23  24
HETATM   24  N   UNL     1      -8.471   8.641  69.600  1.00  0.00    -0.126 NA 
HETATM   25  C   UNL     1      -8.020   8.326  68.219  1.00  0.00    -0.119 C  
HETATM   26  C   UNL     1      -6.490   8.157  68.006  1.00  0.00    -0.056 C  
HETATM   27  N   UNL     1      -5.738   7.430  69.052  1.00  0.00    -0.019 NA 
HETATM   28  C   UNL     1      -6.261   7.749  70.391  1.00  0.00    -0.037 C  
HETATM   29  C   UNL     1      -5.729   5.987  68.822  1.00  0.00    -0.012 C  
HETATM   30  C   UNL     1      -7.799   7.689  70.501  1.00  0.00    -0.095 C  
ENDBRANCH  23  24
ENDBRANCH  22  23
ENDBRANCH   4   7
ENDBRANCH   2   4
TORSDOF 4
ENDMDL
MODEL      148
REMARK 921   NORMALIZED FREE ENERGY PREDICTED BY IDOCK:   -3.07 KCAL/MOL
REMARK 922        TOTAL FREE ENERGY PREDICTED BY IDOCK:   -4.43 KCAL/MOL
REMARK 923 INTER-LIGAND FREE ENERGY PREDICTED BY IDOCK:   -4.37 KCAL/MOL
REMARK 924 INTRA-LIGAND FREE ENERGY PREDICTED BY IDOCK:   -0.06 KCAL/MOL
REMARK 927      BINDING AFFINITY PREDICTED BY RF-SCORE:    0.00 PKD
ROOT
HETATM    1  C   UNL     1     -12.089  15.776  64.843  1.00  0.00     0.360 C  
HETATM    2  N   UNL     1     -10.905  15.528  65.687  1.00  0.00    -0.346 N  
HETATM    3  C   UNL     1     -10.325  16.757  66.262  1.00  0.00    -0.310 C  
ENDROOT
BRANCH   2   4
HETATM    4  S   UNL     1     -10.973  14.182  66.735  1.00  0.00    -0.306 S  
HETATM    5  O   UNL     1     -12.369  13.931  67.056  1.00  0.00    -0.391 OA 
HETATM    6  O   UNL     1      -9.983  14.349  67.773  1.00  0.00    -0.222 OA 
BRANCH   4   7
HETATM    7  C   UNL     1     -10.437  12.852  65.670  1.00  0.00    -0.277 A  
HETATM    8  C   UNL     1      -9.322  12.088  66.046  1.00  0.00    -0.196 A  
HETATM    9  C   UNL     1      -8.770  11.046  65.270  1.00  0.00    -0.099 A  
HETATM   10  C   UNL     1      -9.458  10.809  64.066  1.00  0.00    -0.272 A  
HETATM   11  S   UNL     1      -9.065   9.550  62.892  1.00  0.00    -0.027 SA 
HETATM   12  C   UNL     1     -10.592  11.576  63.688  1.00  0.00    -0.491 A  
HETATM   13  C   UNL     1      -7.546   8.867  63.480  1.00  0.00    -0.118 A  
HETATM   14  C   UNL     1     -11.094  12.589  64.490  1.00  0.00    -0.357 A  
HETATM   15  C   UNL     1      -6.993   7.911  62.597  1.00  0.00    -0.085 A  
HETATM   16  C   UNL     1      -5.798   7.268  62.877  1.00  0.00    -0.049 A  
HETATM   17  C   UNL     1      -5.137   7.588  64.047  1.00  0.00    -0.029 A  
HETATM   18  C   UNL     1      -5.676   8.541  64.928  1.00  0.00    -0.048 A  
HETATM   19  C   UNL     1      -6.908   9.202  64.690  1.00  0.00    -0.086 A  
HETATM   20  C   UNL     1      -7.515  10.231  65.659  1.00  0.00    -0.149 C  
HETATM   21  C   UNL     1      -6.897  10.374  66.874  1.00  0.00    -0.088 C  
HETATM   22  C   UNL     1      -7.270  11.306  67.999  1.00  0.00    -0.079 C  
BRANCH  22  23
HETATM   23  C   UNL     1      -6.611  11.306  69.384  1.00  0.00    -0.116 C  
BRANCH  23  24
HETATM   24  N   UNL     1      -5.532  12.330  69.430  1.00  0.00    -0.070 NA 
HETATM   25  C   UNL     1      -5.257  13.027  68.146  1.00  0.00    -0.088 C  
HETATM   26  C   UNL     1      -6.266  14.129  67.720  1.00  0.00    -0.140 C  
HETATM   27  N   UNL     1      -6.777  15.026  68.780  1.00  0.00    -0.095 NA 
HETATM   28  C   UNL     1      -6.985  14.287  70.037  1.00  0.00     0.090 C  
HETATM   29  C   UNL     1      -5.908  16.182  68.989  1.00  0.00    -0.121 C  
HETATM   30  C   UNL     1      -5.809  13.371  70.435  1.00  0.00    -0.162 C  
ENDBRANCH  23  24
ENDBRANCH  22  23
ENDBRANCH   4   7
ENDBRANCH   2   4
TORSDOF 4
ENDMDL
MODEL      149
REMARK 921   NORMALIZED FREE ENERGY PREDICTED BY IDOCK:   -3.06 KCAL/MOL
REMARK 922        TOTAL FREE ENERGY PREDICTED BY IDOCK:   -4.43 KCAL/MOL
REMARK 923 INTER-LIGAND FREE ENERGY PREDICTED BY IDOCK:   -6.06 KCAL/MOL
REMARK 924 INTRA-LIGAND FREE ENERGY PREDICTED BY IDOCK:    1.63 KCAL/MOL
REMARK 927      BINDING AFFINITY PREDICTED BY RF-SCORE:    0.00 PKD
ROOT
HETATM    1  C   UNL     1     -11.038  14.723  66.707  1.00  0.00    -0.338 C  
HETATM    2  N   UNL     1     -10.261  13.664  66.036  1.00  0.00    -0.300 N  
HETATM    3  C   UNL     1      -8.953  13.406  66.668  1.00  0.00    -0.122 C  
ENDROOT
BRANCH   2   4
HETATM    4  S   UNL     1     -11.123  12.281  65.527  1.00  0.00    -0.318 S  
HETATM    5  O   UNL     1     -10.342  11.620  64.493  1.00  0.00    -0.264 OA 
HETATM    6  O   UNL     1     -12.503  12.645  65.307  1.00  0.00    -0.566 OA 
BRANCH   4   7
HETATM    7  C   UNL     1     -11.050  11.241  66.977  1.00  0.00    -0.293 A  
HETATM    8  C   UNL     1     -10.478   9.965  66.868  1.00  0.00    -0.284 A  
HETATM    9  C   UNL     1     -10.406   9.029  67.925  1.00  0.00    -0.290 A  
HETATM   10  C   UNL     1     -10.947   9.498  69.136  1.00  0.00    -0.125 A  
HETATM   11  S   UNL     1     -10.971   8.607  70.660  1.00  0.00    -0.244 SA 
HETATM   12  C   UNL     1     -11.519  10.794  69.249  1.00  0.00    -0.369 A  
HETATM   13  C   UNL     1     -10.385   6.998  70.231  1.00  0.00    -0.203 A  
HETATM   14  C   UNL     1     -11.562  11.673  68.178  1.00  0.00    -0.389 A  
HETATM   15  C   UNL     1     -10.448   6.083  71.308  1.00  0.00    -0.283 A  
HETATM   16  C   UNL     1     -10.041   4.766  71.167  1.00  0.00    -0.261 A  
HETATM   17  C   UNL     1      -9.577   4.348  69.936  1.00  0.00    -0.275 A  
HETATM   18  C   UNL     1      -9.516   5.248  68.858  1.00  0.00    -0.173 A  
HETATM   19  C   UNL     1      -9.899   6.609  68.968  1.00  0.00    -0.149 A  
HETATM   20  C   UNL     1      -9.816   7.606  67.799  1.00  0.00    -0.196 C  
HETATM   21  C   UNL     1      -9.189   7.171  66.660  1.00  0.00    -0.193 C  
HETATM   22  C   UNL     1      -8.977   7.927  65.374  1.00  0.00     0.056 C  
BRANCH  22  23
HETATM   23  C   UNL     1      -8.140   7.419  64.192  1.00  0.00    -0.046 C  
BRANCH  23  24
HETATM   24  N   UNL     1      -6.874   8.196  64.099  1.00  0.00    -0.066 NA 
HETATM   25  C   UNL     1      -7.026   9.623  63.709  1.00  0.00    -0.112 C  
HETATM   26  C   UNL     1      -7.528  10.597  64.811  1.00  0.00     0.132 C  
HETATM   27  N   UNL     1      -6.985  10.414  66.175  1.00  0.00    -0.119 NA 
HETATM   28  C   UNL     1      -6.814   8.984  66.483  1.00  0.00    -0.079 C  
HETATM   29  C   UNL     1      -5.737  11.146  66.374  1.00  0.00    -0.146 C  
HETATM   30  C   UNL     1      -6.124   8.173  65.367  1.00  0.00    -0.045 C  
ENDBRANCH  23  24
ENDBRANCH  22  23
ENDBRANCH   4   7
ENDBRANCH   2   4
TORSDOF 4
ENDMDL
MODEL      150
REMARK 921   NORMALIZED FREE ENERGY PREDICTED BY IDOCK:   -3.06 KCAL/MOL
REMARK 922        TOTAL FREE ENERGY PREDICTED BY IDOCK:   -4.42 KCAL/MOL
REMARK 923 INTER-LIGAND FREE ENERGY PREDICTED BY IDOCK:   -4.57 KCAL/MOL
REMARK 924 INTRA-LIGAND FREE ENERGY PREDICTED BY IDOCK:    0.15 KCAL/MOL
REMARK 927      BINDING AFFINITY PREDICTED BY RF-SCORE:    0.00 PKD
ROOT
HETATM    1  C   UNL     1     -12.927   8.425  70.705  1.00  0.00     0.372 C  
HETATM    2  N   UNL     1     -12.432   9.793  70.470  1.00  0.00    -0.129 N  
HETATM    3  C   UNL     1     -12.809  10.745  71.532  1.00  0.00    -0.462 C  
ENDROOT
BRANCH   2   4
HETATM    4  S   UNL     1     -10.840   9.946  69.871  1.00  0.00    -0.296 S  
HETATM    5  O   UNL     1     -10.696   9.042  68.742  1.00  0.00    -0.195 OA 
HETATM    6  O   UNL     1      -9.918   9.910  70.983  1.00  0.00    -0.061 OA 
BRANCH   4   7
HETATM    7  C   UNL     1     -10.846  11.605  69.212  1.00  0.00    -0.152 A  
HETATM    8  C   UNL     1      -9.671  12.110  68.636  1.00  0.00    -0.090 A  
HETATM    9  C   UNL     1      -9.531  13.421  68.127  1.00  0.00    -0.218 A  
HETATM   10  C   UNL     1     -10.701  14.195  68.222  1.00  0.00    -0.249 A  
HETATM   11  S   UNL     1     -10.885  15.850  67.635  1.00  0.00    -0.291 SA 
HETATM   12  C   UNL     1     -11.894  13.681  68.797  1.00  0.00    -0.395 A  
HETATM   13  C   UNL     1      -9.256  16.319  67.141  1.00  0.00    -0.213 A  
HETATM   14  C   UNL     1     -11.977  12.385  69.282  1.00  0.00    -0.308 A  
HETATM   15  C   UNL     1      -9.167  17.675  66.751  1.00  0.00    -0.281 A  
HETATM   16  C   UNL     1      -7.970  18.236  66.338  1.00  0.00    -0.290 A  
HETATM   17  C   UNL     1      -6.840  17.441  66.325  1.00  0.00    -0.307 A  
HETATM   18  C   UNL     1      -6.918  16.094  66.717  1.00  0.00    -0.107 A  
HETATM   19  C   UNL     1      -8.129  15.476  67.121  1.00  0.00    -0.249 A  
HETATM   20  C   UNL     1      -8.225  13.996  67.532  1.00  0.00    -0.195 C  
HETATM   21  C   UNL     1      -7.109  13.226  67.333  1.00  0.00    -0.111 C  
HETATM   22  C   UNL     1      -6.924  11.764  67.650  1.00  0.00    -0.103 C  
BRANCH  22  23
HETATM   23  C   UNL     1      -5.689  10.939  67.266  1.00  0.00    -0.049 C  
BRANCH  23  24
HETATM   24  N   UNL     1      -6.104   9.742  66.486  1.00  0.00    -0.059 NA 
HETATM   25  C   UNL     1      -7.525   9.724  66.048  1.00  0.00    -0.102 C  
HETATM   26  C   UNL     1      -7.892  10.625  64.836  1.00  0.00     0.045 C  
HETATM   27  N   UNL     1      -6.931  10.674  63.713  1.00  0.00     0.132 NA 
HETATM   28  C   UNL     1      -5.544  10.642  64.209  1.00  0.00    -0.065 C  
HETATM   29  C   UNL     1      -7.165   9.610  62.740  1.00  0.00    -0.106 C  
HETATM   30  C   UNL     1      -5.279   9.562  65.279  1.00  0.00    -0.040 C  
ENDBRANCH  23  24
ENDBRANCH  22  23
ENDBRANCH   4   7
ENDBRANCH   2   4
TORSDOF 4
ENDMDL
MODEL      151
REMARK 921   NORMALIZED FREE ENERGY PREDICTED BY IDOCK:   -2.97 KCAL/MOL
REMARK 922        TOTAL FREE ENERGY PREDICTED BY IDOCK:   -4.31 KCAL/MOL
REMARK 923 INTER-LIGAND FREE ENERGY PREDICTED BY IDOCK:   -4.21 KCAL/MOL
REMARK 924 INTRA-LIGAND FREE ENERGY PREDICTED BY IDOCK:   -0.10 KCAL/MOL
REMARK 927      BINDING AFFINITY PREDICTED BY RF-SCORE:    0.00 PKD
ROOT
HETATM    1  C   UNL     1      -9.555  12.069  65.958  1.00  0.00    -0.234 C  
HETATM    2  N   UNL     1      -8.977  11.454  67.167  1.00  0.00    -0.159 N  
HETATM    3  C   UNL     1      -8.148  12.382  67.959  1.00  0.00    -0.162 C  
ENDROOT
BRANCH   2   4
HETATM    4  S   UNL     1      -9.993  10.418  68.067  1.00  0.00    -0.160 S  
HETATM    5  O   UNL     1     -11.333  10.506  67.509  1.00  0.00    -0.396 OA 
HETATM    6  O   UNL     1      -9.751  10.634  69.474  1.00  0.00    -0.170 OA 
BRANCH   4   7
HETATM    7  C   UNL     1      -9.356   8.805  67.638  1.00  0.00    -0.137 A  
HETATM    8  C   UNL     1      -8.719   8.043  68.628  1.00  0.00    -0.131 A  
HETATM    9  C   UNL     1      -8.129   6.779  68.406  1.00  0.00    -0.119 A  
HETATM   10  C   UNL     1      -8.255   6.318  67.083  1.00  0.00    -0.109 A  
HETATM   11  S   UNL     1      -7.679   4.762  66.481  1.00  0.00    -0.092 SA 
HETATM   12  C   UNL     1      -8.908   7.086  66.082  1.00  0.00    -0.165 A  
HETATM   13  C   UNL     1      -6.764   4.085  67.831  1.00  0.00    -0.047 A  
HETATM   14  C   UNL     1      -9.471   8.323  66.356  1.00  0.00    -0.287 A  
HETATM   15  C   UNL     1      -6.108   2.876  67.502  1.00  0.00    -0.028 A  
HETATM   16  C   UNL     1      -5.332   2.196  68.426  1.00  0.00    -0.013 A  
HETATM   17  C   UNL     1      -5.195   2.730  69.692  1.00  0.00    -0.011 A  
HETATM   18  C   UNL     1      -5.839   3.934  70.027  1.00  0.00    -0.018 A  
HETATM   19  C   UNL     1      -6.662   4.647  69.118  1.00  0.00    -0.046 A  
HETATM   20  C   UNL     1      -7.386   5.955  69.483  1.00  0.00    -0.075 C  
HETATM   21  C   UNL     1      -7.347   6.336  70.799  1.00  0.00    -0.076 C  
HETATM   22  C   UNL     1      -7.957   7.563  71.426  1.00  0.00    -0.095 C  
BRANCH  22  23
HETATM   23  C   UNL     1      -7.988   7.847  72.933  1.00  0.00    -0.136 C  
BRANCH  23  24
HETATM   24  N   UNL     1      -9.398   7.958  73.397  1.00  0.00    -0.282 NA 
HETATM   25  C   UNL     1     -10.394   8.286  72.343  1.00  0.00    -0.332 C  
HETATM   26  C   UNL     1     -10.811   7.129  71.393  1.00  0.00    -0.231 C  
HETATM   27  N   UNL     1     -11.013   5.795  71.999  1.00  0.00    -0.254 NA 
HETATM   28  C   UNL     1     -10.027   5.549  73.066  1.00  0.00    -0.176 C  
HETATM   29  C   UNL     1     -12.376   5.615  72.494  1.00  0.00     0.229 C  
HETATM   30  C   UNL     1      -9.857   6.722  74.054  1.00  0.00    -0.304 C  
ENDBRANCH  23  24
ENDBRANCH  22  23
ENDBRANCH   4   7
ENDBRANCH   2   4
TORSDOF 4
ENDMDL
MODEL      152
REMARK 921   NORMALIZED FREE ENERGY PREDICTED BY IDOCK:   -2.94 KCAL/MOL
REMARK 922        TOTAL FREE ENERGY PREDICTED BY IDOCK:   -4.27 KCAL/MOL
REMARK 923 INTER-LIGAND FREE ENERGY PREDICTED BY IDOCK:   -4.07 KCAL/MOL
REMARK 924 INTRA-LIGAND FREE ENERGY PREDICTED BY IDOCK:   -0.20 KCAL/MOL
REMARK 927      BINDING AFFINITY PREDICTED BY RF-SCORE:    0.00 PKD
ROOT
HETATM    1  C   UNL     1     -10.188   3.797  64.239  1.00  0.00    -0.235 C  
HETATM    2  N   UNL     1      -9.647   4.709  65.263  1.00  0.00    -0.166 N  
HETATM    3  C   UNL     1     -10.448   4.741  66.502  1.00  0.00    -0.204 C  
ENDROOT
BRANCH   2   4
HETATM    4  S   UNL     1      -7.953   4.712  65.477  1.00  0.00    -0.096 S  
HETATM    5  O   UNL     1      -7.452   6.019  65.082  1.00  0.00    -0.076 OA 
HETATM    6  O   UNL     1      -7.410   3.499  64.914  1.00  0.00    -0.069 OA 
BRANCH   4   7
HETATM    7  C   UNL     1      -7.801   4.613  67.254  1.00  0.00    -0.090 A  
HETATM    8  C   UNL     1      -7.749   5.801  67.997  1.00  0.00    -0.096 A  
HETATM    9  C   UNL     1      -7.579   5.859  69.399  1.00  0.00    -0.092 A  
HETATM   10  C   UNL     1      -7.487   4.597  70.012  1.00  0.00    -0.054 A  
HETATM   11  S   UNL     1      -7.323   4.310  71.747  1.00  0.00    -0.066 SA 
HETATM   12  C   UNL     1      -7.548   3.393  69.261  1.00  0.00    -0.051 A  
HETATM   13  C   UNL     1      -7.090   5.920  72.433  1.00  0.00    -0.085 A  
HETATM   14  C   UNL     1      -7.717   3.394  67.885  1.00  0.00    -0.068 A  
HETATM   15  C   UNL     1      -6.813   5.894  73.819  1.00  0.00    -0.081 A  
HETATM   16  C   UNL     1      -6.591   7.057  74.538  1.00  0.00    -0.087 A  
HETATM   17  C   UNL     1      -6.632   8.264  73.868  1.00  0.00    -0.145 A  
HETATM   18  C   UNL     1      -6.902   8.299  72.489  1.00  0.00    -0.102 A  
HETATM   19  C   UNL     1      -7.160   7.134  71.723  1.00  0.00    -0.068 A  
HETATM   20  C   UNL     1      -7.476   7.167  70.217  1.00  0.00    -0.085 C  
HETATM   21  C   UNL     1      -7.671   8.401  69.654  1.00  0.00    -0.095 C  
HETATM   22  C   UNL     1      -7.981   8.723  68.215  1.00  0.00    -0.106 C  
BRANCH  22  23
HETATM   23  C   UNL     1      -8.324  10.123  67.690  1.00  0.00    -0.114 C  
BRANCH  23  24
HETATM   24  N   UNL     1      -9.761  10.179  67.303  1.00  0.00    -0.162 NA 
HETATM   25  C   UNL     1     -10.681  10.722  68.337  1.00  0.00    -0.217 C  
HETATM   26  C   UNL     1     -10.686  12.263  68.527  1.00  0.00    -0.237 C  
HETATM   27  N   UNL     1     -10.615  13.096  67.307  1.00  0.00    -0.246 NA 
HETATM   28  C   UNL     1      -9.726  12.483  66.305  1.00  0.00    -0.254 C  
HETATM   29  C   UNL     1     -11.937  13.361  66.743  1.00  0.00    -0.394 C  
HETATM   30  C   UNL     1      -9.967  10.976  66.081  1.00  0.00    -0.231 C  
ENDBRANCH  23  24
ENDBRANCH  22  23
ENDBRANCH   4   7
ENDBRANCH   2   4
TORSDOF 4
ENDMDL
MODEL      153
REMARK 921   NORMALIZED FREE ENERGY PREDICTED BY IDOCK:   -2.91 KCAL/MOL
REMARK 922        TOTAL FREE ENERGY PREDICTED BY IDOCK:   -4.24 KCAL/MOL
REMARK 923 INTER-LIGAND FREE ENERGY PREDICTED BY IDOCK:   -3.60 KCAL/MOL
REMARK 924 INTRA-LIGAND FREE ENERGY PREDICTED BY IDOCK:   -0.64 KCAL/MOL
REMARK 927      BINDING AFFINITY PREDICTED BY RF-SCORE:    0.00 PKD
ROOT
HETATM    1  C   UNL     1     -11.365  10.977  68.497  1.00  0.00    -0.287 C  
HETATM    2  N   UNL     1     -10.327  10.327  69.318  1.00  0.00    -0.216 N  
HETATM    3  C   UNL     1     -10.656   8.937  69.689  1.00  0.00    -0.226 C  
ENDROOT
BRANCH   2   4
HETATM    4  S   UNL     1      -8.703  10.609  68.873  1.00  0.00    -0.149 S  
HETATM    5  O   UNL     1      -7.848  10.032  69.899  1.00  0.00    -0.158 OA 
HETATM    6  O   UNL     1      -8.562  11.988  68.469  1.00  0.00    -0.157 OA 
BRANCH   4   7
HETATM    7  C   UNL     1      -8.531   9.587  67.419  1.00  0.00    -0.125 A  
HETATM    8  C   UNL     1      -8.044   8.279  67.563  1.00  0.00    -0.122 A  
HETATM    9  C   UNL     1      -7.814   7.391  66.488  1.00  0.00    -0.098 A  
HETATM   10  C   UNL     1      -8.144   7.925  65.229  1.00  0.00    -0.135 A  
HETATM   11  S   UNL     1      -8.028   7.067  63.691  1.00  0.00    -0.016 SA 
HETATM   12  C   UNL     1      -8.645   9.246  65.084  1.00  0.00    -0.194 A  
HETATM   13  C   UNL     1      -7.227   5.547  64.100  1.00  0.00    -0.051 A  
HETATM   14  C   UNL     1      -8.852  10.077  66.174  1.00  0.00    -0.165 A  
HETATM   15  C   UNL     1      -6.927   4.758  62.965  1.00  0.00    -0.038 A  
HETATM   16  C   UNL     1      -6.290   3.534  63.079  1.00  0.00    -0.021 A  
HETATM   17  C   UNL     1      -5.935   3.090  64.338  1.00  0.00    -0.014 A  
HETATM   18  C   UNL     1      -6.225   3.869  65.472  1.00  0.00    -0.031 A  
HETATM   19  C   UNL     1      -6.898   5.116  65.400  1.00  0.00    -0.060 A  
HETATM   20  C   UNL     1      -7.236   5.965  66.637  1.00  0.00    -0.074 C  
HETATM   21  C   UNL     1      -7.011   5.389  67.861  1.00  0.00    -0.065 C  
HETATM   22  C   UNL     1      -7.242   5.991  69.223  1.00  0.00    -0.074 C  
BRANCH  22  23
HETATM   23  C   UNL     1      -7.098   5.230  70.548  1.00  0.00    -0.061 C  
BRANCH  23  24
HETATM   24  N   UNL     1      -8.297   4.377  70.773  1.00  0.00    -0.078 NA 
HETATM   25  C   UNL     1      -8.301   3.601  72.041  1.00  0.00    -0.079 C  
HETATM   26  C   UNL     1      -8.633   4.388  73.339  1.00  0.00    -0.097 C  
HETATM   27  N   UNL     1      -9.713   5.396  73.262  1.00  0.00    -0.149 NA 
HETATM   28  C   UNL     1      -9.684   6.097  71.967  1.00  0.00    -0.151 C  
HETATM   29  C   UNL     1     -11.029   4.814  73.515  1.00  0.00    -0.324 C  
HETATM   30  C   UNL     1      -9.542   5.165  70.746  1.00  0.00    -0.179 C  
ENDBRANCH  23  24
ENDBRANCH  22  23
ENDBRANCH   4   7
ENDBRANCH   2   4
TORSDOF 4
ENDMDL
MODEL      154
REMARK 921   NORMALIZED FREE ENERGY PREDICTED BY IDOCK:   -2.83 KCAL/MOL
REMARK 922        TOTAL FREE ENERGY PREDICTED BY IDOCK:   -4.14 KCAL/MOL
REMARK 923 INTER-LIGAND FREE ENERGY PREDICTED BY IDOCK:   -5.99 KCAL/MOL
REMARK 924 INTRA-LIGAND FREE ENERGY PREDICTED BY IDOCK:    1.85 KCAL/MOL
REMARK 927      BINDING AFFINITY PREDICTED BY RF-SCORE:    0.00 PKD
ROOT
HETATM    1  C   UNL     1     -14.281  16.181  72.266  1.00  0.00     0.424 C  
HETATM    2  N   UNL     1     -12.813  16.167  72.125  1.00  0.00    -0.343 N  
HETATM    3  C   UNL     1     -12.106  15.827  73.374  1.00  0.00    -0.487 C  
ENDROOT
BRANCH   2   4
HETATM    4  S   UNL     1     -12.181  15.465  70.703  1.00  0.00    -0.417 S  
HETATM    5  O   UNL     1     -10.757  15.753  70.653  1.00  0.00    -0.303 OA 
HETATM    6  O   UNL     1     -13.051  15.789  69.596  1.00  0.00     0.183 OA 
BRANCH   4   7
HETATM    7  C   UNL     1     -12.346  13.719  71.042  1.00  0.00    -0.372 A  
HETATM    8  C   UNL     1     -11.544  12.812  70.335  1.00  0.00     0.078 A  
HETATM    9  C   UNL     1     -11.615  11.408  70.474  1.00  0.00    -0.168 A  
HETATM   10  C   UNL     1     -12.561  10.977  71.421  1.00  0.00    -0.393 A  
HETATM   11  S   UNL     1     -12.866   9.299  71.875  1.00  0.00    -0.432 SA 
HETATM   12  C   UNL     1     -13.368  11.897  72.144  1.00  0.00    -0.361 A  
HETATM   13  C   UNL     1     -11.898   8.359  70.737  1.00  0.00    -0.163 A  
HETATM   14  C   UNL     1     -13.256  13.267  71.969  1.00  0.00    -0.541 A  
HETATM   15  C   UNL     1     -12.104   6.964  70.858  1.00  0.00    -0.424 A  
HETATM   16  C   UNL     1     -11.441   6.059  70.046  1.00  0.00    -0.236 A  
HETATM   17  C   UNL     1     -10.570   6.545  69.091  1.00  0.00    -0.286 A  
HETATM   18  C   UNL     1     -10.362   7.929  68.960  1.00  0.00    -0.223 A  
HETATM   19  C   UNL     1     -11.001   8.887  69.788  1.00  0.00    -0.164 A  
HETATM   20  C   UNL     1     -10.765  10.402  69.664  1.00  0.00    -0.304 C  
HETATM   21  C   UNL     1      -9.764  10.803  68.817  1.00  0.00    -0.197 C  
HETATM   22  C   UNL     1      -9.328  12.210  68.501  1.00  0.00    -0.108 C  
BRANCH  22  23
HETATM   23  C   UNL     1      -8.105  12.572  67.648  1.00  0.00    -0.171 C  
BRANCH  23  24
HETATM   24  N   UNL     1      -6.936  11.751  68.068  1.00  0.00    -0.071 NA 
HETATM   25  C   UNL     1      -7.250  10.361  68.492  1.00  0.00    -0.084 C  
HETATM   26  C   UNL     1      -7.548   9.337  67.362  1.00  0.00    -0.088 C  
HETATM   27  N   UNL     1      -6.706   9.406  66.147  1.00  0.00    -0.076 NA 
HETATM   28  C   UNL     1      -6.391  10.804  65.806  1.00  0.00    -0.089 C  
HETATM   29  C   UNL     1      -5.487   8.611  66.276  1.00  0.00    -0.034 C  
HETATM   30  C   UNL     1      -5.923  11.658  67.003  1.00  0.00    -0.138 C  
ENDBRANCH  23  24
ENDBRANCH  22  23
ENDBRANCH   4   7
ENDBRANCH   2   4
TORSDOF 4
ENDMDL
MODEL      155
REMARK 921   NORMALIZED FREE ENERGY PREDICTED BY IDOCK:   -2.57 KCAL/MOL
REMARK 922        TOTAL FREE ENERGY PREDICTED BY IDOCK:   -3.82 KCAL/MOL
REMARK 923 INTER-LIGAND FREE ENERGY PREDICTED BY IDOCK:   -5.00 KCAL/MOL
REMARK 924 INTRA-LIGAND FREE ENERGY PREDICTED BY IDOCK:    1.18 KCAL/MOL
REMARK 927      BINDING AFFINITY PREDICTED BY RF-SCORE:    0.00 PKD
ROOT
HETATM    1  C   UNL     1      -5.660   9.378  67.883  1.00  0.00    -0.041 C  
HETATM    2  N   UNL     1      -5.920  10.827  67.800  1.00  0.00    -0.043 N  
HETATM    3  C   UNL     1      -6.580  11.234  66.544  1.00  0.00    -0.108 C  
ENDROOT
BRANCH   2   4
HETATM    4  S   UNL     1      -6.489  11.593  69.216  1.00  0.00    -0.115 S  
HETATM    5  O   UNL     1      -5.530  11.341  70.280  1.00  0.00    -0.085 OA 
HETATM    6  O   UNL     1      -7.890  11.284  69.382  1.00  0.00    -0.022 OA 
BRANCH   4   7
HETATM    7  C   UNL     1      -6.350  13.321  68.789  1.00  0.00    -0.094 A  
HETATM    8  C   UNL     1      -7.491  14.133  68.867  1.00  0.00    -0.112 A  
HETATM    9  C   UNL     1      -7.525  15.499  68.509  1.00  0.00    -0.118 A  
HETATM   10  C   UNL     1      -6.286  16.004  68.078  1.00  0.00    -0.126 A  
HETATM   11  S   UNL     1      -5.967  17.676  67.608  1.00  0.00    -0.149 SA 
HETATM   12  C   UNL     1      -5.127  15.184  68.006  1.00  0.00    -0.119 A  
HETATM   13  C   UNL     1      -7.561  18.436  67.604  1.00  0.00    -0.229 A  
HETATM   14  C   UNL     1      -5.150  13.847  68.372  1.00  0.00    -0.102 A  
HETATM   15  C   UNL     1      -7.536  19.767  67.127  1.00  0.00    -0.289 A  
HETATM   16  C   UNL     1      -8.689  20.530  67.039  1.00  0.00    -0.340 A  
HETATM   17  C   UNL     1      -9.887  19.958  67.419  1.00  0.00    -0.541 A  
HETATM   18  C   UNL     1      -9.923  18.634  67.890  1.00  0.00    -0.385 A  
HETATM   19  C   UNL     1      -8.762  17.829  68.019  1.00  0.00    -0.251 A  
HETATM   20  C   UNL     1      -8.791  16.386  68.551  1.00  0.00    -0.224 C  
HETATM   21  C   UNL     1      -9.980  15.942  69.069  1.00  0.00    -0.233 C  
HETATM   22  C   UNL     1     -10.289  14.585  69.645  1.00  0.00     0.043 C  
BRANCH  22  23
HETATM   23  C   UNL     1     -11.608  14.211  70.335  1.00  0.00    -0.171 C  
BRANCH  23  24
HETATM   24  N   UNL     1     -12.402  13.312  69.452  1.00  0.00    -0.140 NA 
HETATM   25  C   UNL     1     -12.401  13.669  68.009  1.00  0.00     0.056 C  
HETATM   26  C   UNL     1     -11.123  13.309  67.202  1.00  0.00    -0.286 C  
HETATM   27  N   UNL     1     -10.487  12.004  67.487  1.00  0.00    -0.209 NA 
HETATM   28  C   UNL     1     -10.561  11.688  68.924  1.00  0.00    -0.193 C  
HETATM   29  C   UNL     1     -11.058  10.927  66.682  1.00  0.00    -0.085 C  
HETATM   30  C   UNL     1     -11.953  11.913  69.551  1.00  0.00    -0.292 C  
ENDBRANCH  23  24
ENDBRANCH  22  23
ENDBRANCH   4   7
ENDBRANCH   2   4
TORSDOF 4
ENDMDL
MODEL      156
REMARK 921   NORMALIZED FREE ENERGY PREDICTED BY IDOCK:   -2.56 KCAL/MOL
REMARK 922        TOTAL FREE ENERGY PREDICTED BY IDOCK:   -3.80 KCAL/MOL
REMARK 923 INTER-LIGAND FREE ENERGY PREDICTED BY IDOCK:   -5.25 KCAL/MOL
REMARK 924 INTRA-LIGAND FREE ENERGY PREDICTED BY IDOCK:    1.45 KCAL/MOL
REMARK 927      BINDING AFFINITY PREDICTED BY RF-SCORE:    0.00 PKD
ROOT
HETATM    1  C   UNL     1     -11.182   7.886  72.930  1.00  0.00    -0.366 C  
HETATM    2  N   UNL     1     -10.205   7.159  72.098  1.00  0.00    -0.185 N  
HETATM    3  C   UNL     1     -10.819   6.136  71.229  1.00  0.00    -0.266 C  
ENDROOT
BRANCH   2   4
HETATM    4  S   UNL     1      -8.959   8.083  71.384  1.00  0.00    -0.150 S  
HETATM    5  O   UNL     1      -8.309   7.261  70.377  1.00  0.00    -0.127 OA 
HETATM    6  O   UNL     1      -8.200   8.728  72.430  1.00  0.00    -0.377 OA 
BRANCH   4   7
HETATM    7  C   UNL     1      -9.880   9.342  70.513  1.00  0.00    -0.253 A  
HETATM    8  C   UNL     1      -9.471   9.710  69.223  1.00  0.00    -0.184 A  
HETATM    9  C   UNL     1     -10.081  10.724  68.452  1.00  0.00    -0.183 A  
HETATM   10  C   UNL     1     -11.177  11.338  69.085  1.00  0.00    -0.273 A  
HETATM   11  S   UNL     1     -12.191  12.600  68.382  1.00  0.00     0.316 SA 
HETATM   12  C   UNL     1     -11.597  10.959  70.388  1.00  0.00    -0.418 A  
HETATM   13  C   UNL     1     -11.379  13.019  66.872  1.00  0.00    -0.311 A  
HETATM   14  C   UNL     1     -10.961   9.954  71.102  1.00  0.00    -0.298 A  
HETATM   15  C   UNL     1     -11.978  14.116  66.209  1.00  0.00    -0.448 A  
HETATM   16  C   UNL     1     -11.479  14.601  65.011  1.00  0.00    -0.386 A  
HETATM   17  C   UNL     1     -10.362  13.997  64.469  1.00  0.00    -0.198 A  
HETATM   18  C   UNL     1      -9.758  12.909  65.123  1.00  0.00     0.021 A  
HETATM   19  C   UNL     1     -10.252  12.367  66.336  1.00  0.00    -0.253 A  
HETATM   20  C   UNL     1      -9.607  11.164  67.048  1.00  0.00    -0.201 C  
HETATM   21  C   UNL     1      -8.612  10.508  66.371  1.00  0.00    -0.147 C  
HETATM   22  C   UNL     1      -7.811   9.317  66.830  1.00  0.00    -0.098 C  
BRANCH  22  23
HETATM   23  C   UNL     1      -6.809   8.551  65.956  1.00  0.00    -0.061 C  
BRANCH  23  24
HETATM   24  N   UNL     1      -7.540   7.696  64.981  1.00  0.00    -0.090 NA 
HETATM   25  C   UNL     1      -7.220   6.245  65.038  1.00  0.00    -0.070 C  
HETATM   26  C   UNL     1      -7.853   5.436  66.203  1.00  0.00    -0.103 C  
HETATM   27  N   UNL     1      -9.256   5.743  66.557  1.00  0.00    -0.139 NA 
HETATM   28  C   UNL     1      -9.522   7.187  66.437  1.00  0.00    -0.123 C  
HETATM   29  C   UNL     1     -10.207   4.967  65.765  1.00  0.00    -0.180 C  
HETATM   30  C   UNL     1      -9.000   7.821  65.131  1.00  0.00     0.296 C  
ENDBRANCH  23  24
ENDBRANCH  22  23
ENDBRANCH   4   7
ENDBRANCH   2   4
TORSDOF 4
ENDMDL
MODEL      157
REMARK 921   NORMALIZED FREE ENERGY PREDICTED BY IDOCK:   -2.51 KCAL/MOL
REMARK 922        TOTAL FREE ENERGY PREDICTED BY IDOCK:   -3.74 KCAL/MOL
REMARK 923 INTER-LIGAND FREE ENERGY PREDICTED BY IDOCK:   -3.23 KCAL/MOL
REMARK 924 INTRA-LIGAND FREE ENERGY PREDICTED BY IDOCK:   -0.51 KCAL/MOL
REMARK 927      BINDING AFFINITY PREDICTED BY RF-SCORE:    0.00 PKD
ROOT
HETATM    1  C   UNL     1     -10.445  12.903  63.228  1.00  0.00     0.627 C  
HETATM    2  N   UNL     1     -11.191  13.710  64.210  1.00  0.00    -0.366 N  
HETATM    3  C   UNL     1     -11.756  14.950  63.644  1.00  0.00     0.806 C  
ENDROOT
BRANCH   2   4
HETATM    4  S   UNL     1     -12.202  12.865  65.296  1.00  0.00    -0.488 S  
HETATM    5  O   UNL     1     -13.159  12.098  64.514  1.00  0.00    -0.720 OA 
HETATM    6  O   UNL     1     -12.636  13.772  66.332  1.00  0.00    -0.389 OA 
BRANCH   4   7
HETATM    7  C   UNL     1     -11.069  11.692  66.026  1.00  0.00    -0.270 A  
HETATM    8  C   UNL     1     -10.237  12.116  67.072  1.00  0.00    -0.225 A  
HETATM    9  C   UNL     1      -9.266  11.303  67.698  1.00  0.00    -0.156 A  
HETATM   10  C   UNL     1      -9.212   9.991  67.192  1.00  0.00    -0.141 A  
HETATM   11  S   UNL     1      -8.152   8.709  67.782  1.00  0.00    -0.107 SA 
HETATM   12  C   UNL     1     -10.060   9.560  66.138  1.00  0.00    -0.326 A  
HETATM   13  C   UNL     1      -7.091   9.519  68.938  1.00  0.00    -0.067 A  
HETATM   14  C   UNL     1     -10.999  10.400  65.560  1.00  0.00     0.361 A  
HETATM   15  C   UNL     1      -6.073   8.675  69.439  1.00  0.00    -0.041 A  
HETATM   16  C   UNL     1      -5.135   9.129  70.351  1.00  0.00    -0.027 A  
HETATM   17  C   UNL     1      -5.202  10.446  70.764  1.00  0.00    -0.069 A  
HETATM   18  C   UNL     1      -6.207  11.294  70.268  1.00  0.00    -0.124 A  
HETATM   19  C   UNL     1      -7.200  10.861  69.353  1.00  0.00    -0.126 A  
HETATM   20  C   UNL     1      -8.316  11.777  68.821  1.00  0.00    -0.010 C  
HETATM   21  C   UNL     1      -8.425  13.015  69.400  1.00  0.00     1.119 C  
HETATM   22  C   UNL     1      -9.411  14.106  69.070  1.00  0.00     0.062 C  
BRANCH  22  23
HETATM   23  C   UNL     1      -9.560  15.413  69.860  1.00  0.00    -0.098 C  
BRANCH  23  24
HETATM   24  N   UNL     1     -10.972  15.881  69.800  1.00  0.00    -0.298 NA 
HETATM   25  C   UNL     1     -11.972  14.849  69.420  1.00  0.00    -0.301 C  
HETATM   26  C   UNL     1     -12.372  13.827  70.519  1.00  0.00    -0.359 C  
HETATM   27  N   UNL     1     -12.554  14.346  71.893  1.00  0.00    -0.341 NA 
HETATM   28  C   UNL     1     -11.564  15.395  72.192  1.00  0.00    -0.462 C  
HETATM   29  C   UNL     1     -13.914  14.826  72.124  1.00  0.00    -0.490 C  
HETATM   30  C   UNL     1     -11.412  16.457  71.083  1.00  0.00    -0.204 C  
ENDBRANCH  23  24
ENDBRANCH  22  23
ENDBRANCH   4   7
ENDBRANCH   2   4
TORSDOF 4
ENDMDL
MODEL      158
REMARK 921   NORMALIZED FREE ENERGY PREDICTED BY IDOCK:   -2.49 KCAL/MOL
REMARK 922        TOTAL FREE ENERGY PREDICTED BY IDOCK:   -3.72 KCAL/MOL
REMARK 923 INTER-LIGAND FREE ENERGY PREDICTED BY IDOCK:   -3.71 KCAL/MOL
REMARK 924 INTRA-LIGAND FREE ENERGY PREDICTED BY IDOCK:   -0.01 KCAL/MOL
REMARK 927      BINDING AFFINITY PREDICTED BY RF-SCORE:    0.00 PKD
ROOT
HETATM    1  C   UNL     1     -14.106  14.579  72.164  1.00  0.00    -0.524 C  
HETATM    2  N   UNL     1     -12.859  15.213  71.698  1.00  0.00    -0.335 N  
HETATM    3  C   UNL     1     -11.832  15.333  72.751  1.00  0.00    -0.415 C  
ENDROOT
BRANCH   2   4
HETATM    4  S   UNL     1     -12.287  14.752  70.157  1.00  0.00    -0.316 S  
HETATM    5  O   UNL     1     -13.410  14.782  69.233  1.00  0.00     1.148 OA 
HETATM    6  O   UNL     1     -11.463  13.575  70.298  1.00  0.00    -0.124 OA 
BRANCH   4   7
HETATM    7  C   UNL     1     -11.225  16.122  69.727  1.00  0.00    -0.343 A  
HETATM    8  C   UNL     1     -10.517  16.077  68.517  1.00  0.00    -0.258 A  
HETATM    9  C   UNL     1      -9.608  17.070  68.087  1.00  0.00    -0.266 A  
HETATM   10  C   UNL     1      -9.482  18.149  68.980  1.00  0.00    -0.115 A  
HETATM   11  S   UNL     1      -8.475  19.577  68.725  1.00  0.00    -0.224 SA 
HETATM   12  C   UNL     1     -10.205  18.199  70.202  1.00  0.00     1.221 A  
HETATM   13  C   UNL     1      -7.557  19.206  67.263  1.00  0.00    -0.232 A  
HETATM   14  C   UNL     1     -11.087  17.196  70.575  1.00  0.00     0.810 A  
HETATM   15  C   UNL     1      -6.588  20.189  66.956  1.00  0.00    -0.248 A  
HETATM   16  C   UNL     1      -5.761  20.073  65.851  1.00  0.00    -0.191 A  
HETATM   17  C   UNL     1      -5.889  18.959  65.045  1.00  0.00    -0.301 A  
HETATM   18  C   UNL     1      -6.846  17.974  65.346  1.00  0.00     0.075 A  
HETATM   19  C   UNL     1      -7.729  18.067  66.452  1.00  0.00    -0.304 A  
HETATM   20  C   UNL     1      -8.792  17.004  66.776  1.00  0.00    -0.267 C  
HETATM   21  C   UNL     1      -8.981  16.016  65.845  1.00  0.00    -0.256 C  
HETATM   22  C   UNL     1      -9.939  14.855  65.908  1.00  0.00    -0.357 C  
BRANCH  22  23
HETATM   23  C   UNL     1     -10.191  13.869  64.759  1.00  0.00    -0.324 C  
BRANCH  23  24
HETATM   24  N   UNL     1     -10.763  12.604  65.295  1.00  0.00    -0.282 NA 
HETATM   25  C   UNL     1     -11.015  11.539  64.289  1.00  0.00    -0.341 C  
HETATM   26  C   UNL     1      -9.776  10.748  63.785  1.00  0.00    -0.321 C  
HETATM   27  N   UNL     1      -8.753  10.381  64.789  1.00  0.00    -0.179 NA 
HETATM   28  C   UNL     1      -8.584  11.456  65.782  1.00  0.00    -0.010 C  
HETATM   29  C   UNL     1      -9.053   9.108  65.440  1.00  0.00    -0.214 C  
HETATM   30  C   UNL     1      -9.908  12.017  66.341  1.00  0.00    -0.220 C  
ENDBRANCH  23  24
ENDBRANCH  22  23
ENDBRANCH   4   7
ENDBRANCH   2   4
TORSDOF 4
ENDMDL
MODEL      159
REMARK 921   NORMALIZED FREE ENERGY PREDICTED BY IDOCK:   -2.39 KCAL/MOL
REMARK 922        TOTAL FREE ENERGY PREDICTED BY IDOCK:   -3.59 KCAL/MOL
REMARK 923 INTER-LIGAND FREE ENERGY PREDICTED BY IDOCK:   -4.48 KCAL/MOL
REMARK 924 INTRA-LIGAND FREE ENERGY PREDICTED BY IDOCK:    0.89 KCAL/MOL
REMARK 927      BINDING AFFINITY PREDICTED BY RF-SCORE:    0.00 PKD
ROOT
HETATM    1  C   UNL     1      -6.538   6.793  66.797  1.00  0.00    -0.044 C  
HETATM    2  N   UNL     1      -6.481   7.812  67.861  1.00  0.00    -0.050 N  
HETATM    3  C   UNL     1      -5.245   7.753  68.664  1.00  0.00    -0.026 C  
ENDROOT
BRANCH   2   4
HETATM    4  S   UNL     1      -7.027   9.379  67.458  1.00  0.00    -0.078 S  
HETATM    5  O   UNL     1      -7.487   9.355  66.079  1.00  0.00    -0.094 OA 
HETATM    6  O   UNL     1      -6.049  10.343  67.906  1.00  0.00    -0.048 OA 
BRANCH   4   7
HETATM    7  C   UNL     1      -8.477   9.545  68.488  1.00  0.00    -0.119 A  
HETATM    8  C   UNL     1      -9.091  10.802  68.596  1.00  0.00    -0.173 A  
HETATM    9  C   UNL     1     -10.209  11.075  69.415  1.00  0.00    -0.097 A  
HETATM   10  C   UNL     1     -10.689   9.953  70.115  1.00  0.00    -0.308 A  
HETATM   11  S   UNL     1     -12.096   9.935  71.181  1.00  0.00    -0.402 SA 
HETATM   12  C   UNL     1     -10.072   8.679  69.999  1.00  0.00    -0.195 A  
HETATM   13  C   UNL     1     -12.569  11.631  71.304  1.00  0.00    -0.320 A  
HETATM   14  C   UNL     1      -8.975   8.466  69.179  1.00  0.00    -0.147 A  
HETATM   15  C   UNL     1     -13.620  11.845  72.226  1.00  0.00    -0.109 A  
HETATM   16  C   UNL     1     -14.126  13.111  72.470  1.00  0.00    -0.296 A  
HETATM   17  C   UNL     1     -13.573  14.183  71.798  1.00  0.00    -0.483 A  
HETATM   18  C   UNL     1     -12.525  13.981  70.884  1.00  0.00    -0.439 A  
HETATM   19  C   UNL     1     -11.996  12.699  70.587  1.00  0.00    -0.196 A  
HETATM   20  C   UNL     1     -10.863  12.467  69.572  1.00  0.00     0.134 C  
HETATM   21  C   UNL     1     -10.479  13.546  68.819  1.00  0.00    -0.212 C  
HETATM   22  C   UNL     1      -9.400  13.604  67.768  1.00  0.00    -0.218 C  
BRANCH  22  23
HETATM   23  C   UNL     1      -9.126  14.816  66.867  1.00  0.00    -0.248 C  
BRANCH  23  24
HETATM   24  N   UNL     1      -7.974  15.593  67.403  1.00  0.00    -0.162 NA 
HETATM   25  C   UNL     1      -7.991  15.831  68.870  1.00  0.00    -0.197 C  
HETATM   26  C   UNL     1      -7.589  14.635  69.777  1.00  0.00     0.087 C  
HETATM   27  N   UNL     1      -6.454  13.798  69.329  1.00  0.00    -0.109 NA 
HETATM   28  C   UNL     1      -6.467  13.638  67.865  1.00  0.00    -0.156 C  
HETATM   29  C   UNL     1      -5.169  14.322  69.788  1.00  0.00    -0.092 C  
HETATM   30  C   UNL     1      -6.687  14.951  67.086  1.00  0.00     0.310 C  
ENDBRANCH  23  24
ENDBRANCH  22  23
ENDBRANCH   4   7
ENDBRANCH   2   4
TORSDOF 4
ENDMDL
MODEL      160
REMARK 921   NORMALIZED FREE ENERGY PREDICTED BY IDOCK:   -2.36 KCAL/MOL
REMARK 922        TOTAL FREE ENERGY PREDICTED BY IDOCK:   -3.56 KCAL/MOL
REMARK 923 INTER-LIGAND FREE ENERGY PREDICTED BY IDOCK:   -4.49 KCAL/MOL
REMARK 924 INTRA-LIGAND FREE ENERGY PREDICTED BY IDOCK:    0.93 KCAL/MOL
REMARK 927      BINDING AFFINITY PREDICTED BY RF-SCORE:    0.00 PKD
ROOT
HETATM    1  C   UNL     1      -8.444  16.159  66.626  1.00  0.00    -0.280 C  
HETATM    2  N   UNL     1      -7.260  15.417  67.095  1.00  0.00    -0.189 N  
HETATM    3  C   UNL     1      -6.026  16.225  67.104  1.00  0.00    -0.093 C  
ENDROOT
BRANCH   2   4
HETATM    4  S   UNL     1      -7.478  14.385  68.438  1.00  0.00    -0.130 S  
HETATM    5  O   UNL     1      -8.907  14.191  68.630  1.00  0.00    -0.184 OA 
HETATM    6  O   UNL     1      -6.632  14.839  69.517  1.00  0.00    -0.129 OA 
BRANCH   4   7
HETATM    7  C   UNL     1      -6.820  12.839  67.833  1.00  0.00    -0.114 A  
HETATM    8  C   UNL     1      -7.564  12.106  66.897  1.00  0.00    -0.029 A  
HETATM    9  C   UNL     1      -7.180  10.848  66.381  1.00  0.00    -0.140 A  
HETATM   10  C   UNL     1      -5.946  10.385  66.873  1.00  0.00    -0.057 A  
HETATM   11  S   UNL     1      -5.152   8.882  66.397  1.00  0.00    -0.030 SA 
HETATM   12  C   UNL     1      -5.188  11.132  67.815  1.00  0.00    -0.040 A  
HETATM   13  C   UNL     1      -6.344   8.064  65.384  1.00  0.00    -0.048 A  
HETATM   14  C   UNL     1      -5.613  12.363  68.289  1.00  0.00    -0.057 A  
HETATM   15  C   UNL     1      -5.940   6.765  64.996  1.00  0.00    -0.035 A  
HETATM   16  C   UNL     1      -6.743   5.959  64.206  1.00  0.00    -0.045 A  
HETATM   17  C   UNL     1      -7.972   6.445  63.805  1.00  0.00    -0.086 A  
HETATM   18  C   UNL     1      -8.384   7.733  64.189  1.00  0.00     0.073 A  
HETATM   19  C   UNL     1      -7.581   8.598  64.975  1.00  0.00    -0.098 A  
HETATM   20  C   UNL     1      -8.017  10.016  65.383  1.00  0.00    -0.141 C  
HETATM   21  C   UNL     1      -9.166  10.497  64.810  1.00  0.00    -0.266 C  
HETATM   22  C   UNL     1      -9.821  11.835  65.034  1.00  0.00    -0.257 C  
BRANCH  22  23
HETATM   23  C   UNL     1     -11.032  12.355  64.248  1.00  0.00    -0.351 C  
BRANCH  23  24
HETATM   24  N   UNL     1     -12.189  12.540  65.166  1.00  0.00    -0.494 NA 
HETATM   25  C   UNL     1     -12.016  11.982  66.533  1.00  0.00    -0.006 C  
HETATM   26  C   UNL     1     -11.126  12.796  67.512  1.00  0.00    -0.263 C  
HETATM   27  N   UNL     1     -11.267  14.269  67.491  1.00  0.00    -0.295 NA 
HETATM   28  C   UNL     1     -11.482  14.755  66.117  1.00  0.00    -0.311 C  
HETATM   29  C   UNL     1     -12.327  14.733  68.383  1.00  0.00     0.082 C  
HETATM   30  C   UNL     1     -12.541  13.962  65.323  1.00  0.00    -0.478 C  
ENDBRANCH  23  24
ENDBRANCH  22  23
ENDBRANCH   4   7
ENDBRANCH   2   4
TORSDOF 4
ENDMDL
MODEL      161
REMARK 921   NORMALIZED FREE ENERGY PREDICTED BY IDOCK:   -2.33 KCAL/MOL
REMARK 922        TOTAL FREE ENERGY PREDICTED BY IDOCK:   -3.53 KCAL/MOL
REMARK 923 INTER-LIGAND FREE ENERGY PREDICTED BY IDOCK:   -3.24 KCAL/MOL
REMARK 924 INTRA-LIGAND FREE ENERGY PREDICTED BY IDOCK:   -0.28 KCAL/MOL
REMARK 927      BINDING AFFINITY PREDICTED BY RF-SCORE:    0.00 PKD
ROOT
HETATM    1  C   UNL     1      -9.607   3.972  63.109  1.00  0.00    -0.150 C  
HETATM    2  N   UNL     1      -9.321   4.429  64.482  1.00  0.00    -0.155 N  
HETATM    3  C   UNL     1     -10.447   4.227  65.414  1.00  0.00    -0.168 C  
ENDROOT
BRANCH   2   4
HETATM    4  S   UNL     1      -7.772   4.075  65.105  1.00  0.00    -0.082 S  
HETATM    5  O   UNL     1      -7.072   5.333  65.310  1.00  0.00    -0.063 OA 
HETATM    6  O   UNL     1      -7.187   3.010  64.325  1.00  0.00    -0.055 OA 
BRANCH   4   7
HETATM    7  C   UNL     1      -8.159   3.427  66.723  1.00  0.00    -0.088 A  
HETATM    8  C   UNL     1      -8.213   4.309  67.812  1.00  0.00    -0.095 A  
HETATM    9  C   UNL     1      -8.458   3.915  69.147  1.00  0.00    -0.102 A  
HETATM   10  C   UNL     1      -8.674   2.534  69.301  1.00  0.00    -0.082 A  
HETATM   11  S   UNL     1      -9.056   1.720  70.820  1.00  0.00    -0.090 SA 
HETATM   12  C   UNL     1      -8.627   1.641  68.197  1.00  0.00    -0.097 A  
HETATM   13  C   UNL     1      -8.881   2.980  72.044  1.00  0.00    -0.082 A  
HETATM   14  C   UNL     1      -8.383   2.082  66.906  1.00  0.00    -0.087 A  
HETATM   15  C   UNL     1      -9.027   2.492  73.364  1.00  0.00    -0.080 A  
HETATM   16  C   UNL     1      -8.915   3.326  74.464  1.00  0.00    -0.098 A  
HETATM   17  C   UNL     1      -8.641   4.663  74.252  1.00  0.00    -0.107 A  
HETATM   18  C   UNL     1      -8.488   5.156  72.944  1.00  0.00    -0.116 A  
HETATM   19  C   UNL     1      -8.621   4.341  71.791  1.00  0.00    -0.118 A  
HETATM   20  C   UNL     1      -8.475   4.877  70.357  1.00  0.00    -0.104 C  
HETATM   21  C   UNL     1      -8.375   6.237  70.213  1.00  0.00    -0.126 C  
HETATM   22  C   UNL     1      -8.215   7.024  68.938  1.00  0.00    -0.122 C  
BRANCH  22  23
HETATM   23  C   UNL     1      -8.252   8.555  68.849  1.00  0.00    -0.117 C  
BRANCH  23  24
HETATM   24  N   UNL     1      -9.511   8.992  68.187  1.00  0.00    -0.142 NA 
HETATM   25  C   UNL     1     -10.765   8.459  68.783  1.00  0.00    -0.051 C  
HETATM   26  C   UNL     1     -11.246   9.119  70.104  1.00  0.00    -0.187 C  
HETATM   27  N   UNL     1     -11.122  10.590  70.211  1.00  0.00    -0.303 NA 
HETATM   28  C   UNL     1      -9.886  11.060  69.563  1.00  0.00     0.161 C  
HETATM   29  C   UNL     1     -12.292  11.280  69.673  1.00  0.00    -0.194 C  
HETATM   30  C   UNL     1      -9.636  10.460  68.164  1.00  0.00    -0.144 C  
ENDBRANCH  23  24
ENDBRANCH  22  23
ENDBRANCH   4   7
ENDBRANCH   2   4
TORSDOF 4
ENDMDL
MODEL      162
REMARK 921   NORMALIZED FREE ENERGY PREDICTED BY IDOCK:   -2.33 KCAL/MOL
REMARK 922        TOTAL FREE ENERGY PREDICTED BY IDOCK:   -3.52 KCAL/MOL
REMARK 923 INTER-LIGAND FREE ENERGY PREDICTED BY IDOCK:   -4.33 KCAL/MOL
REMARK 924 INTRA-LIGAND FREE ENERGY PREDICTED BY IDOCK:    0.81 KCAL/MOL
REMARK 927      BINDING AFFINITY PREDICTED BY RF-SCORE:    0.00 PKD
ROOT
HETATM    1  C   UNL     1      -5.474  14.527  69.843  1.00  0.00    -0.098 C  
HETATM    2  N   UNL     1      -6.892  14.695  69.479  1.00  0.00    -0.156 N  
HETATM    3  C   UNL     1      -7.466  15.978  69.930  1.00  0.00     0.322 C  
ENDROOT
BRANCH   2   4
HETATM    4  S   UNL     1      -7.353  14.188  67.915  1.00  0.00    -0.176 S  
HETATM    5  O   UNL     1      -6.397  14.733  66.965  1.00  0.00    -0.119 OA 
HETATM    6  O   UNL     1      -8.773  14.401  67.755  1.00  0.00    -0.164 OA 
BRANCH   4   7
HETATM    7  C   UNL     1      -7.063  12.428  67.993  1.00  0.00    -0.099 A  
HETATM    8  C   UNL     1      -8.026  11.558  67.459  1.00  0.00    -0.133 A  
HETATM    9  C   UNL     1      -7.939  10.149  67.503  1.00  0.00    -0.106 A  
HETATM   10  C   UNL     1      -6.769   9.670  68.120  1.00  0.00    -0.062 A  
HETATM   11  S   UNL     1      -6.325   7.971  68.294  1.00  0.00    -0.051 SA 
HETATM   12  C   UNL     1      -5.790  10.551  68.653  1.00  0.00    -0.040 A  
HETATM   13  C   UNL     1      -7.749   7.090  67.734  1.00  0.00    -0.112 A  
HETATM   14  C   UNL     1      -5.925  11.929  68.582  1.00  0.00    -0.050 A  
HETATM   15  C   UNL     1      -7.638   5.691  67.913  1.00  0.00    -0.085 A  
HETATM   16  C   UNL     1      -8.656   4.828  67.543  1.00  0.00    -0.104 A  
HETATM   17  C   UNL     1      -9.808   5.363  66.999  1.00  0.00    -0.181 A  
HETATM   18  C   UNL     1      -9.929   6.751  66.823  1.00  0.00    -0.242 A  
HETATM   19  C   UNL     1      -8.900   7.666  67.164  1.00  0.00    -0.129 A  
HETATM   20  C   UNL     1      -9.018   9.186  66.956  1.00  0.00    -0.139 C  
HETATM   21  C   UNL     1     -10.111   9.630  66.258  1.00  0.00    -0.322 C  
HETATM   22  C   UNL     1     -10.477  11.052  65.919  1.00  0.00    -0.300 C  
BRANCH  22  23
HETATM   23  C   UNL     1     -11.646  11.458  65.011  1.00  0.00     0.143 C  
BRANCH  23  24
HETATM   24  N   UNL     1     -11.194  12.491  64.039  1.00  0.00    -0.369 NA 
HETATM   25  C   UNL     1     -12.242  13.442  63.583  1.00  0.00    -0.414 C  
HETATM   26  C   UNL     1     -12.641  14.569  64.575  1.00  0.00    -0.184 C  
HETATM   27  N   UNL     1     -11.551  15.215  65.339  1.00  0.00    -0.236 NA 
HETATM   28  C   UNL     1     -10.524  14.231  65.721  1.00  0.00    -0.316 C  
HETATM   29  C   UNL     1     -10.960  16.336  64.612  1.00  0.00    -0.194 C  
HETATM   30  C   UNL     1     -10.084  13.298  64.574  1.00  0.00    -0.216 C  
ENDBRANCH  23  24
ENDBRANCH  22  23
ENDBRANCH   4   7
ENDBRANCH   2   4
TORSDOF 4
ENDMDL
MODEL      163
REMARK 921   NORMALIZED FREE ENERGY PREDICTED BY IDOCK:   -2.13 KCAL/MOL
REMARK 922        TOTAL FREE ENERGY PREDICTED BY IDOCK:   -3.28 KCAL/MOL
REMARK 923 INTER-LIGAND FREE ENERGY PREDICTED BY IDOCK:   -3.64 KCAL/MOL
REMARK 924 INTRA-LIGAND FREE ENERGY PREDICTED BY IDOCK:    0.36 KCAL/MOL
REMARK 927      BINDING AFFINITY PREDICTED BY RF-SCORE:    0.00 PKD
ROOT
HETATM    1  C   UNL     1     -11.134   4.864  65.457  1.00  0.00     0.212 C  
HETATM    2  N   UNL     1     -10.015   5.769  65.779  1.00  0.00     0.149 N  
HETATM    3  C   UNL     1     -10.382   6.843  66.721  1.00  0.00    -0.217 C  
ENDROOT
BRANCH   2   4
HETATM    4  S   UNL     1      -8.489   5.048  66.036  1.00  0.00    -0.118 S  
HETATM    5  O   UNL     1      -7.625   5.413  64.925  1.00  0.00    -0.077 OA 
HETATM    6  O   UNL     1      -8.683   3.667  66.413  1.00  0.00    -0.111 OA 
BRANCH   4   7
HETATM    7  C   UNL     1      -7.894   5.933  67.469  1.00  0.00    -0.098 A  
HETATM    8  C   UNL     1      -7.834   7.333  67.424  1.00  0.00    -0.112 A  
HETATM    9  C   UNL     1      -7.336   8.145  68.468  1.00  0.00    -0.093 A  
HETATM   10  C   UNL     1      -6.917   7.421  69.599  1.00  0.00    -0.053 A  
HETATM   11  S   UNL     1      -6.295   8.126  71.093  1.00  0.00    -0.037 SA 
HETATM   12  C   UNL     1      -6.986   6.003  69.648  1.00  0.00    -0.067 A  
HETATM   13  C   UNL     1      -6.136   9.846  70.729  1.00  0.00    -0.095 A  
HETATM   14  C   UNL     1      -7.485   5.255  68.593  1.00  0.00    -0.071 A  
HETATM   15  C   UNL     1      -5.527  10.578  71.775  1.00  0.00     0.167 A  
HETATM   16  C   UNL     1      -5.306  11.941  71.675  1.00  0.00     0.168 A  
HETATM   17  C   UNL     1      -5.683  12.587  70.513  1.00  0.00    -0.170 A  
HETATM   18  C   UNL     1      -6.284  11.867  69.466  1.00  0.00    -0.117 A  
HETATM   19  C   UNL     1      -6.551  10.476  69.539  1.00  0.00    -0.080 A  
HETATM   20  C   UNL     1      -7.226   9.686  68.406  1.00  0.00    -0.074 C  
HETATM   21  C   UNL     1      -7.728  10.414  67.358  1.00  0.00    -0.095 C  
HETATM   22  C   UNL     1      -8.424   9.902  66.124  1.00  0.00    -0.130 C  
BRANCH  22  23
HETATM   23  C   UNL     1      -9.082  10.793  65.062  1.00  0.00    -0.203 C  
BRANCH  23  24
HETATM   24  N   UNL     1     -10.550  10.865  65.303  1.00  0.00    -0.232 NA 
HETATM   25  C   UNL     1     -10.956  11.470  66.599  1.00  0.00    -0.296 C  
HETATM   26  C   UNL     1     -10.878  13.018  66.701  1.00  0.00    -0.275 C  
HETATM   27  N   UNL     1     -11.318  13.797  65.522  1.00  0.00    -0.304 NA 
HETATM   28  C   UNL     1     -10.926  13.124  64.272  1.00  0.00    -0.403 C  
HETATM   29  C   UNL     1     -12.753  14.067  65.545  1.00  0.00    -0.486 C  
HETATM   30  C   UNL     1     -11.242  11.614  64.241  1.00  0.00    -0.319 C  
ENDBRANCH  23  24
ENDBRANCH  22  23
ENDBRANCH   4   7
ENDBRANCH   2   4
TORSDOF 4
ENDMDL
MODEL      164
REMARK 921   NORMALIZED FREE ENERGY PREDICTED BY IDOCK:   -2.12 KCAL/MOL
REMARK 922        TOTAL FREE ENERGY PREDICTED BY IDOCK:   -3.26 KCAL/MOL
REMARK 923 INTER-LIGAND FREE ENERGY PREDICTED BY IDOCK:   -4.23 KCAL/MOL
REMARK 924 INTRA-LIGAND FREE ENERGY PREDICTED BY IDOCK:    0.97 KCAL/MOL
REMARK 927      BINDING AFFINITY PREDICTED BY RF-SCORE:    0.00 PKD
ROOT
HETATM    1  C   UNL     1     -11.193   6.859  69.957  1.00  0.00    -0.299 C  
HETATM    2  N   UNL     1      -9.820   6.831  69.420  1.00  0.00    -0.155 N  
HETATM    3  C   UNL     1      -9.201   5.492  69.460  1.00  0.00    -0.121 C  
ENDROOT
BRANCH   2   4
HETATM    4  S   UNL     1      -9.525   7.740  68.005  1.00  0.00    -0.146 S  
HETATM    5  O   UNL     1     -10.773   8.375  67.611  1.00  0.00    -0.218 OA 
HETATM    6  O   UNL     1      -8.771   6.929  67.078  1.00  0.00    -0.116 OA 
BRANCH   4   7
HETATM    7  C   UNL     1      -8.452   9.033  68.609  1.00  0.00    -0.128 A  
HETATM    8  C   UNL     1      -8.817  10.371  68.396  1.00  0.00    -0.136 A  
HETATM    9  C   UNL     1      -8.032  11.482  68.778  1.00  0.00    -0.107 A  
HETATM   10  C   UNL     1      -6.833  11.135  69.427  1.00  0.00    -0.125 A  
HETATM   11  S   UNL     1      -5.653  12.275  70.077  1.00  0.00    -0.140 SA 
HETATM   12  C   UNL     1      -6.467   9.780  69.650  1.00  0.00    -0.049 A  
HETATM   13  C   UNL     1      -6.225  13.853  69.528  1.00  0.00    -0.115 A  
HETATM   14  C   UNL     1      -7.277   8.727  69.255  1.00  0.00    -0.062 A  
HETATM   15  C   UNL     1      -5.335  14.905  69.847  1.00  0.00    -0.098 A  
HETATM   16  C   UNL     1      -5.603  16.216  69.493  1.00  0.00    -0.133 A  
HETATM   17  C   UNL     1      -6.767  16.487  68.801  1.00  0.00    -0.170 A  
HETATM   18  C   UNL     1      -7.656  15.448  68.476  1.00  0.00    -0.122 A  
HETATM   19  C   UNL     1      -7.431  14.097  68.842  1.00  0.00    -0.112 A  
HETATM   20  C   UNL     1      -8.408  12.957  68.507  1.00  0.00    -0.054 C  
HETATM   21  C   UNL     1      -9.618  13.318  67.974  1.00  0.00    -0.220 C  
HETATM   22  C   UNL     1     -10.749  12.417  67.549  1.00  0.00    -0.256 C  
BRANCH  22  23
HETATM   23  C   UNL     1     -12.129  12.907  67.091  1.00  0.00    -0.219 C  
BRANCH  23  24
HETATM   24  N   UNL     1     -12.235  12.807  65.610  1.00  0.00    -0.539 NA 
HETATM   25  C   UNL     1     -11.333  13.706  64.842  1.00  0.00    -0.344 C  
HETATM   26  C   UNL     1      -9.841  13.285  64.750  1.00  0.00     0.001 C  
HETATM   27  N   UNL     1      -9.553  11.848  64.545  1.00  0.00    -0.092 NA 
HETATM   28  C   UNL     1     -10.507  11.012  65.294  1.00  0.00    -0.251 C  
HETATM   29  C   UNL     1      -9.537  11.487  63.130  1.00  0.00    -0.360 C  
HETATM   30  C   UNL     1     -11.982  11.435  65.135  1.00  0.00     0.654 C  
ENDBRANCH  23  24
ENDBRANCH  22  23
ENDBRANCH   4   7
ENDBRANCH   2   4
TORSDOF 4
ENDMDL
MODEL      165
REMARK 921   NORMALIZED FREE ENERGY PREDICTED BY IDOCK:   -1.99 KCAL/MOL
REMARK 922        TOTAL FREE ENERGY PREDICTED BY IDOCK:   -3.11 KCAL/MOL
REMARK 923 INTER-LIGAND FREE ENERGY PREDICTED BY IDOCK:   -3.21 KCAL/MOL
REMARK 924 INTRA-LIGAND FREE ENERGY PREDICTED BY IDOCK:    0.10 KCAL/MOL
REMARK 927      BINDING AFFINITY PREDICTED BY RF-SCORE:    0.00 PKD
ROOT
HETATM    1  C   UNL     1      -7.591  14.286  69.277  1.00  0.00     0.012 C  
HETATM    2  N   UNL     1      -7.794  12.850  69.013  1.00  0.00     0.154 N  
HETATM    3  C   UNL     1      -9.026  12.560  68.255  1.00  0.00    -0.178 C  
ENDROOT
BRANCH   2   4
HETATM    4  S   UNL     1      -6.418  11.947  68.560  1.00  0.00    -0.062 S  
HETATM    5  O   UNL     1      -5.299  12.392  69.375  1.00  0.00    -0.068 OA 
HETATM    6  O   UNL     1      -6.331  11.919  67.119  1.00  0.00    -0.127 OA 
BRANCH   4   7
HETATM    7  C   UNL     1      -6.847  10.306  69.120  1.00  0.00    -0.062 A  
HETATM    8  C   UNL     1      -7.142   9.320  68.166  1.00  0.00    -0.077 A  
HETATM    9  C   UNL     1      -7.544   8.002  68.479  1.00  0.00    -0.104 A  
HETATM   10  C   UNL     1      -7.604   7.739  69.860  1.00  0.00    -0.090 A  
HETATM   11  S   UNL     1      -8.017   6.186  70.590  1.00  0.00    -0.113 SA 
HETATM   12  C   UNL     1      -7.296   8.735  70.825  1.00  0.00    -0.080 A  
HETATM   13  C   UNL     1      -8.525   5.187  69.226  1.00  0.00    -0.093 A  
HETATM   14  C   UNL     1      -6.905  10.014  70.462  1.00  0.00    -0.110 A  
HETATM   15  C   UNL     1      -9.021   3.923  69.622  1.00  0.00    -0.167 A  
HETATM   16  C   UNL     1      -9.477   2.998  68.697  1.00  0.00    -0.194 A  
HETATM   17  C   UNL     1      -9.452   3.338  67.359  1.00  0.00    -0.198 A  
HETATM   18  C   UNL     1      -8.965   4.593  66.955  1.00  0.00    -0.115 A  
HETATM   19  C   UNL     1      -8.466   5.557  67.868  1.00  0.00    -0.098 A  
HETATM   20  C   UNL     1      -7.914   6.926  67.433  1.00  0.00    -0.112 C  
HETATM   21  C   UNL     1      -7.759   7.129  66.086  1.00  0.00    -0.098 C  
HETATM   22  C   UNL     1      -7.253   8.365  65.389  1.00  0.00    -0.082 C  
BRANCH  22  23
HETATM   23  C   UNL     1      -6.976   8.464  63.883  1.00  0.00    -0.079 C  
BRANCH  23  24
HETATM   24  N   UNL     1      -7.102   9.879  63.438  1.00  0.00    -0.122 NA 
HETATM   25  C   UNL     1      -8.069  10.119  62.335  1.00  0.00    -0.143 C  
HETATM   26  C   UNL     1      -9.575  10.119  62.715  1.00  0.00    -0.177 C  
HETATM   27  N   UNL     1      -9.954  10.779  63.984  1.00  0.00    -0.318 NA 
HETATM   28  C   UNL     1      -8.935  10.542  65.021  1.00  0.00    -0.201 C  
HETATM   29  C   UNL     1     -10.202  12.208  63.808  1.00  0.00    -0.424 C  
HETATM   30  C   UNL     1      -7.485  10.769  64.548  1.00  0.00     0.320 C  
ENDBRANCH  23  24
ENDBRANCH  22  23
ENDBRANCH   4   7
ENDBRANCH   2   4
TORSDOF 4
ENDMDL
MODEL      166
REMARK 921   NORMALIZED FREE ENERGY PREDICTED BY IDOCK:   -1.97 KCAL/MOL
REMARK 922        TOTAL FREE ENERGY PREDICTED BY IDOCK:   -3.07 KCAL/MOL
REMARK 923 INTER-LIGAND FREE ENERGY PREDICTED BY IDOCK:   -2.71 KCAL/MOL
REMARK 924 INTRA-LIGAND FREE ENERGY PREDICTED BY IDOCK:   -0.36 KCAL/MOL
REMARK 927      BINDING AFFINITY PREDICTED BY RF-SCORE:    0.00 PKD
ROOT
HETATM    1  C   UNL     1     -11.292  15.978  64.144  1.00  0.00     0.028 C  
HETATM    2  N   UNL     1     -11.889  14.875  64.919  1.00  0.00    -0.363 N  
HETATM    3  C   UNL     1     -13.364  14.898  64.933  1.00  0.00     1.257 C  
ENDROOT
BRANCH   2   4
HETATM    4  S   UNL     1     -11.175  13.334  64.744  1.00  0.00    -0.348 S  
HETATM    5  O   UNL     1     -10.523  13.285  63.446  1.00  0.00     0.166 OA 
HETATM    6  O   UNL     1     -12.132  12.328  65.141  1.00  0.00    -0.396 OA 
BRANCH   4   7
HETATM    7  C   UNL     1      -9.881  13.380  65.974  1.00  0.00    -0.263 A  
HETATM    8  C   UNL     1      -9.426  12.173  66.526  1.00  0.00    -0.235 A  
HETATM    9  C   UNL     1      -8.447  12.078  67.540  1.00  0.00    -0.165 A  
HETATM   10  C   UNL     1      -7.930  13.320  67.949  1.00  0.00    -0.159 A  
HETATM   11  S   UNL     1      -6.661  13.556  69.154  1.00  0.00    -0.079 SA 
HETATM   12  C   UNL     1      -8.384  14.543  67.384  1.00  0.00    -0.217 A  
HETATM   13  C   UNL     1      -6.397  11.945  69.826  1.00  0.00    -0.118 A  
HETATM   14  C   UNL     1      -9.348  14.578  66.389  1.00  0.00    -0.300 A  
HETATM   15  C   UNL     1      -5.490  11.942  70.911  1.00  0.00    -0.112 A  
HETATM   16  C   UNL     1      -5.159  10.775  71.579  1.00  0.00    -0.064 A  
HETATM   17  C   UNL     1      -5.747   9.593  71.172  1.00  0.00    -0.075 A  
HETATM   18  C   UNL     1      -6.654   9.587  70.098  1.00  0.00    -0.073 A  
HETATM   19  C   UNL     1      -6.999  10.756  69.372  1.00  0.00    -0.116 A  
HETATM   20  C   UNL     1      -7.975  10.754  68.183  1.00  0.00    -0.114 C  
HETATM   21  C   UNL     1      -8.387   9.529  67.725  1.00  0.00    -0.118 C  
HETATM   22  C   UNL     1      -9.337   9.236  66.592  1.00  0.00    -0.219 C  
BRANCH  22  23
HETATM   23  C   UNL     1      -9.639   7.833  66.049  1.00  0.00     0.065 C  
BRANCH  23  24
HETATM   24  N   UNL     1      -8.435   6.969  66.186  1.00  0.00    -0.130 NA 
HETATM   25  C   UNL     1      -8.704   5.512  66.312  1.00  0.00    -0.128 C  
HETATM   26  C   UNL     1      -9.080   4.757  65.008  1.00  0.00    -0.150 C  
HETATM   27  N   UNL     1      -8.337   5.115  63.780  1.00  0.00    -0.130 NA 
HETATM   28  C   UNL     1      -8.061   6.561  63.737  1.00  0.00    -0.016 C  
HETATM   29  C   UNL     1      -7.106   4.342  63.637  1.00  0.00    -0.046 C  
HETATM   30  C   UNL     1      -7.507   7.140  65.055  1.00  0.00    -0.093 C  
ENDBRANCH  23  24
ENDBRANCH  22  23
ENDBRANCH   4   7
ENDBRANCH   2   4
TORSDOF 4
ENDMDL
MODEL      167
REMARK 921   NORMALIZED FREE ENERGY PREDICTED BY IDOCK:   -1.96 KCAL/MOL
REMARK 922        TOTAL FREE ENERGY PREDICTED BY IDOCK:   -3.06 KCAL/MOL
REMARK 923 INTER-LIGAND FREE ENERGY PREDICTED BY IDOCK:   -4.39 KCAL/MOL
REMARK 924 INTRA-LIGAND FREE ENERGY PREDICTED BY IDOCK:    1.33 KCAL/MOL
REMARK 927      BINDING AFFINITY PREDICTED BY RF-SCORE:    0.00 PKD
ROOT
HETATM    1  C   UNL     1     -10.575  18.038  67.458  1.00  0.00    -0.388 C  
HETATM    2  N   UNL     1     -10.569  16.567  67.356  1.00  0.00    -0.317 N  
HETATM    3  C   UNL     1     -11.658  15.920  68.112  1.00  0.00    -0.223 C  
ENDROOT
BRANCH   2   4
HETATM    4  S   UNL     1     -10.240  15.902  65.818  1.00  0.00    -0.384 S  
HETATM    5  O   UNL     1      -8.831  16.114  65.528  1.00  0.00    -0.239 OA 
HETATM    6  O   UNL     1     -11.267  16.328  64.896  1.00  0.00    -0.357 OA 
BRANCH   4   7
HETATM    7  C   UNL     1     -10.453  14.154  66.113  1.00  0.00    -0.296 A  
HETATM    8  C   UNL     1      -9.334  13.385  66.469  1.00  0.00    -0.225 A  
HETATM    9  C   UNL     1      -9.360  11.988  66.679  1.00  0.00    -0.221 A  
HETATM   10  C   UNL     1     -10.635  11.414  66.523  1.00  0.00    -0.263 A  
HETATM   11  S   UNL     1     -11.027   9.709  66.763  1.00  0.00     0.336 SA 
HETATM   12  C   UNL     1     -11.769  12.193  66.171  1.00  0.00    -0.384 A  
HETATM   13  C   UNL     1      -9.460   8.934  67.008  1.00  0.00    -0.166 A  
HETATM   14  C   UNL     1     -11.687  13.564  65.977  1.00  0.00    -0.389 A  
HETATM   15  C   UNL     1      -9.549   7.525  67.097  1.00  0.00    -0.207 A  
HETATM   16  C   UNL     1      -8.426   6.736  67.281  1.00  0.00    -0.120 A  
HETATM   17  C   UNL     1      -7.193   7.353  67.364  1.00  0.00    -0.093 A  
HETATM   18  C   UNL     1      -7.094   8.752  67.271  1.00  0.00    -0.079 A  
HETATM   19  C   UNL     1      -8.221   9.597  67.110  1.00  0.00    -0.120 A  
HETATM   20  C   UNL     1      -8.123  11.130  67.027  1.00  0.00    -0.148 C  
HETATM   21  C   UNL     1      -6.896  11.685  67.288  1.00  0.00    -0.129 C  
HETATM   22  C   UNL     1      -6.517  13.143  67.270  1.00  0.00     0.065 C  
BRANCH  22  23
HETATM   23  C   UNL     1      -5.155  13.694  67.712  1.00  0.00    -0.020 C  
BRANCH  23  24
HETATM   24  N   UNL     1      -5.323  14.540  68.926  1.00  0.00    -0.086 NA 
HETATM   25  C   UNL     1      -5.177  16.004  68.711  1.00  0.00    -0.104 C  
HETATM   26  C   UNL     1      -6.379  16.735  68.052  1.00  0.00    -0.143 C  
HETATM   27  N   UNL     1      -7.736  16.336  68.487  1.00  0.00    -0.179 NA 
HETATM   28  C   UNL     1      -7.803  14.884  68.727  1.00  0.00    -0.149 C  
HETATM   29  C   UNL     1      -8.180  17.083  69.661  1.00  0.00     0.770 C  
HETATM   30  C   UNL     1      -6.633  14.326  69.565  1.00  0.00    -0.134 C  
ENDBRANCH  23  24
ENDBRANCH  22  23
ENDBRANCH   4   7
ENDBRANCH   2   4
TORSDOF 4
ENDMDL
MODEL      168
REMARK 921   NORMALIZED FREE ENERGY PREDICTED BY IDOCK:   -1.93 KCAL/MOL
REMARK 922        TOTAL FREE ENERGY PREDICTED BY IDOCK:   -3.03 KCAL/MOL
REMARK 923 INTER-LIGAND FREE ENERGY PREDICTED BY IDOCK:   -4.62 KCAL/MOL
REMARK 924 INTRA-LIGAND FREE ENERGY PREDICTED BY IDOCK:    1.59 KCAL/MOL
REMARK 927      BINDING AFFINITY PREDICTED BY RF-SCORE:    0.00 PKD
ROOT
HETATM    1  C   UNL     1     -13.517   7.361  71.009  1.00  0.00    -0.048 C  
HETATM    2  N   UNL     1     -12.185   6.728  70.965  1.00  0.00    -0.376 N  
HETATM    3  C   UNL     1     -11.893   6.064  69.681  1.00  0.00     0.739 C  
ENDROOT
BRANCH   2   4
HETATM    4  S   UNL     1     -10.892   7.603  71.657  1.00  0.00    -0.230 S  
HETATM    5  O   UNL     1      -9.699   7.342  70.867  1.00  0.00    -0.170 OA 
HETATM    6  O   UNL     1     -10.904   7.401  73.087  1.00  0.00    -0.343 OA 
BRANCH   4   7
HETATM    7  C   UNL     1     -11.370   9.293  71.334  1.00  0.00    -0.364 A  
HETATM    8  C   UNL     1     -10.781   9.970  70.256  1.00  0.00    -0.367 A  
HETATM    9  C   UNL     1     -11.035  11.321  69.927  1.00  0.00    -0.096 A  
HETATM   10  C   UNL     1     -11.968  11.946  70.774  1.00  0.00    -0.088 A  
HETATM   11  S   UNL     1     -12.547  13.606  70.612  1.00  0.00    -0.257 SA 
HETATM   12  C   UNL     1     -12.571  11.258  71.861  1.00  0.00    -0.144 A  
HETATM   13  C   UNL     1     -11.541  14.294  69.334  1.00  0.00    -0.306 A  
HETATM   14  C   UNL     1     -12.286   9.930  72.138  1.00  0.00    -0.034 A  
HETATM   15  C   UNL     1     -11.769  15.676  69.137  1.00  0.00    -0.402 A  
HETATM   16  C   UNL     1     -11.070  16.399  68.184  1.00  0.00    -0.320 A  
HETATM   17  C   UNL     1     -10.121  15.743  67.425  1.00  0.00    -0.246 A  
HETATM   18  C   UNL     1      -9.883  14.371  67.618  1.00  0.00    -0.224 A  
HETATM   19  C   UNL     1     -10.595  13.590  68.564  1.00  0.00    -0.257 A  
HETATM   20  C   UNL     1     -10.355  12.084  68.767  1.00  0.00    -0.181 C  
HETATM   21  C   UNL     1      -9.527  11.464  67.868  1.00  0.00    -0.174 C  
HETATM   22  C   UNL     1      -9.115  10.015  67.835  1.00  0.00    -0.135 C  
BRANCH  22  23
HETATM   23  C   UNL     1      -8.295   9.368  66.711  1.00  0.00    -0.123 C  
BRANCH  23  24
HETATM   24  N   UNL     1      -6.890   9.172  67.160  1.00  0.00    -0.079 NA 
HETATM   25  C   UNL     1      -6.169  10.409  67.562  1.00  0.00    -0.057 C  
HETATM   26  C   UNL     1      -6.518  10.998  68.957  1.00  0.00    -0.056 C  
HETATM   27  N   UNL     1      -6.709  10.039  70.068  1.00  0.00    -0.095 NA 
HETATM   28  C   UNL     1      -7.385   8.819  69.596  1.00  0.00    -0.059 C  
HETATM   29  C   UNL     1      -5.452   9.717  70.739  1.00  0.00    -0.057 C  
HETATM   30  C   UNL     1      -6.802   8.235  68.293  1.00  0.00    -0.065 C  
ENDBRANCH  23  24
ENDBRANCH  22  23
ENDBRANCH   4   7
ENDBRANCH   2   4
TORSDOF 4
ENDMDL
MODEL      169
REMARK 921   NORMALIZED FREE ENERGY PREDICTED BY IDOCK:   -1.88 KCAL/MOL
REMARK 922        TOTAL FREE ENERGY PREDICTED BY IDOCK:   -2.97 KCAL/MOL
REMARK 923 INTER-LIGAND FREE ENERGY PREDICTED BY IDOCK:   -3.43 KCAL/MOL
REMARK 924 INTRA-LIGAND FREE ENERGY PREDICTED BY IDOCK:    0.46 KCAL/MOL
REMARK 927      BINDING AFFINITY PREDICTED BY RF-SCORE:    0.00 PKD
ROOT
HETATM    1  C   UNL     1      -8.483  19.610  65.865  1.00  0.00    -0.146 C  
HETATM    2  N   UNL     1      -7.050  19.314  65.683  1.00  0.00    -0.276 N  
HETATM    3  C   UNL     1      -6.216  20.522  65.531  1.00  0.00    -0.236 C  
ENDROOT
BRANCH   2   4
HETATM    4  S   UNL     1      -6.388  18.076  66.655  1.00  0.00    -0.210 S  
HETATM    5  O   UNL     1      -5.275  18.638  67.403  1.00  0.00    -0.147 OA 
HETATM    6  O   UNL     1      -6.227  16.887  65.850  1.00  0.00     0.016 OA 
BRANCH   4   7
HETATM    7  C   UNL     1      -7.703  17.777  67.826  1.00  0.00    -0.214 A  
HETATM    8  C   UNL     1      -8.171  16.466  67.999  1.00  0.00    -0.169 A  
HETATM    9  C   UNL     1      -9.237  16.105  68.853  1.00  0.00    -0.234 A  
HETATM   10  C   UNL     1      -9.794  17.190  69.555  1.00  0.00     0.125 A  
HETATM   11  S   UNL     1     -11.099  17.082  70.739  1.00  0.00     1.125 SA 
HETATM   12  C   UNL     1      -9.314  18.516  69.387  1.00  0.00     0.237 A  
HETATM   13  C   UNL     1     -11.637  15.403  70.641  1.00  0.00    -0.332 A  
HETATM   14  C   UNL     1      -8.262  18.814  68.534  1.00  0.00    -0.379 A  
HETATM   15  C   UNL     1     -12.777  15.142  71.436  1.00  0.00    -0.443 A  
HETATM   16  C   UNL     1     -13.355  13.884  71.486  1.00  0.00    -0.406 A  
HETATM   17  C   UNL     1     -12.800  12.873  70.725  1.00  0.00    -0.128 A  
HETATM   18  C   UNL     1     -11.671  13.125  69.928  1.00  0.00    -0.327 A  
HETATM   19  C   UNL     1     -11.034  14.391  69.869  1.00  0.00    -0.103 A  
HETATM   20  C   UNL     1      -9.786  14.669  69.015  1.00  0.00    -0.161 C  
HETATM   21  C   UNL     1      -9.189  13.586  68.423  1.00  0.00    -0.159 C  
HETATM   22  C   UNL     1      -7.971  13.571  67.535  1.00  0.00    -0.186 C  
BRANCH  22  23
HETATM   23  C   UNL     1      -7.281  12.298  67.025  1.00  0.00    -0.037 C  
BRANCH  23  24
HETATM   24  N   UNL     1      -7.350  11.236  68.065  1.00  0.00    -0.089 NA 
HETATM   25  C   UNL     1      -8.591  10.417  68.062  1.00  0.00    -0.123 C  
HETATM   26  C   UNL     1      -8.705   9.327  66.961  1.00  0.00    -0.124 C  
HETATM   27  N   UNL     1      -7.485   8.550  66.648  1.00  0.00    -0.081 NA 
HETATM   28  C   UNL     1      -6.288   9.405  66.713  1.00  0.00    -0.066 C  
HETATM   29  C   UNL     1      -7.341   7.380  67.512  1.00  0.00    -0.102 C  
HETATM   30  C   UNL     1      -6.216  10.300  67.968  1.00  0.00    -0.056 C  
ENDBRANCH  23  24
ENDBRANCH  22  23
ENDBRANCH   4   7
ENDBRANCH   2   4
TORSDOF 4
ENDMDL
MODEL      170
REMARK 921   NORMALIZED FREE ENERGY PREDICTED BY IDOCK:   -1.81 KCAL/MOL
REMARK 922        TOTAL FREE ENERGY PREDICTED BY IDOCK:   -2.88 KCAL/MOL
REMARK 923 INTER-LIGAND FREE ENERGY PREDICTED BY IDOCK:   -2.63 KCAL/MOL
REMARK 924 INTRA-LIGAND FREE ENERGY PREDICTED BY IDOCK:   -0.25 KCAL/MOL
REMARK 927      BINDING AFFINITY PREDICTED BY RF-SCORE:    0.00 PKD
ROOT
HETATM    1  C   UNL     1      -5.302  10.284  69.168  1.00  0.00    -0.038 C  
HETATM    2  N   UNL     1      -5.724  10.839  67.868  1.00  0.00    -0.043 N  
HETATM    3  C   UNL     1      -5.370   9.981  66.721  1.00  0.00    -0.041 C  
ENDROOT
BRANCH   2   4
HETATM    4  S   UNL     1      -7.271  11.560  67.802  1.00  0.00    -0.101 S  
HETATM    5  O   UNL     1      -7.943  11.298  69.065  1.00  0.00    -0.132 OA 
HETATM    6  O   UNL     1      -7.888  11.224  66.541  1.00  0.00    -0.153 OA 
BRANCH   4   7
HETATM    7  C   UNL     1      -6.871  13.300  67.777  1.00  0.00    -0.153 A  
HETATM    8  C   UNL     1      -7.904  14.230  67.592  1.00  0.00    -0.191 A  
HETATM    9  C   UNL     1      -7.714  15.627  67.503  1.00  0.00    -0.192 A  
HETATM   10  C   UNL     1      -6.372  16.028  67.640  1.00  0.00    -0.162 A  
HETATM   11  S   UNL     1      -5.795  17.696  67.629  1.00  0.00    -0.141 SA 
HETATM   12  C   UNL     1      -5.326  15.086  67.835  1.00  0.00    -0.108 A  
HETATM   13  C   UNL     1      -7.219  18.646  67.199  1.00  0.00    -0.209 A  
HETATM   14  C   UNL     1      -5.570  13.724  67.917  1.00  0.00    -0.105 A  
HETATM   15  C   UNL     1      -6.932  20.018  67.015  1.00  0.00    -0.251 A  
HETATM   16  C   UNL     1      -7.918  20.926  66.665  1.00  0.00     0.098 A  
HETATM   17  C   UNL     1      -9.206  20.463  66.483  1.00  0.00    -0.325 A  
HETATM   18  C   UNL     1      -9.500  19.100  66.659  1.00  0.00    -0.387 A  
HETATM   19  C   UNL     1      -8.526  18.143  67.042  1.00  0.00    -0.254 A  
HETATM   20  C   UNL     1      -8.843  16.653  67.255  1.00  0.00    -0.206 C  
HETATM   21  C   UNL     1     -10.166  16.294  67.226  1.00  0.00    -0.279 C  
HETATM   22  C   UNL     1     -10.755  14.917  67.395  1.00  0.00    -0.292 C  
BRANCH  22  23
HETATM   23  C   UNL     1     -12.257  14.618  67.490  1.00  0.00    -0.046 C  
BRANCH  23  24
HETATM   24  N   UNL     1     -12.585  14.107  68.850  1.00  0.00     0.141 NA 
HETATM   25  C   UNL     1     -11.416  13.763  69.703  1.00  0.00    -0.237 C  
HETATM   26  C   UNL     1     -10.651  14.951  70.349  1.00  0.00     0.047 C  
HETATM   27  N   UNL     1     -11.461  16.069  70.881  1.00  0.00    -0.405 NA 
HETATM   28  C   UNL     1     -12.626  16.329  70.018  1.00  0.00     0.960 C  
HETATM   29  C   UNL     1     -11.873  15.840  72.264  1.00  0.00    -0.498 C  
HETATM   30  C   UNL     1     -13.407  15.063  69.610  1.00  0.00     1.072 C  
ENDBRANCH  23  24
ENDBRANCH  22  23
ENDBRANCH   4   7
ENDBRANCH   2   4
TORSDOF 4
ENDMDL
MODEL      171
REMARK 921   NORMALIZED FREE ENERGY PREDICTED BY IDOCK:   -1.34 KCAL/MOL
REMARK 922        TOTAL FREE ENERGY PREDICTED BY IDOCK:   -2.30 KCAL/MOL
REMARK 923 INTER-LIGAND FREE ENERGY PREDICTED BY IDOCK:   -3.81 KCAL/MOL
REMARK 924 INTRA-LIGAND FREE ENERGY PREDICTED BY IDOCK:    1.50 KCAL/MOL
REMARK 927      BINDING AFFINITY PREDICTED BY RF-SCORE:    0.00 PKD
ROOT
HETATM    1  C   UNL     1      -8.330  12.053  68.975  1.00  0.00     0.288 C  
HETATM    2  N   UNL     1      -9.688  12.117  68.403  1.00  0.00    -0.210 N  
HETATM    3  C   UNL     1      -9.902  13.286  67.528  1.00  0.00    -0.220 C  
ENDROOT
BRANCH   2   4
HETATM    4  S   UNL     1     -10.365  10.649  67.855  1.00  0.00    -0.213 S  
HETATM    5  O   UNL     1      -9.541  10.153  66.764  1.00  0.00    -0.166 OA 
HETATM    6  O   UNL     1     -11.790  10.822  67.698  1.00  0.00    -0.505 OA 
BRANCH   4   7
HETATM    7  C   UNL     1     -10.089   9.567  69.248  1.00  0.00    -0.198 A  
HETATM    8  C   UNL     1      -9.071   8.606  69.169  1.00  0.00    -0.142 A  
HETATM    9  C   UNL     1      -8.786   7.660  70.179  1.00  0.00    -0.146 A  
HETATM   10  C   UNL     1      -9.610   7.774  71.313  1.00  0.00    -0.157 A  
HETATM   11  S   UNL     1      -9.489   6.788  72.772  1.00  0.00    -0.142 SA 
HETATM   12  C   UNL     1     -10.637   8.753  71.397  1.00  0.00    -0.349 A  
HETATM   13  C   UNL     1      -8.293   5.554  72.364  1.00  0.00    -0.118 A  
HETATM   14  C   UNL     1     -10.872   9.659  70.375  1.00  0.00    -0.353 A  
HETATM   15  C   UNL     1      -8.141   4.577  73.374  1.00  0.00    -0.095 A  
HETATM   16  C   UNL     1      -7.256   3.520  73.237  1.00  0.00    -0.055 A  
HETATM   17  C   UNL     1      -6.518   3.426  72.073  1.00  0.00    -0.015 A  
HETATM   18  C   UNL     1      -6.666   4.390  71.061  1.00  0.00    -0.035 A  
HETATM   19  C   UNL     1      -7.542   5.500  71.174  1.00  0.00    -0.102 A  
HETATM   20  C   UNL     1      -7.694   6.570  70.079  1.00  0.00    -0.102 C  
HETATM   21  C   UNL     1      -6.812   6.511  69.031  1.00  0.00    -0.066 C  
HETATM   22  C   UNL     1      -6.740   7.418  67.830  1.00  0.00    -0.062 C  
BRANCH  22  23
HETATM   23  C   UNL     1      -5.633   7.372  66.769  1.00  0.00    -0.024 C  
BRANCH  23  24
HETATM   24  N   UNL     1      -6.025   6.447  65.670  1.00  0.00    -0.028 NA 
HETATM   25  C   UNL     1      -6.073   5.006  66.034  1.00  0.00    -0.030 C  
HETATM   26  C   UNL     1      -7.306   4.534  66.853  1.00  0.00    -0.081 C  
HETATM   27  N   UNL     1      -8.623   5.090  66.474  1.00  0.00    -0.110 NA 
HETATM   28  C   UNL     1      -8.502   6.505  66.081  1.00  0.00    -0.137 C  
HETATM   29  C   UNL     1      -9.270   4.308  65.424  1.00  0.00    -0.152 C  
HETATM   30  C   UNL     1      -7.341   6.793  65.107  1.00  0.00    -0.085 C  
ENDBRANCH  23  24
ENDBRANCH  22  23
ENDBRANCH   4   7
ENDBRANCH   2   4
TORSDOF 4
ENDMDL
MODEL      172
REMARK 921   NORMALIZED FREE ENERGY PREDICTED BY IDOCK:   -1.26 KCAL/MOL
REMARK 922        TOTAL FREE ENERGY PREDICTED BY IDOCK:   -2.20 KCAL/MOL
REMARK 923 INTER-LIGAND FREE ENERGY PREDICTED BY IDOCK:   -3.28 KCAL/MOL
REMARK 924 INTRA-LIGAND FREE ENERGY PREDICTED BY IDOCK:    1.07 KCAL/MOL
REMARK 927      BINDING AFFINITY PREDICTED BY RF-SCORE:    0.00 PKD
ROOT
HETATM    1  C   UNL     1      -5.216  11.845  72.699  1.00  0.00     0.557 C  
HETATM    2  N   UNL     1      -5.373  11.970  71.238  1.00  0.00    -0.092 N  
HETATM    3  C   UNL     1      -5.754  10.707  70.578  1.00  0.00    -0.103 C  
ENDROOT
BRANCH   2   4
HETATM    4  S   UNL     1      -6.161  13.372  70.664  1.00  0.00     0.253 S  
HETATM    5  O   UNL     1      -5.143  14.339  70.287  1.00  0.00    -0.089 OA 
HETATM    6  O   UNL     1      -7.222  13.719  71.580  1.00  0.00     2.070 OA 
BRANCH   4   7
HETATM    7  C   UNL     1      -6.907  12.787  69.150  1.00  0.00    -0.054 A  
HETATM    8  C   UNL     1      -8.061  13.425  68.672  1.00  0.00    -0.040 A  
HETATM    9  C   UNL     1      -8.774  13.027  67.519  1.00  0.00    -0.197 A  
HETATM   10  C   UNL     1      -8.207  11.925  66.853  1.00  0.00    -0.157 A  
HETATM   11  S   UNL     1      -8.813  11.209  65.358  1.00  0.00    -0.038 SA 
HETATM   12  C   UNL     1      -7.033  11.284  67.332  1.00  0.00    -0.101 A  
HETATM   13  C   UNL     1     -10.343  12.041  65.067  1.00  0.00    -0.281 A  
HETATM   14  C   UNL     1      -6.372  11.717  68.471  1.00  0.00    -0.053 A  
HETATM   15  C   UNL     1     -11.056  11.515  63.964  1.00  0.00    -0.441 A  
HETATM   16  C   UNL     1     -12.284  12.028  63.581  1.00  0.00    -0.642 A  
HETATM   17  C   UNL     1     -12.819  13.071  64.313  1.00  0.00    -0.125 A  
HETATM   18  C   UNL     1     -12.121  13.596  65.413  1.00  0.00    -0.429 A  
HETATM   19  C   UNL     1     -10.850  13.116  65.822  1.00  0.00    -0.289 A  
HETATM   20  C   UNL     1     -10.071  13.699  67.013  1.00  0.00    -0.248 C  
HETATM   21  C   UNL     1     -10.577  14.837  67.585  1.00  0.00    -0.262 C  
HETATM   22  C   UNL     1     -10.028  15.607  68.758  1.00  0.00    -0.213 C  
BRANCH  22  23
HETATM   23  C   UNL     1     -10.576  16.953  69.250  1.00  0.00    -0.325 C  
BRANCH  23  24
HETATM   24  N   UNL     1      -9.482  17.963  69.280  1.00  0.00     0.030 NA 
HETATM   25  C   UNL     1      -8.251  17.594  68.532  1.00  0.00    -0.292 C  
HETATM   26  C   UNL     1      -8.310  17.722  66.985  1.00  0.00    -0.226 C  
HETATM   27  N   UNL     1      -9.005  18.905  66.429  1.00  0.00    -0.350 NA 
HETATM   28  C   UNL     1     -10.187  19.246  67.239  1.00  0.00    -0.412 C  
HETATM   29  C   UNL     1      -8.113  20.054  66.292  1.00  0.00    -0.288 C  
HETATM   30  C   UNL     1      -9.928  19.267  68.760  1.00  0.00    -0.440 C  
ENDBRANCH  23  24
ENDBRANCH  22  23
ENDBRANCH   4   7
ENDBRANCH   2   4
TORSDOF 4
ENDMDL
MODEL      173
REMARK 921   NORMALIZED FREE ENERGY PREDICTED BY IDOCK:   -1.24 KCAL/MOL
REMARK 922        TOTAL FREE ENERGY PREDICTED BY IDOCK:   -2.18 KCAL/MOL
REMARK 923 INTER-LIGAND FREE ENERGY PREDICTED BY IDOCK:   -4.21 KCAL/MOL
REMARK 924 INTRA-LIGAND FREE ENERGY PREDICTED BY IDOCK:    2.02 KCAL/MOL
REMARK 927      BINDING AFFINITY PREDICTED BY RF-SCORE:    0.00 PKD
ROOT
HETATM    1  C   UNL     1      -9.483  18.661  68.295  1.00  0.00    -0.336 C  
HETATM    2  N   UNL     1      -8.211  18.378  67.606  1.00  0.00    -0.251 N  
HETATM    3  C   UNL     1      -7.021  18.642  68.439  1.00  0.00    -0.260 C  
ENDROOT
BRANCH   2   4
HETATM    4  S   UNL     1      -8.147  16.963  66.653  1.00  0.00    -0.292 S  
HETATM    5  O   UNL     1      -7.181  17.181  65.587  1.00  0.00    -0.125 OA 
HETATM    6  O   UNL     1      -9.495  16.532  66.366  1.00  0.00    -0.254 OA 
BRANCH   4   7
HETATM    7  C   UNL     1      -7.419  15.785  67.780  1.00  0.00    -0.144 A  
HETATM    8  C   UNL     1      -7.556  14.415  67.512  1.00  0.00    -0.212 A  
HETATM    9  C   UNL     1      -7.072  13.385  68.349  1.00  0.00    -0.108 A  
HETATM   10  C   UNL     1      -6.402  13.852  69.494  1.00  0.00    -0.118 A  
HETATM   11  S   UNL     1      -5.633  12.837  70.717  1.00  0.00    -0.127 SA 
HETATM   12  C   UNL     1      -6.255  15.240  69.763  1.00  0.00    -0.155 A  
HETATM   13  C   UNL     1      -6.098  11.193  70.271  1.00  0.00    -0.144 A  
HETATM   14  C   UNL     1      -6.750  16.210  68.904  1.00  0.00    -0.147 A  
HETATM   15  C   UNL     1      -5.677  10.225  71.213  1.00  0.00     0.008 A  
HETATM   16  C   UNL     1      -5.954   8.879  71.044  1.00  0.00    -0.045 A  
HETATM   17  C   UNL     1      -6.670   8.488  69.930  1.00  0.00    -0.042 A  
HETATM   18  C   UNL     1      -7.097   9.442  68.991  1.00  0.00    -0.066 A  
HETATM   19  C   UNL     1      -6.812  10.826  69.114  1.00  0.00    -0.084 A  
HETATM   20  C   UNL     1      -7.259  11.874  68.080  1.00  0.00    -0.085 C  
HETATM   21  C   UNL     1      -7.813  11.400  66.919  1.00  0.00    -0.158 C  
HETATM   22  C   UNL     1      -8.340  12.195  65.753  1.00  0.00     0.727 C  
BRANCH  22  23
HETATM   23  C   UNL     1      -8.816  11.586  64.428  1.00  0.00     0.421 C  
BRANCH  23  24
HETATM   24  N   UNL     1     -10.304  11.565  64.388  1.00  0.00    -0.287 NA 
HETATM   25  C   UNL     1     -10.976  11.366  65.699  1.00  0.00    -0.190 C  
HETATM   26  C   UNL     1     -11.032  12.595  66.648  1.00  0.00    -0.258 C  
HETATM   27  N   UNL     1     -11.314  13.912  66.035  1.00  0.00    -0.318 NA 
HETATM   28  C   UNL     1     -10.660  14.029  64.721  1.00  0.00    -0.421 C  
HETATM   29  C   UNL     1     -12.748  14.175  65.933  1.00  0.00    -0.354 C  
HETATM   30  C   UNL     1     -10.853  12.802  63.805  1.00  0.00    -0.378 C  
ENDBRANCH  23  24
ENDBRANCH  22  23
ENDBRANCH   4   7
ENDBRANCH   2   4
TORSDOF 4
ENDMDL
MODEL      174
REMARK 921   NORMALIZED FREE ENERGY PREDICTED BY IDOCK:   -1.21 KCAL/MOL
REMARK 922        TOTAL FREE ENERGY PREDICTED BY IDOCK:   -2.15 KCAL/MOL
REMARK 923 INTER-LIGAND FREE ENERGY PREDICTED BY IDOCK:   -4.49 KCAL/MOL
REMARK 924 INTRA-LIGAND FREE ENERGY PREDICTED BY IDOCK:    2.35 KCAL/MOL
REMARK 927      BINDING AFFINITY PREDICTED BY RF-SCORE:    0.00 PKD
ROOT
HETATM    1  C   UNL     1      -8.760  16.738  67.363  1.00  0.00    -0.191 C  
HETATM    2  N   UNL     1      -9.758  16.687  68.447  1.00  0.00    -0.235 N  
HETATM    3  C   UNL     1     -10.949  17.518  68.189  1.00  0.00    -0.124 C  
ENDROOT
BRANCH   2   4
HETATM    4  S   UNL     1     -10.059  15.159  69.147  1.00  0.00    -0.251 S  
HETATM    5  O   UNL     1     -11.314  14.658  68.610  1.00  0.00    -0.257 OA 
HETATM    6  O   UNL     1      -9.835  15.246  70.571  1.00  0.00     0.087 OA 
BRANCH   4   7
HETATM    7  C   UNL     1      -8.756  14.162  68.443  1.00  0.00    -0.178 A  
HETATM    8  C   UNL     1      -9.095  13.138  67.546  1.00  0.00    -0.205 A  
HETATM    9  C   UNL     1      -8.166  12.249  66.962  1.00  0.00    -0.155 A  
HETATM   10  C   UNL     1      -6.833  12.491  67.340  1.00  0.00    -0.145 A  
HETATM   11  S   UNL     1      -5.424  11.602  66.754  1.00  0.00    -0.095 SA 
HETATM   12  C   UNL     1      -6.488  13.533  68.241  1.00  0.00    -0.104 A  
HETATM   13  C   UNL     1      -6.109  10.274  65.814  1.00  0.00    -0.107 A  
HETATM   14  C   UNL     1      -7.442  14.379  68.786  1.00  0.00    -0.133 A  
HETATM   15  C   UNL     1      -5.131   9.361  65.355  1.00  0.00    -0.035 A  
HETATM   16  C   UNL     1      -5.472   8.247  64.606  1.00  0.00    -0.040 A  
HETATM   17  C   UNL     1      -6.805   8.028  64.319  1.00  0.00    -0.065 A  
HETATM   18  C   UNL     1      -7.784   8.927  64.775  1.00  0.00    -0.111 A  
HETATM   19  C   UNL     1      -7.475  10.092  65.522  1.00  0.00    -0.146 A  
HETATM   20  C   UNL     1      -8.539  11.091  66.008  1.00  0.00    -0.173 C  
HETATM   21  C   UNL     1      -9.816  10.907  65.544  1.00  0.00    -0.298 C  
HETATM   22  C   UNL     1     -11.043  11.722  65.862  1.00  0.00    -0.355 C  
BRANCH  22  23
HETATM   23  C   UNL     1     -12.410  11.536  65.191  1.00  0.00     1.124 C  
BRANCH  23  24
HETATM   24  N   UNL     1     -12.865  12.826  64.604  1.00  0.00    -0.743 NA 
HETATM   25  C   UNL     1     -13.108  13.922  65.580  1.00  0.00    -0.187 C  
HETATM   26  C   UNL     1     -11.853  14.638  66.151  1.00  0.00    -0.277 C  
HETATM   27  N   UNL     1     -10.749  14.923  65.209  1.00  0.00    -0.363 NA 
HETATM   28  C   UNL     1     -10.589  13.824  64.241  1.00  0.00    -0.150 C  
HETATM   29  C   UNL     1     -10.924  16.202  64.525  1.00  0.00    -0.123 C  
HETATM   30  C   UNL     1     -11.910  13.341  63.608  1.00  0.00    -0.458 C  
ENDBRANCH  23  24
ENDBRANCH  22  23
ENDBRANCH   4   7
ENDBRANCH   2   4
TORSDOF 4
ENDMDL
MODEL      175
REMARK 921   NORMALIZED FREE ENERGY PREDICTED BY IDOCK:   -1.04 KCAL/MOL
REMARK 922        TOTAL FREE ENERGY PREDICTED BY IDOCK:   -1.94 KCAL/MOL
REMARK 923 INTER-LIGAND FREE ENERGY PREDICTED BY IDOCK:   -3.25 KCAL/MOL
REMARK 924 INTRA-LIGAND FREE ENERGY PREDICTED BY IDOCK:    1.31 KCAL/MOL
REMARK 927      BINDING AFFINITY PREDICTED BY RF-SCORE:    0.00 PKD
ROOT
HETATM    1  C   UNL     1      -6.972   8.010  64.829  1.00  0.00    -0.070 C  
HETATM    2  N   UNL     1      -8.383   8.355  64.579  1.00  0.00    -0.150 N  
HETATM    3  C   UNL     1      -9.321   7.263  64.902  1.00  0.00     1.330 C  
ENDROOT
BRANCH   2   4
HETATM    4  S   UNL     1      -8.887   9.922  65.034  1.00  0.00    -0.208 S  
HETATM    5  O   UNL     1      -9.992  10.308  64.172  1.00  0.00    -0.315 OA 
HETATM    6  O   UNL     1      -7.722  10.762  65.181  1.00  0.00    -0.048 OA 
BRANCH   4   7
HETATM    7  C   UNL     1      -9.571   9.637  66.659  1.00  0.00    -0.187 A  
HETATM    8  C   UNL     1      -9.132   8.525  67.394  1.00  0.00    -0.148 A  
HETATM    9  C   UNL     1      -9.630   8.162  68.665  1.00  0.00    -0.151 A  
HETATM   10  C   UNL     1     -10.611   9.039  69.163  1.00  0.00    -0.203 A  
HETATM   11  S   UNL     1     -11.400   8.906  70.737  1.00  0.00    -0.277 SA 
HETATM   12  C   UNL     1     -11.049  10.169  68.423  1.00  0.00    -0.273 A  
HETATM   13  C   UNL     1     -10.837   7.360  71.376  1.00  0.00    -0.229 A  
HETATM   14  C   UNL     1     -10.525  10.480  67.178  1.00  0.00    -0.302 A  
HETATM   15  C   UNL     1     -11.461   7.006  72.595  1.00  0.00    -0.250 A  
HETATM   16  C   UNL     1     -11.160   5.824  73.250  1.00  0.00    -0.252 A  
HETATM   17  C   UNL     1     -10.233   4.973  72.680  1.00  0.00    -0.236 A  
HETATM   18  C   UNL     1      -9.611   5.313  71.466  1.00  0.00    -0.201 A  
HETATM   19  C   UNL     1      -9.873   6.525  70.778  1.00  0.00    -0.201 A  
HETATM   20  C   UNL     1      -9.182   6.914  69.459  1.00  0.00    -0.148 C  
HETATM   21  C   UNL     1      -8.154   6.109  69.041  1.00  0.00    -0.112 C  
HETATM   22  C   UNL     1      -7.317   6.249  67.796  1.00  0.00    -0.084 C  
BRANCH  22  23
HETATM   23  C   UNL     1      -6.090   5.388  67.469  1.00  0.00    -0.030 C  
BRANCH  23  24
HETATM   24  N   UNL     1      -6.397   4.484  66.327  1.00  0.00    -0.035 NA 
HETATM   25  C   UNL     1      -5.962   3.072  66.494  1.00  0.00    -0.024 C  
HETATM   26  C   UNL     1      -6.834   2.178  67.418  1.00  0.00    -0.039 C  
HETATM   27  N   UNL     1      -8.302   2.335  67.323  1.00  0.00    -0.077 NA 
HETATM   28  C   UNL     1      -8.666   3.747  67.113  1.00  0.00    -0.113 C  
HETATM   29  C   UNL     1      -8.881   1.484  66.286  1.00  0.00    -0.117 C  
HETATM   30  C   UNL     1      -7.838   4.458  66.022  1.00  0.00    -0.095 C  
ENDBRANCH  23  24
ENDBRANCH  22  23
ENDBRANCH   4   7
ENDBRANCH   2   4
TORSDOF 4
ENDMDL
MODEL      176
REMARK 921   NORMALIZED FREE ENERGY PREDICTED BY IDOCK:   -1.01 KCAL/MOL
REMARK 922        TOTAL FREE ENERGY PREDICTED BY IDOCK:   -1.89 KCAL/MOL
REMARK 923 INTER-LIGAND FREE ENERGY PREDICTED BY IDOCK:   -2.87 KCAL/MOL
REMARK 924 INTRA-LIGAND FREE ENERGY PREDICTED BY IDOCK:    0.97 KCAL/MOL
REMARK 927      BINDING AFFINITY PREDICTED BY RF-SCORE:    0.00 PKD
ROOT
HETATM    1  C   UNL     1      -9.465   6.622  73.601  1.00  0.00    -0.164 C  
HETATM    2  N   UNL     1      -9.805   7.907  72.962  1.00  0.00    -0.274 N  
HETATM    3  C   UNL     1      -8.752   8.931  73.106  1.00  0.00     0.712 C  
ENDROOT
BRANCH   2   4
HETATM    4  S   UNL     1     -10.560   7.832  71.432  1.00  0.00    -0.215 S  
HETATM    5  O   UNL     1     -10.010   8.895  70.606  1.00  0.00    -0.189 OA 
HETATM    6  O   UNL     1     -11.984   7.690  71.621  1.00  0.00    -0.278 OA 
BRANCH   4   7
HETATM    7  C   UNL     1      -9.933   6.291  70.782  1.00  0.00    -0.187 A  
HETATM    8  C   UNL     1      -8.960   6.327  69.772  1.00  0.00    -0.140 A  
HETATM    9  C   UNL     1      -8.422   5.183  69.141  1.00  0.00    -0.090 A  
HETATM   10  C   UNL     1      -8.936   3.969  69.632  1.00  0.00    -0.101 A  
HETATM   11  S   UNL     1      -8.443   2.359  69.102  1.00  0.00    -0.067 SA 
HETATM   12  C   UNL     1      -9.915   3.932  70.660  1.00  0.00    -0.094 A  
HETATM   13  C   UNL     1      -7.378   2.662  67.726  1.00  0.00    -0.053 A  
HETATM   14  C   UNL     1     -10.408   5.087  71.247  1.00  0.00    -0.255 A  
HETATM   15  C   UNL     1      -6.970   1.476  67.073  1.00  0.00    -0.038 A  
HETATM   16  C   UNL     1      -6.139   1.506  65.965  1.00  0.00    -0.019 A  
HETATM   17  C   UNL     1      -5.717   2.732  65.490  1.00  0.00    -0.018 A  
HETATM   18  C   UNL     1      -6.122   3.917  66.130  1.00  0.00    -0.031 A  
HETATM   19  C   UNL     1      -6.951   3.928  67.281  1.00  0.00    -0.055 A  
HETATM   20  C   UNL     1      -7.382   5.219  67.998  1.00  0.00    -0.072 C  
HETATM   21  C   UNL     1      -6.792   6.384  67.580  1.00  0.00    -0.076 C  
HETATM   22  C   UNL     1      -7.032   7.779  68.096  1.00  0.00    -0.079 C  
BRANCH  22  23
HETATM   23  C   UNL     1      -6.227   9.015  67.671  1.00  0.00    -0.055 C  
BRANCH  23  24
HETATM   24  N   UNL     1      -6.698   9.492  66.342  1.00  0.00    -0.074 NA 
HETATM   25  C   UNL     1      -7.569   8.547  65.595  1.00  0.00    -0.090 C  
HETATM   26  C   UNL     1      -9.046   8.440  66.065  1.00  0.00    -0.183 C  
HETATM   27  N   UNL     1      -9.729   9.697  66.443  1.00  0.00    -0.206 NA 
HETATM   28  C   UNL     1      -8.802  10.608  67.137  1.00  0.00    -0.137 C  
HETATM   29  C   UNL     1     -10.349  10.354  65.295  1.00  0.00    -0.197 C  
HETATM   30  C   UNL     1      -7.432  10.764  66.446  1.00  0.00    -0.142 C  
ENDBRANCH  23  24
ENDBRANCH  22  23
ENDBRANCH   4   7
ENDBRANCH   2   4
TORSDOF 4
ENDMDL
MODEL      177
REMARK 921   NORMALIZED FREE ENERGY PREDICTED BY IDOCK:   -0.57 KCAL/MOL
REMARK 922        TOTAL FREE ENERGY PREDICTED BY IDOCK:   -1.35 KCAL/MOL
REMARK 923 INTER-LIGAND FREE ENERGY PREDICTED BY IDOCK:   -1.00 KCAL/MOL
REMARK 924 INTRA-LIGAND FREE ENERGY PREDICTED BY IDOCK:   -0.35 KCAL/MOL
REMARK 927      BINDING AFFINITY PREDICTED BY RF-SCORE:    0.00 PKD
ROOT
HETATM    1  C   UNL     1     -10.023  12.794  63.977  1.00  0.00    -0.073 C  
HETATM    2  N   UNL     1     -11.251  13.575  64.217  1.00  0.00    -0.377 N  
HETATM    3  C   UNL     1     -11.858  14.109  62.983  1.00  0.00     1.411 C  
ENDROOT
BRANCH   2   4
HETATM    4  S   UNL     1     -12.346  12.955  65.372  1.00  0.00    -0.445 S  
HETATM    5  O   UNL     1     -13.331  12.148  64.669  1.00  0.00    -0.608 OA 
HETATM    6  O   UNL     1     -12.745  14.023  66.257  1.00  0.00    -0.414 OA 
BRANCH   4   7
HETATM    7  C   UNL     1     -11.315  11.827  66.296  1.00  0.00    -0.287 A  
HETATM    8  C   UNL     1     -10.303  12.350  67.116  1.00  0.00    -0.232 A  
HETATM    9  C   UNL     1      -9.391  11.565  67.856  1.00  0.00    -0.171 A  
HETATM   10  C   UNL     1      -9.595  10.180  67.723  1.00  0.00    -0.148 A  
HETATM   11  S   UNL     1      -8.669   8.924  68.550  1.00  0.00    -0.134 SA 
HETATM   12  C   UNL     1     -10.624   9.650  66.900  1.00  0.00    -0.241 A  
HETATM   13  C   UNL     1      -7.363   9.803  69.350  1.00  0.00    -0.087 A  
HETATM   14  C   UNL     1     -11.494  10.467  66.195  1.00  0.00     0.948 A  
HETATM   15  C   UNL     1      -6.425   8.949  69.975  1.00  0.00    -0.042 A  
HETATM   16  C   UNL     1      -5.323   9.449  70.649  1.00  0.00    -0.036 A  
HETATM   17  C   UNL     1      -5.142  10.818  70.692  1.00  0.00    -0.079 A  
HETATM   18  C   UNL     1      -6.067  11.675  70.069  1.00  0.00    -0.158 A  
HETATM   19  C   UNL     1      -7.221  11.204  69.392  1.00  0.00    -0.091 A  
HETATM   20  C   UNL     1      -8.247  12.136  68.726  1.00  0.00     0.055 C  
HETATM   21  C   UNL     1      -8.100  13.480  68.953  1.00  0.00     0.121 C  
HETATM   22  C   UNL     1      -8.948  14.607  68.422  1.00  0.00    -0.180 C  
BRANCH  22  23
HETATM   23  C   UNL     1      -8.802  16.077  68.837  1.00  0.00    -0.233 C  
BRANCH  23  24
HETATM   24  N   UNL     1     -10.147  16.681  69.036  1.00  0.00    -0.278 NA 
HETATM   25  C   UNL     1     -10.155  18.133  69.357  1.00  0.00     0.075 C  
HETATM   26  C   UNL     1      -9.907  19.110  68.175  1.00  0.00    -0.369 C  
HETATM   27  N   UNL     1     -10.553  18.789  66.884  1.00  0.00    -0.418 NA 
HETATM   28  C   UNL     1     -10.554  17.335  66.646  1.00  0.00    -0.179 C  
HETATM   29  C   UNL     1     -11.904  19.337  66.793  1.00  0.00     1.960 C  
HETATM   30  C   UNL     1     -11.011  16.496  67.857  1.00  0.00    -0.288 C  
ENDBRANCH  23  24
ENDBRANCH  22  23
ENDBRANCH   4   7
ENDBRANCH   2   4
TORSDOF 4
ENDMDL
MODEL      178
REMARK 921   NORMALIZED FREE ENERGY PREDICTED BY IDOCK:   -0.55 KCAL/MOL
REMARK 922        TOTAL FREE ENERGY PREDICTED BY IDOCK:   -1.32 KCAL/MOL
REMARK 923 INTER-LIGAND FREE ENERGY PREDICTED BY IDOCK:   -2.49 KCAL/MOL
REMARK 924 INTRA-LIGAND FREE ENERGY PREDICTED BY IDOCK:    1.17 KCAL/MOL
REMARK 927      BINDING AFFINITY PREDICTED BY RF-SCORE:    0.00 PKD
ROOT
HETATM    1  C   UNL     1     -10.231   6.366  69.216  1.00  0.00    -0.192 C  
HETATM    2  N   UNL     1      -9.402   7.524  69.600  1.00  0.00    -0.154 N  
HETATM    3  C   UNL     1      -8.093   7.560  68.920  1.00  0.00    -0.127 C  
ENDROOT
BRANCH   2   4
HETATM    4  S   UNL     1     -10.198   9.027  69.751  1.00  0.00    -0.215 S  
HETATM    5  O   UNL     1     -10.579   9.197  71.144  1.00  0.00    -0.255 OA 
HETATM    6  O   UNL     1     -11.169   9.149  68.688  1.00  0.00     0.079 OA 
BRANCH   4   7
HETATM    7  C   UNL     1      -8.877  10.184  69.428  1.00  0.00    -0.185 A  
HETATM    8  C   UNL     1      -9.201  11.500  69.067  1.00  0.00     0.110 A  
HETATM    9  C   UNL     1      -8.253  12.494  68.737  1.00  0.00     0.116 A  
HETATM   10  C   UNL     1      -6.919  12.057  68.824  1.00  0.00    -0.101 A  
HETATM   11  S   UNL     1      -5.493  13.055  68.531  1.00  0.00    -0.072 SA 
HETATM   12  C   UNL     1      -6.589  10.726  69.197  1.00  0.00    -0.065 A  
HETATM   13  C   UNL     1      -6.146  14.577  67.919  1.00  0.00    -0.150 A  
HETATM   14  C   UNL     1      -7.562   9.790  69.512  1.00  0.00    -0.114 A  
HETATM   15  C   UNL     1      -5.142  15.481  67.502  1.00  0.00     0.024 A  
HETATM   16  C   UNL     1      -5.455  16.727  66.983  1.00  0.00    -0.166 A  
HETATM   17  C   UNL     1      -6.786  17.076  66.865  1.00  0.00    -0.252 A  
HETATM   18  C   UNL     1      -7.791  16.182  67.272  1.00  0.00    -0.207 A  
HETATM   19  C   UNL     1      -7.512  14.909  67.831  1.00  0.00    -0.153 A  
HETATM   20  C   UNL     1      -8.607  13.933  68.297  1.00  0.00    -0.177 C  
HETATM   21  C   UNL     1      -9.892  14.408  68.310  1.00  0.00    -0.229 C  
HETATM   22  C   UNL     1     -11.147  13.673  68.708  1.00  0.00    -0.302 C  
BRANCH  22  23
HETATM   23  C   UNL     1     -12.533  14.320  68.830  1.00  0.00     0.110 C  
BRANCH  23  24
HETATM   24  N   UNL     1     -13.188  13.874  70.090  1.00  0.00     0.311 NA 
HETATM   25  C   UNL     1     -12.273  13.336  71.132  1.00  0.00    -0.113 C  
HETATM   26  C   UNL     1     -11.452  14.376  71.943  1.00  0.00     0.641 C  
HETATM   27  N   UNL     1     -12.147  15.616  72.353  1.00  0.00    -0.410 NA 
HETATM   28  C   UNL     1     -13.071  16.071  71.299  1.00  0.00     0.228 C  
HETATM   29  C   UNL     1     -12.841  15.463  73.629  1.00  0.00    -0.548 C  
HETATM   30  C   UNL     1     -13.965  14.957  70.717  1.00  0.00     0.076 C  
ENDBRANCH  23  24
ENDBRANCH  22  23
ENDBRANCH   4   7
ENDBRANCH   2   4
TORSDOF 4
ENDMDL
MODEL      179
REMARK 921   NORMALIZED FREE ENERGY PREDICTED BY IDOCK:   -0.09 KCAL/MOL
REMARK 922        TOTAL FREE ENERGY PREDICTED BY IDOCK:   -0.76 KCAL/MOL
REMARK 923 INTER-LIGAND FREE ENERGY PREDICTED BY IDOCK:   -3.35 KCAL/MOL
REMARK 924 INTRA-LIGAND FREE ENERGY PREDICTED BY IDOCK:    2.60 KCAL/MOL
REMARK 927      BINDING AFFINITY PREDICTED BY RF-SCORE:    0.00 PKD
ROOT
HETATM    1  C   UNL     1      -9.561  18.667  68.401  1.00  0.00    -0.359 C  
HETATM    2  N   UNL     1      -8.490  18.141  67.534  1.00  0.00    -0.246 N  
HETATM    3  C   UNL     1      -7.136  18.355  68.078  1.00  0.00    -0.231 C  
ENDROOT
BRANCH   2   4
HETATM    4  S   UNL     1      -8.763  16.621  66.806  1.00  0.00    -0.249 S  
HETATM    5  O   UNL     1      -8.181  16.649  65.473  1.00  0.00     0.009 OA 
HETATM    6  O   UNL     1     -10.142  16.245  67.014  1.00  0.00    -0.257 OA 
BRANCH   4   7
HETATM    7  C   UNL     1      -7.741  15.543  67.797  1.00  0.00    -0.140 A  
HETATM    8  C   UNL     1      -8.099  14.193  67.920  1.00  0.00    -0.154 A  
HETATM    9  C   UNL     1      -7.405  13.252  68.714  1.00  0.00    -0.070 A  
HETATM   10  C   UNL     1      -6.280  13.783  69.370  1.00  0.00    -0.107 A  
HETATM   11  S   UNL     1      -5.167  12.872  70.394  1.00  0.00    -0.131 SA 
HETATM   12  C   UNL     1      -5.912  15.148  69.239  1.00  0.00    -0.106 A  
HETATM   13  C   UNL     1      -5.921  11.282  70.548  1.00  0.00    -0.112 A  
HETATM   14  C   UNL     1      -6.629  16.029  68.444  1.00  0.00    -0.120 A  
HETATM   15  C   UNL     1      -5.234  10.431  71.445  1.00  0.00    -0.077 A  
HETATM   16  C   UNL     1      -5.676   9.145  71.707  1.00  0.00    -0.073 A  
HETATM   17  C   UNL     1      -6.823   8.701  71.079  1.00  0.00    -0.066 A  
HETATM   18  C   UNL     1      -7.515   9.541  70.190  1.00  0.00    -0.137 A  
HETATM   19  C   UNL     1      -7.082  10.855  69.875  1.00  0.00    -0.052 A  
HETATM   20  C   UNL     1      -7.822  11.774  68.888  1.00  0.00    -0.013 C  
HETATM   21  C   UNL     1      -8.849  11.213  68.174  1.00  0.00    -0.148 C  
HETATM   22  C   UNL     1      -9.741  11.877  67.157  1.00  0.00    -0.194 C  
BRANCH  22  23
HETATM   23  C   UNL     1     -10.778  11.144  66.297  1.00  0.00    -0.240 C  
BRANCH  23  24
HETATM   24  N   UNL     1     -10.128  10.608  65.069  1.00  0.00    -0.306 NA 
HETATM   25  C   UNL     1      -8.764  11.129  64.789  1.00  0.00     0.118 C  
HETATM   26  C   UNL     1      -7.605  10.543  65.641  1.00  0.00    -0.134 C  
HETATM   27  N   UNL     1      -7.636   9.090  65.919  1.00  0.00    -0.093 NA 
HETATM   28  C   UNL     1      -9.017   8.629  66.142  1.00  0.00    -0.180 C  
HETATM   29  C   UNL     1      -6.987   8.314  64.864  1.00  0.00    -0.074 C  
HETATM   30  C   UNL     1     -10.032   9.139  65.098  1.00  0.00     0.592 C  
ENDBRANCH  23  24
ENDBRANCH  22  23
ENDBRANCH   4   7
ENDBRANCH   2   4
TORSDOF 4
ENDMDL
MODEL      180
REMARK 921   NORMALIZED FREE ENERGY PREDICTED BY IDOCK:    0.01 KCAL/MOL
REMARK 922        TOTAL FREE ENERGY PREDICTED BY IDOCK:   -0.63 KCAL/MOL
REMARK 923 INTER-LIGAND FREE ENERGY PREDICTED BY IDOCK:   -2.27 KCAL/MOL
REMARK 924 INTRA-LIGAND FREE ENERGY PREDICTED BY IDOCK:    1.63 KCAL/MOL
REMARK 927      BINDING AFFINITY PREDICTED BY RF-SCORE:    0.00 PKD
ROOT
HETATM    1  C   UNL     1      -6.405  16.916  66.249  1.00  0.00     0.142 C  
HETATM    2  N   UNL     1      -7.629  17.696  65.991  1.00  0.00    -0.262 N  
HETATM    3  C   UNL     1      -8.792  16.861  65.634  1.00  0.00     0.424 C  
ENDROOT
BRANCH   2   4
HETATM    4  S   UNL     1      -7.950  19.000  67.045  1.00  0.00    -0.262 S  
HETATM    5  O   UNL     1      -8.731  19.987  66.315  1.00  0.00    -0.341 OA 
HETATM    6  O   UNL     1      -6.728  19.364  67.723  1.00  0.00    -0.219 OA 
BRANCH   4   7
HETATM    7  C   UNL     1      -9.044  18.253  68.242  1.00  0.00    -0.305 A  
HETATM    8  C   UNL     1      -9.181  16.857  68.257  1.00  0.00    -0.241 A  
HETATM    9  C   UNL     1     -10.050  16.149  69.117  1.00  0.00    -0.252 A  
HETATM   10  C   UNL     1     -10.771  16.974  69.999  1.00  0.00     0.199 A  
HETATM   11  S   UNL     1     -11.900  16.412  71.235  1.00  0.00     0.091 SA 
HETATM   12  C   UNL     1     -10.627  18.387  69.991  1.00  0.00     1.468 A  
HETATM   13  C   UNL     1     -12.045  14.678  70.934  1.00  0.00    -0.328 A  
HETATM   14  C   UNL     1      -9.757  19.031  69.124  1.00  0.00    -0.310 A  
HETATM   15  C   UNL     1     -13.014  14.055  71.755  1.00  0.00    -0.435 A  
HETATM   16  C   UNL     1     -13.282  12.699  71.662  1.00  0.00    -0.394 A  
HETATM   17  C   UNL     1     -12.585  11.952  70.732  1.00  0.00    -0.325 A  
HETATM   18  C   UNL     1     -11.624  12.563  69.909  1.00  0.00    -0.242 A  
HETATM   19  C   UNL     1     -11.302  13.942  69.990  1.00  0.00    -0.127 A  
HETATM   20  C   UNL     1     -10.238  14.615  69.107  1.00  0.00    -0.199 C  
HETATM   21  C   UNL     1      -9.467  13.788  68.331  1.00  0.00    -0.198 C  
HETATM   22  C   UNL     1      -8.369  14.174  67.375  1.00  0.00    -0.210 C  
BRANCH  22  23
HETATM   23  C   UNL     1      -7.457  13.177  66.647  1.00  0.00     0.916 C  
BRANCH  23  24
HETATM   24  N   UNL     1      -6.095  13.207  67.248  1.00  0.00    -0.310 NA 
HETATM   25  C   UNL     1      -5.785  14.406  68.070  1.00  0.00    -0.134 C  
HETATM   26  C   UNL     1      -6.400  14.453  69.495  1.00  0.00    -0.128 C  
HETATM   27  N   UNL     1      -6.408  13.194  70.271  1.00  0.00     0.007 NA 
HETATM   28  C   UNL     1      -6.674  12.040  69.395  1.00  0.00    -0.070 C  
HETATM   29  C   UNL     1      -5.172  13.004  71.026  1.00  0.00    -0.169 C  
HETATM   30  C   UNL     1      -5.845  12.028  68.094  1.00  0.00    -0.053 C  
ENDBRANCH  23  24
ENDBRANCH  22  23
ENDBRANCH   4   7
ENDBRANCH   2   4
TORSDOF 4
ENDMDL
MODEL      181
REMARK 921   NORMALIZED FREE ENERGY PREDICTED BY IDOCK:    0.06 KCAL/MOL
REMARK 922        TOTAL FREE ENERGY PREDICTED BY IDOCK:   -0.58 KCAL/MOL
REMARK 923 INTER-LIGAND FREE ENERGY PREDICTED BY IDOCK:   -1.92 KCAL/MOL
REMARK 924 INTRA-LIGAND FREE ENERGY PREDICTED BY IDOCK:    1.34 KCAL/MOL
REMARK 927      BINDING AFFINITY PREDICTED BY RF-SCORE:    0.00 PKD
ROOT
HETATM    1  C   UNL     1      -9.762   9.094  64.638  1.00  0.00     0.691 C  
HETATM    2  N   UNL     1      -9.597  10.542  64.412  1.00  0.00    -0.272 N  
HETATM    3  C   UNL     1      -9.358  10.892  62.999  1.00  0.00    -0.337 C  
ENDROOT
BRANCH   2   4
HETATM    4  S   UNL     1     -10.651  11.580  65.264  1.00  0.00    -0.278 S  
HETATM    5  O   UNL     1     -11.715  10.771  65.837  1.00  0.00     0.470 OA 
HETATM    6  O   UNL     1     -10.945  12.727  64.437  1.00  0.00    -0.319 OA 
BRANCH   4   7
HETATM    7  C   UNL     1      -9.624  12.125  66.620  1.00  0.00    -0.220 A  
HETATM    8  C   UNL     1      -9.304  13.487  66.723  1.00  0.00    -0.262 A  
HETATM    9  C   UNL     1      -8.462  14.036  67.716  1.00  0.00    -0.184 A  
HETATM   10  C   UNL     1      -7.974  13.088  68.634  1.00  0.00    -0.027 A  
HETATM   11  S   UNL     1      -6.943  13.443  70.022  1.00  0.00     0.724 SA 
HETATM   12  C   UNL     1      -8.305  11.710  68.534  1.00  0.00    -0.140 A  
HETATM   13  C   UNL     1      -6.530  15.149  69.831  1.00  0.00    -0.171 A  
HETATM   14  C   UNL     1      -9.138  11.225  67.538  1.00  0.00    -0.151 A  
HETATM   15  C   UNL     1      -5.596  15.602  70.792  1.00  0.00    -0.032 A  
HETATM   16  C   UNL     1      -5.140  16.910  70.802  1.00  0.00    -0.232 A  
HETATM   17  C   UNL     1      -5.609  17.779  69.837  1.00  0.00    -0.241 A  
HETATM   18  C   UNL     1      -6.533  17.337  68.875  1.00  0.00    -0.202 A  
HETATM   19  C   UNL     1      -7.044  16.014  68.845  1.00  0.00    -0.156 A  
HETATM   20  C   UNL     1      -8.071  15.529  67.808  1.00  0.00    -0.153 C  
HETATM   21  C   UNL     1      -8.620  16.482  66.990  1.00  0.00    -0.219 C  
HETATM   22  C   UNL     1      -9.633  16.287  65.892  1.00  0.00    -0.336 C  
BRANCH  22  23
HETATM   23  C   UNL     1     -10.305  17.426  65.114  1.00  0.00     0.454 C  
BRANCH  23  24
HETATM   24  N   UNL     1     -11.108  18.267  66.044  1.00  0.00     0.305 NA 
HETATM   25  C   UNL     1     -10.755  18.146  67.483  1.00  0.00    -0.345 C  
HETATM   26  C   UNL     1      -9.469  18.882  67.950  1.00  0.00    -0.305 C  
HETATM   27  N   UNL     1      -9.221  20.230  67.393  1.00  0.00    -0.368 NA 
HETATM   28  C   UNL     1      -9.634  20.299  65.981  1.00  0.00    -0.209 C  
HETATM   29  C   UNL     1      -9.867  21.278  68.180  1.00  0.00     0.726 C  
HETATM   30  C   UNL     1     -11.026  19.696  65.698  1.00  0.00    -0.129 C  
ENDBRANCH  23  24
ENDBRANCH  22  23
ENDBRANCH   4   7
ENDBRANCH   2   4
TORSDOF 4
ENDMDL
MODEL      182
REMARK 921   NORMALIZED FREE ENERGY PREDICTED BY IDOCK:    0.18 KCAL/MOL
REMARK 922        TOTAL FREE ENERGY PREDICTED BY IDOCK:   -0.43 KCAL/MOL
REMARK 923 INTER-LIGAND FREE ENERGY PREDICTED BY IDOCK:   -0.04 KCAL/MOL
REMARK 924 INTRA-LIGAND FREE ENERGY PREDICTED BY IDOCK:   -0.39 KCAL/MOL
REMARK 927      BINDING AFFINITY PREDICTED BY RF-SCORE:    0.00 PKD
ROOT
HETATM    1  C   UNL     1     -13.519  15.060  73.036  1.00  0.00    -0.418 C  
HETATM    2  N   UNL     1     -12.810  15.650  71.885  1.00  0.00    -0.425 N  
HETATM    3  C   UNL     1     -11.879  16.731  72.260  1.00  0.00     0.093 C  
ENDROOT
BRANCH   2   4
HETATM    4  S   UNL     1     -12.247  14.570  70.689  1.00  0.00    -0.355 S  
HETATM    5  O   UNL     1     -13.401  13.919  70.090  1.00  0.00     0.279 OA 
HETATM    6  O   UNL     1     -11.151  13.802  71.232  1.00  0.00     1.304 OA 
BRANCH   4   7
HETATM    7  C   UNL     1     -11.584  15.685  69.461  1.00  0.00    -0.357 A  
HETATM    8  C   UNL     1     -10.256  15.520  69.042  1.00  0.00    -0.229 A  
HETATM    9  C   UNL     1      -9.599  16.364  68.118  1.00  0.00    -0.227 A  
HETATM   10  C   UNL     1     -10.411  17.398  67.618  1.00  0.00    -0.368 A  
HETATM   11  S   UNL     1      -9.922  18.592  66.413  1.00  0.00    -0.392 SA 
HETATM   12  C   UNL     1     -11.759  17.560  68.035  1.00  0.00     1.243 A  
HETATM   13  C   UNL     1      -8.194  18.304  66.193  1.00  0.00    -0.139 A  
HETATM   14  C   UNL     1     -12.355  16.701  68.946  1.00  0.00     1.542 A  
HETATM   15  C   UNL     1      -7.580  19.255  65.344  1.00  0.00     0.275 A  
HETATM   16  C   UNL     1      -6.227  19.203  65.055  1.00  0.00    -0.317 A  
HETATM   17  C   UNL     1      -5.468  18.200  65.626  1.00  0.00    -0.228 A  
HETATM   18  C   UNL     1      -6.069  17.254  66.474  1.00  0.00    -0.251 A  
HETATM   19  C   UNL     1      -7.455  17.257  66.775  1.00  0.00    -0.258 A  
HETATM   20  C   UNL     1      -8.122  16.213  67.687  1.00  0.00    -0.163 C  
HETATM   21  C   UNL     1      -7.349  15.152  68.080  1.00  0.00    -0.117 C  
HETATM   22  C   UNL     1      -7.741  14.001  68.971  1.00  0.00    -0.006 C  
BRANCH  22  23
HETATM   23  C   UNL     1      -6.859  12.777  69.250  1.00  0.00    -0.012 C  
BRANCH  23  24
HETATM   24  N   UNL     1      -6.195  12.336  67.993  1.00  0.00    -0.065 NA 
HETATM   25  C   UNL     1      -5.229  11.215  68.139  1.00  0.00    -0.039 C  
HETATM   26  C   UNL     1      -5.830   9.792  68.305  1.00  0.00    -0.043 C  
HETATM   27  N   UNL     1      -7.004   9.452  67.471  1.00  0.00    -0.077 NA 
HETATM   28  C   UNL     1      -7.898  10.615  67.327  1.00  0.00    -0.112 C  
HETATM   29  C   UNL     1      -6.618   8.922  66.166  1.00  0.00    -0.065 C  
HETATM   30  C   UNL     1      -7.174  11.929  66.970  1.00  0.00    -0.118 C  
ENDBRANCH  23  24
ENDBRANCH  22  23
ENDBRANCH   4   7
ENDBRANCH   2   4
TORSDOF 4
ENDMDL
MODEL      183
REMARK 921   NORMALIZED FREE ENERGY PREDICTED BY IDOCK:    0.20 KCAL/MOL
REMARK 922        TOTAL FREE ENERGY PREDICTED BY IDOCK:   -0.40 KCAL/MOL
REMARK 923 INTER-LIGAND FREE ENERGY PREDICTED BY IDOCK:   -2.58 KCAL/MOL
REMARK 924 INTRA-LIGAND FREE ENERGY PREDICTED BY IDOCK:    2.18 KCAL/MOL
REMARK 927      BINDING AFFINITY PREDICTED BY RF-SCORE:    0.00 PKD
ROOT
HETATM    1  C   UNL     1      -9.389  13.175  67.233  1.00  0.00    -0.225 C  
HETATM    2  N   UNL     1      -8.088  12.765  66.675  1.00  0.00     0.130 N  
HETATM    3  C   UNL     1      -6.933  13.282  67.435  1.00  0.00    -0.092 C  
ENDROOT
BRANCH   2   4
HETATM    4  S   UNL     1      -7.954  11.152  66.133  1.00  0.00    -0.031 S  
HETATM    5  O   UNL     1      -6.613  10.965  65.601  1.00  0.00    -0.074 OA 
HETATM    6  O   UNL     1      -9.123  10.824  65.351  1.00  0.00    -0.183 OA 
BRANCH   4   7
HETATM    7  C   UNL     1      -8.038  10.236  67.664  1.00  0.00    -0.106 A  
HETATM    8  C   UNL     1      -7.645   8.889  67.671  1.00  0.00    -0.093 A  
HETATM    9  C   UNL     1      -7.712   8.044  68.801  1.00  0.00    -0.108 A  
HETATM   10  C   UNL     1      -8.195   8.681  69.958  1.00  0.00    -0.122 A  
HETATM   11  S   UNL     1      -8.356   7.931  71.549  1.00  0.00    -0.121 SA 
HETATM   12  C   UNL     1      -8.586  10.047  69.954  1.00  0.00    -0.171 A  
HETATM   13  C   UNL     1      -7.992   6.227  71.264  1.00  0.00    -0.116 A  
HETATM   14  C   UNL     1      -8.498  10.832  68.815  1.00  0.00    -0.148 A  
HETATM   15  C   UNL     1      -8.189   5.422  72.410  1.00  0.00    -0.114 A  
HETATM   16  C   UNL     1      -7.966   4.055  72.385  1.00  0.00    -0.082 A  
HETATM   17  C   UNL     1      -7.551   3.477  71.201  1.00  0.00    -0.044 A  
HETATM   18  C   UNL     1      -7.357   4.268  70.056  1.00  0.00    -0.046 A  
HETATM   19  C   UNL     1      -7.551   5.673  70.047  1.00  0.00    -0.082 A  
HETATM   20  C   UNL     1      -7.322   6.548  68.803  1.00  0.00    -0.087 C  
HETATM   21  C   UNL     1      -6.749   5.939  67.716  1.00  0.00    -0.058 C  
HETATM   22  C   UNL     1      -6.423   6.550  66.378  1.00  0.00    -0.043 C  
BRANCH  22  23
HETATM   23  C   UNL     1      -5.652   5.837  65.259  1.00  0.00    -0.016 C  
BRANCH  23  24
HETATM   24  N   UNL     1      -5.969   4.382  65.276  1.00  0.00    -0.022 NA 
HETATM   25  C   UNL     1      -7.061   3.976  66.200  1.00  0.00    -0.067 C  
HETATM   26  C   UNL     1      -8.514   4.274  65.736  1.00  0.00    -0.113 C  
HETATM   27  N   UNL     1      -8.831   4.040  64.310  1.00  0.00    -0.124 NA 
HETATM   28  C   UNL     1      -7.694   4.417  63.452  1.00  0.00    -0.073 C  
HETATM   29  C   UNL     1      -9.244   2.661  64.057  1.00  0.00    -0.113 C  
HETATM   30  C   UNL     1      -6.330   3.885  63.937  1.00  0.00    -0.030 C  
ENDBRANCH  23  24
ENDBRANCH  22  23
ENDBRANCH   4   7
ENDBRANCH   2   4
TORSDOF 4
ENDMDL
MODEL      184
REMARK 921   NORMALIZED FREE ENERGY PREDICTED BY IDOCK:    0.22 KCAL/MOL
REMARK 922        TOTAL FREE ENERGY PREDICTED BY IDOCK:   -0.37 KCAL/MOL
REMARK 923 INTER-LIGAND FREE ENERGY PREDICTED BY IDOCK:    0.02 KCAL/MOL
REMARK 924 INTRA-LIGAND FREE ENERGY PREDICTED BY IDOCK:   -0.39 KCAL/MOL
REMARK 927      BINDING AFFINITY PREDICTED BY RF-SCORE:    0.00 PKD
ROOT
HETATM    1  C   UNL     1      -8.450  16.147  66.303  1.00  0.00    -0.322 C  
HETATM    2  N   UNL     1      -8.813  16.934  67.496  1.00  0.00    -0.208 N  
HETATM    3  C   UNL     1      -9.452  18.225  67.175  1.00  0.00    -0.268 C  
ENDROOT
BRANCH   2   4
HETATM    4  S   UNL     1      -9.490  16.079  68.809  1.00  0.00    -0.239 S  
HETATM    5  O   UNL     1     -10.713  15.442  68.348  1.00  0.00    -0.242 OA 
HETATM    6  O   UNL     1      -9.483  16.931  69.975  1.00  0.00     0.682 OA 
BRANCH   4   7
HETATM    7  C   UNL     1      -8.293  14.780  69.067  1.00  0.00    -0.144 A  
HETATM    8  C   UNL     1      -8.683  13.448  68.866  1.00  0.00     0.250 A  
HETATM    9  C   UNL     1      -7.848  12.329  69.085  1.00  0.00     0.318 A  
HETATM   10  C   UNL     1      -6.550  12.664  69.509  1.00  0.00    -0.032 A  
HETATM   11  S   UNL     1      -5.245  11.516  69.820  1.00  0.00    -0.065 SA 
HETATM   12  C   UNL     1      -6.151  14.014  69.704  1.00  0.00    -0.122 A  
HETATM   13  C   UNL     1      -6.019   9.934  69.690  1.00  0.00    -0.041 A  
HETATM   14  C   UNL     1      -7.012  15.075  69.473  1.00  0.00    -0.187 A  
HETATM   15  C   UNL     1      -5.156   8.868  70.033  1.00  0.00    -0.029 A  
HETATM   16  C   UNL     1      -5.581   7.550  70.001  1.00  0.00    -0.023 A  
HETATM   17  C   UNL     1      -6.887   7.287  69.637  1.00  0.00    -0.049 A  
HETATM   18  C   UNL     1      -7.754   8.341  69.300  1.00  0.00    -0.103 A  
HETATM   19  C   UNL     1      -7.350   9.701  69.294  1.00  0.00    -0.079 A  
HETATM   20  C   UNL     1      -8.288  10.858  68.908  1.00  0.00    -0.139 C  
HETATM   21  C   UNL     1      -9.511  10.515  68.393  1.00  0.00    -0.158 C  
HETATM   22  C   UNL     1     -10.617  11.435  67.945  1.00  0.00    -0.224 C  
BRANCH  22  23
HETATM   23  C   UNL     1     -11.904  10.975  67.248  1.00  0.00     0.500 C  
BRANCH  23  24
HETATM   24  N   UNL     1     -12.120  11.771  66.008  1.00  0.00    -0.276 NA 
HETATM   25  C   UNL     1     -11.287  12.996  65.882  1.00  0.00    -0.313 C  
HETATM   26  C   UNL     1      -9.801  12.790  65.476  1.00  0.00    -0.156 C  
HETATM   27  N   UNL     1      -9.517  11.775  64.438  1.00  0.00    -0.045 NA 
HETATM   28  C   UNL     1     -10.405  10.609  64.589  1.00  0.00    -0.283 C  
HETATM   29  C   UNL     1      -9.603  12.328  63.089  1.00  0.00     0.539 C  
HETATM   30  C   UNL     1     -11.891  10.967  64.796  1.00  0.00     1.472 C  
ENDBRANCH  23  24
ENDBRANCH  22  23
ENDBRANCH   4   7
ENDBRANCH   2   4
TORSDOF 4
ENDMDL
MODEL      185
REMARK 921   NORMALIZED FREE ENERGY PREDICTED BY IDOCK:    0.36 KCAL/MOL
REMARK 922        TOTAL FREE ENERGY PREDICTED BY IDOCK:   -0.20 KCAL/MOL
REMARK 923 INTER-LIGAND FREE ENERGY PREDICTED BY IDOCK:   -2.33 KCAL/MOL
REMARK 924 INTRA-LIGAND FREE ENERGY PREDICTED BY IDOCK:    2.12 KCAL/MOL
REMARK 927      BINDING AFFINITY PREDICTED BY RF-SCORE:    0.00 PKD
ROOT
HETATM    1  C   UNL     1      -7.689  11.946  66.058  1.00  0.00     0.625 C  
HETATM    2  N   UNL     1      -7.708  11.200  67.329  1.00  0.00    -0.123 N  
HETATM    3  C   UNL     1      -6.647  11.613  68.268  1.00  0.00    -0.059 C  
ENDROOT
BRANCH   2   4
HETATM    4  S   UNL     1      -9.238  10.903  68.027  1.00  0.00    -0.161 S  
HETATM    5  O   UNL     1     -10.225  11.678  67.294  1.00  0.00    -0.197 OA 
HETATM    6  O   UNL     1      -9.123  11.001  69.463  1.00  0.00     0.098 OA 
BRANCH   4   7
HETATM    7  C   UNL     1      -9.511   9.187  67.611  1.00  0.00    -0.140 A  
HETATM    8  C   UNL     1      -8.935   8.194  68.417  1.00  0.00    -0.136 A  
HETATM    9  C   UNL     1      -9.033   6.807  68.167  1.00  0.00    -0.118 A  
HETATM   10  C   UNL     1      -9.795   6.488  67.028  1.00  0.00    -0.157 A  
HETATM   11  S   UNL     1     -10.158   4.855  66.463  1.00  0.00    -0.271 SA 
HETATM   12  C   UNL     1     -10.385   7.493  66.216  1.00  0.00     0.310 A  
HETATM   13  C   UNL     1      -9.186   3.810  67.503  1.00  0.00    -0.182 A  
HETATM   14  C   UNL     1     -10.258   8.842  66.509  1.00  0.00    -0.319 A  
HETATM   15  C   UNL     1      -9.243   2.449  67.124  1.00  0.00    -0.127 A  
HETATM   16  C   UNL     1      -8.541   1.473  67.812  1.00  0.00    -0.101 A  
HETATM   17  C   UNL     1      -7.760   1.856  68.885  1.00  0.00    -0.047 A  
HETATM   18  C   UNL     1      -7.693   3.207  69.265  1.00  0.00    -0.048 A  
HETATM   19  C   UNL     1      -8.416   4.233  68.604  1.00  0.00    -0.096 A  
HETATM   20  C   UNL     1      -8.363   5.711  69.026  1.00  0.00    -0.100 C  
HETATM   21  C   UNL     1      -7.709   5.995  70.197  1.00  0.00    -0.096 C  
HETATM   22  C   UNL     1      -7.500   7.344  70.836  1.00  0.00    -0.074 C  
BRANCH  22  23
HETATM   23  C   UNL     1      -6.878   7.564  72.222  1.00  0.00    -0.060 C  
BRANCH  23  24
HETATM   24  N   UNL     1      -7.821   7.103  73.277  1.00  0.00    -0.095 NA 
HETATM   25  C   UNL     1      -9.198   6.788  72.812  1.00  0.00    -0.135 C  
HETATM   26  C   UNL     1      -9.392   5.438  72.069  1.00  0.00    -0.144 C  
HETATM   27  N   UNL     1      -8.666   4.263  72.599  1.00  0.00    -0.104 NA 
HETATM   28  C   UNL     1      -7.330   4.647  73.085  1.00  0.00    -0.082 C  
HETATM   29  C   UNL     1      -9.424   3.571  73.639  1.00  0.00    -0.099 C  
HETATM   30  C   UNL     1      -7.318   5.907  73.976  1.00  0.00    -0.088 C  
ENDBRANCH  23  24
ENDBRANCH  22  23
ENDBRANCH   4   7
ENDBRANCH   2   4
TORSDOF 4
ENDMDL
MODEL      186
REMARK 921   NORMALIZED FREE ENERGY PREDICTED BY IDOCK:    0.48 KCAL/MOL
REMARK 922        TOTAL FREE ENERGY PREDICTED BY IDOCK:   -0.05 KCAL/MOL
REMARK 923 INTER-LIGAND FREE ENERGY PREDICTED BY IDOCK:   -0.01 KCAL/MOL
REMARK 924 INTRA-LIGAND FREE ENERGY PREDICTED BY IDOCK:   -0.04 KCAL/MOL
REMARK 927      BINDING AFFINITY PREDICTED BY RF-SCORE:    0.00 PKD
ROOT
HETATM    1  C   UNL     1      -6.637   4.887  69.521  1.00  0.00    -0.040 C  
HETATM    2  N   UNL     1      -6.462   3.988  68.365  1.00  0.00    -0.037 N  
HETATM    3  C   UNL     1      -5.279   3.113  68.474  1.00  0.00    -0.012 C  
ENDROOT
BRANCH   2   4
HETATM    4  S   UNL     1      -7.871   3.251  67.741  1.00  0.00    -0.076 S  
HETATM    5  O   UNL     1      -7.803   1.829  68.035  1.00  0.00    -0.057 OA 
HETATM    6  O   UNL     1      -8.090   3.729  66.395  1.00  0.00    -0.096 OA 
BRANCH   4   7
HETATM    7  C   UNL     1      -9.146   3.938  68.785  1.00  0.00    -0.138 A  
HETATM    8  C   UNL     1      -9.478   5.294  68.648  1.00  0.00    -0.169 A  
HETATM    9  C   UNL     1     -10.429   5.968  69.446  1.00  0.00    -0.331 A  
HETATM   10  C   UNL     1     -11.054   5.145  70.401  1.00  0.00     0.569 A  
HETATM   11  S   UNL     1     -12.322   5.654  71.519  1.00  0.00     1.476 SA 
HETATM   12  C   UNL     1     -10.724   3.769  70.535  1.00  0.00     1.836 A  
HETATM   13  C   UNL     1     -12.425   7.402  71.292  1.00  0.00    -0.346 A  
HETATM   14  C   UNL     1      -9.782   3.158  69.722  1.00  0.00    -0.008 A  
HETATM   15  C   UNL     1     -13.312   8.025  72.200  1.00  0.00    -0.206 A  
HETATM   16  C   UNL     1     -13.523   9.393  72.187  1.00  0.00    -0.543 A  
HETATM   17  C   UNL     1     -12.833  10.158  71.267  1.00  0.00    -0.508 A  
HETATM   18  C   UNL     1     -11.945   9.548  70.363  1.00  0.00    -0.123 A  
HETATM   19  C   UNL     1     -11.721   8.148  70.327  1.00  0.00     0.097 A  
HETATM   20  C   UNL     1     -10.766   7.472  69.329  1.00  0.00    -0.185 C  
HETATM   21  C   UNL     1     -10.248   8.263  68.337  1.00  0.00    -0.242 C  
HETATM   22  C   UNL     1      -9.291   7.868  67.242  1.00  0.00    -0.180 C  
BRANCH  22  23
HETATM   23  C   UNL     1      -8.867   8.781  66.084  1.00  0.00    -0.168 C  
BRANCH  23  24
HETATM   24  N   UNL     1      -7.455   8.496  65.707  1.00  0.00    -0.080 NA 
HETATM   25  C   UNL     1      -7.274   7.551  64.574  1.00  0.00    -0.077 C  
HETATM   26  C   UNL     1      -7.527   8.113  63.148  1.00  0.00    -0.117 C  
HETATM   27  N   UNL     1      -7.032   9.478  62.862  1.00  0.00    -0.097 NA 
HETATM   28  C   UNL     1      -7.197  10.352  64.036  1.00  0.00     0.021 C  
HETATM   29  C   UNL     1      -5.646   9.476  62.400  1.00  0.00    -0.085 C  
HETATM   30  C   UNL     1      -6.722   9.726  65.363  1.00  0.00    -0.093 C  
ENDBRANCH  23  24
ENDBRANCH  22  23
ENDBRANCH   4   7
ENDBRANCH   2   4
TORSDOF 4
ENDMDL
MODEL      187
REMARK 921   NORMALIZED FREE ENERGY PREDICTED BY IDOCK:    0.69 KCAL/MOL
REMARK 922        TOTAL FREE ENERGY PREDICTED BY IDOCK:    0.21 KCAL/MOL
REMARK 923 INTER-LIGAND FREE ENERGY PREDICTED BY IDOCK:   -1.22 KCAL/MOL
REMARK 924 INTRA-LIGAND FREE ENERGY PREDICTED BY IDOCK:    1.42 KCAL/MOL
REMARK 927      BINDING AFFINITY PREDICTED BY RF-SCORE:    0.00 PKD
ROOT
HETATM    1  C   UNL     1     -10.826  19.628  67.738  1.00  0.00    -0.217 C  
HETATM    2  N   UNL     1     -10.661  18.215  67.350  1.00  0.00    -0.384 N  
HETATM    3  C   UNL     1     -11.746  17.342  67.838  1.00  0.00     1.023 C  
ENDROOT
BRANCH   2   4
HETATM    4  S   UNL     1     -10.125  17.908  65.758  1.00  0.00     0.080 S  
HETATM    5  O   UNL     1      -8.681  18.073  65.730  1.00  0.00    -0.482 OA 
HETATM    6  O   UNL     1     -10.979  18.618  64.834  1.00  0.00    -0.494 OA 
BRANCH   4   7
HETATM    7  C   UNL     1     -10.453  16.161  65.583  1.00  0.00    -0.383 A  
HETATM    8  C   UNL     1      -9.494  15.243  66.035  1.00  0.00    -0.372 A  
HETATM    9  C   UNL     1      -9.609  13.841  65.908  1.00  0.00    -0.152 A  
HETATM   10  C   UNL     1     -10.806  13.422  65.299  1.00  0.00    -0.309 A  
HETATM   11  S   UNL     1     -11.290  11.745  65.036  1.00  0.00    -0.171 SA 
HETATM   12  C   UNL     1     -11.782  14.352  64.849  1.00  0.00    -0.408 A  
HETATM   13  C   UNL     1      -9.869  10.806  65.499  1.00  0.00    -0.255 A  
HETATM   14  C   UNL     1     -11.617  15.720  64.999  1.00  0.00    -0.011 A  
HETATM   15  C   UNL     1     -10.013   9.423  65.240  1.00  0.00     0.079 A  
HETATM   16  C   UNL     1      -9.002   8.520  65.526  1.00  0.00    -0.182 A  
HETATM   17  C   UNL     1      -7.825   8.999  66.067  1.00  0.00    -0.102 A  
HETATM   18  C   UNL     1      -7.670  10.372  66.323  1.00  0.00    -0.129 A  
HETATM   19  C   UNL     1      -8.690  11.325  66.068  1.00  0.00    -0.165 A  
HETATM   20  C   UNL     1      -8.535  12.827  66.364  1.00  0.00     0.276 C  
HETATM   21  C   UNL     1      -7.414  13.208  67.055  1.00  0.00     0.170 C  
HETATM   22  C   UNL     1      -7.010  14.599  67.468  1.00  0.00    -0.193 C  
BRANCH  22  23
HETATM   23  C   UNL     1      -5.808  14.927  68.364  1.00  0.00    -0.106 C  
BRANCH  23  24
HETATM   24  N   UNL     1      -6.270  15.637  69.588  1.00  0.00    -0.155 NA 
HETATM   25  C   UNL     1      -7.117  16.836  69.351  1.00  0.00    -0.143 C  
HETATM   26  C   UNL     1      -8.597  16.579  68.958  1.00  0.00    -0.208 C  
HETATM   27  N   UNL     1      -9.305  15.488  69.665  1.00  0.00    -0.273 NA 
HETATM   28  C   UNL     1      -8.402  14.350  69.910  1.00  0.00     0.806 C  
HETATM   29  C   UNL     1      -9.922  15.946  70.907  1.00  0.00     1.314 C  
HETATM   30  C   UNL     1      -7.026  14.746  70.485  1.00  0.00     0.327 C  
ENDBRANCH  23  24
ENDBRANCH  22  23
ENDBRANCH   4   7
ENDBRANCH   2   4
TORSDOF 4
ENDMDL
MODEL      188
REMARK 921   NORMALIZED FREE ENERGY PREDICTED BY IDOCK:    0.98 KCAL/MOL
REMARK 922        TOTAL FREE ENERGY PREDICTED BY IDOCK:    0.56 KCAL/MOL
REMARK 923 INTER-LIGAND FREE ENERGY PREDICTED BY IDOCK:    1.25 KCAL/MOL
REMARK 924 INTRA-LIGAND FREE ENERGY PREDICTED BY IDOCK:   -0.69 KCAL/MOL
REMARK 927      BINDING AFFINITY PREDICTED BY RF-SCORE:    0.00 PKD
ROOT
HETATM    1  C   UNL     1      -9.221   6.659  73.005  1.00  0.00    -0.131 C  
HETATM    2  N   UNL     1      -9.529   5.274  72.604  1.00  0.00    -0.147 N  
HETATM    3  C   UNL     1     -10.182   4.486  73.667  1.00  0.00    -0.172 C  
ENDROOT
BRANCH   2   4
HETATM    4  S   UNL     1     -10.147   5.046  71.029  1.00  0.00    -0.218 S  
HETATM    5  O   UNL     1     -11.294   5.925  70.864  1.00  0.00    -0.270 OA 
HETATM    6  O   UNL     1     -10.245   3.629  70.766  1.00  0.00     0.085 OA 
BRANCH   4   7
HETATM    7  C   UNL     1      -8.836   5.707  70.013  1.00  0.00    -0.130 A  
HETATM    8  C   UNL     1      -9.078   6.868  69.264  1.00  0.00    -0.140 A  
HETATM    9  C   UNL     1      -8.143   7.460  68.385  1.00  0.00    -0.125 A  
HETATM   10  C   UNL     1      -6.907   6.790  68.336  1.00  0.00    -0.074 A  
HETATM   11  S   UNL     1      -5.507   7.292  67.384  1.00  0.00    -0.030 SA 
HETATM   12  C   UNL     1      -6.658   5.619  69.101  1.00  0.00    -0.054 A  
HETATM   13  C   UNL     1      -6.107   8.632  66.403  1.00  0.00    -0.056 A  
HETATM   14  C   UNL     1      -7.613   5.081  69.950  1.00  0.00    -0.060 A  
HETATM   15  C   UNL     1      -5.155   9.100  65.467  1.00  0.00    -0.036 A  
HETATM   16  C   UNL     1      -5.441  10.142  64.600  1.00  0.00    -0.110 A  
HETATM   17  C   UNL     1      -6.694  10.719  64.653  1.00  0.00     0.295 A  
HETATM   18  C   UNL     1      -7.649  10.257  65.575  1.00  0.00    -0.149 A  
HETATM   19  C   UNL     1      -7.388   9.211  66.497  1.00  0.00    -0.089 A  
HETATM   20  C   UNL     1      -8.420   8.713  67.524  1.00  0.00    -0.124 C  
HETATM   21  C   UNL     1      -9.577   9.440  67.638  1.00  0.00    -0.163 C  
HETATM   22  C   UNL     1     -10.749   9.176  68.547  1.00  0.00    -0.160 C  
BRANCH  22  23
HETATM   23  C   UNL     1     -11.949  10.118  68.717  1.00  0.00     0.494 C  
BRANCH  23  24
HETATM   24  N   UNL     1     -11.875  10.795  70.041  1.00  0.00    -0.313 NA 
HETATM   25  C   UNL     1     -10.697  11.679  70.243  1.00  0.00     1.190 C  
HETATM   26  C   UNL     1     -10.741  13.069  69.550  1.00  0.00     0.306 C  
HETATM   27  N   UNL     1     -12.031  13.793  69.566  1.00  0.00    -0.328 NA 
HETATM   28  C   UNL     1     -13.159  12.858  69.408  1.00  0.00     1.761 C  
HETATM   29  C   UNL     1     -12.189  14.608  70.768  1.00  0.00    -0.324 C  
HETATM   30  C   UNL     1     -13.075  11.607  70.307  1.00  0.00     0.521 C  
ENDBRANCH  23  24
ENDBRANCH  22  23
ENDBRANCH   4   7
ENDBRANCH   2   4
TORSDOF 4
ENDMDL
MODEL      189
REMARK 921   NORMALIZED FREE ENERGY PREDICTED BY IDOCK:    1.02 KCAL/MOL
REMARK 922        TOTAL FREE ENERGY PREDICTED BY IDOCK:    0.61 KCAL/MOL
REMARK 923 INTER-LIGAND FREE ENERGY PREDICTED BY IDOCK:   -1.52 KCAL/MOL
REMARK 924 INTRA-LIGAND FREE ENERGY PREDICTED BY IDOCK:    2.13 KCAL/MOL
REMARK 927      BINDING AFFINITY PREDICTED BY RF-SCORE:    0.00 PKD
ROOT
HETATM    1  C   UNL     1      -9.221   6.659  73.005  1.00  0.00    -0.131 C  
HETATM    2  N   UNL     1      -9.529   5.274  72.604  1.00  0.00    -0.147 N  
HETATM    3  C   UNL     1     -10.182   4.486  73.667  1.00  0.00    -0.172 C  
ENDROOT
BRANCH   2   4
HETATM    4  S   UNL     1     -10.147   5.046  71.029  1.00  0.00    -0.218 S  
HETATM    5  O   UNL     1     -11.294   5.925  70.864  1.00  0.00    -0.270 OA 
HETATM    6  O   UNL     1     -10.245   3.629  70.766  1.00  0.00     0.085 OA 
BRANCH   4   7
HETATM    7  C   UNL     1      -8.836   5.707  70.013  1.00  0.00    -0.130 A  
HETATM    8  C   UNL     1      -9.078   6.868  69.264  1.00  0.00    -0.140 A  
HETATM    9  C   UNL     1      -8.143   7.460  68.385  1.00  0.00    -0.125 A  
HETATM   10  C   UNL     1      -6.907   6.790  68.336  1.00  0.00    -0.074 A  
HETATM   11  S   UNL     1      -5.507   7.292  67.384  1.00  0.00    -0.030 SA 
HETATM   12  C   UNL     1      -6.658   5.619  69.101  1.00  0.00    -0.054 A  
HETATM   13  C   UNL     1      -6.107   8.632  66.403  1.00  0.00    -0.056 A  
HETATM   14  C   UNL     1      -7.613   5.081  69.950  1.00  0.00    -0.060 A  
HETATM   15  C   UNL     1      -5.155   9.100  65.467  1.00  0.00    -0.036 A  
HETATM   16  C   UNL     1      -5.441  10.142  64.600  1.00  0.00    -0.110 A  
HETATM   17  C   UNL     1      -6.694  10.719  64.653  1.00  0.00     0.295 A  
HETATM   18  C   UNL     1      -7.649  10.257  65.575  1.00  0.00    -0.149 A  
HETATM   19  C   UNL     1      -7.388   9.211  66.497  1.00  0.00    -0.089 A  
HETATM   20  C   UNL     1      -8.420   8.713  67.524  1.00  0.00    -0.124 C  
HETATM   21  C   UNL     1      -9.577   9.440  67.638  1.00  0.00    -0.163 C  
HETATM   22  C   UNL     1     -10.749   9.176  68.547  1.00  0.00    -0.160 C  
BRANCH  22  23
HETATM   23  C   UNL     1     -11.949  10.118  68.717  1.00  0.00     0.494 C  
BRANCH  23  24
HETATM   24  N   UNL     1     -12.172  10.396  70.162  1.00  0.00    -0.258 NA 
HETATM   25  C   UNL     1     -13.574  10.249  70.633  1.00  0.00     0.306 C  
HETATM   26  C   UNL     1     -14.092   8.800  70.845  1.00  0.00     0.231 C  
HETATM   27  N   UNL     1     -13.159   7.832  71.464  1.00  0.00    -0.335 NA 
HETATM   28  C   UNL     1     -11.781   8.058  70.994  1.00  0.00    -0.277 C  
HETATM   29  C   UNL     1     -13.226   7.859  72.923  1.00  0.00     0.730 C  
HETATM   30  C   UNL     1     -11.338   9.536  71.020  1.00  0.00    -0.352 C  
ENDBRANCH  23  24
ENDBRANCH  22  23
ENDBRANCH   4   7
ENDBRANCH   2   4
TORSDOF 4
ENDMDL
MODEL      190
REMARK 921   NORMALIZED FREE ENERGY PREDICTED BY IDOCK:    1.03 KCAL/MOL
REMARK 922        TOTAL FREE ENERGY PREDICTED BY IDOCK:    0.62 KCAL/MOL
REMARK 923 INTER-LIGAND FREE ENERGY PREDICTED BY IDOCK:   -2.02 KCAL/MOL
REMARK 924 INTRA-LIGAND FREE ENERGY PREDICTED BY IDOCK:    2.64 KCAL/MOL
REMARK 927      BINDING AFFINITY PREDICTED BY RF-SCORE:    0.00 PKD
ROOT
HETATM    1  C   UNL     1      -7.977  15.677  67.054  1.00  0.00    -0.233 C  
HETATM    2  N   UNL     1      -7.219  16.931  67.217  1.00  0.00    -0.153 N  
HETATM    3  C   UNL     1      -6.140  17.098  66.225  1.00  0.00    -0.066 C  
ENDROOT
BRANCH   2   4
HETATM    4  S   UNL     1      -8.121  18.337  67.572  1.00  0.00    -0.242 S  
HETATM    5  O   UNL     1      -8.896  18.685  66.392  1.00  0.00    -0.300 OA 
HETATM    6  O   UNL     1      -7.252  19.299  68.210  1.00  0.00    -0.261 OA 
BRANCH   4   7
HETATM    7  C   UNL     1      -9.276  17.740  68.796  1.00  0.00    -0.215 A  
HETATM    8  C   UNL     1      -9.569  16.369  68.840  1.00  0.00    -0.252 A  
HETATM    9  C   UNL     1     -10.501  15.780  69.724  1.00  0.00    -0.318 A  
HETATM   10  C   UNL     1     -11.113  16.697  70.598  1.00  0.00     0.100 A  
HETATM   11  S   UNL     1     -12.280  16.289  71.858  1.00  0.00    -0.163 SA 
HETATM   12  C   UNL     1     -10.810  18.084  70.560  1.00  0.00     2.098 A  
HETATM   13  C   UNL     1     -12.624  14.578  71.593  1.00  0.00    -0.348 A  
HETATM   14  C   UNL     1      -9.884  18.610  69.671  1.00  0.00     0.364 A  
HETATM   15  C   UNL     1     -13.647  14.083  72.436  1.00  0.00    -0.658 A  
HETATM   16  C   UNL     1     -14.066  12.765  72.373  1.00  0.00    -0.092 A  
HETATM   17  C   UNL     1     -13.471  11.927  71.451  1.00  0.00     0.206 A  
HETATM   18  C   UNL     1     -12.458  12.410  70.605  1.00  0.00    -0.320 A  
HETATM   19  C   UNL     1     -11.982  13.746  70.655  1.00  0.00    -0.340 A  
HETATM   20  C   UNL     1     -10.860  14.277  69.747  1.00  0.00    -0.040 C  
HETATM   21  C   UNL     1     -10.199  13.354  68.979  1.00  0.00     0.050 C  
HETATM   22  C   UNL     1      -9.076  13.595  68.003  1.00  0.00    -0.192 C  
BRANCH  22  23
HETATM   23  C   UNL     1      -8.293  12.489  67.285  1.00  0.00    -0.185 C  
BRANCH  23  24
HETATM   24  N   UNL     1      -7.353  11.836  68.237  1.00  0.00    -0.088 NA 
HETATM   25  C   UNL     1      -7.983  11.212  69.431  1.00  0.00     0.114 C  
HETATM   26  C   UNL     1      -8.689   9.846  69.213  1.00  0.00    -0.169 C  
HETATM   27  N   UNL     1      -8.019   8.872  68.323  1.00  0.00    -0.104 NA 
HETATM   28  C   UNL     1      -7.376   9.555  67.187  1.00  0.00    -0.088 C  
HETATM   29  C   UNL     1      -7.060   8.037  69.044  1.00  0.00    -0.066 C  
HETATM   30  C   UNL     1      -6.545  10.794  67.582  1.00  0.00    -0.061 C  
ENDBRANCH  23  24
ENDBRANCH  22  23
ENDBRANCH   4   7
ENDBRANCH   2   4
TORSDOF 4
ENDMDL
MODEL      191
REMARK 921   NORMALIZED FREE ENERGY PREDICTED BY IDOCK:    1.06 KCAL/MOL
REMARK 922        TOTAL FREE ENERGY PREDICTED BY IDOCK:    0.66 KCAL/MOL
REMARK 923 INTER-LIGAND FREE ENERGY PREDICTED BY IDOCK:   -0.18 KCAL/MOL
REMARK 924 INTRA-LIGAND FREE ENERGY PREDICTED BY IDOCK:    0.84 KCAL/MOL
REMARK 927      BINDING AFFINITY PREDICTED BY RF-SCORE:    0.00 PKD
ROOT
HETATM    1  C   UNL     1      -9.388   9.098  64.712  1.00  0.00     0.091 C  
HETATM    2  N   UNL     1      -8.347  10.130  64.875  1.00  0.00    -0.158 N  
HETATM    3  C   UNL     1      -8.053  10.869  63.633  1.00  0.00     0.251 C  
ENDROOT
BRANCH   2   4
HETATM    4  S   UNL     1      -8.409  11.071  66.299  1.00  0.00    -0.155 S  
HETATM    5  O   UNL     1      -9.639  11.847  66.271  1.00  0.00    -0.218 OA 
HETATM    6  O   UNL     1      -7.127  11.705  66.496  1.00  0.00    -0.075 OA 
BRANCH   4   7
HETATM    7  C   UNL     1      -8.610   9.825  67.562  1.00  0.00    -0.125 A  
HETATM    8  C   UNL     1      -7.986  10.012  68.804  1.00  0.00    -0.096 A  
HETATM    9  C   UNL     1      -8.024   9.080  69.865  1.00  0.00    -0.103 A  
HETATM   10  C   UNL     1      -8.778   7.927  69.582  1.00  0.00    -0.134 A  
HETATM   11  S   UNL     1      -9.073   6.594  70.701  1.00  0.00    -0.155 SA 
HETATM   12  C   UNL     1      -9.418   7.741  68.327  1.00  0.00    -0.150 A  
HETATM   13  C   UNL     1      -8.050   6.962  72.092  1.00  0.00    -0.098 A  
HETATM   14  C   UNL     1      -9.348   8.690  67.319  1.00  0.00    -0.186 A  
HETATM   15  C   UNL     1      -8.050   5.934  73.064  1.00  0.00    -0.117 A  
HETATM   16  C   UNL     1      -7.301   6.031  74.225  1.00  0.00    -0.087 A  
HETATM   17  C   UNL     1      -6.530   7.161  74.419  1.00  0.00    -0.082 A  
HETATM   18  C   UNL     1      -6.520   8.186  73.457  1.00  0.00    -0.121 A  
HETATM   19  C   UNL     1      -7.292   8.136  72.268  1.00  0.00    -0.122 A  
HETATM   20  C   UNL     1      -7.301   9.262  71.220  1.00  0.00    -0.000 C  
HETATM   21  C   UNL     1      -6.653  10.422  71.554  1.00  0.00     1.088 C  
HETATM   22  C   UNL     1      -6.499  11.669  70.723  1.00  0.00     0.917 C  
BRANCH  22  23
HETATM   23  C   UNL     1      -5.878  12.980  71.224  1.00  0.00     0.221 C  
BRANCH  23  24
HETATM   24  N   UNL     1      -5.260  13.714  70.086  1.00  0.00    -0.093 NA 
HETATM   25  C   UNL     1      -5.846  13.431  68.749  1.00  0.00    -0.079 C  
HETATM   26  C   UNL     1      -7.208  14.107  68.428  1.00  0.00    -0.109 C  
HETATM   27  N   UNL     1      -7.389  15.508  68.866  1.00  0.00    -0.138 NA 
HETATM   28  C   UNL     1      -6.747  15.735  70.173  1.00  0.00     0.118 C  
HETATM   29  C   UNL     1      -6.906  16.463  67.872  1.00  0.00    -0.137 C  
HETATM   30  C   UNL     1      -5.315  15.173  70.282  1.00  0.00    -0.122 C  
ENDBRANCH  23  24
ENDBRANCH  22  23
ENDBRANCH   4   7
ENDBRANCH   2   4
TORSDOF 4
ENDMDL
MODEL      192
REMARK 921   NORMALIZED FREE ENERGY PREDICTED BY IDOCK:    1.18 KCAL/MOL
REMARK 922        TOTAL FREE ENERGY PREDICTED BY IDOCK:    0.81 KCAL/MOL
REMARK 923 INTER-LIGAND FREE ENERGY PREDICTED BY IDOCK:   -0.48 KCAL/MOL
REMARK 924 INTRA-LIGAND FREE ENERGY PREDICTED BY IDOCK:    1.29 KCAL/MOL
REMARK 927      BINDING AFFINITY PREDICTED BY RF-SCORE:    0.00 PKD
ROOT
HETATM    1  C   UNL     1     -11.668  15.228  66.757  1.00  0.00     0.032 C  
HETATM    2  N   UNL     1     -11.477  13.970  66.012  1.00  0.00    -0.329 N  
HETATM    3  C   UNL     1     -12.390  12.891  66.436  1.00  0.00    -0.075 C  
ENDROOT
BRANCH   2   4
HETATM    4  S   UNL     1     -11.218  14.101  64.330  1.00  0.00    -0.064 S  
HETATM    5  O   UNL     1     -10.126  15.038  64.114  1.00  0.00     0.644 OA 
HETATM    6  O   UNL     1     -12.493  14.273  63.674  1.00  0.00    -0.816 OA 
BRANCH   4   7
HETATM    7  C   UNL     1     -10.599  12.477  63.919  1.00  0.00    -0.440 A  
HETATM    8  C   UNL     1      -9.518  11.960  64.647  1.00  0.00     0.050 A  
HETATM    9  C   UNL     1      -8.904  10.714  64.388  1.00  0.00    -0.185 A  
HETATM   10  C   UNL     1      -9.493  10.000  63.329  1.00  0.00    -0.182 A  
HETATM   11  S   UNL     1      -9.007   8.394  62.780  1.00  0.00     0.751 SA 
HETATM   12  C   UNL     1     -10.594  10.520  62.596  1.00  0.00     1.038 A  
HETATM   13  C   UNL     1      -7.541   8.046  63.700  1.00  0.00    -0.129 A  
HETATM   14  C   UNL     1     -11.158  11.751  62.894  1.00  0.00     0.153 A  
HETATM   15  C   UNL     1      -6.918   6.838  63.309  1.00  0.00    -0.055 A  
HETATM   16  C   UNL     1      -5.750   6.396  63.908  1.00  0.00    -0.022 A  
HETATM   17  C   UNL     1      -5.184   7.171  64.901  1.00  0.00    -0.028 A  
HETATM   18  C   UNL     1      -5.793   8.376  65.292  1.00  0.00    -0.044 A  
HETATM   19  C   UNL     1      -7.002   8.851  64.722  1.00  0.00    -0.076 A  
HETATM   20  C   UNL     1      -7.685  10.158  65.159  1.00  0.00    -0.141 C  
HETATM   21  C   UNL     1      -7.166  10.788  66.261  1.00  0.00    -0.137 C  
HETATM   22  C   UNL     1      -7.628  12.074  66.895  1.00  0.00    -0.060 C  
BRANCH  22  23
HETATM   23  C   UNL     1      -7.083  12.640  68.213  1.00  0.00    -0.105 C  
BRANCH  23  24
HETATM   24  N   UNL     1      -7.523  11.786  69.350  1.00  0.00     0.110 NA 
HETATM   25  C   UNL     1      -8.165  10.500  68.972  1.00  0.00    -0.145 C  
HETATM   26  C   UNL     1      -7.221   9.360  68.500  1.00  0.00    -0.072 C  
HETATM   27  N   UNL     1      -5.947   9.190  69.233  1.00  0.00    -0.038 NA 
HETATM   28  C   UNL     1      -5.386  10.496  69.619  1.00  0.00    -0.038 C  
HETATM   29  C   UNL     1      -6.093   8.318  70.396  1.00  0.00    -0.032 C  
HETATM   30  C   UNL     1      -6.407  11.462  70.255  1.00  0.00    -0.041 C  
ENDBRANCH  23  24
ENDBRANCH  22  23
ENDBRANCH   4   7
ENDBRANCH   2   4
TORSDOF 4
ENDMDL
MODEL      193
REMARK 921   NORMALIZED FREE ENERGY PREDICTED BY IDOCK:    1.60 KCAL/MOL
REMARK 922        TOTAL FREE ENERGY PREDICTED BY IDOCK:    1.32 KCAL/MOL
REMARK 923 INTER-LIGAND FREE ENERGY PREDICTED BY IDOCK:   -0.59 KCAL/MOL
REMARK 924 INTRA-LIGAND FREE ENERGY PREDICTED BY IDOCK:    1.91 KCAL/MOL
REMARK 927      BINDING AFFINITY PREDICTED BY RF-SCORE:    0.00 PKD
ROOT
HETATM    1  C   UNL     1      -7.157  15.706  67.993  1.00  0.00    -0.122 C  
HETATM    2  N   UNL     1      -7.547  14.329  67.636  1.00  0.00    -0.162 N  
HETATM    3  C   UNL     1      -8.245  14.234  66.339  1.00  0.00     0.766 C  
ENDROOT
BRANCH   2   4
HETATM    4  S   UNL     1      -6.409  13.097  67.955  1.00  0.00    -0.154 S  
HETATM    5  O   UNL     1      -5.667  13.469  69.149  1.00  0.00    -0.074 OA 
HETATM    6  O   UNL     1      -5.730  12.759  66.726  1.00  0.00    -0.165 OA 
BRANCH   4   7
HETATM    7  C   UNL     1      -7.459  11.724  68.402  1.00  0.00    -0.105 A  
HETATM    8  C   UNL     1      -8.751  11.987  68.880  1.00  0.00     0.204 A  
HETATM    9  C   UNL     1      -9.659  10.995  69.314  1.00  0.00    -0.008 A  
HETATM   10  C   UNL     1      -9.162   9.684  69.205  1.00  0.00    -0.168 A  
HETATM   11  S   UNL     1     -10.052   8.214  69.609  1.00  0.00    -0.203 SA 
HETATM   12  C   UNL     1      -7.856   9.416  68.712  1.00  0.00    -0.084 A  
HETATM   13  C   UNL     1     -11.543   8.799  70.352  1.00  0.00    -0.088 A  
HETATM   14  C   UNL     1      -7.006  10.430  68.298  1.00  0.00    -0.070 A  
HETATM   15  C   UNL     1     -12.350   7.757  70.865  1.00  0.00    -0.124 A  
HETATM   16  C   UNL     1     -13.556   8.015  71.494  1.00  0.00    -0.345 A  
HETATM   17  C   UNL     1     -13.962   9.328  71.628  1.00  0.00    -0.299 A  
HETATM   18  C   UNL     1     -13.165  10.371  71.126  1.00  0.00    -0.399 A  
HETATM   19  C   UNL     1     -11.936  10.148  70.453  1.00  0.00    -0.353 A  
HETATM   20  C   UNL     1     -11.067  11.282  69.884  1.00  0.00    -0.183 C  
HETATM   21  C   UNL     1     -11.609  12.541  69.898  1.00  0.00    -0.242 C  
HETATM   22  C   UNL     1     -10.982  13.824  69.417  1.00  0.00    -0.142 C  
BRANCH  22  23
HETATM   23  C   UNL     1     -11.709  15.173  69.338  1.00  0.00    -0.332 C  
BRANCH  23  24
HETATM   24  N   UNL     1     -11.242  15.929  68.143  1.00  0.00    -0.347 NA 
HETATM   25  C   UNL     1     -11.879  17.257  67.938  1.00  0.00     1.320 C  
HETATM   26  C   UNL     1     -11.385  18.415  68.847  1.00  0.00     2.072 C  
HETATM   27  N   UNL     1      -9.932  18.494  69.114  1.00  0.00    -0.282 NA 
HETATM   28  C   UNL     1      -9.353  17.147  69.262  1.00  0.00     0.057 C  
HETATM   29  C   UNL     1      -9.224  19.260  68.091  1.00  0.00    -0.334 C  
HETATM   30  C   UNL     1      -9.786  16.148  68.169  1.00  0.00    -0.222 C  
ENDBRANCH  23  24
ENDBRANCH  22  23
ENDBRANCH   4   7
ENDBRANCH   2   4
TORSDOF 4
ENDMDL
MODEL      194
REMARK 921   NORMALIZED FREE ENERGY PREDICTED BY IDOCK:    1.82 KCAL/MOL
REMARK 922        TOTAL FREE ENERGY PREDICTED BY IDOCK:    1.60 KCAL/MOL
REMARK 923 INTER-LIGAND FREE ENERGY PREDICTED BY IDOCK:    0.11 KCAL/MOL
REMARK 924 INTRA-LIGAND FREE ENERGY PREDICTED BY IDOCK:    1.49 KCAL/MOL
REMARK 927      BINDING AFFINITY PREDICTED BY RF-SCORE:    0.00 PKD
ROOT
HETATM    1  C   UNL     1      -6.151  10.067  71.542  1.00  0.00     0.216 C  
HETATM    2  N   UNL     1      -6.177  10.307  70.087  1.00  0.00    -0.084 N  
HETATM    3  C   UNL     1      -6.925   9.281  69.335  1.00  0.00    -0.049 C  
ENDROOT
BRANCH   2   4
HETATM    4  S   UNL     1      -6.414  11.919  69.576  1.00  0.00    -0.090 S  
HETATM    5  O   UNL     1      -5.146  12.422  69.071  1.00  0.00    -0.056 OA 
HETATM    6  O   UNL     1      -7.150  12.629  70.596  1.00  0.00     1.310 OA 
BRANCH   4   7
HETATM    7  C   UNL     1      -7.488  11.709  68.165  1.00  0.00    -0.103 A  
HETATM    8  C   UNL     1      -8.195  12.819  67.680  1.00  0.00    -0.175 A  
HETATM    9  C   UNL     1      -9.113  12.774  66.606  1.00  0.00    -0.188 A  
HETATM   10  C   UNL     1      -9.249  11.499  66.029  1.00  0.00    -0.217 A  
HETATM   11  S   UNL     1     -10.268  11.106  64.642  1.00  0.00    -0.340 SA 
HETATM   12  C   UNL     1      -8.527  10.376  66.514  1.00  0.00    -0.132 A  
HETATM   13  C   UNL     1     -11.182  12.586  64.341  1.00  0.00    -0.339 A  
HETATM   14  C   UNL     1      -7.637  10.477  67.572  1.00  0.00    -0.093 A  
HETATM   15  C   UNL     1     -12.160  12.436  63.330  1.00  0.00    -0.620 A  
HETATM   16  C   UNL     1     -12.985  13.483  62.956  1.00  0.00     1.353 A  
HETATM   17  C   UNL     1     -12.846  14.695  63.603  1.00  0.00     1.125 A  
HETATM   18  C   UNL     1     -11.881  14.853  64.612  1.00  0.00    -0.412 A  
HETATM   19  C   UNL     1     -11.000  13.814  65.007  1.00  0.00    -0.359 A  
HETATM   20  C   UNL     1      -9.927  13.985  66.097  1.00  0.00    -0.325 C  
HETATM   21  C   UNL     1      -9.729  15.255  66.574  1.00  0.00    -0.287 C  
HETATM   22  C   UNL     1      -8.760  15.703  67.638  1.00  0.00    -0.182 C  
BRANCH  22  23
HETATM   23  C   UNL     1      -8.500  17.166  68.017  1.00  0.00    -0.219 C  
BRANCH  23  24
HETATM   24  N   UNL     1      -7.050  17.473  67.878  1.00  0.00    -0.179 NA 
HETATM   25  C   UNL     1      -6.314  16.647  66.885  1.00  0.00    -0.173 C  
HETATM   26  C   UNL     1      -6.520  17.006  65.388  1.00  0.00     1.799 C  
HETATM   27  N   UNL     1      -6.570  18.442  65.037  1.00  0.00    -0.412 NA 
HETATM   28  C   UNL     1      -7.270  19.212  66.079  1.00  0.00    -0.274 C  
HETATM   29  C   UNL     1      -5.242  18.993  64.781  1.00  0.00    -0.188 C  
HETATM   30  C   UNL     1      -6.821  18.883  67.518  1.00  0.00    -0.201 C  
ENDBRANCH  23  24
ENDBRANCH  22  23
ENDBRANCH   4   7
ENDBRANCH   2   4
TORSDOF 4
ENDMDL
MODEL      195
REMARK 921   NORMALIZED FREE ENERGY PREDICTED BY IDOCK:    1.92 KCAL/MOL
REMARK 922        TOTAL FREE ENERGY PREDICTED BY IDOCK:    1.73 KCAL/MOL
REMARK 923 INTER-LIGAND FREE ENERGY PREDICTED BY IDOCK:    0.39 KCAL/MOL
REMARK 924 INTRA-LIGAND FREE ENERGY PREDICTED BY IDOCK:    1.33 KCAL/MOL
REMARK 927      BINDING AFFINITY PREDICTED BY RF-SCORE:    0.00 PKD
ROOT
HETATM    1  C   UNL     1      -5.281  12.050  73.003  1.00  0.00     0.649 C  
HETATM    2  N   UNL     1      -5.382  12.039  71.531  1.00  0.00     0.009 N  
HETATM    3  C   UNL     1      -5.734  10.717  70.977  1.00  0.00    -0.021 C  
ENDROOT
BRANCH   2   4
HETATM    4  S   UNL     1      -6.152  13.376  70.800  1.00  0.00     0.180 S  
HETATM    5  O   UNL     1      -5.143  14.393  70.547  1.00  0.00    -0.097 OA 
HETATM    6  O   UNL     1      -7.356  13.681  71.537  1.00  0.00     2.812 OA 
BRANCH   4   7
HETATM    7  C   UNL     1      -6.629  12.711  69.213  1.00  0.00    -0.092 A  
HETATM    8  C   UNL     1      -7.820  13.157  68.622  1.00  0.00    -0.056 A  
HETATM    9  C   UNL     1      -8.333  12.673  67.397  1.00  0.00    -0.184 A  
HETATM   10  C   UNL     1      -7.522  11.699  66.787  1.00  0.00    -0.091 A  
HETATM   11  S   UNL     1      -7.842  10.928  65.232  1.00  0.00     0.231 SA 
HETATM   12  C   UNL     1      -6.312  11.253  67.382  1.00  0.00    -0.076 A  
HETATM   13  C   UNL     1      -9.454  11.497  64.788  1.00  0.00    -0.108 A  
HETATM   14  C   UNL     1      -5.854  11.763  68.587  1.00  0.00    -0.049 A  
HETATM   15  C   UNL     1      -9.950  10.886  63.613  1.00  0.00    -0.415 A  
HETATM   16  C   UNL     1     -11.202  11.194  63.107  1.00  0.00     0.298 A  
HETATM   17  C   UNL     1     -11.979  12.114  63.786  1.00  0.00    -0.607 A  
HETATM   18  C   UNL     1     -11.496  12.722  64.957  1.00  0.00    -0.356 A  
HETATM   19  C   UNL     1     -10.211  12.453  65.493  1.00  0.00    -0.297 A  
HETATM   20  C   UNL     1      -9.667  13.129  66.763  1.00  0.00    -0.246 C  
HETATM   21  C   UNL     1     -10.415  14.152  67.286  1.00  0.00    -0.272 C  
HETATM   22  C   UNL     1     -10.127  14.974  68.516  1.00  0.00    -0.225 C  
BRANCH  22  23
HETATM   23  C   UNL     1     -10.943  16.196  68.957  1.00  0.00    -0.312 C  
BRANCH  23  24
HETATM   24  N   UNL     1     -12.346  15.790  69.244  1.00  0.00    -0.117 NA 
HETATM   25  C   UNL     1     -12.603  14.325  69.230  1.00  0.00     0.158 C  
HETATM   26  C   UNL     1     -12.130  13.522  70.473  1.00  0.00    -0.335 C  
HETATM   27  N   UNL     1     -12.337  14.144  71.800  1.00  0.00    -0.283 NA 
HETATM   28  C   UNL     1     -12.113  15.599  71.737  1.00  0.00    -0.431 C  
HETATM   29  C   UNL     1     -13.655  13.839  72.351  1.00  0.00    -0.588 C  
HETATM   30  C   UNL     1     -12.807  16.296  70.549  1.00  0.00     1.312 C  
ENDBRANCH  23  24
ENDBRANCH  22  23
ENDBRANCH   4   7
ENDBRANCH   2   4
TORSDOF 4
ENDMDL
MODEL      196
REMARK 921   NORMALIZED FREE ENERGY PREDICTED BY IDOCK:    1.97 KCAL/MOL
REMARK 922        TOTAL FREE ENERGY PREDICTED BY IDOCK:    1.79 KCAL/MOL
REMARK 923 INTER-LIGAND FREE ENERGY PREDICTED BY IDOCK:    0.24 KCAL/MOL
REMARK 924 INTRA-LIGAND FREE ENERGY PREDICTED BY IDOCK:    1.55 KCAL/MOL
REMARK 927      BINDING AFFINITY PREDICTED BY RF-SCORE:    0.00 PKD
ROOT
HETATM    1  C   UNL     1      -7.697  11.951  66.048  1.00  0.00     0.625 C  
HETATM    2  N   UNL     1      -7.792  11.186  67.305  1.00  0.00    -0.130 N  
HETATM    3  C   UNL     1      -6.727  11.512  68.273  1.00  0.00    -0.064 C  
ENDROOT
BRANCH   2   4
HETATM    4  S   UNL     1      -9.353  10.979  67.966  1.00  0.00    -0.169 S  
HETATM    5  O   UNL     1     -10.263  11.864  67.257  1.00  0.00    -0.198 OA 
HETATM    6  O   UNL     1      -9.256  11.000  69.407  1.00  0.00     0.001 OA 
BRANCH   4   7
HETATM    7  C   UNL     1      -9.752   9.312  67.464  1.00  0.00    -0.158 A  
HETATM    8  C   UNL     1      -8.839   8.284  67.738  1.00  0.00    -0.137 A  
HETATM    9  C   UNL     1      -9.013   6.937  67.350  1.00  0.00    -0.116 A  
HETATM   10  C   UNL     1     -10.218   6.694  66.667  1.00  0.00    -0.138 A  
HETATM   11  S   UNL     1     -10.770   5.119  66.091  1.00  0.00    -0.048 SA 
HETATM   12  C   UNL     1     -11.148   7.733  66.396  1.00  0.00     1.597 A  
HETATM   13  C   UNL     1      -9.396   4.047  66.375  1.00  0.00    -0.177 A  
HETATM   14  C   UNL     1     -10.927   9.040  66.802  1.00  0.00     0.286 A  
HETATM   15  C   UNL     1      -9.596   2.745  65.859  1.00  0.00     0.163 A  
HETATM   16  C   UNL     1      -8.628   1.761  65.975  1.00  0.00    -0.112 A  
HETATM   17  C   UNL     1      -7.438   2.078  66.601  1.00  0.00    -0.065 A  
HETATM   18  C   UNL     1      -7.228   3.370  67.112  1.00  0.00    -0.059 A  
HETATM   19  C   UNL     1      -8.203   4.398  67.037  1.00  0.00    -0.101 A  
HETATM   20  C   UNL     1      -7.988   5.809  67.611  1.00  0.00    -0.102 C  
HETATM   21  C   UNL     1      -6.861   6.003  68.366  1.00  0.00    -0.074 C  
HETATM   22  C   UNL     1      -6.402   7.273  69.035  1.00  0.00    -0.036 C  
BRANCH  22  23
HETATM   23  C   UNL     1      -5.199   7.374  69.981  1.00  0.00    -0.023 C  
BRANCH  23  24
HETATM   24  N   UNL     1      -5.672   7.555  71.381  1.00  0.00    -0.035 NA 
HETATM   25  C   UNL     1      -6.059   8.941  71.751  1.00  0.00    -0.073 C  
HETATM   26  C   UNL     1      -7.436   9.442  71.236  1.00  0.00     0.151 C  
HETATM   27  N   UNL     1      -8.564   8.485  71.278  1.00  0.00    -0.159 NA 
HETATM   28  C   UNL     1      -8.107   7.124  70.947  1.00  0.00    -0.111 C  
HETATM   29  C   UNL     1      -9.259   8.508  72.562  1.00  0.00    -0.233 C  
HETATM   30  C   UNL     1      -6.824   6.689  71.686  1.00  0.00    -0.066 C  
ENDBRANCH  23  24
ENDBRANCH  22  23
ENDBRANCH   4   7
ENDBRANCH   2   4
TORSDOF 4
ENDMDL
MODEL      197
REMARK 921   NORMALIZED FREE ENERGY PREDICTED BY IDOCK:    2.05 KCAL/MOL
REMARK 922        TOTAL FREE ENERGY PREDICTED BY IDOCK:    1.88 KCAL/MOL
REMARK 923 INTER-LIGAND FREE ENERGY PREDICTED BY IDOCK:    0.43 KCAL/MOL
REMARK 924 INTRA-LIGAND FREE ENERGY PREDICTED BY IDOCK:    1.45 KCAL/MOL
REMARK 927      BINDING AFFINITY PREDICTED BY RF-SCORE:    0.00 PKD
ROOT
HETATM    1  C   UNL     1      -7.253   8.276  64.810  1.00  0.00    -0.082 C  
HETATM    2  N   UNL     1      -8.679   8.347  65.180  1.00  0.00    -0.131 N  
HETATM    3  C   UNL     1      -9.127   7.213  66.011  1.00  0.00    -0.069 C  
ENDROOT
BRANCH   2   4
HETATM    4  S   UNL     1      -9.285   9.878  65.629  1.00  0.00    -0.213 S  
HETATM    5  O   UNL     1     -10.719   9.751  65.839  1.00  0.00     0.053 OA 
HETATM    6  O   UNL     1      -8.743  10.875  64.735  1.00  0.00    -0.149 OA 
BRANCH   4   7
HETATM    7  C   UNL     1      -8.544  10.116  67.237  1.00  0.00    -0.125 A  
HETATM    8  C   UNL     1      -7.894   9.035  67.850  1.00  0.00    -0.101 A  
HETATM    9  C   UNL     1      -7.314   9.080  69.138  1.00  0.00    -0.072 A  
HETATM   10  C   UNL     1      -7.420  10.334  69.766  1.00  0.00    -0.165 A  
HETATM   11  S   UNL     1      -6.760  10.745  71.350  1.00  0.00     2.291 SA 
HETATM   12  C   UNL     1      -8.070  11.432  69.141  1.00  0.00     0.074 A  
HETATM   13  C   UNL     1      -6.174   9.207  71.990  1.00  0.00     0.021 A  
HETATM   14  C   UNL     1      -8.623  11.333  67.873  1.00  0.00    -0.134 A  
HETATM   15  C   UNL     1      -5.713   9.303  73.323  1.00  0.00     0.040 A  
HETATM   16  C   UNL     1      -5.222   8.201  74.004  1.00  0.00    -0.057 A  
HETATM   17  C   UNL     1      -5.201   6.982  73.355  1.00  0.00    -0.042 A  
HETATM   18  C   UNL     1      -5.663   6.875  72.032  1.00  0.00    -0.037 A  
HETATM   19  C   UNL     1      -6.148   7.984  71.292  1.00  0.00    -0.034 A  
HETATM   20  C   UNL     1      -6.637   7.879  69.837  1.00  0.00    -0.037 C  
HETATM   21  C   UNL     1      -6.429   6.682  69.201  1.00  0.00    -0.040 C  
HETATM   22  C   UNL     1      -6.811   6.304  67.793  1.00  0.00    -0.066 C  
BRANCH  22  23
HETATM   23  C   UNL     1      -6.417   4.989  67.107  1.00  0.00    -0.049 C  
BRANCH  23  24
HETATM   24  N   UNL     1      -7.594   4.081  67.044  1.00  0.00    -0.083 NA 
HETATM   25  C   UNL     1      -7.284   2.627  67.087  1.00  0.00    -0.057 C  
HETATM   26  C   UNL     1      -6.917   2.033  68.475  1.00  0.00    -0.039 C  
HETATM   27  N   UNL     1      -7.698   2.504  69.640  1.00  0.00    -0.043 NA 
HETATM   28  C   UNL     1      -8.013   3.938  69.516  1.00  0.00    -0.055 C  
HETATM   29  C   UNL     1      -8.911   1.716  69.845  1.00  0.00    -0.075 C  
HETATM   30  C   UNL     1      -8.552   4.349  68.130  1.00  0.00    -0.095 C  
ENDBRANCH  23  24
ENDBRANCH  22  23
ENDBRANCH   4   7
ENDBRANCH   2   4
TORSDOF 4
ENDMDL
MODEL      198
REMARK 921   NORMALIZED FREE ENERGY PREDICTED BY IDOCK:    2.58 KCAL/MOL
REMARK 922        TOTAL FREE ENERGY PREDICTED BY IDOCK:    2.54 KCAL/MOL
REMARK 923 INTER-LIGAND FREE ENERGY PREDICTED BY IDOCK:    0.57 KCAL/MOL
REMARK 924 INTRA-LIGAND FREE ENERGY PREDICTED BY IDOCK:    1.97 KCAL/MOL
REMARK 927      BINDING AFFINITY PREDICTED BY RF-SCORE:    0.00 PKD
ROOT
HETATM    1  C   UNL     1      -9.575   5.116  68.183  1.00  0.00    -0.134 C  
HETATM    2  N   UNL     1      -8.233   5.524  68.640  1.00  0.00    -0.102 N  
HETATM    3  C   UNL     1      -7.202   4.490  68.428  1.00  0.00    -0.060 C  
ENDROOT
BRANCH   2   4
HETATM    4  S   UNL     1      -7.755   7.126  68.296  1.00  0.00    -0.122 S  
HETATM    5  O   UNL     1      -7.670   7.271  66.852  1.00  0.00    -0.105 OA 
HETATM    6  O   UNL     1      -6.645   7.475  69.151  1.00  0.00    -0.039 OA 
BRANCH   4   7
HETATM    7  C   UNL     1      -9.179   8.063  68.830  1.00  0.00    -0.143 A  
HETATM    8  C   UNL     1      -9.061   9.454  68.972  1.00  0.00    -0.142 A  
HETATM    9  C   UNL     1     -10.094  10.299  69.434  1.00  0.00    -0.255 A  
HETATM   10  C   UNL     1     -11.293   9.624  69.726  1.00  0.00    -0.120 A  
HETATM   11  S   UNL     1     -12.790  10.383  70.272  1.00  0.00     0.030 SA 
HETATM   12  C   UNL     1     -11.416   8.216  69.574  1.00  0.00     0.425 A  
HETATM   13  C   UNL     1     -12.345  12.068  70.555  1.00  0.00    -0.282 A  
HETATM   14  C   UNL     1     -10.368   7.433  69.115  1.00  0.00    -0.208 A  
HETATM   15  C   UNL     1     -13.393  12.828  71.123  1.00  0.00     0.123 A  
HETATM   16  C   UNL     1     -13.235  14.170  71.427  1.00  0.00    -0.418 A  
HETATM   17  C   UNL     1     -12.014  14.764  71.175  1.00  0.00    -0.392 A  
HETATM   18  C   UNL     1     -10.965  14.015  70.616  1.00  0.00     0.760 A  
HETATM   19  C   UNL     1     -11.093  12.647  70.266  1.00  0.00     0.852 A  
HETATM   20  C   UNL     1      -9.956  11.826  69.635  1.00  0.00     0.917 C  
HETATM   21  C   UNL     1      -8.834  12.516  69.255  1.00  0.00     0.946 C  
HETATM   22  C   UNL     1      -7.578  11.968  68.627  1.00  0.00    -0.112 C  
BRANCH  22  23
HETATM   23  C   UNL     1      -6.421  12.827  68.101  1.00  0.00    -0.085 C  
BRANCH  23  24
HETATM   24  N   UNL     1      -6.352  14.103  68.865  1.00  0.00    -0.086 NA 
HETATM   25  C   UNL     1      -5.389  15.109  68.344  1.00  0.00    -0.108 C  
HETATM   26  C   UNL     1      -5.824  15.903  67.082  1.00  0.00     0.131 C  
HETATM   27  N   UNL     1      -7.234  16.347  67.014  1.00  0.00    -0.200 NA 
HETATM   28  C   UNL     1      -8.132  15.329  67.586  1.00  0.00    -0.158 C  
HETATM   29  C   UNL     1      -7.435  17.644  67.656  1.00  0.00    -0.198 C  
HETATM   30  C   UNL     1      -7.666  14.765  68.944  1.00  0.00    -0.146 C  
ENDBRANCH  23  24
ENDBRANCH  22  23
ENDBRANCH   4   7
ENDBRANCH   2   4
TORSDOF 4
ENDMDL
MODEL      199
REMARK 921   NORMALIZED FREE ENERGY PREDICTED BY IDOCK:    2.90 KCAL/MOL
REMARK 922        TOTAL FREE ENERGY PREDICTED BY IDOCK:    2.93 KCAL/MOL
REMARK 923 INTER-LIGAND FREE ENERGY PREDICTED BY IDOCK:    0.88 KCAL/MOL
REMARK 924 INTRA-LIGAND FREE ENERGY PREDICTED BY IDOCK:    2.05 KCAL/MOL
REMARK 927      BINDING AFFINITY PREDICTED BY RF-SCORE:    0.00 PKD
ROOT
HETATM    1  C   UNL     1     -12.318  15.655  67.157  1.00  0.00     1.322 C  
HETATM    2  N   UNL     1     -11.639  14.447  66.652  1.00  0.00    -0.371 N  
HETATM    3  C   UNL     1     -12.297  13.190  67.056  1.00  0.00    -0.057 C  
ENDROOT
BRANCH   2   4
HETATM    4  S   UNL     1     -11.068  14.499  65.043  1.00  0.00    -0.408 S  
HETATM    5  O   UNL     1     -10.297  15.721  64.878  1.00  0.00    -0.487 OA 
HETATM    6  O   UNL     1     -12.157  14.173  64.152  1.00  0.00    -0.463 OA 
BRANCH   4   7
HETATM    7  C   UNL     1      -9.906  13.143  65.015  1.00  0.00    -0.040 A  
HETATM    8  C   UNL     1      -9.674  12.424  66.197  1.00  0.00    -0.254 A  
HETATM    9  C   UNL     1      -8.745  11.367  66.319  1.00  0.00    -0.173 A  
HETATM   10  C   UNL     1      -8.068  11.065  65.124  1.00  0.00     0.201 A  
HETATM   11  S   UNL     1      -6.885   9.772  64.915  1.00  0.00    -0.123 SA 
HETATM   12  C   UNL     1      -8.309  11.787  63.924  1.00  0.00     1.423 A  
HETATM   13  C   UNL     1      -6.626   9.152  66.548  1.00  0.00    -0.067 A  
HETATM   14  C   UNL     1      -9.234  12.817  63.860  1.00  0.00     1.554 A  
HETATM   15  C   UNL     1      -5.604   8.177  66.613  1.00  0.00    -0.032 A  
HETATM   16  C   UNL     1      -5.246   7.578  67.809  1.00  0.00    -0.029 A  
HETATM   17  C   UNL     1      -5.905   7.960  68.961  1.00  0.00    -0.034 A  
HETATM   18  C   UNL     1      -6.919   8.932  68.907  1.00  0.00    -0.065 A  
HETATM   19  C   UNL     1      -7.332   9.551  67.700  1.00  0.00    -0.083 A  
HETATM   20  C   UNL     1      -8.454  10.601  67.630  1.00  0.00    -0.118 C  
HETATM   21  C   UNL     1      -9.179  10.807  68.776  1.00  0.00    -0.192 C  
HETATM   22  C   UNL     1     -10.316  11.772  68.990  1.00  0.00    -0.087 C  
BRANCH  22  23
HETATM   23  C   UNL     1     -11.169  11.843  70.263  1.00  0.00     0.462 C  
BRANCH  23  24
HETATM   24  N   UNL     1     -12.077  10.665  70.329  1.00  0.00    -0.312 NA 
HETATM   25  C   UNL     1     -11.811   9.595  69.331  1.00  0.00     0.437 C  
HETATM   26  C   UNL     1     -10.602   8.662  69.615  1.00  0.00    -0.218 C  
HETATM   27  N   UNL     1     -10.396   8.227  71.015  1.00  0.00    -0.188 NA 
HETATM   28  C   UNL     1     -10.721   9.314  71.954  1.00  0.00    -0.139 C  
HETATM   29  C   UNL     1     -11.151   7.017  71.331  1.00  0.00    -0.245 C  
HETATM   30  C   UNL     1     -12.055  10.030  71.658  1.00  0.00    -0.334 C  
ENDBRANCH  23  24
ENDBRANCH  22  23
ENDBRANCH   4   7
ENDBRANCH   2   4
TORSDOF 4
ENDMDL
MODEL      200
REMARK 921   NORMALIZED FREE ENERGY PREDICTED BY IDOCK:    3.46 KCAL/MOL
REMARK 922        TOTAL FREE ENERGY PREDICTED BY IDOCK:    3.63 KCAL/MOL
REMARK 923 INTER-LIGAND FREE ENERGY PREDICTED BY IDOCK:    2.94 KCAL/MOL
REMARK 924 INTRA-LIGAND FREE ENERGY PREDICTED BY IDOCK:    0.69 KCAL/MOL
REMARK 927      BINDING AFFINITY PREDICTED BY RF-SCORE:    0.00 PKD
ROOT
HETATM    1  C   UNL     1      -9.833  10.099  72.022  1.00  0.00     4.241 C  
HETATM    2  N   UNL     1     -11.144   9.424  72.063  1.00  0.00    -0.136 N  
HETATM    3  C   UNL     1     -12.253  10.317  72.445  1.00  0.00     0.950 C  
ENDROOT
BRANCH   2   4
HETATM    4  S   UNL     1     -11.482   8.320  70.804  1.00  0.00    -0.216 S  
HETATM    5  O   UNL     1     -12.920   8.317  70.583  1.00  0.00     0.262 OA 
HETATM    6  O   UNL     1     -10.759   7.095  71.051  1.00  0.00    -0.228 OA 
BRANCH   4   7
HETATM    7  C   UNL     1     -10.741   9.124  69.392  1.00  0.00    -0.198 A  
HETATM    8  C   UNL     1      -9.785   8.427  68.640  1.00  0.00    -0.171 A  
HETATM    9  C   UNL     1      -9.090   8.968  67.535  1.00  0.00    -0.145 A  
HETATM   10  C   UNL     1      -9.458  10.289  67.223  1.00  0.00    -0.150 A  
HETATM   11  S   UNL     1      -8.825  11.239  65.877  1.00  0.00    -0.129 SA 
HETATM   12  C   UNL     1     -10.433  10.993  67.980  1.00  0.00    -0.219 A  
HETATM   13  C   UNL     1      -7.529  10.240  65.213  1.00  0.00    -0.141 A  
HETATM   14  C   UNL     1     -11.086  10.412  69.056  1.00  0.00    -0.297 A  
HETATM   15  C   UNL     1      -6.803  10.888  64.187  1.00  0.00     0.595 A  
HETATM   16  C   UNL     1      -5.741  10.271  63.546  1.00  0.00    -0.143 A  
HETATM   17  C   UNL     1      -5.386   8.996  63.939  1.00  0.00    -0.061 A  
HETATM   18  C   UNL     1      -6.098   8.345  64.961  1.00  0.00    -0.052 A  
HETATM   19  C   UNL     1      -7.206   8.932  65.624  1.00  0.00    -0.085 A  
HETATM   20  C   UNL     1      -8.003   8.219  66.730  1.00  0.00    -0.099 C  
HETATM   21  C   UNL     1      -7.708   6.898  66.950  1.00  0.00    -0.099 C  
HETATM   22  C   UNL     1      -8.321   5.969  67.966  1.00  0.00    -0.116 C  
BRANCH  22  23
HETATM   23  C   UNL     1      -8.035   4.465  68.055  1.00  0.00    -0.080 C  
BRANCH  23  24
HETATM   24  N   UNL     1      -6.839   4.228  68.909  1.00  0.00    -0.046 NA 
HETATM   25  C   UNL     1      -5.928   5.392  69.071  1.00  0.00    -0.024 C  
HETATM   26  C   UNL     1      -6.389   6.508  70.049  1.00  0.00    -0.039 C  
HETATM   27  N   UNL     1      -7.027   6.080  71.312  1.00  0.00    -0.066 NA 
HETATM   28  C   UNL     1      -7.879   4.897  71.095  1.00  0.00    -0.088 C  
HETATM   29  C   UNL     1      -6.048   5.834  72.368  1.00  0.00    -0.040 C  
HETATM   30  C   UNL     1      -7.213   3.782  70.262  1.00  0.00    -0.041 C  
ENDBRANCH  23  24
ENDBRANCH  22  23
ENDBRANCH   4   7
ENDBRANCH   2   4
TORSDOF 4
ENDMDL
MODEL      201
REMARK 921   NORMALIZED FREE ENERGY PREDICTED BY IDOCK:    3.77 KCAL/MOL
REMARK 922        TOTAL FREE ENERGY PREDICTED BY IDOCK:    4.00 KCAL/MOL
REMARK 923 INTER-LIGAND FREE ENERGY PREDICTED BY IDOCK:    2.63 KCAL/MOL
REMARK 924 INTRA-LIGAND FREE ENERGY PREDICTED BY IDOCK:    1.37 KCAL/MOL
REMARK 927      BINDING AFFINITY PREDICTED BY RF-SCORE:    0.00 PKD
ROOT
HETATM    1  C   UNL     1      -5.843  12.413  73.494  1.00  0.00     2.072 C  
HETATM    2  N   UNL     1      -5.405  12.299  72.090  1.00  0.00     0.269 N  
HETATM    3  C   UNL     1      -5.253  10.904  71.634  1.00  0.00     0.039 C  
ENDROOT
BRANCH   2   4
HETATM    4  S   UNL     1      -6.121  13.369  70.969  1.00  0.00     0.413 S  
HETATM    5  O   UNL     1      -5.176  14.442  70.705  1.00  0.00    -0.109 OA 
HETATM    6  O   UNL     1      -7.474  13.648  71.389  1.00  0.00     2.974 OA 
BRANCH   4   7
HETATM    7  C   UNL     1      -6.196  12.368  69.492  1.00  0.00    -0.126 A  
HETATM    8  C   UNL     1      -7.112  12.711  68.486  1.00  0.00    -0.101 A  
HETATM    9  C   UNL     1      -7.304  11.973  67.297  1.00  0.00    -0.151 A  
HETATM   10  C   UNL     1      -6.466  10.849  67.184  1.00  0.00    -0.078 A  
HETATM   11  S   UNL     1      -6.411   9.747  65.806  1.00  0.00    -0.089 SA 
HETATM   12  C   UNL     1      -5.532  10.507  68.198  1.00  0.00    -0.036 A  
HETATM   13  C   UNL     1      -7.756  10.261  64.784  1.00  0.00    -0.119 A  
HETATM   14  C   UNL     1      -5.384  11.268  69.347  1.00  0.00    -0.044 A  
HETATM   15  C   UNL     1      -7.961   9.411  63.673  1.00  0.00    -0.142 A  
HETATM   16  C   UNL     1      -8.975   9.643  62.758  1.00  0.00    -0.264 A  
HETATM   17  C   UNL     1      -9.806  10.728  62.956  1.00  0.00    -0.344 A  
HETATM   18  C   UNL     1      -9.613  11.575  64.061  1.00  0.00    -0.189 A  
HETATM   19  C   UNL     1      -8.572  11.388  65.005  1.00  0.00     0.320 A  
HETATM   20  C   UNL     1      -8.343  12.322  66.206  1.00  0.00     0.268 C  
HETATM   21  C   UNL     1      -9.091  13.469  66.247  1.00  0.00     0.010 C  
HETATM   22  C   UNL     1      -9.077  14.546  67.301  1.00  0.00    -0.217 C  
BRANCH  22  23
HETATM   23  C   UNL     1      -9.845  15.871  67.203  1.00  0.00    -0.231 C  
BRANCH  23  24
HETATM   24  N   UNL     1      -8.968  16.920  66.615  1.00  0.00    -0.237 NA 
HETATM   25  C   UNL     1      -9.656  17.923  65.759  1.00  0.00     0.240 C  
HETATM   26  C   UNL     1     -10.464  19.029  66.493  1.00  0.00    -0.443 C  
HETATM   27  N   UNL     1      -9.863  19.609  67.714  1.00  0.00    -0.360 NA 
HETATM   28  C   UNL     1      -9.159  18.576  68.493  1.00  0.00    -0.328 C  
HETATM   29  C   UNL     1      -8.980  20.733  67.412  1.00  0.00    -0.146 C  
HETATM   30  C   UNL     1      -8.238  17.668  67.653  1.00  0.00    -0.224 C  
ENDBRANCH  23  24
ENDBRANCH  22  23
ENDBRANCH   4   7
ENDBRANCH   2   4
TORSDOF 4
ENDMDL
MODEL      202
REMARK 921   NORMALIZED FREE ENERGY PREDICTED BY IDOCK:    4.42 KCAL/MOL
REMARK 922        TOTAL FREE ENERGY PREDICTED BY IDOCK:    4.80 KCAL/MOL
REMARK 923 INTER-LIGAND FREE ENERGY PREDICTED BY IDOCK:   -1.11 KCAL/MOL
REMARK 924 INTRA-LIGAND FREE ENERGY PREDICTED BY IDOCK:    5.92 KCAL/MOL
REMARK 927      BINDING AFFINITY PREDICTED BY RF-SCORE:    0.00 PKD
ROOT
HETATM    1  C   UNL     1     -10.704   6.980  69.741  1.00  0.00    -0.241 C  
HETATM    2  N   UNL     1      -9.708   8.065  69.803  1.00  0.00    -0.175 N  
HETATM    3  C   UNL     1      -8.568   7.765  70.690  1.00  0.00    -0.127 C  
ENDROOT
BRANCH   2   4
HETATM    4  S   UNL     1      -9.316   8.837  68.331  1.00  0.00    -0.137 S  
HETATM    5  O   UNL     1     -10.543   9.375  67.765  1.00  0.00    -0.252 OA 
HETATM    6  O   UNL     1      -8.454   7.970  67.564  1.00  0.00    -0.125 OA 
BRANCH   4   7
HETATM    7  C   UNL     1      -8.346  10.230  68.887  1.00  0.00    -0.136 A  
HETATM    8  C   UNL     1      -8.477  11.457  68.221  1.00  0.00    -0.154 A  
HETATM    9  C   UNL     1      -7.731  12.616  68.530  1.00  0.00    -0.114 A  
HETATM   10  C   UNL     1      -6.838  12.448  69.603  1.00  0.00     0.149 A  
HETATM   11  S   UNL     1      -5.797  13.705  70.277  1.00  0.00    -0.154 SA 
HETATM   12  C   UNL     1      -6.710  11.207  70.284  1.00  0.00     0.159 A  
HETATM   13  C   UNL     1      -5.995  15.070  69.174  1.00  0.00    -0.098 A  
HETATM   14  C   UNL     1      -7.469  10.100  69.939  1.00  0.00    -0.176 A  
HETATM   15  C   UNL     1      -5.136  16.152  69.476  1.00  0.00    -0.113 A  
HETATM   16  C   UNL     1      -5.135  17.312  68.719  1.00  0.00    -0.146 A  
HETATM   17  C   UNL     1      -5.992  17.394  67.639  1.00  0.00    -0.152 A  
HETATM   18  C   UNL     1      -6.845  16.322  67.328  1.00  0.00    -0.230 A  
HETATM   19  C   UNL     1      -6.895  15.128  68.092  1.00  0.00    -0.135 A  
HETATM   20  C   UNL     1      -7.840  13.958  67.770  1.00  0.00    -0.172 C  
HETATM   21  C   UNL     1      -8.779  14.174  66.794  1.00  0.00    -0.148 C  
HETATM   22  C   UNL     1      -9.815  13.209  66.277  1.00  0.00    -0.284 C  
BRANCH  22  23
HETATM   23  C   UNL     1     -10.923  13.573  65.280  1.00  0.00    -0.295 C  
BRANCH  23  24
HETATM   24  N   UNL     1     -10.687  14.940  64.740  1.00  0.00    -0.390 NA 
HETATM   25  C   UNL     1     -11.879  15.827  64.703  1.00  0.00    -0.071 C  
HETATM   26  C   UNL     1     -12.326  16.453  66.053  1.00  0.00     2.883 C  
HETATM   27  N   UNL     1     -11.261  16.934  66.961  1.00  0.00     0.218 NA 
HETATM   28  C   UNL     1     -10.092  16.039  66.918  1.00  0.00    -0.265 C  
HETATM   29  C   UNL     1     -10.876  18.314  66.676  1.00  0.00    -0.031 C  
HETATM   30  C   UNL     1      -9.642  15.653  65.494  1.00  0.00    -0.202 C  
ENDBRANCH  23  24
ENDBRANCH  22  23
ENDBRANCH   4   7
ENDBRANCH   2   4
TORSDOF 4
ENDMDL
MODEL      203
REMARK 921   NORMALIZED FREE ENERGY PREDICTED BY IDOCK:    4.46 KCAL/MOL
REMARK 922        TOTAL FREE ENERGY PREDICTED BY IDOCK:    4.85 KCAL/MOL
REMARK 923 INTER-LIGAND FREE ENERGY PREDICTED BY IDOCK:    5.17 KCAL/MOL
REMARK 924 INTRA-LIGAND FREE ENERGY PREDICTED BY IDOCK:   -0.33 KCAL/MOL
REMARK 927      BINDING AFFINITY PREDICTED BY RF-SCORE:    0.00 PKD
ROOT
HETATM    1  C   UNL     1      -6.357  11.291  65.333  1.00  0.00     0.616 C  
HETATM    2  N   UNL     1      -6.649  10.601  66.603  1.00  0.00    -0.093 N  
HETATM    3  C   UNL     1      -5.573  10.732  67.604  1.00  0.00    -0.043 C  
ENDROOT
BRANCH   2   4
HETATM    4  S   UNL     1      -8.241  10.736  67.205  1.00  0.00    -0.123 S  
HETATM    5  O   UNL     1      -8.900  11.820  66.496  1.00  0.00    -0.186 OA 
HETATM    6  O   UNL     1      -8.198  10.700  68.649  1.00  0.00    -0.119 OA 
BRANCH   4   7
HETATM    7  C   UNL     1      -8.986   9.215  66.637  1.00  0.00    -0.137 A  
HETATM    8  C   UNL     1      -8.353   7.998  66.933  1.00  0.00    -0.116 A  
HETATM    9  C   UNL     1      -8.811   6.734  66.499  1.00  0.00    -0.150 A  
HETATM   10  C   UNL     1      -9.998   6.788  65.746  1.00  0.00     0.794 A  
HETATM   11  S   UNL     1     -10.865   5.394  65.098  1.00  0.00     1.597 SA 
HETATM   12  C   UNL     1     -10.644   8.020  65.454  1.00  0.00     3.792 A  
HETATM   13  C   UNL     1      -9.796   4.027  65.427  1.00  0.00    -0.192 A  
HETATM   14  C   UNL     1     -10.150   9.233  65.906  1.00  0.00    -0.188 A  
HETATM   15  C   UNL     1     -10.261   2.815  64.866  1.00  0.00     0.420 A  
HETATM   16  C   UNL     1      -9.556   1.631  65.008  1.00  0.00     0.097 A  
HETATM   17  C   UNL     1      -8.365   1.653  65.706  1.00  0.00    -0.090 A  
HETATM   18  C   UNL     1      -7.892   2.854  66.262  1.00  0.00    -0.081 A  
HETATM   19  C   UNL     1      -8.595   4.081  66.162  1.00  0.00    -0.110 A  
HETATM   20  C   UNL     1      -8.094   5.395  66.785  1.00  0.00    -0.105 C  
HETATM   21  C   UNL     1      -6.999   5.311  67.605  1.00  0.00    -0.065 C  
HETATM   22  C   UNL     1      -6.299   6.430  68.332  1.00  0.00    -0.041 C  
BRANCH  22  23
HETATM   23  C   UNL     1      -5.163   6.234  69.345  1.00  0.00    -0.012 C  
BRANCH  23  24
HETATM   24  N   UNL     1      -5.686   6.402  70.729  1.00  0.00    -0.022 NA 
HETATM   25  C   UNL     1      -7.166   6.364  70.862  1.00  0.00    -0.071 C  
HETATM   26  C   UNL     1      -7.837   4.965  70.792  1.00  0.00    -0.078 C  
HETATM   27  N   UNL     1      -7.155   3.851  71.486  1.00  0.00    -0.031 NA 
HETATM   28  C   UNL     1      -5.692   3.970  71.357  1.00  0.00    -0.012 C  
HETATM   29  C   UNL     1      -7.551   3.751  72.889  1.00  0.00    -0.069 C  
HETATM   30  C   UNL     1      -5.144   5.383  71.645  1.00  0.00    -0.009 C  
ENDBRANCH  23  24
ENDBRANCH  22  23
ENDBRANCH   4   7
ENDBRANCH   2   4
TORSDOF 4
ENDMDL
MODEL      204
REMARK 921   NORMALIZED FREE ENERGY PREDICTED BY IDOCK:    4.49 KCAL/MOL
REMARK 922        TOTAL FREE ENERGY PREDICTED BY IDOCK:    4.89 KCAL/MOL
REMARK 923 INTER-LIGAND FREE ENERGY PREDICTED BY IDOCK:    1.82 KCAL/MOL
REMARK 924 INTRA-LIGAND FREE ENERGY PREDICTED BY IDOCK:    3.07 KCAL/MOL
REMARK 927      BINDING AFFINITY PREDICTED BY RF-SCORE:    0.00 PKD
ROOT
HETATM    1  C   UNL     1      -8.923  19.376  65.637  1.00  0.00     0.450 C  
HETATM    2  N   UNL     1      -7.595  19.452  65.000  1.00  0.00     0.703 N  
HETATM    3  C   UNL     1      -7.151  20.833  64.733  1.00  0.00     0.207 C  
ENDROOT
BRANCH   2   4
HETATM    4  S   UNL     1      -6.395  18.389  65.587  1.00  0.00    -0.271 S  
HETATM    5  O   UNL     1      -5.264  19.188  66.031  1.00  0.00    -0.149 OA 
HETATM    6  O   UNL     1      -6.226  17.309  64.643  1.00  0.00     1.707 OA 
BRANCH   4   7
HETATM    7  C   UNL     1      -7.169  17.725  67.053  1.00  0.00    -0.182 A  
HETATM    8  C   UNL     1      -8.379  17.027  66.924  1.00  0.00    -0.247 A  
HETATM    9  C   UNL     1      -9.115  16.498  68.008  1.00  0.00    -0.209 A  
HETATM   10  C   UNL     1      -8.513  16.711  69.262  1.00  0.00    -0.011 A  
HETATM   11  S   UNL     1      -9.138  16.139  70.810  1.00  0.00     3.382 SA 
HETATM   12  C   UNL     1      -7.283  17.411  69.392  1.00  0.00    -0.001 A  
HETATM   13  C   UNL     1     -10.727  15.475  70.417  1.00  0.00    -0.320 A  
HETATM   14  C   UNL     1      -6.601  17.909  68.292  1.00  0.00    -0.199 A  
HETATM   15  C   UNL     1     -11.453  15.069  71.561  1.00  0.00    -0.377 A  
HETATM   16  C   UNL     1     -12.725  14.531  71.461  1.00  0.00    -0.409 A  
HETATM   17  C   UNL     1     -13.290  14.404  70.207  1.00  0.00     0.313 A  
HETATM   18  C   UNL     1     -12.578  14.809  69.065  1.00  0.00     0.201 A  
HETATM   19  C   UNL     1     -11.264  15.341  69.122  1.00  0.00    -0.285 A  
HETATM   20  C   UNL     1     -10.471  15.767  67.876  1.00  0.00    -0.270 C  
HETATM   21  C   UNL     1     -11.019  15.456  66.658  1.00  0.00    -0.275 C  
HETATM   22  C   UNL     1     -10.467  15.760  65.289  1.00  0.00    -0.427 C  
BRANCH  22  23
HETATM   23  C   UNL     1     -11.072  15.253  63.974  1.00  0.00     0.592 C  
BRANCH  23  24
HETATM   24  N   UNL     1     -11.816  13.986  64.215  1.00  0.00    -0.424 NA 
HETATM   25  C   UNL     1     -11.577  12.905  63.223  1.00  0.00    -0.265 C  
HETATM   26  C   UNL     1     -10.238  12.127  63.348  1.00  0.00    -0.388 C  
HETATM   27  N   UNL     1      -9.777  11.787  64.713  1.00  0.00    -0.205 NA 
HETATM   28  C   UNL     1     -10.084  12.877  65.656  1.00  0.00    -0.272 C  
HETATM   29  C   UNL     1     -10.329  10.518  65.180  1.00  0.00    -0.240 C  
HETATM   30  C   UNL     1     -11.522  13.424  65.545  1.00  0.00    -0.305 C  
ENDBRANCH  23  24
ENDBRANCH  22  23
ENDBRANCH   4   7
ENDBRANCH   2   4
TORSDOF 4
ENDMDL
MODEL      205
REMARK 921   NORMALIZED FREE ENERGY PREDICTED BY IDOCK:    4.56 KCAL/MOL
REMARK 922        TOTAL FREE ENERGY PREDICTED BY IDOCK:    4.98 KCAL/MOL
REMARK 923 INTER-LIGAND FREE ENERGY PREDICTED BY IDOCK:    4.27 KCAL/MOL
REMARK 924 INTRA-LIGAND FREE ENERGY PREDICTED BY IDOCK:    0.71 KCAL/MOL
REMARK 927      BINDING AFFINITY PREDICTED BY RF-SCORE:    0.00 PKD
ROOT
HETATM    1  C   UNL     1      -8.543   7.710  65.257  1.00  0.00    -0.022 C  
HETATM    2  N   UNL     1      -9.159   9.032  65.043  1.00  0.00    -0.163 N  
HETATM    3  C   UNL     1      -9.447   9.324  63.626  1.00  0.00     0.730 C  
ENDROOT
BRANCH   2   4
HETATM    4  S   UNL     1     -10.362   9.512  66.156  1.00  0.00    -0.006 S  
HETATM    5  O   UNL     1     -11.110   8.327  66.549  1.00  0.00     0.490 OA 
HETATM    6  O   UNL     1     -11.031  10.684  65.644  1.00  0.00    -0.011 OA 
BRANCH   4   7
HETATM    7  C   UNL     1      -9.389  10.004  67.570  1.00  0.00    -0.144 A  
HETATM    8  C   UNL     1      -9.116  11.366  67.764  1.00  0.00    -0.158 A  
HETATM    9  C   UNL     1      -8.318  11.879  68.811  1.00  0.00     0.019 A  
HETATM   10  C   UNL     1      -7.823  10.893  69.683  1.00  0.00     0.122 A  
HETATM   11  S   UNL     1      -6.840  11.195  71.118  1.00  0.00     2.778 SA 
HETATM   12  C   UNL     1      -8.106   9.514  69.492  1.00  0.00    -0.117 A  
HETATM   13  C   UNL     1      -6.478  12.921  71.042  1.00  0.00     1.454 A  
HETATM   14  C   UNL     1      -8.897   9.065  68.446  1.00  0.00    -0.134 A  
HETATM   15  C   UNL     1      -5.584  13.343  72.053  1.00  0.00     0.086 A  
HETATM   16  C   UNL     1      -5.171  14.661  72.155  1.00  0.00    -0.139 A  
HETATM   17  C   UNL     1      -5.643  15.572  71.231  1.00  0.00     0.180 A  
HETATM   18  C   UNL     1      -6.528  15.162  70.219  1.00  0.00    -0.065 A  
HETATM   19  C   UNL     1      -6.994  13.828  70.096  1.00  0.00     0.433 A  
HETATM   20  C   UNL     1      -7.978  13.375  69.003  1.00  0.00     0.231 C  
HETATM   21  C   UNL     1      -8.537  14.359  68.229  1.00  0.00    -0.170 C  
HETATM   22  C   UNL     1      -9.515  14.200  67.094  1.00  0.00    -0.237 C  
BRANCH  22  23
HETATM   23  C   UNL     1     -10.203  15.363  66.368  1.00  0.00    -0.286 C  
BRANCH  23  24
HETATM   24  N   UNL     1     -11.067  16.112  67.321  1.00  0.00    -0.168 NA 
HETATM   25  C   UNL     1     -10.571  16.175  68.721  1.00  0.00    -0.279 C  
HETATM   26  C   UNL     1      -9.414  17.172  69.007  1.00  0.00    -0.162 C  
HETATM   27  N   UNL     1      -9.480  18.494  68.346  1.00  0.00    -0.327 NA 
HETATM   28  C   UNL     1     -10.022  18.371  66.982  1.00  0.00    -0.342 C  
HETATM   29  C   UNL     1     -10.244  19.463  69.128  1.00  0.00    -0.149 C  
HETATM   30  C   UNL     1     -11.292  17.500  66.881  1.00  0.00     0.824 C  
ENDBRANCH  23  24
ENDBRANCH  22  23
ENDBRANCH   4   7
ENDBRANCH   2   4
TORSDOF 4
ENDMDL
MODEL      206
REMARK 921   NORMALIZED FREE ENERGY PREDICTED BY IDOCK:    7.98 KCAL/MOL
REMARK 922        TOTAL FREE ENERGY PREDICTED BY IDOCK:    9.20 KCAL/MOL
REMARK 923 INTER-LIGAND FREE ENERGY PREDICTED BY IDOCK:    1.84 KCAL/MOL
REMARK 924 INTRA-LIGAND FREE ENERGY PREDICTED BY IDOCK:    7.36 KCAL/MOL
REMARK 927      BINDING AFFINITY PREDICTED BY RF-SCORE:    0.00 PKD
ROOT
HETATM    1  C   UNL     1      -7.117  11.946  69.322  1.00  0.00    -0.004 C  
HETATM    2  N   UNL     1      -8.548  12.210  69.083  1.00  0.00     0.414 N  
HETATM    3  C   UNL     1      -8.806  13.514  68.444  1.00  0.00    -0.146 C  
ENDROOT
BRANCH   2   4
HETATM    4  S   UNL     1      -9.488  10.905  68.508  1.00  0.00    -0.190 S  
HETATM    5  O   UNL     1      -9.442  10.924  67.055  1.00  0.00    -0.163 OA 
HETATM    6  O   UNL     1     -10.745  10.888  69.219  1.00  0.00    -0.214 OA 
BRANCH   4   7
HETATM    7  C   UNL     1      -8.533   9.493  69.041  1.00  0.00    -0.128 A  
HETATM    8  C   UNL     1      -8.181   8.518  68.096  1.00  0.00    -0.120 A  
HETATM    9  C   UNL     1      -7.474   7.333  68.399  1.00  0.00    -0.106 A  
HETATM   10  C   UNL     1      -7.118   7.214  69.755  1.00  0.00    -0.073 A  
HETATM   11  S   UNL     1      -6.189   5.888  70.458  1.00  0.00    -0.032 SA 
HETATM   12  C   UNL     1      -7.467   8.206  70.710  1.00  0.00    -0.066 A  
HETATM   13  C   UNL     1      -6.035   4.720  69.142  1.00  0.00    -0.018 A  
HETATM   14  C   UNL     1      -8.162   9.352  70.358  1.00  0.00    -0.214 A  
HETATM   15  C   UNL     1      -5.418   3.513  69.545  1.00  0.00    -0.016 A  
HETATM   16  C   UNL     1      -5.215   2.469  68.657  1.00  0.00    -0.012 A  
HETATM   17  C   UNL     1      -5.642   2.621  67.353  1.00  0.00    -0.018 A  
HETATM   18  C   UNL     1      -6.261   3.815  66.944  1.00  0.00    -0.028 A  
HETATM   19  C   UNL     1      -6.464   4.916  67.815  1.00  0.00    -0.045 A  
HETATM   20  C   UNL     1      -7.122   6.234  67.370  1.00  0.00    -0.070 C  
HETATM   21  C   UNL     1      -7.364   6.381  66.029  1.00  0.00    -0.080 C  
HETATM   22  C   UNL     1      -8.000   7.553  65.326  1.00  0.00    -0.126 C  
BRANCH  22  23
HETATM   23  C   UNL     1      -8.108   7.701  63.803  1.00  0.00    -0.036 C  
BRANCH  23  24
HETATM   24  N   UNL     1      -8.751   6.490  63.223  1.00  0.00     0.437 NA 
HETATM   25  C   UNL     1      -7.877   5.292  63.112  1.00  0.00    -0.084 C  
HETATM   26  C   UNL     1      -7.606   4.503  64.423  1.00  0.00    -0.072 C  
HETATM   27  N   UNL     1      -8.744   4.319  65.350  1.00  0.00    -0.119 NA 
HETATM   28  C   UNL     1      -9.596   5.520  65.380  1.00  0.00     0.203 C  
HETATM   29  C   UNL     1      -9.528   3.128  65.029  1.00  0.00    -0.132 C  
HETATM   30  C   UNL     1      -9.944   6.085  63.987  1.00  0.00     3.096 C  
ENDBRANCH  23  24
ENDBRANCH  22  23
ENDBRANCH   4   7
ENDBRANCH   2   4
TORSDOF 4
ENDMDL
MODEL      207
REMARK 921   NORMALIZED FREE ENERGY PREDICTED BY IDOCK:    8.15 KCAL/MOL
REMARK 922        TOTAL FREE ENERGY PREDICTED BY IDOCK:    9.41 KCAL/MOL
REMARK 923 INTER-LIGAND FREE ENERGY PREDICTED BY IDOCK:    7.08 KCAL/MOL
REMARK 924 INTRA-LIGAND FREE ENERGY PREDICTED BY IDOCK:    2.32 KCAL/MOL
REMARK 927      BINDING AFFINITY PREDICTED BY RF-SCORE:    0.00 PKD
ROOT
HETATM    1  C   UNL     1      -9.070   3.754  69.834  1.00  0.00    -0.119 C  
HETATM    2  N   UNL     1     -10.529   3.922  69.971  1.00  0.00     0.893 N  
HETATM    3  C   UNL     1     -11.075   3.325  71.204  1.00  0.00     2.999 C  
ENDROOT
BRANCH   2   4
HETATM    4  S   UNL     1     -11.175   5.441  69.534  1.00  0.00     1.174 S  
HETATM    5  O   UNL     1     -10.854   6.387  70.591  1.00  0.00    -0.243 OA 
HETATM    6  O   UNL     1     -12.534   5.256  69.080  1.00  0.00     6.278 OA 
BRANCH   4   7
HETATM    7  C   UNL     1     -10.176   5.880  68.121  1.00  0.00    -0.184 A  
HETATM    8  C   UNL     1     -10.126   7.223  67.717  1.00  0.00    -0.225 A  
HETATM    9  C   UNL     1      -9.416   7.691  66.589  1.00  0.00    -0.255 A  
HETATM   10  C   UNL     1      -8.723   6.682  65.896  1.00  0.00    -0.137 A  
HETATM   11  S   UNL     1      -7.699   6.931  64.479  1.00  0.00    -0.119 SA 
HETATM   12  C   UNL     1      -8.766   5.324  66.310  1.00  0.00    -0.122 A  
HETATM   13  C   UNL     1      -7.946   8.627  64.057  1.00  0.00    -0.158 A  
HETATM   14  C   UNL     1      -9.479   4.919  67.427  1.00  0.00    -0.156 A  
HETATM   15  C   UNL     1      -7.298   8.998  62.856  1.00  0.00    -0.095 A  
HETATM   16  C   UNL     1      -7.380  10.285  62.353  1.00  0.00    -0.153 A  
HETATM   17  C   UNL     1      -8.128  11.217  63.046  1.00  0.00     0.342 A  
HETATM   18  C   UNL     1      -8.780  10.858  64.238  1.00  0.00    -0.005 A  
HETATM   19  C   UNL     1      -8.700   9.558  64.799  1.00  0.00    -0.225 A  
HETATM   20  C   UNL     1      -9.394   9.162  66.114  1.00  0.00    -0.288 C  
HETATM   21  C   UNL     1      -9.973  10.173  66.835  1.00  0.00    -0.259 C  
HETATM   22  C   UNL     1     -10.720  10.070  68.140  1.00  0.00    -0.282 C  
BRANCH  22  23
HETATM   23  C   UNL     1     -11.218  11.270  68.956  1.00  0.00    -0.258 C  
BRANCH  23  24
HETATM   24  N   UNL     1     -11.360  12.458  68.071  1.00  0.00    -0.265 NA 
HETATM   25  C   UNL     1     -11.479  13.765  68.770  1.00  0.00    -0.303 C  
HETATM   26  C   UNL     1     -10.171  14.370  69.348  1.00  0.00     0.021 C  
HETATM   27  N   UNL     1      -8.948  14.252  68.523  1.00  0.00    -0.191 NA 
HETATM   28  C   UNL     1      -8.911  12.957  67.822  1.00  0.00    -0.191 C  
HETATM   29  C   UNL     1      -8.810  15.362  67.583  1.00  0.00    -0.174 C  
HETATM   30  C   UNL     1     -10.235  12.575  67.128  1.00  0.00    -0.217 C  
ENDBRANCH  23  24
ENDBRANCH  22  23
ENDBRANCH   4   7
ENDBRANCH   2   4
TORSDOF 4
ENDMDL
MODEL      208
REMARK 921   NORMALIZED FREE ENERGY PREDICTED BY IDOCK:    8.97 KCAL/MOL
REMARK 922        TOTAL FREE ENERGY PREDICTED BY IDOCK:   10.42 KCAL/MOL
REMARK 923 INTER-LIGAND FREE ENERGY PREDICTED BY IDOCK:   10.95 KCAL/MOL
REMARK 924 INTRA-LIGAND FREE ENERGY PREDICTED BY IDOCK:   -0.53 KCAL/MOL
REMARK 927      BINDING AFFINITY PREDICTED BY RF-SCORE:    0.00 PKD
ROOT
HETATM    1  C   UNL     1     -11.504  16.693  63.885  1.00  0.00     1.391 C  
HETATM    2  N   UNL     1     -11.603  15.927  65.141  1.00  0.00     0.032 N  
HETATM    3  C   UNL     1     -12.867  16.152  65.868  1.00  0.00     3.635 C  
ENDROOT
BRANCH   2   4
HETATM    4  S   UNL     1     -11.047  14.313  65.106  1.00  0.00    -0.375 S  
HETATM    5  O   UNL     1     -10.424  14.079  63.813  1.00  0.00     0.474 OA 
HETATM    6  O   UNL     1     -12.093  13.448  65.601  1.00  0.00    -0.383 OA 
BRANCH   4   7
HETATM    7  C   UNL     1      -9.736  14.343  66.318  1.00  0.00    -0.310 A  
HETATM    8  C   UNL     1      -9.389  13.152  66.972  1.00  0.00    -0.238 A  
HETATM    9  C   UNL     1      -8.408  13.053  67.983  1.00  0.00    -0.169 A  
HETATM   10  C   UNL     1      -7.770  14.272  68.276  1.00  0.00    -0.136 A  
HETATM   11  S   UNL     1      -6.466  14.490  69.446  1.00  0.00    -0.142 SA 
HETATM   12  C   UNL     1      -8.114  15.477  67.608  1.00  0.00    -0.162 A  
HETATM   13  C   UNL     1      -6.345  12.927  70.258  1.00  0.00     0.125 A  
HETATM   14  C   UNL     1      -9.086  15.517  66.620  1.00  0.00    -0.310 A  
HETATM   15  C   UNL     1      -5.425  12.933  71.333  1.00  0.00    -0.072 A  
HETATM   16  C   UNL     1      -5.196  11.802  72.100  1.00  0.00     0.337 A  
HETATM   17  C   UNL     1      -5.900  10.651  71.803  1.00  0.00     0.534 A  
HETATM   18  C   UNL     1      -6.819  10.637  70.740  1.00  0.00     0.584 A  
HETATM   19  C   UNL     1      -7.064  11.765  69.916  1.00  0.00     0.451 A  
HETATM   20  C   UNL     1      -8.054  11.751  68.738  1.00  0.00    -0.047 C  
HETATM   21  C   UNL     1      -8.587  10.536  68.394  1.00  0.00    -0.132 C  
HETATM   22  C   UNL     1      -9.578  10.237  67.299  1.00  0.00    -0.186 C  
BRANCH  22  23
HETATM   23  C   UNL     1     -10.019   8.827  66.885  1.00  0.00    -0.257 C  
BRANCH  23  24
HETATM   24  N   UNL     1     -11.430   8.598  67.299  1.00  0.00     1.293 NA 
HETATM   25  C   UNL     1     -11.921   7.202  67.155  1.00  0.00     2.893 C  
HETATM   26  C   UNL     1     -11.454   6.184  68.232  1.00  0.00     0.435 C  
HETATM   27  N   UNL     1     -11.414   6.653  69.635  1.00  0.00    -0.328 NA 
HETATM   28  C   UNL     1     -10.966   8.054  69.706  1.00  0.00    -0.137 C  
HETATM   29  C   UNL     1     -12.697   6.477  70.310  1.00  0.00     1.099 C  
HETATM   30  C   UNL     1     -11.661   8.994  68.699  1.00  0.00     1.050 C  
ENDBRANCH  23  24
ENDBRANCH  22  23
ENDBRANCH   4   7
ENDBRANCH   2   4
TORSDOF 4
ENDMDL
MODEL      209
REMARK 921   NORMALIZED FREE ENERGY PREDICTED BY IDOCK:   11.91 KCAL/MOL
REMARK 922        TOTAL FREE ENERGY PREDICTED BY IDOCK:   14.05 KCAL/MOL
REMARK 923 INTER-LIGAND FREE ENERGY PREDICTED BY IDOCK:   13.14 KCAL/MOL
REMARK 924 INTRA-LIGAND FREE ENERGY PREDICTED BY IDOCK:    0.91 KCAL/MOL
REMARK 927      BINDING AFFINITY PREDICTED BY RF-SCORE:    0.00 PKD
ROOT
HETATM    1  C   UNL     1      -9.070   3.754  69.834  1.00  0.00    -0.119 C  
HETATM    2  N   UNL     1     -10.529   3.922  69.971  1.00  0.00     0.893 N  
HETATM    3  C   UNL     1     -11.075   3.325  71.204  1.00  0.00     2.999 C  
ENDROOT
BRANCH   2   4
HETATM    4  S   UNL     1     -11.175   5.441  69.534  1.00  0.00     1.174 S  
HETATM    5  O   UNL     1     -10.854   6.387  70.591  1.00  0.00    -0.243 OA 
HETATM    6  O   UNL     1     -12.534   5.256  69.080  1.00  0.00     6.278 OA 
BRANCH   4   7
HETATM    7  C   UNL     1     -10.176   5.880  68.121  1.00  0.00    -0.184 A  
HETATM    8  C   UNL     1     -10.126   7.223  67.717  1.00  0.00    -0.225 A  
HETATM    9  C   UNL     1      -9.416   7.691  66.589  1.00  0.00    -0.255 A  
HETATM   10  C   UNL     1      -8.723   6.682  65.896  1.00  0.00    -0.137 A  
HETATM   11  S   UNL     1      -7.699   6.931  64.479  1.00  0.00    -0.119 SA 
HETATM   12  C   UNL     1      -8.766   5.324  66.310  1.00  0.00    -0.122 A  
HETATM   13  C   UNL     1      -7.946   8.627  64.057  1.00  0.00    -0.158 A  
HETATM   14  C   UNL     1      -9.479   4.919  67.427  1.00  0.00    -0.156 A  
HETATM   15  C   UNL     1      -7.298   8.998  62.856  1.00  0.00    -0.095 A  
HETATM   16  C   UNL     1      -7.380  10.285  62.353  1.00  0.00    -0.153 A  
HETATM   17  C   UNL     1      -8.128  11.217  63.046  1.00  0.00     0.342 A  
HETATM   18  C   UNL     1      -8.780  10.858  64.238  1.00  0.00    -0.005 A  
HETATM   19  C   UNL     1      -8.700   9.558  64.799  1.00  0.00    -0.225 A  
HETATM   20  C   UNL     1      -9.394   9.162  66.114  1.00  0.00    -0.288 C  
HETATM   21  C   UNL     1      -9.973  10.173  66.835  1.00  0.00    -0.259 C  
HETATM   22  C   UNL     1     -10.720  10.070  68.140  1.00  0.00    -0.282 C  
BRANCH  22  23
HETATM   23  C   UNL     1     -11.218  11.270  68.956  1.00  0.00    -0.258 C  
BRANCH  23  24
HETATM   24  N   UNL     1     -10.699  11.183  70.349  1.00  0.00     0.518 NA 
HETATM   25  C   UNL     1     -11.531  11.850  71.384  1.00  0.00     2.358 C  
HETATM   26  C   UNL     1     -12.818  11.103  71.832  1.00  0.00    -0.294 C  
HETATM   27  N   UNL     1     -12.724   9.637  72.006  1.00  0.00    -0.390 NA 
HETATM   28  C   UNL     1     -11.851   9.043  70.979  1.00  0.00    -0.285 C  
HETATM   29  C   UNL     1     -12.282   9.269  73.349  1.00  0.00     3.097 C  
HETATM   30  C   UNL     1     -10.514   9.786  70.778  1.00  0.00    -0.269 C  
ENDBRANCH  23  24
ENDBRANCH  22  23
ENDBRANCH   4   7
ENDBRANCH   2   4
TORSDOF 4
ENDMDL
MODEL      210
REMARK 921   NORMALIZED FREE ENERGY PREDICTED BY IDOCK:   13.66 KCAL/MOL
REMARK 922        TOTAL FREE ENERGY PREDICTED BY IDOCK:   16.21 KCAL/MOL
REMARK 923 INTER-LIGAND FREE ENERGY PREDICTED BY IDOCK:   15.85 KCAL/MOL
REMARK 924 INTRA-LIGAND FREE ENERGY PREDICTED BY IDOCK:    0.36 KCAL/MOL
REMARK 927      BINDING AFFINITY PREDICTED BY RF-SCORE:    0.00 PKD
ROOT
HETATM    1  C   UNL     1      -6.179   4.754  69.296  1.00  0.00    -0.030 C  
HETATM    2  N   UNL     1      -6.222   3.992  68.034  1.00  0.00    -0.035 N  
HETATM    3  C   UNL     1      -5.132   3.006  67.906  1.00  0.00    -0.008 C  
ENDROOT
BRANCH   2   4
HETATM    4  S   UNL     1      -7.758   3.470  67.501  1.00  0.00    -0.078 S  
HETATM    5  O   UNL     1      -7.752   2.016  67.464  1.00  0.00    -0.059 OA 
HETATM    6  O   UNL     1      -8.139   4.247  66.345  1.00  0.00    -0.101 OA 
BRANCH   4   7
HETATM    7  C   UNL     1      -8.810   3.951  68.861  1.00  0.00    -0.107 A  
HETATM    8  C   UNL     1      -8.931   5.313  69.175  1.00  0.00    -0.124 A  
HETATM    9  C   UNL     1      -9.689   5.818  70.256  1.00  0.00    -0.223 A  
HETATM   10  C   UNL     1     -10.350   4.824  70.999  1.00  0.00    -0.118 A  
HETATM   11  S   UNL     1     -11.417   5.114  72.376  1.00  0.00     0.091 SA 
HETATM   12  C   UNL     1     -10.235   3.446  70.676  1.00  0.00     0.563 A  
HETATM   13  C   UNL     1     -11.259   6.844  72.690  1.00  0.00    -0.260 A  
HETATM   14  C   UNL     1      -9.477   3.004  69.602  1.00  0.00    -0.177 A  
HETATM   15  C   UNL     1     -11.952   7.260  73.851  1.00  0.00     3.351 A  
HETATM   16  C   UNL     1     -11.942   8.580  74.271  1.00  0.00     7.877 A  
HETATM   17  C   UNL     1     -11.222   9.500  73.534  1.00  0.00     6.219 A  
HETATM   18  C   UNL     1     -10.527   9.096  72.381  1.00  0.00     0.399 A  
HETATM   19  C   UNL     1     -10.533   7.760  71.904  1.00  0.00    -0.268 A  
HETATM   20  C   UNL     1      -9.790   7.314  70.633  1.00  0.00    -0.179 C  
HETATM   21  C   UNL     1      -9.242   8.303  69.859  1.00  0.00    -0.154 C  
HETATM   22  C   UNL     1      -8.461   8.152  68.579  1.00  0.00    -0.127 C  
BRANCH  22  23
HETATM   23  C   UNL     1      -8.000   9.319  67.697  1.00  0.00    -0.103 C  
BRANCH  23  24
HETATM   24  N   UNL     1      -8.430  10.610  68.302  1.00  0.00    -0.122 NA 
HETATM   25  C   UNL     1      -7.571  11.116  69.405  1.00  0.00    -0.008 C  
HETATM   26  C   UNL     1      -6.224  11.773  68.995  1.00  0.00    -0.072 C  
HETATM   27  N   UNL     1      -6.234  12.651  67.805  1.00  0.00    -0.114 NA 
HETATM   28  C   UNL     1      -7.136  12.120  66.769  1.00  0.00     0.101 C  
HETATM   29  C   UNL     1      -6.576  14.031  68.141  1.00  0.00    -0.124 C  
HETATM   30  C   UNL     1      -8.518  11.683  67.297  1.00  0.00    -0.156 C  
ENDBRANCH  23  24
ENDBRANCH  22  23
ENDBRANCH   4   7
ENDBRANCH   2   4
TORSDOF 4
ENDMDL
MODEL      211
REMARK 921   NORMALIZED FREE ENERGY PREDICTED BY IDOCK:   16.58 KCAL/MOL
REMARK 922        TOTAL FREE ENERGY PREDICTED BY IDOCK:   19.81 KCAL/MOL
REMARK 923 INTER-LIGAND FREE ENERGY PREDICTED BY IDOCK:   19.81 KCAL/MOL
REMARK 924 INTRA-LIGAND FREE ENERGY PREDICTED BY IDOCK:    0.00 KCAL/MOL
REMARK 927      BINDING AFFINITY PREDICTED BY RF-SCORE:    0.00 PKD
ROOT
HETATM    1  C   UNL     1      -6.383  10.485  67.708  1.00  0.00    -0.059 C  
HETATM    2  N   UNL     1      -7.137  11.183  68.765  1.00  0.00    -0.085 N  
HETATM    3  C   UNL     1      -8.600  11.053  68.625  1.00  0.00    -0.157 C  
ENDROOT
BRANCH   2   4
HETATM    4  S   UNL     1      -6.532  11.057  70.356  1.00  0.00     0.162 S  
HETATM    5  O   UNL     1      -5.203  10.472  70.288  1.00  0.00    -0.039 OA 
HETATM    6  O   UNL     1      -7.558  10.492  71.202  1.00  0.00     1.010 OA 
BRANCH   4   7
HETATM    7  C   UNL     1      -6.323  12.771  70.813  1.00  0.00     0.752 A  
HETATM    8  C   UNL     1      -7.233  13.720  70.322  1.00  0.00     0.926 A  
HETATM    9  C   UNL     1      -7.147  15.108  70.567  1.00  0.00     0.476 A  
HETATM   10  C   UNL     1      -6.062  15.476  71.383  1.00  0.00     0.794 A  
HETATM   11  S   UNL     1      -5.696  17.116  71.924  1.00  0.00     1.680 SA 
HETATM   12  C   UNL     1      -5.145  14.515  71.887  1.00  0.00    -0.170 A  
HETATM   13  C   UNL     1      -6.840  18.130  71.040  1.00  0.00     2.881 A  
HETATM   14  C   UNL     1      -5.277  13.161  71.616  1.00  0.00    -0.148 A  
HETATM   15  C   UNL     1      -6.624  19.513  71.244  1.00  0.00     0.636 A  
HETATM   16  C   UNL     1      -7.413  20.470  70.629  1.00  0.00     1.557 A  
HETATM   17  C   UNL     1      -8.425  20.049  69.789  1.00  0.00     0.823 A  
HETATM   18  C   UNL     1      -8.644  18.678  69.575  1.00  0.00     0.537 A  
HETATM   19  C   UNL     1      -7.875  17.666  70.206  1.00  0.00     2.728 A  
HETATM   20  C   UNL     1      -8.121  16.162  69.993  1.00  0.00     0.941 C  
HETATM   21  C   UNL     1      -9.244  15.815  69.286  1.00  0.00    -0.266 C  
HETATM   22  C   UNL     1      -9.719  14.431  68.926  1.00  0.00    -0.145 C  
BRANCH  22  23
HETATM   23  C   UNL     1     -11.062  14.119  68.253  1.00  0.00    -0.254 C  
BRANCH  23  24
HETATM   24  N   UNL     1     -11.919  13.330  69.179  1.00  0.00    -0.312 NA 
HETATM   25  C   UNL     1     -11.203  12.643  70.285  1.00  0.00     0.665 C  
HETATM   26  C   UNL     1     -10.751  13.527  71.479  1.00  0.00     4.953 C  
HETATM   27  N   UNL     1     -11.693  14.569  71.945  1.00  0.00    -0.112 NA 
HETATM   28  C   UNL     1     -12.404  15.178  70.808  1.00  0.00    -0.360 C  
HETATM   29  C   UNL     1     -12.633  14.056  72.938  1.00  0.00    -0.067 C  
HETATM   30  C   UNL     1     -12.968  14.161  69.795  1.00  0.00     0.457 C  
ENDBRANCH  23  24
ENDBRANCH  22  23
ENDBRANCH   4   7
ENDBRANCH   2   4
TORSDOF 4
ENDMDL
MODEL      212
REMARK 921   NORMALIZED FREE ENERGY PREDICTED BY IDOCK:   17.82 KCAL/MOL
REMARK 922        TOTAL FREE ENERGY PREDICTED BY IDOCK:   21.34 KCAL/MOL
REMARK 923 INTER-LIGAND FREE ENERGY PREDICTED BY IDOCK:   17.18 KCAL/MOL
REMARK 924 INTRA-LIGAND FREE ENERGY PREDICTED BY IDOCK:    4.16 KCAL/MOL
REMARK 927      BINDING AFFINITY PREDICTED BY RF-SCORE:    0.00 PKD
ROOT
HETATM    1  C   UNL     1      -6.383  10.485  67.708  1.00  0.00    -0.059 C  
HETATM    2  N   UNL     1      -7.137  11.178  68.768  1.00  0.00    -0.085 N  
HETATM    3  C   UNL     1      -8.600  11.048  68.629  1.00  0.00    -0.157 C  
ENDROOT
BRANCH   2   4
HETATM    4  S   UNL     1      -6.531  11.046  70.359  1.00  0.00     0.162 S  
HETATM    5  O   UNL     1      -5.201  10.462  70.287  1.00  0.00    -0.038 OA 
HETATM    6  O   UNL     1      -7.555  10.477  71.203  1.00  0.00     1.010 OA 
BRANCH   4   7
HETATM    7  C   UNL     1      -6.322  12.758  70.822  1.00  0.00     0.752 A  
HETATM    8  C   UNL     1      -7.232  13.708  70.337  1.00  0.00     1.280 A  
HETATM    9  C   UNL     1      -7.147  15.096  70.587  1.00  0.00     0.649 A  
HETATM   10  C   UNL     1      -6.062  15.460  71.405  1.00  0.00     0.700 A  
HETATM   11  S   UNL     1      -5.696  17.098  71.952  1.00  0.00     1.680 SA 
HETATM   12  C   UNL     1      -5.144  14.497  71.904  1.00  0.00    -0.170 A  
HETATM   13  C   UNL     1      -6.841  18.115  71.073  1.00  0.00     2.881 A  
HETATM   14  C   UNL     1      -5.276  13.145  71.627  1.00  0.00    -0.148 A  
HETATM   15  C   UNL     1      -6.625  19.497  71.283  1.00  0.00     0.636 A  
HETATM   16  C   UNL     1      -7.415  20.457  70.673  1.00  0.00     1.284 A  
HETATM   17  C   UNL     1      -8.427  20.039  69.831  1.00  0.00     0.952 A  
HETATM   18  C   UNL     1      -8.646  18.669  69.612  1.00  0.00     0.761 A  
HETATM   19  C   UNL     1      -7.876  17.655  70.237  1.00  0.00     2.728 A  
HETATM   20  C   UNL     1      -8.122  16.152  70.018  1.00  0.00     0.941 C  
HETATM   21  C   UNL     1      -9.245  15.807  69.311  1.00  0.00    -0.266 C  
HETATM   22  C   UNL     1      -9.720  14.424  68.945  1.00  0.00    -0.145 C  
BRANCH  22  23
HETATM   23  C   UNL     1     -11.063  14.115  68.271  1.00  0.00    -0.254 C  
BRANCH  23  24
HETATM   24  N   UNL     1     -11.443  15.233  67.365  1.00  0.00    -0.292 NA 
HETATM   25  C   UNL     1     -10.761  16.528  67.627  1.00  0.00    -0.311 C  
HETATM   26  C   UNL     1      -9.290  16.653  67.142  1.00  0.00    -0.228 C  
HETATM   27  N   UNL     1      -8.961  16.070  65.823  1.00  0.00    -0.344 NA 
HETATM   28  C   UNL     1      -9.701  14.815  65.604  1.00  0.00    -0.278 C  
HETATM   29  C   UNL     1      -9.192  17.012  64.731  1.00  0.00     3.860 C  
HETATM   30  C   UNL     1     -11.202  14.898  65.951  1.00  0.00    -0.328 C  
ENDBRANCH  23  24
ENDBRANCH  22  23
ENDBRANCH   4   7
ENDBRANCH   2   4
TORSDOF 4
ENDMDL
MODEL      213
REMARK 921   NORMALIZED FREE ENERGY PREDICTED BY IDOCK:   19.21 KCAL/MOL
REMARK 922        TOTAL FREE ENERGY PREDICTED BY IDOCK:   23.05 KCAL/MOL
REMARK 923 INTER-LIGAND FREE ENERGY PREDICTED BY IDOCK:   19.69 KCAL/MOL
REMARK 924 INTRA-LIGAND FREE ENERGY PREDICTED BY IDOCK:    3.36 KCAL/MOL
REMARK 927      BINDING AFFINITY PREDICTED BY RF-SCORE:    0.00 PKD
ROOT
HETATM    1  C   UNL     1      -8.530   6.135  72.920  1.00  0.00    -0.119 C  
HETATM    2  N   UNL     1      -8.107   7.530  72.692  1.00  0.00    -0.106 N  
HETATM    3  C   UNL     1      -6.681   7.766  72.987  1.00  0.00    -0.075 C  
ENDROOT
BRANCH   2   4
HETATM    4  S   UNL     1      -8.711   8.301  71.294  1.00  0.00    -0.167 S  
HETATM    5  O   UNL     1      -7.579   8.800  70.531  1.00  0.00    -0.067 OA 
HETATM    6  O   UNL     1      -9.801   9.169  71.674  1.00  0.00    -0.305 OA 
BRANCH   4   7
HETATM    7  C   UNL     1      -9.392   6.929  70.375  1.00  0.00    -0.159 A  
HETATM    8  C   UNL     1      -9.273   6.923  68.978  1.00  0.00    -0.137 A  
HETATM    9  C   UNL     1      -9.812   5.925  68.135  1.00  0.00    -0.155 A  
HETATM   10  C   UNL     1     -10.476   4.895  68.826  1.00  0.00     0.120 A  
HETATM   11  S   UNL     1     -11.214   3.474  68.085  1.00  0.00     8.280 SA 
HETATM   12  C   UNL     1     -10.589   4.897  70.243  1.00  0.00    -0.011 A  
HETATM   13  C   UNL     1     -11.107   3.784  66.350  1.00  0.00     3.190 A  
HETATM   14  C   UNL     1     -10.039   5.903  71.022  1.00  0.00    -0.252 A  
HETATM   15  C   UNL     1     -11.766   2.803  65.572  1.00  0.00     7.104 A  
HETATM   16  C   UNL     1     -11.801   2.875  64.190  1.00  0.00     3.086 A  
HETATM   17  C   UNL     1     -11.185   3.944  63.570  1.00  0.00     0.339 A  
HETATM   18  C   UNL     1     -10.532   4.927  64.334  1.00  0.00     0.732 A  
HETATM   19  C   UNL     1     -10.451   4.876  65.749  1.00  0.00    -0.227 A  
HETATM   20  C   UNL     1      -9.722   5.937  66.592  1.00  0.00    -0.184 C  
HETATM   21  C   UNL     1      -8.989   6.872  65.908  1.00  0.00    -0.092 C  
HETATM   22  C   UNL     1      -8.192   8.018  66.474  1.00  0.00    -0.115 C  
BRANCH  22  23
HETATM   23  C   UNL     1      -7.283   8.938  65.649  1.00  0.00    -0.085 C  
BRANCH  23  24
HETATM   24  N   UNL     1      -7.571  10.361  65.979  1.00  0.00    -0.131 NA 
HETATM   25  C   UNL     1      -8.974  10.798  65.753  1.00  0.00    -0.187 C  
HETATM   26  C   UNL     1     -10.022  10.354  66.810  1.00  0.00    -0.206 C  
HETATM   27  N   UNL     1      -9.612  10.401  68.231  1.00  0.00    -0.141 NA 
HETATM   28  C   UNL     1      -8.203  10.002  68.383  1.00  0.00    -0.106 C  
HETATM   29  C   UNL     1      -9.855  11.711  68.831  1.00  0.00    -0.040 C  
HETATM   30  C   UNL     1      -7.243  10.675  67.380  1.00  0.00    -0.092 C  
ENDBRANCH  23  24
ENDBRANCH  22  23
ENDBRANCH   4   7
ENDBRANCH   2   4
TORSDOF 4
ENDMDL
MODEL      214
REMARK 921   NORMALIZED FREE ENERGY PREDICTED BY IDOCK:   19.98 KCAL/MOL
REMARK 922        TOTAL FREE ENERGY PREDICTED BY IDOCK:   24.00 KCAL/MOL
REMARK 923 INTER-LIGAND FREE ENERGY PREDICTED BY IDOCK:   24.53 KCAL/MOL
REMARK 924 INTRA-LIGAND FREE ENERGY PREDICTED BY IDOCK:   -0.53 KCAL/MOL
REMARK 927      BINDING AFFINITY PREDICTED BY RF-SCORE:    0.00 PKD
ROOT
HETATM    1  C   UNL     1      -7.178  10.159  72.002  1.00  0.00     2.632 C  
HETATM    2  N   UNL     1      -7.899  10.901  70.950  1.00  0.00     2.761 N  
HETATM    3  C   UNL     1      -8.982  11.755  71.471  1.00  0.00    13.684 C  
ENDROOT
BRANCH   2   4
HETATM    4  S   UNL     1      -6.954  11.583  69.702  1.00  0.00     0.106 S  
HETATM    5  O   UNL     1      -7.783  11.679  68.511  1.00  0.00    -0.122 OA 
HETATM    6  O   UNL     1      -5.672  10.919  69.671  1.00  0.00    -0.039 OA 
BRANCH   4   7
HETATM    7  C   UNL     1      -6.699  13.248  70.294  1.00  0.00     0.507 A  
HETATM    8  C   UNL     1      -7.057  14.324  69.468  1.00  0.00    -0.045 A  
HETATM    9  C   UNL     1      -6.860  15.683  69.798  1.00  0.00    -0.134 A  
HETATM   10  C   UNL     1      -6.282  15.883  71.065  1.00  0.00     0.817 A  
HETATM   11  S   UNL     1      -5.949  17.451  71.804  1.00  0.00     2.208 SA 
HETATM   12  C   UNL     1      -5.927  14.794  71.906  1.00  0.00     0.368 A  
HETATM   13  C   UNL     1      -6.298  18.617  70.525  1.00  0.00     0.405 A  
HETATM   14  C   UNL     1      -6.144  13.476  71.532  1.00  0.00     0.503 A  
HETATM   15  C   UNL     1      -5.970  19.945  70.885  1.00  0.00    -0.295 A  
HETATM   16  C   UNL     1      -6.162  21.002  70.011  1.00  0.00     0.955 A  
HETATM   17  C   UNL     1      -6.676  20.736  68.757  1.00  0.00     0.045 A  
HETATM   18  C   UNL     1      -6.999  19.419  68.389  1.00  0.00    -0.323 A  
HETATM   19  C   UNL     1      -6.842  18.313  69.262  1.00  0.00    -0.204 A  
HETATM   20  C   UNL     1      -7.212  16.871  68.873  1.00  0.00    -0.231 C  
HETATM   21  C   UNL     1      -7.872  16.703  67.684  1.00  0.00    -0.189 C  
HETATM   22  C   UNL     1      -8.342  15.414  67.060  1.00  0.00    -0.268 C  
BRANCH  22  23
HETATM   23  C   UNL     1      -9.200  15.322  65.792  1.00  0.00    -0.098 C  
BRANCH  23  24
HETATM   24  N   UNL     1      -9.887  14.002  65.741  1.00  0.00    -0.287 NA 
HETATM   25  C   UNL     1     -10.566  13.586  66.997  1.00  0.00    -0.269 C  
HETATM   26  C   UNL     1     -11.927  14.267  67.312  1.00  0.00    -0.405 C  
HETATM   27  N   UNL     1     -12.857  14.477  66.181  1.00  0.00     0.040 NA 
HETATM   28  C   UNL     1     -12.120  14.841  64.958  1.00  0.00    -0.291 C  
HETATM   29  C   UNL     1     -13.715  13.318  65.951  1.00  0.00     3.104 C  
HETATM   30  C   UNL     1     -10.894  13.950  64.668  1.00  0.00    -0.408 C  
ENDBRANCH  23  24
ENDBRANCH  22  23
ENDBRANCH   4   7
ENDBRANCH   2   4
TORSDOF 4
ENDMDL
MODEL      215
REMARK 921   NORMALIZED FREE ENERGY PREDICTED BY IDOCK:   20.29 KCAL/MOL
REMARK 922        TOTAL FREE ENERGY PREDICTED BY IDOCK:   24.38 KCAL/MOL
REMARK 923 INTER-LIGAND FREE ENERGY PREDICTED BY IDOCK:   13.47 KCAL/MOL
REMARK 924 INTRA-LIGAND FREE ENERGY PREDICTED BY IDOCK:   10.92 KCAL/MOL
REMARK 927      BINDING AFFINITY PREDICTED BY RF-SCORE:    0.00 PKD
ROOT
HETATM    1  C   UNL     1      -6.812  14.324  66.365  1.00  0.00     3.280 C  
HETATM    2  N   UNL     1      -6.063  15.569  66.617  1.00  0.00     1.093 N  
HETATM    3  C   UNL     1      -5.531  16.192  65.390  1.00  0.00     5.255 C  
ENDROOT
BRANCH   2   4
HETATM    4  S   UNL     1      -6.720  16.645  67.768  1.00  0.00    -0.149 S  
HETATM    5  O   UNL     1      -7.451  17.679  67.052  1.00  0.00    -0.184 OA 
HETATM    6  O   UNL     1      -5.697  16.980  68.731  1.00  0.00    -0.138 OA 
BRANCH   4   7
HETATM    7  C   UNL     1      -7.934  15.622  68.586  1.00  0.00    -0.152 A  
HETATM    8  C   UNL     1      -8.109  14.299  68.152  1.00  0.00    -0.144 A  
HETATM    9  C   UNL     1      -9.068  13.407  68.681  1.00  0.00     0.012 A  
HETATM   10  C   UNL     1      -9.841  13.954  69.721  1.00  0.00     1.063 A  
HETATM   11  S   UNL     1     -11.087  13.096  70.631  1.00  0.00     2.044 SA 
HETATM   12  C   UNL     1      -9.659  15.291  70.166  1.00  0.00     0.190 A  
HETATM   13  C   UNL     1     -11.252  11.552  69.792  1.00  0.00    -0.161 A  
HETATM   14  C   UNL     1      -8.700  16.124  69.612  1.00  0.00     0.201 A  
HETATM   15  C   UNL     1     -12.306  10.757  70.302  1.00  0.00    -0.423 A  
HETATM   16  C   UNL     1     -12.600   9.513  69.769  1.00  0.00     1.022 A  
HETATM   17  C   UNL     1     -11.845   9.055  68.707  1.00  0.00     1.551 A  
HETATM   18  C   UNL     1     -10.800   9.840  68.191  1.00  0.00    -0.264 A  
HETATM   19  C   UNL     1     -10.450  11.107  68.723  1.00  0.00    -0.227 A  
HETATM   20  C   UNL     1      -9.295  11.963  68.177  1.00  0.00    -0.191 C  
HETATM   21  C   UNL     1      -8.483  11.378  67.240  1.00  0.00    -0.148 C  
HETATM   22  C   UNL     1      -7.295  11.983  66.537  1.00  0.00     0.246 C  
BRANCH  22  23
HETATM   23  C   UNL     1      -6.350  11.214  65.604  1.00  0.00     0.201 C  
BRANCH  23  24
HETATM   24  N   UNL     1      -5.816  10.013  66.304  1.00  0.00    -0.058 NA 
HETATM   25  C   UNL     1      -5.422  10.222  67.722  1.00  0.00    -0.041 C  
HETATM   26  C   UNL     1      -6.573  10.299  68.762  1.00  0.00    -0.052 C  
HETATM   27  N   UNL     1      -7.700   9.354  68.597  1.00  0.00    -0.083 NA 
HETATM   28  C   UNL     1      -8.011   9.155  67.171  1.00  0.00    -0.106 C  
HETATM   29  C   UNL     1      -7.450   8.079  69.263  1.00  0.00    -0.094 C  
HETATM   30  C   UNL     1      -6.776   8.896  66.283  1.00  0.00    -0.074 C  
ENDBRANCH  23  24
ENDBRANCH  22  23
ENDBRANCH   4   7
ENDBRANCH   2   4
TORSDOF 4
ENDMDL
MODEL      216
REMARK 921   NORMALIZED FREE ENERGY PREDICTED BY IDOCK:   21.56 KCAL/MOL
REMARK 922        TOTAL FREE ENERGY PREDICTED BY IDOCK:   25.95 KCAL/MOL
REMARK 923 INTER-LIGAND FREE ENERGY PREDICTED BY IDOCK:   24.85 KCAL/MOL
REMARK 924 INTRA-LIGAND FREE ENERGY PREDICTED BY IDOCK:    1.10 KCAL/MOL
REMARK 927      BINDING AFFINITY PREDICTED BY RF-SCORE:    0.00 PKD
ROOT
HETATM    1  C   UNL     1      -7.707  14.517  68.264  1.00  0.00    -0.126 C  
HETATM    2  N   UNL     1      -8.074  14.724  69.678  1.00  0.00     0.009 N  
HETATM    3  C   UNL     1      -8.373  16.131  70.007  1.00  0.00     0.978 C  
ENDROOT
BRANCH   2   4
HETATM    4  S   UNL     1      -9.107  13.562  70.385  1.00  0.00     5.003 S  
HETATM    5  O   UNL     1     -10.040  13.110  69.365  1.00  0.00     0.346 OA 
HETATM    6  O   UNL     1      -9.571  14.064  71.657  1.00  0.00     5.476 OA 
BRANCH   4   7
HETATM    7  C   UNL     1      -7.986  12.209  70.701  1.00  0.00     5.568 A  
HETATM    8  C   UNL     1      -8.352  10.917  70.296  1.00  0.00     1.638 A  
HETATM    9  C   UNL     1      -7.580   9.757  70.532  1.00  0.00    -0.110 A  
HETATM   10  C   UNL     1      -6.369  10.008  71.202  1.00  0.00     0.105 A  
HETATM   11  S   UNL     1      -5.150   8.796  71.605  1.00  0.00    -0.039 SA 
HETATM   12  C   UNL     1      -5.993  11.318  71.605  1.00  0.00     1.008 A  
HETATM   13  C   UNL     1      -5.909   7.260  71.179  1.00  0.00    -0.035 A  
HETATM   14  C   UNL     1      -6.790  12.423  71.346  1.00  0.00     4.278 A  
HETATM   15  C   UNL     1      -5.129   6.138  71.546  1.00  0.00    -0.018 A  
HETATM   16  C   UNL     1      -5.558   4.844  71.304  1.00  0.00    -0.012 A  
HETATM   17  C   UNL     1      -6.785   4.659  70.698  1.00  0.00    -0.036 A  
HETATM   18  C   UNL     1      -7.570   5.767  70.334  1.00  0.00    -0.090 A  
HETATM   19  C   UNL     1      -7.156   7.108  70.542  1.00  0.00    -0.063 A  
HETATM   20  C   UNL     1      -8.000   8.325  70.128  1.00  0.00    -0.106 C  
HETATM   21  C   UNL     1      -9.121   8.074  69.381  1.00  0.00    -0.148 C  
HETATM   22  C   UNL     1     -10.124   9.068  68.853  1.00  0.00    -0.207 C  
BRANCH  22  23
HETATM   23  C   UNL     1     -11.278   8.720  67.905  1.00  0.00     0.587 C  
BRANCH  23  24
HETATM   24  N   UNL     1     -10.823   8.834  66.492  1.00  0.00     0.202 NA 
HETATM   25  C   UNL     1      -9.703   9.783  66.255  1.00  0.00    -0.234 C  
HETATM   26  C   UNL     1      -8.282   9.301  66.660  1.00  0.00    -0.115 C  
HETATM   27  N   UNL     1      -7.935   7.894  66.364  1.00  0.00    -0.100 NA 
HETATM   28  C   UNL     1      -9.097   7.012  66.572  1.00  0.00    -0.156 C  
HETATM   29  C   UNL     1      -7.390   7.733  65.018  1.00  0.00    -0.073 C  
HETATM   30  C   UNL     1     -10.407   7.531  65.945  1.00  0.00     1.319 C  
ENDBRANCH  23  24
ENDBRANCH  22  23
ENDBRANCH   4   7
ENDBRANCH   2   4
TORSDOF 4
ENDMDL
MODEL      217
REMARK 921   NORMALIZED FREE ENERGY PREDICTED BY IDOCK:   21.77 KCAL/MOL
REMARK 922        TOTAL FREE ENERGY PREDICTED BY IDOCK:   26.21 KCAL/MOL
REMARK 923 INTER-LIGAND FREE ENERGY PREDICTED BY IDOCK:   25.43 KCAL/MOL
REMARK 924 INTRA-LIGAND FREE ENERGY PREDICTED BY IDOCK:    0.78 KCAL/MOL
REMARK 927      BINDING AFFINITY PREDICTED BY RF-SCORE:    0.00 PKD
ROOT
HETATM    1  C   UNL     1      -8.928  19.523  65.307  1.00  0.00     1.318 C  
HETATM    2  N   UNL     1      -7.815  19.918  64.424  1.00  0.00     1.992 N  
HETATM    3  C   UNL     1      -8.096  21.130  63.631  1.00  0.00     2.332 C  
ENDROOT
BRANCH   2   4
HETATM    4  S   UNL     1      -6.239  19.808  65.072  1.00  0.00    -0.281 S  
HETATM    5  O   UNL     1      -5.482  20.962  64.613  1.00  0.00    -0.205 OA 
HETATM    6  O   UNL     1      -5.748  18.464  64.879  1.00  0.00    -0.197 OA 
BRANCH   4   7
HETATM    7  C   UNL     1      -6.536  20.042  66.818  1.00  0.00    -0.197 A  
HETATM    8  C   UNL     1      -7.528  19.275  67.446  1.00  0.00    -0.254 A  
HETATM    9  C   UNL     1      -7.893  19.400  68.805  1.00  0.00    -0.392 A  
HETATM   10  C   UNL     1      -7.149  20.366  69.506  1.00  0.00     0.253 A  
HETATM   11  S   UNL     1      -7.313  20.737  71.224  1.00  0.00     2.962 SA 
HETATM   12  C   UNL     1      -6.138  21.137  68.873  1.00  0.00     0.057 A  
HETATM   13  C   UNL     1      -8.721  19.803  71.737  1.00  0.00     3.388 A  
HETATM   14  C   UNL     1      -5.819  20.972  67.534  1.00  0.00    -0.357 A  
HETATM   15  C   UNL     1      -9.099  20.064  73.075  1.00  0.00     3.775 A  
HETATM   16  C   UNL     1     -10.186  19.435  73.659  1.00  0.00     3.855 A  
HETATM   17  C   UNL     1     -10.917  18.543  72.900  1.00  0.00     2.895 A  
HETATM   18  C   UNL     1     -10.553  18.281  71.568  1.00  0.00     3.150 A  
HETATM   19  C   UNL     1      -9.433  18.884  70.941  1.00  0.00     3.356 A  
HETATM   20  C   UNL     1      -9.016  18.588  69.490  1.00  0.00     0.550 C  
HETATM   21  C   UNL     1      -9.678  17.571  68.853  1.00  0.00    -0.259 C  
HETATM   22  C   UNL     1      -9.481  17.078  67.443  1.00  0.00    -0.242 C  
BRANCH  22  23
HETATM   23  C   UNL     1     -10.165  15.840  66.849  1.00  0.00    -0.280 C  
BRANCH  23  24
HETATM   24  N   UNL     1     -10.080  14.707  67.811  1.00  0.00    -0.227 NA 
HETATM   25  C   UNL     1     -11.354  13.983  68.060  1.00  0.00    -0.293 C  
HETATM   26  C   UNL     1     -11.822  12.994  66.957  1.00  0.00    -0.377 C  
HETATM   27  N   UNL     1     -10.785  12.157  66.314  1.00  0.00    -0.252 NA 
HETATM   28  C   UNL     1      -9.535  12.916  66.137  1.00  0.00    -0.154 C  
HETATM   29  C   UNL     1     -10.547  10.916  67.047  1.00  0.00    -0.257 C  
HETATM   30  C   UNL     1      -9.089  13.702  67.387  1.00  0.00    -0.222 C  
ENDBRANCH  23  24
ENDBRANCH  22  23
ENDBRANCH   4   7
ENDBRANCH   2   4
TORSDOF 4
ENDMDL
MODEL      218
REMARK 921   NORMALIZED FREE ENERGY PREDICTED BY IDOCK:   29.41 KCAL/MOL
REMARK 922        TOTAL FREE ENERGY PREDICTED BY IDOCK:   35.64 KCAL/MOL
REMARK 923 INTER-LIGAND FREE ENERGY PREDICTED BY IDOCK:   36.07 KCAL/MOL
REMARK 924 INTRA-LIGAND FREE ENERGY PREDICTED BY IDOCK:   -0.43 KCAL/MOL
REMARK 927      BINDING AFFINITY PREDICTED BY RF-SCORE:    0.00 PKD
ROOT
HETATM    1  C   UNL     1      -8.553   7.709  65.260  1.00  0.00    -0.022 C  
HETATM    2  N   UNL     1      -9.266   8.989  65.088  1.00  0.00    -0.154 N  
HETATM    3  C   UNL     1      -9.543   9.321  63.677  1.00  0.00     1.043 C  
ENDROOT
BRANCH   2   4
HETATM    4  S   UNL     1     -10.527   9.325  66.189  1.00  0.00     0.341 S  
HETATM    5  O   UNL     1     -11.267   8.094  66.414  1.00  0.00     1.082 OA 
HETATM    6  O   UNL     1     -11.195  10.537  65.777  1.00  0.00     0.266 OA 
BRANCH   4   7
HETATM    7  C   UNL     1      -9.627   9.674  67.692  1.00  0.00    -0.142 A  
HETATM    8  C   UNL     1      -9.428  11.010  68.068  1.00  0.00    -0.169 A  
HETATM    9  C   UNL     1      -8.693  11.418  69.203  1.00  0.00     0.186 A  
HETATM   10  C   UNL     1      -8.180  10.351  69.963  1.00  0.00     0.204 A  
HETATM   11  S   UNL     1      -7.264  10.508  71.463  1.00  0.00     3.320 SA 
HETATM   12  C   UNL     1      -8.389   8.997  69.586  1.00  0.00    -0.125 A  
HETATM   13  C   UNL     1      -6.984  12.244  71.621  1.00  0.00     5.920 A  
HETATM   14  C   UNL     1      -9.121   8.652  68.461  1.00  0.00    -0.138 A  
HETATM   15  C   UNL     1      -6.147  12.570  72.713  1.00  0.00     2.935 A  
HETATM   16  C   UNL     1      -5.802  13.881  72.998  1.00  0.00     0.281 A  
HETATM   17  C   UNL     1      -6.286  14.882  72.179  1.00  0.00     0.875 A  
HETATM   18  C   UNL     1      -7.114  14.567  71.089  1.00  0.00     1.399 A  
HETATM   19  C   UNL     1      -7.510  13.241  70.778  1.00  0.00     3.653 A  
HETATM   20  C   UNL     1      -8.433  12.890  69.598  1.00  0.00     1.841 C  
HETATM   21  C   UNL     1      -9.012  13.940  68.934  1.00  0.00     0.101 C  
HETATM   22  C   UNL     1      -9.941  13.886  67.748  1.00  0.00    -0.241 C  
BRANCH  22  23
HETATM   23  C   UNL     1     -10.659  15.102  67.149  1.00  0.00    -0.295 C  
BRANCH  23  24
HETATM   24  N   UNL     1     -10.564  15.063  65.664  1.00  0.00    -0.322 NA 
HETATM   25  C   UNL     1     -11.712  14.425  64.966  1.00  0.00    -0.389 C  
HETATM   26  C   UNL     1     -13.012  15.267  64.847  1.00  0.00     0.856 C  
HETATM   27  N   UNL     1     -12.861  16.705  64.538  1.00  0.00     2.413 NA 
HETATM   28  C   UNL     1     -11.683  17.267  65.221  1.00  0.00     1.964 C  
HETATM   29  C   UNL     1     -12.803  16.956  63.100  1.00  0.00     9.460 C  
HETATM   30  C   UNL     1     -10.407  16.410  65.090  1.00  0.00    -0.078 C  
ENDBRANCH  23  24
ENDBRANCH  22  23
ENDBRANCH   4   7
ENDBRANCH   2   4
TORSDOF 4
ENDMDL
MODEL      219
REMARK 921   NORMALIZED FREE ENERGY PREDICTED BY IDOCK:   34.47 KCAL/MOL
REMARK 922        TOTAL FREE ENERGY PREDICTED BY IDOCK:   41.88 KCAL/MOL
REMARK 923 INTER-LIGAND FREE ENERGY PREDICTED BY IDOCK:   26.47 KCAL/MOL
REMARK 924 INTRA-LIGAND FREE ENERGY PREDICTED BY IDOCK:   15.42 KCAL/MOL
REMARK 927      BINDING AFFINITY PREDICTED BY RF-SCORE:    0.00 PKD
ROOT
HETATM    1  C   UNL     1      -6.811  14.297  66.337  1.00  0.00     3.280 C  
HETATM    2  N   UNL     1      -6.013  15.489  66.678  1.00  0.00     1.151 N  
HETATM    3  C   UNL     1      -5.554  16.246  65.497  1.00  0.00     4.185 C  
ENDROOT
BRANCH   2   4
HETATM    4  S   UNL     1      -6.556  16.430  67.995  1.00  0.00    -0.143 S  
HETATM    5  O   UNL     1      -7.278  17.575  67.463  1.00  0.00    -0.165 OA 
HETATM    6  O   UNL     1      -5.466  16.600  68.928  1.00  0.00    -0.124 OA 
BRANCH   4   7
HETATM    7  C   UNL     1      -7.767  15.356  68.748  1.00  0.00    -0.150 A  
HETATM    8  C   UNL     1      -8.136  14.178  68.082  1.00  0.00    -0.148 A  
HETATM    9  C   UNL     1      -9.116  13.272  68.546  1.00  0.00    -0.064 A  
HETATM   10  C   UNL     1      -9.693  13.640  69.774  1.00  0.00     1.461 A  
HETATM   11  S   UNL     1     -10.907  12.709  70.656  1.00  0.00     3.200 SA 
HETATM   12  C   UNL     1      -9.314  14.829  70.454  1.00  0.00     1.184 A  
HETATM   13  C   UNL     1     -11.339  11.402  69.550  1.00  0.00    -0.289 A  
HETATM   14  C   UNL     1      -8.343  15.683  69.953  1.00  0.00     0.242 A  
HETATM   15  C   UNL     1     -12.404  10.604  70.028  1.00  0.00    -0.341 A  
HETATM   16  C   UNL     1     -12.894   9.533  69.299  1.00  0.00     2.753 A  
HETATM   17  C   UNL     1     -12.327   9.258  68.070  1.00  0.00     5.192 A  
HETATM   18  C   UNL     1     -11.273  10.049  67.584  1.00  0.00    -0.099 A  
HETATM   19  C   UNL     1     -10.725  11.138  68.310  1.00  0.00    -0.234 A  
HETATM   20  C   UNL     1      -9.558  11.996  67.793  1.00  0.00    -0.193 C  
HETATM   21  C   UNL     1      -8.933  11.565  66.652  1.00  0.00    -0.185 C  
HETATM   22  C   UNL     1      -7.779  12.211  65.928  1.00  0.00     1.183 C  
BRANCH  22  23
HETATM   23  C   UNL     1      -7.044  11.590  64.733  1.00  0.00     1.985 C  
BRANCH  23  24
HETATM   24  N   UNL     1      -7.908  10.565  64.085  1.00  0.00    -0.042 NA 
HETATM   25  C   UNL     1      -8.644   9.668  65.015  1.00  0.00    -0.162 C  
HETATM   26  C   UNL     1      -9.897  10.264  65.714  1.00  0.00    -0.257 C  
HETATM   27  N   UNL     1     -10.784  11.122  64.898  1.00  0.00    -0.283 NA 
HETATM   28  C   UNL     1     -10.000  11.951  63.967  1.00  0.00    -0.293 C  
HETATM   29  C   UNL     1     -11.796  10.346  64.184  1.00  0.00     3.930 C  
HETATM   30  C   UNL     1      -8.910  11.178  63.195  1.00  0.00    -0.105 C  
ENDBRANCH  23  24
ENDBRANCH  22  23
ENDBRANCH   4   7
ENDBRANCH   2   4
TORSDOF 4
ENDMDL
MODEL      220
REMARK 921   NORMALIZED FREE ENERGY PREDICTED BY IDOCK:   37.92 KCAL/MOL
REMARK 922        TOTAL FREE ENERGY PREDICTED BY IDOCK:   46.14 KCAL/MOL
REMARK 923 INTER-LIGAND FREE ENERGY PREDICTED BY IDOCK:   45.80 KCAL/MOL
REMARK 924 INTRA-LIGAND FREE ENERGY PREDICTED BY IDOCK:    0.34 KCAL/MOL
REMARK 927      BINDING AFFINITY PREDICTED BY RF-SCORE:    0.00 PKD
ROOT
HETATM    1  C   UNL     1      -9.877   4.333  69.045  1.00  0.00    -0.078 C  
HETATM    2  N   UNL     1     -11.338   4.336  69.244  1.00  0.00     4.525 N  
HETATM    3  C   UNL     1     -11.773   3.545  70.411  1.00  0.00     9.366 C  
ENDROOT
BRANCH   2   4
HETATM    4  S   UNL     1     -12.145   5.823  69.016  1.00  0.00     4.460 S  
HETATM    5  O   UNL     1     -11.860   6.670  70.162  1.00  0.00    -0.389 OA 
HETATM    6  O   UNL     1     -13.502   5.558  68.598  1.00  0.00    13.048 OA 
BRANCH   4   7
HETATM    7  C   UNL     1     -11.265   6.517  67.625  1.00  0.00    -0.178 A  
HETATM    8  C   UNL     1     -10.500   7.677  67.818  1.00  0.00    -0.282 A  
HETATM    9  C   UNL     1      -9.800   8.350  66.792  1.00  0.00    -0.329 A  
HETATM   10  C   UNL     1      -9.912   7.737  65.530  1.00  0.00     1.376 A  
HETATM   11  S   UNL     1      -9.123   8.288  64.050  1.00  0.00     1.291 SA 
HETATM   12  C   UNL     1     -10.680   6.558  65.337  1.00  0.00     3.068 A  
HETATM   13  C   UNL     1      -8.395   9.833  64.495  1.00  0.00    -0.165 A  
HETATM   14  C   UNL     1     -11.347   5.936  66.381  1.00  0.00     0.521 A  
HETATM   15  C   UNL     1      -7.811  10.505  63.396  1.00  0.00    -0.027 A  
HETATM   16  C   UNL     1      -7.196  11.737  63.540  1.00  0.00     2.927 A  
HETATM   17  C   UNL     1      -7.171  12.319  64.793  1.00  0.00     5.265 A  
HETATM   18  C   UNL     1      -7.754  11.661  65.890  1.00  0.00     0.472 A  
HETATM   19  C   UNL     1      -8.370  10.388  65.789  1.00  0.00    -0.158 A  
HETATM   20  C   UNL     1      -8.992   9.653  66.989  1.00  0.00    -0.150 C  
HETATM   21  C   UNL     1      -8.782  10.204  68.227  1.00  0.00    -0.120 C  
HETATM   22  C   UNL     1      -9.278   9.704  69.559  1.00  0.00    -0.214 C  
BRANCH  22  23
HETATM   23  C   UNL     1      -8.881  10.301  70.916  1.00  0.00     1.850 C  
BRANCH  23  24
HETATM   24  N   UNL     1      -7.770   9.508  71.510  1.00  0.00    -0.155 NA 
HETATM   25  C   UNL     1      -8.076   8.853  72.810  1.00  0.00     0.441 C  
HETATM   26  C   UNL     1      -8.946   7.567  72.756  1.00  0.00    -0.148 C  
HETATM   27  N   UNL     1      -8.670   6.609  71.663  1.00  0.00    -0.131 NA 
HETATM   28  C   UNL     1      -8.329   7.317  70.417  1.00  0.00    -0.130 C  
HETATM   29  C   UNL     1      -7.628   5.650  72.023  1.00  0.00    -0.100 C  
HETATM   30  C   UNL     1      -7.301   8.453  70.596  1.00  0.00    -0.056 C  
ENDBRANCH  23  24
ENDBRANCH  22  23
ENDBRANCH   4   7
ENDBRANCH   2   4
TORSDOF 4
ENDMDL
MODEL      221
REMARK 921   NORMALIZED FREE ENERGY PREDICTED BY IDOCK:   43.08 KCAL/MOL
REMARK 922        TOTAL FREE ENERGY PREDICTED BY IDOCK:   52.51 KCAL/MOL
REMARK 923 INTER-LIGAND FREE ENERGY PREDICTED BY IDOCK:   52.98 KCAL/MOL
REMARK 924 INTRA-LIGAND FREE ENERGY PREDICTED BY IDOCK:   -0.47 KCAL/MOL
REMARK 927      BINDING AFFINITY PREDICTED BY RF-SCORE:    0.00 PKD
ROOT
HETATM    1  C   UNL     1     -11.481  17.167  63.463  1.00  0.00     5.332 C  
HETATM    2  N   UNL     1     -10.010  17.213  63.554  1.00  0.00     9.313 N  
HETATM    3  C   UNL     1      -9.392  18.161  62.607  1.00  0.00    24.986 C  
ENDROOT
BRANCH   2   4
HETATM    4  S   UNL     1      -9.333  17.185  65.121  1.00  0.00     2.357 S  
HETATM    5  O   UNL     1     -10.356  17.613  66.061  1.00  0.00    -0.432 OA 
HETATM    6  O   UNL     1      -8.038  17.822  65.081  1.00  0.00     0.801 OA 
BRANCH   4   7
HETATM    7  C   UNL     1      -9.080  15.437  65.388  1.00  0.00     0.662 A  
HETATM    8  C   UNL     1      -8.371  15.020  66.524  1.00  0.00    -0.002 A  
HETATM    9  C   UNL     1      -8.061  13.674  66.822  1.00  0.00     0.271 A  
HETATM   10  C   UNL     1      -8.553  12.756  65.877  1.00  0.00     0.849 A  
HETATM   11  S   UNL     1      -8.388  11.001  65.973  1.00  0.00    -0.110 SA 
HETATM   12  C   UNL     1      -9.278  13.177  64.730  1.00  0.00     1.138 A  
HETATM   13  C   UNL     1      -7.319  10.739  67.353  1.00  0.00    -0.094 A  
HETATM   14  C   UNL     1      -9.556  14.513  64.487  1.00  0.00     1.635 A  
HETATM   15  C   UNL     1      -6.959   9.382  67.524  1.00  0.00    -0.077 A  
HETATM   16  C   UNL     1      -6.119   8.976  68.547  1.00  0.00    -0.045 A  
HETATM   17  C   UNL     1      -5.617   9.934  69.407  1.00  0.00    -0.034 A  
HETATM   18  C   UNL     1      -5.964  11.285  69.242  1.00  0.00    -0.053 A  
HETATM   19  C   UNL     1      -6.841  11.738  68.224  1.00  0.00    -0.068 A  
HETATM   20  C   UNL     1      -7.242  13.213  68.049  1.00  0.00    -0.125 C  
HETATM   21  C   UNL     1      -6.848  14.081  69.035  1.00  0.00    -0.111 C  
HETATM   22  C   UNL     1      -7.093  15.566  69.114  1.00  0.00    -0.164 C  
BRANCH  22  23
HETATM   23  C   UNL     1      -6.741  16.444  70.321  1.00  0.00     0.620 C  
BRANCH  23  24
HETATM   24  N   UNL     1      -6.138  17.723  69.857  1.00  0.00    -0.213 NA 
HETATM   25  C   UNL     1      -7.087  18.695  69.252  1.00  0.00    -0.162 C  
HETATM   26  C   UNL     1      -7.989  19.492  70.234  1.00  0.00     1.183 C  
HETATM   27  N   UNL     1      -7.365  19.979  71.484  1.00  0.00     0.805 NA 
HETATM   28  C   UNL     1      -6.403  18.993  72.007  1.00  0.00     1.430 C  
HETATM   29  C   UNL     1      -6.735  21.286  71.313  1.00  0.00     3.471 C  
HETATM   30  C   UNL     1      -5.438  18.425  70.946  1.00  0.00    -0.183 C  
ENDBRANCH  23  24
ENDBRANCH  22  23
ENDBRANCH   4   7
ENDBRANCH   2   4
TORSDOF 4
ENDMDL
MODEL      222
REMARK 921   NORMALIZED FREE ENERGY PREDICTED BY IDOCK:   47.95 KCAL/MOL
REMARK 922        TOTAL FREE ENERGY PREDICTED BY IDOCK:   58.51 KCAL/MOL
REMARK 923 INTER-LIGAND FREE ENERGY PREDICTED BY IDOCK:   59.14 KCAL/MOL
REMARK 924 INTRA-LIGAND FREE ENERGY PREDICTED BY IDOCK:   -0.63 KCAL/MOL
REMARK 927      BINDING AFFINITY PREDICTED BY RF-SCORE:    0.00 PKD
ROOT
HETATM    1  C   UNL     1      -6.797  11.135  65.681  1.00  0.00     0.265 C  
HETATM    2  N   UNL     1      -7.416  10.506  66.861  1.00  0.00    -0.106 N  
HETATM    3  C   UNL     1      -6.483  10.331  67.991  1.00  0.00    -0.060 C  
ENDROOT
BRANCH   2   4
HETATM    4  S   UNL     1      -8.990  11.023  67.275  1.00  0.00    -0.139 S  
HETATM    5  O   UNL     1      -9.208  12.327  66.671  1.00  0.00    -0.202 OA 
HETATM    6  O   UNL     1      -9.195  10.807  68.688  1.00  0.00    -0.168 OA 
BRANCH   4   7
HETATM    7  C   UNL     1     -10.012   9.860  66.384  1.00  0.00    -0.244 A  
HETATM    8  C   UNL     1      -9.809   8.487  66.585  1.00  0.00    -0.342 A  
HETATM    9  C   UNL     1     -10.514   7.468  65.906  1.00  0.00     1.562 A  
HETATM   10  C   UNL     1     -11.479   7.950  65.004  1.00  0.00    11.362 A  
HETATM   11  S   UNL     1     -12.566   6.951  64.036  1.00  0.00    19.062 SA 
HETATM   12  C   UNL     1     -11.691   9.341  64.806  1.00  0.00     9.813 A  
HETATM   13  C   UNL     1     -12.000   5.302  64.310  1.00  0.00     4.436 A  
HETATM   14  C   UNL     1     -10.970  10.300  65.502  1.00  0.00     0.510 A  
HETATM   15  C   UNL     1     -12.674   4.347  63.514  1.00  0.00     6.744 A  
HETATM   16  C   UNL     1     -12.365   2.998  63.579  1.00  0.00     4.897 A  
HETATM   17  C   UNL     1     -11.364   2.592  64.439  1.00  0.00     1.657 A  
HETATM   18  C   UNL     1     -10.685   3.534  65.231  1.00  0.00     0.730 A  
HETATM   19  C   UNL     1     -10.988   4.919  65.213  1.00  0.00     0.176 A  
HETATM   20  C   UNL     1     -10.263   5.954  66.091  1.00  0.00     0.007 C  
HETATM   21  C   UNL     1      -9.405   5.464  67.041  1.00  0.00    -0.121 C  
HETATM   22  C   UNL     1      -8.566   6.243  68.021  1.00  0.00    -0.116 C  
BRANCH  22  23
HETATM   23  C   UNL     1      -7.736   5.616  69.148  1.00  0.00    -0.088 C  
BRANCH  23  24
HETATM   24  N   UNL     1      -8.211   6.121  70.466  1.00  0.00    -0.112 NA 
HETATM   25  C   UNL     1      -8.199   5.128  71.573  1.00  0.00    -0.116 C  
HETATM   26  C   UNL     1      -6.817   4.810  72.209  1.00  0.00    -0.056 C  
HETATM   27  N   UNL     1      -5.893   5.945  72.424  1.00  0.00    -0.035 NA 
HETATM   28  C   UNL     1      -5.986   6.914  71.318  1.00  0.00    -0.036 C  
HETATM   29  C   UNL     1      -6.113   6.597  73.713  1.00  0.00    -0.063 C  
HETATM   30  C   UNL     1      -7.430   7.284  70.920  1.00  0.00    -0.075 C  
ENDBRANCH  23  24
ENDBRANCH  22  23
ENDBRANCH   4   7
ENDBRANCH   2   4
TORSDOF 4
ENDMDL
MODEL      223
REMARK 921   NORMALIZED FREE ENERGY PREDICTED BY IDOCK:   49.06 KCAL/MOL
REMARK 922        TOTAL FREE ENERGY PREDICTED BY IDOCK:   59.89 KCAL/MOL
REMARK 923 INTER-LIGAND FREE ENERGY PREDICTED BY IDOCK:   42.47 KCAL/MOL
REMARK 924 INTRA-LIGAND FREE ENERGY PREDICTED BY IDOCK:   17.42 KCAL/MOL
REMARK 927      BINDING AFFINITY PREDICTED BY RF-SCORE:    0.00 PKD
ROOT
HETATM    1  C   UNL     1     -14.205  13.557  65.992  1.00  0.00     6.478 C  
HETATM    2  N   UNL     1     -12.796  13.218  66.261  1.00  0.00     0.133 N  
HETATM    3  C   UNL     1     -11.888  14.378  66.185  1.00  0.00    -0.382 C  
ENDROOT
BRANCH   2   4
HETATM    4  S   UNL     1     -12.495  12.126  67.539  1.00  0.00     1.689 S  
HETATM    5  O   UNL     1     -13.777  11.681  68.061  1.00  0.00     6.554 OA 
HETATM    6  O   UNL     1     -11.487  12.689  68.406  1.00  0.00    -0.263 OA 
BRANCH   4   7
HETATM    7  C   UNL     1     -11.772  10.737  66.680  1.00  0.00     1.081 A  
HETATM    8  C   UNL     1     -10.432  10.813  66.274  1.00  0.00    -0.287 A  
HETATM    9  C   UNL     1      -9.760   9.807  65.545  1.00  0.00    -0.382 A  
HETATM   10  C   UNL     1     -10.554   8.678  65.271  1.00  0.00     3.406 A  
HETATM   11  S   UNL     1     -10.012   7.225  64.428  1.00  0.00     5.360 SA 
HETATM   12  C   UNL     1     -11.909   8.597  65.689  1.00  0.00     9.143 A  
HETATM   13  C   UNL     1      -8.390   7.631  63.861  1.00  0.00     0.136 A  
HETATM   14  C   UNL     1     -12.520   9.616  66.405  1.00  0.00     9.623 A  
HETATM   15  C   UNL     1      -7.824   6.625  63.044  1.00  0.00    -0.103 A  
HETATM   16  C   UNL     1      -6.560   6.762  62.493  1.00  0.00    -0.043 A  
HETATM   17  C   UNL     1      -5.853   7.921  62.748  1.00  0.00    -0.068 A  
HETATM   18  C   UNL     1      -6.409   8.928  63.554  1.00  0.00    -0.089 A  
HETATM   19  C   UNL     1      -7.689   8.816  64.157  1.00  0.00    -0.130 A  
HETATM   20  C   UNL     1      -8.297   9.905  65.056  1.00  0.00    -0.151 C  
HETATM   21  C   UNL     1      -7.476  10.947  65.406  1.00  0.00     0.149 C  
HETATM   22  C   UNL     1      -7.811  12.142  66.260  1.00  0.00     0.469 C  
BRANCH  22  23
HETATM   23  C   UNL     1      -6.794  13.195  66.721  1.00  0.00     1.092 C  
BRANCH  23  24
HETATM   24  N   UNL     1      -7.504  14.441  67.119  1.00  0.00    -0.056 NA 
HETATM   25  C   UNL     1      -8.598  14.873  66.210  1.00  0.00     0.162 C  
HETATM   26  C   UNL     1      -9.938  14.093  66.313  1.00  0.00    -0.303 C  
HETATM   27  N   UNL     1     -10.407  13.728  67.668  1.00  0.00    -0.237 NA 
HETATM   28  C   UNL     1      -9.274  13.356  68.532  1.00  0.00    -0.082 C  
HETATM   29  C   UNL     1     -11.206  14.789  68.278  1.00  0.00    -0.286 C  
HETATM   30  C   UNL     1      -8.082  14.334  68.469  1.00  0.00    -0.147 C  
ENDBRANCH  23  24
ENDBRANCH  22  23
ENDBRANCH   4   7
ENDBRANCH   2   4
TORSDOF 4
ENDMDL
MODEL      224
REMARK 921   NORMALIZED FREE ENERGY PREDICTED BY IDOCK:   61.04 KCAL/MOL
REMARK 922        TOTAL FREE ENERGY PREDICTED BY IDOCK:   74.66 KCAL/MOL
REMARK 923 INTER-LIGAND FREE ENERGY PREDICTED BY IDOCK:   72.53 KCAL/MOL
REMARK 924 INTRA-LIGAND FREE ENERGY PREDICTED BY IDOCK:    2.13 KCAL/MOL
REMARK 927      BINDING AFFINITY PREDICTED BY RF-SCORE:    0.00 PKD
ROOT
HETATM    1  C   UNL     1      -8.404   5.377  72.011  1.00  0.00    -0.122 C  
HETATM    2  N   UNL     1      -7.786   6.708  72.162  1.00  0.00    -0.096 N  
HETATM    3  C   UNL     1      -6.323   6.657  72.348  1.00  0.00    -0.054 C  
ENDROOT
BRANCH   2   4
HETATM    4  S   UNL     1      -8.359   7.946  71.135  1.00  0.00    -0.116 S  
HETATM    5  O   UNL     1      -7.234   8.443  70.358  1.00  0.00    -0.036 OA 
HETATM    6  O   UNL     1      -9.193   8.840  71.903  1.00  0.00    -0.261 OA 
BRANCH   4   7
HETATM    7  C   UNL     1      -9.409   7.041  70.009  1.00  0.00    -0.158 A  
HETATM    8  C   UNL     1      -9.518   7.481  68.681  1.00  0.00    -0.146 A  
HETATM    9  C   UNL     1     -10.352   6.885  67.709  1.00  0.00    -0.253 A  
HETATM   10  C   UNL     1     -11.067   5.770  68.181  1.00  0.00     0.120 A  
HETATM   11  S   UNL     1     -12.154   4.767  67.216  1.00  0.00     9.726 SA 
HETATM   12  C   UNL     1     -10.951   5.319  69.523  1.00  0.00     0.283 A  
HETATM   13  C   UNL     1     -12.272   5.616  65.672  1.00  0.00     3.931 A  
HETATM   14  C   UNL     1     -10.115   5.941  70.437  1.00  0.00    -0.259 A  
HETATM   15  C   UNL     1     -13.209   5.029  64.790  1.00  0.00     8.173 A  
HETATM   16  C   UNL     1     -13.451   5.555  63.532  1.00  0.00    10.787 A  
HETATM   17  C   UNL     1     -12.763   6.689  63.148  1.00  0.00    14.123 A  
HETATM   18  C   UNL     1     -11.834   7.283  64.020  1.00  0.00    19.914 A  
HETATM   19  C   UNL     1     -11.538   6.761  65.305  1.00  0.00     7.265 A  
HETATM   20  C   UNL     1     -10.509   7.393  66.257  1.00  0.00     0.465 C  
HETATM   21  C   UNL     1      -9.741   8.409  65.749  1.00  0.00     0.092 C  
HETATM   22  C   UNL     1      -8.673   9.204  66.456  1.00  0.00    -0.142 C  
BRANCH  22  23
HETATM   23  C   UNL     1      -7.760  10.232  65.775  1.00  0.00    -0.143 C  
BRANCH  23  24
HETATM   24  N   UNL     1      -7.719  11.483  66.582  1.00  0.00    -0.135 NA 
HETATM   25  C   UNL     1      -8.329  11.392  67.935  1.00  0.00    -0.137 C  
HETATM   26  C   UNL     1      -7.493  10.674  69.030  1.00  0.00    -0.117 C  
HETATM   27  N   UNL     1      -6.038  10.943  69.057  1.00  0.00    -0.041 NA 
HETATM   28  C   UNL     1      -5.503  11.068  67.690  1.00  0.00    -0.040 C  
HETATM   29  C   UNL     1      -5.710  12.119  69.858  1.00  0.00    -0.124 C  
HETATM   30  C   UNL     1      -6.341  11.972  66.763  1.00  0.00     0.029 C  
ENDBRANCH  23  24
ENDBRANCH  22  23
ENDBRANCH   4   7
ENDBRANCH   2   4
TORSDOF 4
ENDMDL
