MODEL        1
REMARK 921   NORMALIZED FREE ENERGY PREDICTED BY IDOCK:   -3.60 KCAL/MOL
REMARK 922        TOTAL FREE ENERGY PREDICTED BY IDOCK:   -4.74 KCAL/MOL
REMARK 923 INTER-LIGAND FREE ENERGY PREDICTED BY IDOCK:   -4.65 KCAL/MOL
REMARK 924 INTRA-LIGAND FREE ENERGY PREDICTED BY IDOCK:   -0.09 KCAL/MOL
REMARK 927      BINDING AFFINITY PREDICTED BY RF-SCORE:    0.00 PKD
ROOT
HETATM    1  C   UNL     1     -13.658  13.499  72.339  1.00  0.00    -0.608 C  
HETATM    2  N   UNL     1     -12.919  13.925  71.150  1.00  0.00    -0.331 N  
HETATM    3  C   UNL     1     -12.877  15.365  70.899  1.00  0.00    -0.476 C  
ENDROOT
BRANCH   2   4
HETATM    4  C   UNL     1     -12.339  12.979  70.278  1.00  0.00    -0.241 C  
HETATM    5  S   UNL     1     -12.206  11.329  70.618  1.00  0.00    -0.379 S  
BRANCH   4   6
HETATM    6  S   UNL     1     -11.807  13.593  68.693  1.00  0.00    -0.377 SA 
BRANCH   6   7
HETATM    7  S   UNL     1     -11.462  11.853  67.633  1.00  0.00    -0.310 SA 
BRANCH   7   8
HETATM    8  C   UNL     1     -11.501  12.448  65.960  1.00  0.00    -0.382 C  
HETATM    9  S   UNL     1     -12.462  13.800  65.649  1.00  0.00    -0.499 S  
BRANCH   8  10
HETATM   10  N   UNL     1     -10.691  11.789  65.016  1.00  0.00    -0.283 N  
HETATM   11  C   UNL     1      -9.916  10.574  65.279  1.00  0.00    -0.299 C  
HETATM   12  C   UNL     1     -10.542  12.269  63.638  1.00  0.00    -0.462 C  
ENDBRANCH   8  10
ENDBRANCH   7   8
ENDBRANCH   6   7
ENDBRANCH   4   6
ENDBRANCH   2   4
TORSDOF 5
ENDMDL
MODEL        2
REMARK 921   NORMALIZED FREE ENERGY PREDICTED BY IDOCK:   -3.59 KCAL/MOL
REMARK 922        TOTAL FREE ENERGY PREDICTED BY IDOCK:   -4.73 KCAL/MOL
REMARK 923 INTER-LIGAND FREE ENERGY PREDICTED BY IDOCK:   -4.62 KCAL/MOL
REMARK 924 INTRA-LIGAND FREE ENERGY PREDICTED BY IDOCK:   -0.11 KCAL/MOL
REMARK 927      BINDING AFFINITY PREDICTED BY RF-SCORE:    0.00 PKD
ROOT
HETATM    1  C   UNL     1     -14.257  15.232  72.110  1.00  0.00    -0.571 C  
HETATM    2  N   UNL     1     -12.908  14.980  71.604  1.00  0.00    -0.321 N  
HETATM    3  C   UNL     1     -11.934  16.053  71.806  1.00  0.00    -0.517 C  
ENDROOT
BRANCH   2   4
HETATM    4  C   UNL     1     -12.603  13.790  70.911  1.00  0.00    -0.356 C  
HETATM    5  S   UNL     1     -11.760  13.732  69.446  1.00  0.00    -0.344 S  
BRANCH   4   6
HETATM    6  S   UNL     1     -13.077  12.271  71.709  1.00  0.00    -0.228 SA 
BRANCH   6   7
HETATM    7  S   UNL     1     -12.104  10.845  70.572  1.00  0.00    -0.398 SA 
BRANCH   7   8
HETATM    8  C   UNL     1     -12.270   9.405  71.597  1.00  0.00    -0.390 C  
HETATM    9  S   UNL     1     -13.839   8.913  71.981  1.00  0.00    -0.457 S  
BRANCH   8  10
HETATM   10  N   UNL     1     -11.091   8.740  71.982  1.00  0.00    -0.363 N  
HETATM   11  C   UNL     1      -9.762   9.000  71.423  1.00  0.00    -0.299 C  
HETATM   12  C   UNL     1     -11.079   7.692  73.008  1.00  0.00    -0.381 C  
ENDBRANCH   8  10
ENDBRANCH   7   8
ENDBRANCH   6   7
ENDBRANCH   4   6
ENDBRANCH   2   4
TORSDOF 5
ENDMDL
MODEL        3
REMARK 921   NORMALIZED FREE ENERGY PREDICTED BY IDOCK:   -3.58 KCAL/MOL
REMARK 922        TOTAL FREE ENERGY PREDICTED BY IDOCK:   -4.71 KCAL/MOL
REMARK 923 INTER-LIGAND FREE ENERGY PREDICTED BY IDOCK:   -4.61 KCAL/MOL
REMARK 924 INTRA-LIGAND FREE ENERGY PREDICTED BY IDOCK:   -0.10 KCAL/MOL
REMARK 927      BINDING AFFINITY PREDICTED BY RF-SCORE:    0.00 PKD
ROOT
HETATM    1  C   UNL     1     -11.909  12.654  63.733  1.00  0.00    -0.498 C  
HETATM    2  N   UNL     1     -11.804  13.612  64.834  1.00  0.00    -0.359 N  
HETATM    3  C   UNL     1     -11.937  15.023  64.474  1.00  0.00    -0.371 C  
ENDROOT
BRANCH   2   4
HETATM    4  C   UNL     1     -11.530  13.179  66.148  1.00  0.00    -0.330 C  
HETATM    5  S   UNL     1     -10.991  11.627  66.546  1.00  0.00    -0.295 S  
BRANCH   4   6
HETATM    6  S   UNL     1     -11.691  14.406  67.430  1.00  0.00    -0.399 SA 
BRANCH   6   7
HETATM    7  S   UNL     1     -11.779  13.253  69.143  1.00  0.00    -0.339 SA 
BRANCH   7   8
HETATM    8  C   UNL     1     -12.133  14.483  70.374  1.00  0.00    -0.322 C  
HETATM    9  S   UNL     1     -11.297  15.945  70.261  1.00  0.00    -0.390 S  
BRANCH   8  10
HETATM   10  N   UNL     1     -13.119  14.180  71.332  1.00  0.00    -0.343 N  
HETATM   11  C   UNL     1     -13.377  12.845  71.876  1.00  0.00    -0.435 C  
HETATM   12  C   UNL     1     -14.010  15.202  71.893  1.00  0.00    -0.528 C  
ENDBRANCH   8  10
ENDBRANCH   7   8
ENDBRANCH   6   7
ENDBRANCH   4   6
ENDBRANCH   2   4
TORSDOF 5
ENDMDL
MODEL        4
REMARK 921   NORMALIZED FREE ENERGY PREDICTED BY IDOCK:   -3.54 KCAL/MOL
REMARK 922        TOTAL FREE ENERGY PREDICTED BY IDOCK:   -4.66 KCAL/MOL
REMARK 923 INTER-LIGAND FREE ENERGY PREDICTED BY IDOCK:   -4.50 KCAL/MOL
REMARK 924 INTRA-LIGAND FREE ENERGY PREDICTED BY IDOCK:   -0.17 KCAL/MOL
REMARK 927      BINDING AFFINITY PREDICTED BY RF-SCORE:    0.00 PKD
ROOT
HETATM    1  C   UNL     1     -10.340  11.064  64.011  1.00  0.00    -0.371 C  
HETATM    2  N   UNL     1     -11.321  12.060  64.442  1.00  0.00    -0.336 N  
HETATM    3  C   UNL     1     -12.055  12.743  63.377  1.00  0.00    -0.534 C  
ENDROOT
BRANCH   2   4
HETATM    4  C   UNL     1     -11.489  12.370  65.808  1.00  0.00    -0.370 C  
HETATM    5  S   UNL     1     -10.973  11.381  67.078  1.00  0.00    -0.298 S  
BRANCH   4   6
HETATM    6  S   UNL     1     -12.215  13.955  66.172  1.00  0.00    -0.460 SA 
BRANCH   6   7
HETATM    7  S   UNL     1     -10.579  15.218  66.123  1.00  0.00    -0.323 SA 
BRANCH   7   8
HETATM    8  C   UNL     1     -10.881  16.237  67.546  1.00  0.00    -0.268 C  
HETATM    9  S   UNL     1     -11.630  15.504  68.869  1.00  0.00    -0.378 S  
BRANCH   8  10
HETATM   10  N   UNL     1     -10.432  17.570  67.498  1.00  0.00    -0.355 N  
HETATM   11  C   UNL     1     -10.335  18.379  66.281  1.00  0.00    -0.415 C  
HETATM   12  C   UNL     1     -10.007  18.299  68.698  1.00  0.00    -0.389 C  
ENDBRANCH   8  10
ENDBRANCH   7   8
ENDBRANCH   6   7
ENDBRANCH   4   6
ENDBRANCH   2   4
TORSDOF 5
ENDMDL
MODEL        5
REMARK 921   NORMALIZED FREE ENERGY PREDICTED BY IDOCK:   -3.54 KCAL/MOL
REMARK 922        TOTAL FREE ENERGY PREDICTED BY IDOCK:   -4.66 KCAL/MOL
REMARK 923 INTER-LIGAND FREE ENERGY PREDICTED BY IDOCK:   -4.57 KCAL/MOL
REMARK 924 INTRA-LIGAND FREE ENERGY PREDICTED BY IDOCK:   -0.10 KCAL/MOL
REMARK 927      BINDING AFFINITY PREDICTED BY RF-SCORE:    0.00 PKD
ROOT
HETATM    1  C   UNL     1     -11.808  16.104  72.532  1.00  0.00    -0.528 C  
HETATM    2  N   UNL     1     -12.468  15.568  71.341  1.00  0.00    -0.383 N  
HETATM    3  C   UNL     1     -13.896  15.282  71.470  1.00  0.00    -0.525 C  
ENDROOT
BRANCH   2   4
HETATM    4  C   UNL     1     -11.735  15.293  70.167  1.00  0.00    -0.312 C  
HETATM    5  S   UNL     1     -10.674  16.383  69.431  1.00  0.00    -0.333 S  
BRANCH   4   6
HETATM    6  S   UNL     1     -11.904  13.649  69.502  1.00  0.00    -0.348 SA 
BRANCH   6   7
HETATM    7  S   UNL     1     -11.782  13.977  67.465  1.00  0.00    -0.406 SA 
BRANCH   7   8
HETATM    8  C   UNL     1     -11.495  12.332  66.861  1.00  0.00    -0.356 C  
HETATM    9  S   UNL     1     -11.190  11.135  68.012  1.00  0.00    -0.312 S  
BRANCH   8  10
HETATM   10  N   UNL     1     -11.589  12.122  65.472  1.00  0.00    -0.360 N  
HETATM   11  C   UNL     1     -10.649  11.326  64.680  1.00  0.00    -0.327 C  
HETATM   12  C   UNL     1     -12.667  12.698  64.662  1.00  0.00    -0.377 C  
ENDBRANCH   8  10
ENDBRANCH   7   8
ENDBRANCH   6   7
ENDBRANCH   4   6
ENDBRANCH   2   4
TORSDOF 5
ENDMDL
MODEL        6
REMARK 921   NORMALIZED FREE ENERGY PREDICTED BY IDOCK:   -3.53 KCAL/MOL
REMARK 922        TOTAL FREE ENERGY PREDICTED BY IDOCK:   -4.65 KCAL/MOL
REMARK 923 INTER-LIGAND FREE ENERGY PREDICTED BY IDOCK:   -4.55 KCAL/MOL
REMARK 924 INTRA-LIGAND FREE ENERGY PREDICTED BY IDOCK:   -0.10 KCAL/MOL
REMARK 927      BINDING AFFINITY PREDICTED BY RF-SCORE:    0.00 PKD
ROOT
HETATM    1  C   UNL     1     -12.253  14.359  64.373  1.00  0.00    -0.458 C  
HETATM    2  N   UNL     1     -11.084  13.605  64.827  1.00  0.00    -0.352 N  
HETATM    3  C   UNL     1     -10.580  12.584  63.910  1.00  0.00    -0.440 C  
ENDROOT
BRANCH   2   4
HETATM    4  C   UNL     1     -10.531  13.825  66.106  1.00  0.00    -0.297 C  
HETATM    5  S   UNL     1      -9.345  14.982  66.443  1.00  0.00    -0.305 S  
BRANCH   4   6
HETATM    6  S   UNL     1     -11.217  12.862  67.438  1.00  0.00    -0.308 SA 
BRANCH   6   7
HETATM    7  S   UNL     1     -11.493  14.278  68.918  1.00  0.00    -0.307 SA 
BRANCH   7   8
HETATM    8  C   UNL     1     -12.259  13.307  70.193  1.00  0.00    -0.306 C  
HETATM    9  S   UNL     1     -11.999  11.640  70.149  1.00  0.00    -0.332 S  
BRANCH   8  10
HETATM   10  N   UNL     1     -12.990  13.992  71.182  1.00  0.00    -0.337 N  
HETATM   11  C   UNL     1     -13.682  13.354  72.304  1.00  0.00    -0.607 C  
HETATM   12  C   UNL     1     -13.132  15.452  71.184  1.00  0.00    -0.498 C  
ENDBRANCH   8  10
ENDBRANCH   7   8
ENDBRANCH   6   7
ENDBRANCH   4   6
ENDBRANCH   2   4
TORSDOF 5
ENDMDL
MODEL        7
REMARK 921   NORMALIZED FREE ENERGY PREDICTED BY IDOCK:   -3.50 KCAL/MOL
REMARK 922        TOTAL FREE ENERGY PREDICTED BY IDOCK:   -4.62 KCAL/MOL
REMARK 923 INTER-LIGAND FREE ENERGY PREDICTED BY IDOCK:   -4.52 KCAL/MOL
REMARK 924 INTRA-LIGAND FREE ENERGY PREDICTED BY IDOCK:   -0.09 KCAL/MOL
REMARK 927      BINDING AFFINITY PREDICTED BY RF-SCORE:    0.00 PKD
ROOT
HETATM    1  C   UNL     1     -10.307  10.956  64.226  1.00  0.00    -0.368 C  
HETATM    2  N   UNL     1     -11.410  11.865  64.537  1.00  0.00    -0.329 N  
HETATM    3  C   UNL     1     -12.311  12.186  63.431  1.00  0.00    -0.538 C  
ENDROOT
BRANCH   2   4
HETATM    4  C   UNL     1     -11.541  12.436  65.821  1.00  0.00    -0.398 C  
HETATM    5  S   UNL     1     -12.198  13.964  66.120  1.00  0.00    -0.460 S  
BRANCH   4   6
HETATM    6  S   UNL     1     -11.051  11.409  67.191  1.00  0.00    -0.298 SA 
BRANCH   6   7
HETATM    7  S   UNL     1     -11.808  12.440  68.814  1.00  0.00    -0.267 SA 
BRANCH   7   8
HETATM    8  C   UNL     1     -11.773  11.187  70.073  1.00  0.00    -0.356 C  
HETATM    9  S   UNL     1     -10.658   9.935  69.878  1.00  0.00    -0.292 S  
BRANCH   8  10
HETATM   10  N   UNL     1     -12.639  11.344  71.172  1.00  0.00    -0.405 N  
HETATM   11  C   UNL     1     -13.088  12.631  71.708  1.00  0.00    -0.360 C  
HETATM   12  C   UNL     1     -13.189  10.201  71.908  1.00  0.00    -0.452 C  
ENDBRANCH   8  10
ENDBRANCH   7   8
ENDBRANCH   6   7
ENDBRANCH   4   6
ENDBRANCH   2   4
TORSDOF 5
ENDMDL
MODEL        8
REMARK 921   NORMALIZED FREE ENERGY PREDICTED BY IDOCK:   -3.50 KCAL/MOL
REMARK 922        TOTAL FREE ENERGY PREDICTED BY IDOCK:   -4.62 KCAL/MOL
REMARK 923 INTER-LIGAND FREE ENERGY PREDICTED BY IDOCK:   -4.52 KCAL/MOL
REMARK 924 INTRA-LIGAND FREE ENERGY PREDICTED BY IDOCK:   -0.10 KCAL/MOL
REMARK 927      BINDING AFFINITY PREDICTED BY RF-SCORE:    0.00 PKD
ROOT
HETATM    1  C   UNL     1     -11.247   5.950  72.288  1.00  0.00    -0.291 C  
HETATM    2  N   UNL     1     -11.747   6.714  71.145  1.00  0.00    -0.331 N  
HETATM    3  C   UNL     1     -11.353   6.228  69.823  1.00  0.00    -0.436 C  
ENDROOT
BRANCH   2   4
HETATM    4  C   UNL     1     -12.513   7.884  71.332  1.00  0.00    -0.309 C  
HETATM    5  S   UNL     1     -14.181   7.896  71.602  1.00  0.00    -0.449 S  
BRANCH   4   6
HETATM    6  S   UNL     1     -11.609   9.419  71.368  1.00  0.00    -0.405 SA 
BRANCH   6   7
HETATM    7  S   UNL     1     -13.094  10.803  71.757  1.00  0.00    -0.400 SA 
BRANCH   7   8
HETATM    8  C   UNL     1     -12.485  12.224  70.883  1.00  0.00    -0.276 C  
HETATM    9  S   UNL     1     -11.696  11.944  69.417  1.00  0.00    -0.347 S  
BRANCH   8  10
HETATM   10  N   UNL     1     -12.743  13.491  71.441  1.00  0.00    -0.350 N  
HETATM   11  C   UNL     1     -11.917  14.682  71.230  1.00  0.00    -0.343 C  
HETATM   12  C   UNL     1     -13.895  13.746  72.312  1.00  0.00    -0.580 C  
ENDBRANCH   8  10
ENDBRANCH   7   8
ENDBRANCH   6   7
ENDBRANCH   4   6
ENDBRANCH   2   4
TORSDOF 5
ENDMDL
MODEL        9
REMARK 921   NORMALIZED FREE ENERGY PREDICTED BY IDOCK:   -3.50 KCAL/MOL
REMARK 922        TOTAL FREE ENERGY PREDICTED BY IDOCK:   -4.61 KCAL/MOL
REMARK 923 INTER-LIGAND FREE ENERGY PREDICTED BY IDOCK:   -4.40 KCAL/MOL
REMARK 924 INTRA-LIGAND FREE ENERGY PREDICTED BY IDOCK:   -0.21 KCAL/MOL
REMARK 927      BINDING AFFINITY PREDICTED BY RF-SCORE:    0.00 PKD
ROOT
HETATM    1  C   UNL     1     -12.516  13.721  71.306  1.00  0.00    -0.345 C  
HETATM    2  N   UNL     1     -12.148  12.947  70.120  1.00  0.00    -0.337 N  
HETATM    3  C   UNL     1     -12.007  11.504  70.312  1.00  0.00    -0.368 C  
ENDROOT
BRANCH   2   4
HETATM    4  C   UNL     1     -11.889  13.584  68.888  1.00  0.00    -0.345 C  
HETATM    5  S   UNL     1     -11.619  15.243  68.714  1.00  0.00    -0.363 S  
BRANCH   4   6
HETATM    6  S   UNL     1     -11.762  12.521  67.465  1.00  0.00    -0.335 SA 
BRANCH   6   7
HETATM    7  S   UNL     1     -10.057  13.225  66.532  1.00  0.00    -0.280 SA 
BRANCH   7   8
HETATM    8  C   UNL     1     -10.723  13.847  65.008  1.00  0.00    -0.386 C  
HETATM    9  S   UNL     1     -10.865  15.522  64.859  1.00  0.00    -0.364 S  
BRANCH   8  10
HETATM   10  N   UNL     1     -11.042  12.910  64.007  1.00  0.00    -0.393 N  
HETATM   11  C   UNL     1     -12.359  12.766  63.383  1.00  0.00    -0.437 C  
HETATM   12  C   UNL     1     -10.057  11.960  63.477  1.00  0.00    -0.441 C  
ENDBRANCH   8  10
ENDBRANCH   7   8
ENDBRANCH   6   7
ENDBRANCH   4   6
ENDBRANCH   2   4
TORSDOF 5
ENDMDL
MODEL       10
REMARK 921   NORMALIZED FREE ENERGY PREDICTED BY IDOCK:   -3.50 KCAL/MOL
REMARK 922        TOTAL FREE ENERGY PREDICTED BY IDOCK:   -4.61 KCAL/MOL
REMARK 923 INTER-LIGAND FREE ENERGY PREDICTED BY IDOCK:   -4.40 KCAL/MOL
REMARK 924 INTRA-LIGAND FREE ENERGY PREDICTED BY IDOCK:   -0.21 KCAL/MOL
REMARK 927      BINDING AFFINITY PREDICTED BY RF-SCORE:    0.00 PKD
ROOT
HETATM    1  C   UNL     1     -10.061  11.733  63.435  1.00  0.00    -0.446 C  
HETATM    2  N   UNL     1     -11.232  12.446  63.946  1.00  0.00    -0.385 N  
HETATM    3  C   UNL     1     -12.530  11.991  63.451  1.00  0.00    -0.509 C  
ENDROOT
BRANCH   2   4
HETATM    4  C   UNL     1     -11.088  13.545  64.819  1.00  0.00    -0.359 C  
HETATM    5  S   UNL     1     -11.782  15.064  64.558  1.00  0.00    -0.298 S  
BRANCH   4   6
HETATM    6  S   UNL     1     -10.183  13.243  66.323  1.00  0.00    -0.301 SA 
BRANCH   6   7
HETATM    7  S   UNL     1     -11.603  12.347  67.527  1.00  0.00    -0.359 SA 
BRANCH   7   8
HETATM    8  C   UNL     1     -11.718  13.514  68.861  1.00  0.00    -0.339 C  
HETATM    9  S   UNL     1     -11.397  15.131  68.496  1.00  0.00    -0.324 S  
BRANCH   8  10
HETATM   10  N   UNL     1     -12.117  13.027  70.120  1.00  0.00    -0.338 N  
HETATM   11  C   UNL     1     -12.542  13.862  71.245  1.00  0.00    -0.371 C  
HETATM   12  C   UNL     1     -12.145  11.594  70.435  1.00  0.00    -0.373 C  
ENDBRANCH   8  10
ENDBRANCH   7   8
ENDBRANCH   6   7
ENDBRANCH   4   6
ENDBRANCH   2   4
TORSDOF 5
ENDMDL
MODEL       11
REMARK 921   NORMALIZED FREE ENERGY PREDICTED BY IDOCK:   -3.49 KCAL/MOL
REMARK 922        TOTAL FREE ENERGY PREDICTED BY IDOCK:   -4.60 KCAL/MOL
REMARK 923 INTER-LIGAND FREE ENERGY PREDICTED BY IDOCK:   -4.35 KCAL/MOL
REMARK 924 INTRA-LIGAND FREE ENERGY PREDICTED BY IDOCK:   -0.25 KCAL/MOL
REMARK 927      BINDING AFFINITY PREDICTED BY RF-SCORE:    0.00 PKD
ROOT
HETATM    1  C   UNL     1     -12.529  12.041  63.519  1.00  0.00    -0.540 C  
HETATM    2  N   UNL     1     -11.489  11.873  64.533  1.00  0.00    -0.317 N  
HETATM    3  C   UNL     1     -10.328  11.077  64.139  1.00  0.00    -0.369 C  
ENDROOT
BRANCH   2   4
HETATM    4  C   UNL     1     -11.647  12.407  65.830  1.00  0.00    -0.398 C  
HETATM    5  S   UNL     1     -11.090  11.659  67.240  1.00  0.00    -0.306 S  
BRANCH   4   6
HETATM    6  S   UNL     1     -12.408  14.014  65.932  1.00  0.00    -0.467 SA 
BRANCH   6   7
HETATM    7  S   UNL     1     -11.003  15.232  65.031  1.00  0.00    -0.436 SA 
BRANCH   7   8
HETATM    8  C   UNL     1     -10.073  15.794  66.436  1.00  0.00    -0.291 C  
HETATM    9  S   UNL     1      -8.753  14.853  66.908  1.00  0.00    -0.239 S  
BRANCH   8  10
HETATM   10  N   UNL     1     -10.464  17.008  67.032  1.00  0.00    -0.306 N  
HETATM   11  C   UNL     1     -10.904  17.155  68.421  1.00  0.00    -0.309 C  
HETATM   12  C   UNL     1     -10.469  18.278  66.298  1.00  0.00    -0.376 C  
ENDBRANCH   8  10
ENDBRANCH   7   8
ENDBRANCH   6   7
ENDBRANCH   4   6
ENDBRANCH   2   4
TORSDOF 5
ENDMDL
MODEL       12
REMARK 921   NORMALIZED FREE ENERGY PREDICTED BY IDOCK:   -3.47 KCAL/MOL
REMARK 922        TOTAL FREE ENERGY PREDICTED BY IDOCK:   -4.58 KCAL/MOL
REMARK 923 INTER-LIGAND FREE ENERGY PREDICTED BY IDOCK:   -4.36 KCAL/MOL
REMARK 924 INTRA-LIGAND FREE ENERGY PREDICTED BY IDOCK:   -0.22 KCAL/MOL
REMARK 927      BINDING AFFINITY PREDICTED BY RF-SCORE:    0.00 PKD
ROOT
HETATM    1  C   UNL     1     -12.111  14.431  64.624  1.00  0.00    -0.471 C  
HETATM    2  N   UNL     1     -10.991  14.550  65.557  1.00  0.00    -0.319 N  
HETATM    3  C   UNL     1     -10.301  15.840  65.573  1.00  0.00    -0.404 C  
ENDROOT
BRANCH   2   4
HETATM    4  C   UNL     1     -10.579  13.452  66.342  1.00  0.00    -0.285 C  
HETATM    5  S   UNL     1     -10.441  11.870  65.765  1.00  0.00    -0.267 S  
BRANCH   4   6
HETATM    6  S   UNL     1     -10.100  13.818  68.017  1.00  0.00    -0.251 SA 
BRANCH   6   7
HETATM    7  S   UNL     1     -11.850  14.557  68.832  1.00  0.00    -0.310 SA 
BRANCH   7   8
HETATM    8  C   UNL     1     -12.135  13.405  70.153  1.00  0.00    -0.344 C  
HETATM    9  S   UNL     1     -11.832  11.776  69.829  1.00  0.00    -0.338 S  
BRANCH   8  10
HETATM   10  N   UNL     1     -12.546  13.927  71.394  1.00  0.00    -0.360 N  
HETATM   11  C   UNL     1     -13.626  13.379  72.217  1.00  0.00    -0.605 C  
HETATM   12  C   UNL     1     -11.913  15.104  72.000  1.00  0.00    -0.403 C  
ENDBRANCH   8  10
ENDBRANCH   7   8
ENDBRANCH   6   7
ENDBRANCH   4   6
ENDBRANCH   2   4
TORSDOF 5
ENDMDL
MODEL       13
REMARK 921   NORMALIZED FREE ENERGY PREDICTED BY IDOCK:   -3.47 KCAL/MOL
REMARK 922        TOTAL FREE ENERGY PREDICTED BY IDOCK:   -4.57 KCAL/MOL
REMARK 923 INTER-LIGAND FREE ENERGY PREDICTED BY IDOCK:   -4.35 KCAL/MOL
REMARK 924 INTRA-LIGAND FREE ENERGY PREDICTED BY IDOCK:   -0.22 KCAL/MOL
REMARK 927      BINDING AFFINITY PREDICTED BY RF-SCORE:    0.00 PKD
ROOT
HETATM    1  C   UNL     1     -13.616  13.202  72.188  1.00  0.00    -0.544 C  
HETATM    2  N   UNL     1     -13.033  14.050  71.148  1.00  0.00    -0.337 N  
HETATM    3  C   UNL     1     -13.338  15.477  71.235  1.00  0.00    -0.511 C  
ENDROOT
BRANCH   2   4
HETATM    4  C   UNL     1     -12.274  13.492  70.097  1.00  0.00    -0.330 C  
HETATM    5  S   UNL     1     -11.999  11.837  69.898  1.00  0.00    -0.311 S  
BRANCH   4   6
HETATM    6  S   UNL     1     -11.661  14.635  68.877  1.00  0.00    -0.309 SA 
BRANCH   6   7
HETATM    7  S   UNL     1     -10.057  13.611  68.071  1.00  0.00    -0.256 SA 
BRANCH   7   8
HETATM    8  C   UNL     1     -10.720  13.099  66.505  1.00  0.00    -0.279 C  
HETATM    9  S   UNL     1     -10.579  11.464  66.110  1.00  0.00    -0.261 S  
BRANCH   8  10
HETATM   10  N   UNL     1     -11.362  14.075  65.719  1.00  0.00    -0.307 N  
HETATM   11  C   UNL     1     -10.719  15.278  65.188  1.00  0.00    -0.436 C  
HETATM   12  C   UNL     1     -12.777  13.977  65.347  1.00  0.00    -0.471 C  
ENDBRANCH   8  10
ENDBRANCH   7   8
ENDBRANCH   6   7
ENDBRANCH   4   6
ENDBRANCH   2   4
TORSDOF 5
ENDMDL
MODEL       14
REMARK 921   NORMALIZED FREE ENERGY PREDICTED BY IDOCK:   -3.47 KCAL/MOL
REMARK 922        TOTAL FREE ENERGY PREDICTED BY IDOCK:   -4.57 KCAL/MOL
REMARK 923 INTER-LIGAND FREE ENERGY PREDICTED BY IDOCK:   -4.43 KCAL/MOL
REMARK 924 INTRA-LIGAND FREE ENERGY PREDICTED BY IDOCK:   -0.14 KCAL/MOL
REMARK 927      BINDING AFFINITY PREDICTED BY RF-SCORE:    0.00 PKD
ROOT
HETATM    1  C   UNL     1     -12.433  12.544  64.615  1.00  0.00    -0.463 C  
HETATM    2  N   UNL     1     -11.197  12.177  65.306  1.00  0.00    -0.324 N  
HETATM    3  C   UNL     1     -10.455  11.050  64.743  1.00  0.00    -0.316 C  
ENDROOT
BRANCH   2   4
HETATM    4  C   UNL     1     -10.797  12.846  66.482  1.00  0.00    -0.271 C  
HETATM    5  S   UNL     1      -9.288  12.655  67.218  1.00  0.00    -0.202 S  
BRANCH   4   6
HETATM    6  S   UNL     1     -11.954  14.025  67.149  1.00  0.00    -0.405 SA 
BRANCH   6   7
HETATM    7  S   UNL     1     -11.910  13.598  69.171  1.00  0.00    -0.355 SA 
BRANCH   7   8
HETATM    8  C   UNL     1     -11.798  15.226  69.870  1.00  0.00    -0.335 C  
HETATM    9  S   UNL     1     -10.905  16.372  69.009  1.00  0.00    -0.337 S  
BRANCH   8  10
HETATM   10  N   UNL     1     -12.499  15.471  71.067  1.00  0.00    -0.404 N  
HETATM   11  C   UNL     1     -11.929  16.108  72.256  1.00  0.00    -0.546 C  
HETATM   12  C   UNL     1     -13.907  15.101  71.242  1.00  0.00    -0.472 C  
ENDBRANCH   8  10
ENDBRANCH   7   8
ENDBRANCH   6   7
ENDBRANCH   4   6
ENDBRANCH   2   4
TORSDOF 5
ENDMDL
MODEL       15
REMARK 921   NORMALIZED FREE ENERGY PREDICTED BY IDOCK:   -3.46 KCAL/MOL
REMARK 922        TOTAL FREE ENERGY PREDICTED BY IDOCK:   -4.56 KCAL/MOL
REMARK 923 INTER-LIGAND FREE ENERGY PREDICTED BY IDOCK:   -4.33 KCAL/MOL
REMARK 924 INTRA-LIGAND FREE ENERGY PREDICTED BY IDOCK:   -0.24 KCAL/MOL
REMARK 927      BINDING AFFINITY PREDICTED BY RF-SCORE:    0.00 PKD
ROOT
HETATM    1  C   UNL     1     -10.554  12.900  64.359  1.00  0.00    -0.396 C  
HETATM    2  N   UNL     1     -11.425  13.352  65.444  1.00  0.00    -0.299 N  
HETATM    3  C   UNL     1     -12.817  13.617  65.083  1.00  0.00    -0.329 C  
ENDROOT
BRANCH   2   4
HETATM    4  C   UNL     1     -10.916  13.571  66.741  1.00  0.00    -0.292 C  
HETATM    5  S   UNL     1     -11.512  12.824  68.135  1.00  0.00    -0.337 S  
BRANCH   4   6
HETATM    6  S   UNL     1      -9.498  14.642  66.859  1.00  0.00    -0.258 SA 
BRANCH   6   7
HETATM    7  S   UNL     1     -10.196  16.401  66.029  1.00  0.00    -0.361 SA 
BRANCH   7   8
HETATM    8  C   UNL     1     -10.345  17.432  67.467  1.00  0.00    -0.351 C  
HETATM    9  S   UNL     1     -10.433  16.654  68.963  1.00  0.00    -0.346 S  
BRANCH   8  10
HETATM   10  N   UNL     1     -10.330  18.826  67.274  1.00  0.00    -0.392 N  
HETATM   11  C   UNL     1     -10.437  19.492  65.974  1.00  0.00    -0.516 C  
HETATM   12  C   UNL     1     -10.201  19.773  68.387  1.00  0.00    -0.449 C  
ENDBRANCH   8  10
ENDBRANCH   7   8
ENDBRANCH   6   7
ENDBRANCH   4   6
ENDBRANCH   2   4
TORSDOF 5
ENDMDL
MODEL       16
REMARK 921   NORMALIZED FREE ENERGY PREDICTED BY IDOCK:   -3.43 KCAL/MOL
REMARK 922        TOTAL FREE ENERGY PREDICTED BY IDOCK:   -4.53 KCAL/MOL
REMARK 923 INTER-LIGAND FREE ENERGY PREDICTED BY IDOCK:   -4.43 KCAL/MOL
REMARK 924 INTRA-LIGAND FREE ENERGY PREDICTED BY IDOCK:   -0.09 KCAL/MOL
REMARK 927      BINDING AFFINITY PREDICTED BY RF-SCORE:    0.00 PKD
ROOT
HETATM    1  C   UNL     1     -10.095  11.530  63.453  1.00  0.00    -0.420 C  
HETATM    2  N   UNL     1     -11.221  12.166  64.136  1.00  0.00    -0.340 N  
HETATM    3  C   UNL     1     -12.531  12.000  63.510  1.00  0.00    -0.540 C  
ENDROOT
BRANCH   2   4
HETATM    4  C   UNL     1     -11.021  12.941  65.298  1.00  0.00    -0.283 C  
HETATM    5  S   UNL     1     -10.517  14.554  65.291  1.00  0.00    -0.414 S  
BRANCH   4   6
HETATM    6  S   UNL     1     -11.421  12.156  66.846  1.00  0.00    -0.338 SA 
BRANCH   6   7
HETATM    7  S   UNL     1     -11.673  13.769  68.113  1.00  0.00    -0.373 SA 
BRANCH   7   8
HETATM    8  C   UNL     1     -11.951  12.954  69.667  1.00  0.00    -0.292 C  
HETATM    9  S   UNL     1     -11.586  11.308  69.746  1.00  0.00    -0.349 S  
BRANCH   8  10
HETATM   10  N   UNL     1     -12.409  13.740  70.742  1.00  0.00    -0.363 N  
HETATM   11  C   UNL     1     -12.044  15.139  70.971  1.00  0.00    -0.333 C  
HETATM   12  C   UNL     1     -13.320  13.216  71.765  1.00  0.00    -0.389 C  
ENDBRANCH   8  10
ENDBRANCH   7   8
ENDBRANCH   6   7
ENDBRANCH   4   6
ENDBRANCH   2   4
TORSDOF 5
ENDMDL
MODEL       17
REMARK 921   NORMALIZED FREE ENERGY PREDICTED BY IDOCK:   -3.43 KCAL/MOL
REMARK 922        TOTAL FREE ENERGY PREDICTED BY IDOCK:   -4.53 KCAL/MOL
REMARK 923 INTER-LIGAND FREE ENERGY PREDICTED BY IDOCK:   -4.33 KCAL/MOL
REMARK 924 INTRA-LIGAND FREE ENERGY PREDICTED BY IDOCK:   -0.19 KCAL/MOL
REMARK 927      BINDING AFFINITY PREDICTED BY RF-SCORE:    0.00 PKD
ROOT
HETATM    1  C   UNL     1      -7.853  19.054  66.113  1.00  0.00    -0.264 C  
HETATM    2  N   UNL     1      -9.229  18.672  66.433  1.00  0.00    -0.311 N  
HETATM    3  C   UNL     1     -10.269  19.622  66.040  1.00  0.00    -0.493 C  
ENDROOT
BRANCH   2   4
HETATM    4  C   UNL     1      -9.507  17.480  67.135  1.00  0.00    -0.259 C  
HETATM    5  S   UNL     1     -10.236  17.423  68.659  1.00  0.00    -0.370 S  
BRANCH   4   6
HETATM    6  S   UNL     1      -9.128  15.961  66.287  1.00  0.00    -0.357 SA 
BRANCH   6   7
HETATM    7  S   UNL     1     -10.803  15.678  65.109  1.00  0.00    -0.419 SA 
BRANCH   7   8
HETATM    8  C   UNL     1     -11.267  14.022  65.553  1.00  0.00    -0.311 C  
HETATM    9  S   UNL     1     -11.795  13.771  67.137  1.00  0.00    -0.411 S  
BRANCH   8  10
HETATM   10  N   UNL     1     -11.214  13.039  64.546  1.00  0.00    -0.323 N  
HETATM   11  C   UNL     1     -12.140  12.948  63.415  1.00  0.00    -0.530 C  
HETATM   12  C   UNL     1     -10.199  11.981  64.534  1.00  0.00    -0.286 C  
ENDBRANCH   8  10
ENDBRANCH   7   8
ENDBRANCH   6   7
ENDBRANCH   4   6
ENDBRANCH   2   4
TORSDOF 5
ENDMDL
MODEL       18
REMARK 921   NORMALIZED FREE ENERGY PREDICTED BY IDOCK:   -3.43 KCAL/MOL
REMARK 922        TOTAL FREE ENERGY PREDICTED BY IDOCK:   -4.52 KCAL/MOL
REMARK 923 INTER-LIGAND FREE ENERGY PREDICTED BY IDOCK:   -4.32 KCAL/MOL
REMARK 924 INTRA-LIGAND FREE ENERGY PREDICTED BY IDOCK:   -0.20 KCAL/MOL
REMARK 927      BINDING AFFINITY PREDICTED BY RF-SCORE:    0.00 PKD
ROOT
HETATM    1  C   UNL     1     -12.526  11.996  63.368  1.00  0.00    -0.509 C  
HETATM    2  N   UNL     1     -11.202  12.247  63.936  1.00  0.00    -0.382 N  
HETATM    3  C   UNL     1     -10.068  11.704  63.190  1.00  0.00    -0.376 C  
ENDROOT
BRANCH   2   4
HETATM    4  C   UNL     1     -11.055  12.923  65.166  1.00  0.00    -0.292 C  
HETATM    5  S   UNL     1     -10.924  12.154  66.665  1.00  0.00    -0.297 S  
BRANCH   4   6
HETATM    6  S   UNL     1     -10.916  14.697  65.076  1.00  0.00    -0.421 SA 
BRANCH   6   7
HETATM    7  S   UNL     1      -9.506  15.109  66.530  1.00  0.00    -0.302 SA 
BRANCH   7   8
HETATM    8  C   UNL     1     -10.408  16.212  67.590  1.00  0.00    -0.288 C  
HETATM    9  S   UNL     1     -11.450  15.511  68.718  1.00  0.00    -0.371 S  
BRANCH   8  10
HETATM   10  N   UNL     1     -10.159  17.591  67.457  1.00  0.00    -0.313 N  
HETATM   11  C   UNL     1     -10.286  18.349  66.210  1.00  0.00    -0.406 C  
HETATM   12  C   UNL     1      -9.736  18.425  68.587  1.00  0.00    -0.361 C  
ENDBRANCH   8  10
ENDBRANCH   7   8
ENDBRANCH   6   7
ENDBRANCH   4   6
ENDBRANCH   2   4
TORSDOF 5
ENDMDL
MODEL       19
REMARK 921   NORMALIZED FREE ENERGY PREDICTED BY IDOCK:   -3.41 KCAL/MOL
REMARK 922        TOTAL FREE ENERGY PREDICTED BY IDOCK:   -4.49 KCAL/MOL
REMARK 923 INTER-LIGAND FREE ENERGY PREDICTED BY IDOCK:   -4.40 KCAL/MOL
REMARK 924 INTRA-LIGAND FREE ENERGY PREDICTED BY IDOCK:   -0.10 KCAL/MOL
REMARK 927      BINDING AFFINITY PREDICTED BY RF-SCORE:    0.00 PKD
ROOT
HETATM    1  C   UNL     1     -14.171   7.729  71.717  1.00  0.00    -0.444 C  
HETATM    2  N   UNL     1     -12.714   7.733  71.590  1.00  0.00    -0.328 N  
HETATM    3  C   UNL     1     -12.065   6.422  71.580  1.00  0.00    -0.231 C  
ENDROOT
BRANCH   2   4
HETATM    4  C   UNL     1     -11.992   8.944  71.542  1.00  0.00    -0.333 C  
HETATM    5  S   UNL     1     -10.324   9.048  71.286  1.00  0.00    -0.336 S  
BRANCH   4   6
HETATM    6  S   UNL     1     -12.952  10.438  71.679  1.00  0.00    -0.484 SA 
BRANCH   6   7
HETATM    7  S   UNL     1     -12.137  11.630  70.200  1.00  0.00    -0.310 SA 
BRANCH   7   8
HETATM    8  C   UNL     1     -12.562  13.252  70.784  1.00  0.00    -0.280 C  
HETATM    9  S   UNL     1     -13.421  13.345  72.234  1.00  0.00    -0.582 S  
BRANCH   8  10
HETATM   10  N   UNL     1     -12.114  14.354  70.030  1.00  0.00    -0.323 N  
HETATM   11  C   UNL     1     -11.714  14.298  68.622  1.00  0.00    -0.345 C  
HETATM   12  C   UNL     1     -12.000  15.701  70.599  1.00  0.00    -0.402 C  
ENDBRANCH   8  10
ENDBRANCH   7   8
ENDBRANCH   6   7
ENDBRANCH   4   6
ENDBRANCH   2   4
TORSDOF 5
ENDMDL
MODEL       20
REMARK 921   NORMALIZED FREE ENERGY PREDICTED BY IDOCK:   -3.40 KCAL/MOL
REMARK 922        TOTAL FREE ENERGY PREDICTED BY IDOCK:   -4.49 KCAL/MOL
REMARK 923 INTER-LIGAND FREE ENERGY PREDICTED BY IDOCK:   -4.36 KCAL/MOL
REMARK 924 INTRA-LIGAND FREE ENERGY PREDICTED BY IDOCK:   -0.13 KCAL/MOL
REMARK 927      BINDING AFFINITY PREDICTED BY RF-SCORE:    0.00 PKD
ROOT
HETATM    1  C   UNL     1     -12.540  12.080  63.791  1.00  0.00    -0.454 C  
HETATM    2  N   UNL     1     -12.018  12.745  64.985  1.00  0.00    -0.386 N  
HETATM    3  C   UNL     1     -12.658  14.009  65.350  1.00  0.00    -0.505 C  
ENDROOT
BRANCH   2   4
HETATM    4  C   UNL     1     -10.920  12.211  65.692  1.00  0.00    -0.295 C  
HETATM    5  S   UNL     1     -10.116  10.787  65.265  1.00  0.00    -0.295 S  
BRANCH   4   6
HETATM    6  S   UNL     1     -10.322  13.178  67.063  1.00  0.00    -0.250 SA 
BRANCH   6   7
HETATM    7  S   UNL     1     -11.641  12.676  68.573  1.00  0.00    -0.343 SA 
BRANCH   7   8
HETATM    8  C   UNL     1     -11.864  14.242  69.379  1.00  0.00    -0.326 C  
HETATM    9  S   UNL     1     -11.237  15.602  68.600  1.00  0.00    -0.358 S  
BRANCH   8  10
HETATM   10  N   UNL     1     -12.590  14.257  70.585  1.00  0.00    -0.340 N  
HETATM   11  C   UNL     1     -13.222  15.442  71.169  1.00  0.00    -0.513 C  
HETATM   12  C   UNL     1     -12.788  13.051  71.397  1.00  0.00    -0.292 C  
ENDBRANCH   8  10
ENDBRANCH   7   8
ENDBRANCH   6   7
ENDBRANCH   4   6
ENDBRANCH   2   4
TORSDOF 5
ENDMDL
MODEL       21
REMARK 921   NORMALIZED FREE ENERGY PREDICTED BY IDOCK:   -3.40 KCAL/MOL
REMARK 922        TOTAL FREE ENERGY PREDICTED BY IDOCK:   -4.49 KCAL/MOL
REMARK 923 INTER-LIGAND FREE ENERGY PREDICTED BY IDOCK:   -4.31 KCAL/MOL
REMARK 924 INTRA-LIGAND FREE ENERGY PREDICTED BY IDOCK:   -0.18 KCAL/MOL
REMARK 927      BINDING AFFINITY PREDICTED BY RF-SCORE:    0.00 PKD
ROOT
HETATM    1  C   UNL     1     -12.359  11.981  63.337  1.00  0.00    -0.523 C  
HETATM    2  N   UNL     1     -11.348  11.929  64.394  1.00  0.00    -0.332 N  
HETATM    3  C   UNL     1     -10.323  10.896  64.255  1.00  0.00    -0.368 C  
ENDROOT
BRANCH   2   4
HETATM    4  C   UNL     1     -11.415  12.797  65.505  1.00  0.00    -0.337 C  
HETATM    5  S   UNL     1     -12.555  14.032  65.680  1.00  0.00    -0.452 S  
BRANCH   4   6
HETATM    6  S   UNL     1     -10.261  12.477  66.824  1.00  0.00    -0.234 SA 
BRANCH   6   7
HETATM    7  S   UNL     1     -11.221  11.004  67.910  1.00  0.00    -0.311 SA 
BRANCH   7   8
HETATM    8  C   UNL     1     -11.556  11.854  69.433  1.00  0.00    -0.325 C  
HETATM    9  S   UNL     1     -11.574  13.541  69.382  1.00  0.00    -0.311 S  
BRANCH   8  10
HETATM   10  N   UNL     1     -11.834  11.069  70.569  1.00  0.00    -0.353 N  
HETATM   11  C   UNL     1     -11.164   9.811  70.902  1.00  0.00    -0.359 C  
HETATM   12  C   UNL     1     -12.852  11.448  71.555  1.00  0.00    -0.403 C  
ENDBRANCH   8  10
ENDBRANCH   7   8
ENDBRANCH   6   7
ENDBRANCH   4   6
ENDBRANCH   2   4
TORSDOF 5
ENDMDL
MODEL       22
REMARK 921   NORMALIZED FREE ENERGY PREDICTED BY IDOCK:   -3.40 KCAL/MOL
REMARK 922        TOTAL FREE ENERGY PREDICTED BY IDOCK:   -4.48 KCAL/MOL
REMARK 923 INTER-LIGAND FREE ENERGY PREDICTED BY IDOCK:   -4.39 KCAL/MOL
REMARK 924 INTRA-LIGAND FREE ENERGY PREDICTED BY IDOCK:   -0.10 KCAL/MOL
REMARK 927      BINDING AFFINITY PREDICTED BY RF-SCORE:    0.00 PKD
ROOT
HETATM    1  C   UNL     1     -10.967  12.005  65.176  1.00  0.00    -0.310 C  
HETATM    2  N   UNL     1     -11.773  12.804  66.100  1.00  0.00    -0.382 N  
HETATM    3  C   UNL     1     -12.684  13.771  65.489  1.00  0.00    -0.488 C  
ENDROOT
BRANCH   2   4
HETATM    4  C   UNL     1     -11.619  12.674  67.496  1.00  0.00    -0.359 C  
HETATM    5  S   UNL     1     -11.828  13.938  68.598  1.00  0.00    -0.375 S  
BRANCH   4   6
HETATM    6  S   UNL     1     -11.269  11.035  68.100  1.00  0.00    -0.320 SA 
BRANCH   6   7
HETATM    7  S   UNL     1     -11.892  11.141  70.067  1.00  0.00    -0.389 SA 
BRANCH   7   8
HETATM    8  C   UNL     1     -11.171   9.665  70.743  1.00  0.00    -0.336 C  
HETATM    9  S   UNL     1      -9.684   9.178  70.109  1.00  0.00    -0.220 S  
BRANCH   8  10
HETATM   10  N   UNL     1     -11.857   9.028  71.794  1.00  0.00    -0.348 N  
HETATM   11  C   UNL     1     -13.252   9.282  72.160  1.00  0.00    -0.461 C  
HETATM   12  C   UNL     1     -11.221   8.019  72.649  1.00  0.00    -0.397 C  
ENDBRANCH   8  10
ENDBRANCH   7   8
ENDBRANCH   6   7
ENDBRANCH   4   6
ENDBRANCH   2   4
TORSDOF 5
ENDMDL
MODEL       23
REMARK 921   NORMALIZED FREE ENERGY PREDICTED BY IDOCK:   -3.39 KCAL/MOL
REMARK 922        TOTAL FREE ENERGY PREDICTED BY IDOCK:   -4.48 KCAL/MOL
REMARK 923 INTER-LIGAND FREE ENERGY PREDICTED BY IDOCK:   -4.32 KCAL/MOL
REMARK 924 INTRA-LIGAND FREE ENERGY PREDICTED BY IDOCK:   -0.15 KCAL/MOL
REMARK 927      BINDING AFFINITY PREDICTED BY RF-SCORE:    0.00 PKD
ROOT
HETATM    1  C   UNL     1     -11.997  16.204  72.507  1.00  0.00    -0.561 C  
HETATM    2  N   UNL     1     -12.594  15.532  71.353  1.00  0.00    -0.398 N  
HETATM    3  C   UNL     1     -13.987  15.112  71.502  1.00  0.00    -0.522 C  
ENDROOT
BRANCH   2   4
HETATM    4  C   UNL     1     -11.833  15.260  70.196  1.00  0.00    -0.323 C  
HETATM    5  S   UNL     1     -11.975  13.852  69.273  1.00  0.00    -0.352 S  
BRANCH   4   6
HETATM    6  S   UNL     1     -10.726  16.550  69.663  1.00  0.00    -0.272 SA 
BRANCH   6   7
HETATM    7  S   UNL     1     -10.854  16.424  67.604  1.00  0.00    -0.232 SA 
BRANCH   7   8
HETATM    8  C   UNL     1      -9.450  17.391  67.106  1.00  0.00    -0.257 C  
HETATM    9  S   UNL     1      -8.134  16.555  66.458  1.00  0.00    -0.324 S  
BRANCH   8  10
HETATM   10  N   UNL     1      -9.543  18.790  67.236  1.00  0.00    -0.299 N  
HETATM   11  C   UNL     1     -10.783  19.560  67.125  1.00  0.00    -0.482 C  
HETATM   12  C   UNL     1      -8.373  19.634  67.502  1.00  0.00    -0.302 C  
ENDBRANCH   8  10
ENDBRANCH   7   8
ENDBRANCH   6   7
ENDBRANCH   4   6
ENDBRANCH   2   4
TORSDOF 5
ENDMDL
MODEL       24
REMARK 921   NORMALIZED FREE ENERGY PREDICTED BY IDOCK:   -3.39 KCAL/MOL
REMARK 922        TOTAL FREE ENERGY PREDICTED BY IDOCK:   -4.48 KCAL/MOL
REMARK 923 INTER-LIGAND FREE ENERGY PREDICTED BY IDOCK:   -4.24 KCAL/MOL
REMARK 924 INTRA-LIGAND FREE ENERGY PREDICTED BY IDOCK:   -0.23 KCAL/MOL
REMARK 927      BINDING AFFINITY PREDICTED BY RF-SCORE:    0.00 PKD
ROOT
HETATM    1  C   UNL     1     -12.928  11.826  71.560  1.00  0.00    -0.341 C  
HETATM    2  N   UNL     1     -12.904  13.281  71.409  1.00  0.00    -0.356 N  
HETATM    3  C   UNL     1     -13.782  14.035  72.302  1.00  0.00    -0.548 C  
ENDROOT
BRANCH   2   4
HETATM    4  C   UNL     1     -12.117  13.894  70.412  1.00  0.00    -0.351 C  
HETATM    5  S   UNL     1     -11.552  15.485  70.490  1.00  0.00    -0.384 S  
BRANCH   4   6
HETATM    6  S   UNL     1     -11.638  12.861  69.042  1.00  0.00    -0.339 SA 
BRANCH   6   7
HETATM    7  S   UNL     1      -9.959  13.827  68.319  1.00  0.00    -0.244 SA 
BRANCH   7   8
HETATM    8  C   UNL     1     -10.580  14.526  66.809  1.00  0.00    -0.276 C  
HETATM    9  S   UNL     1     -10.303  16.171  66.555  1.00  0.00    -0.309 S  
BRANCH   8  10
HETATM   10  N   UNL     1     -11.216  13.656  65.903  1.00  0.00    -0.303 N  
HETATM   11  C   UNL     1     -12.567  13.844  65.369  1.00  0.00    -0.507 C  
HETATM   12  C   UNL     1     -10.568  12.444  65.391  1.00  0.00    -0.284 C  
ENDBRANCH   8  10
ENDBRANCH   7   8
ENDBRANCH   6   7
ENDBRANCH   4   6
ENDBRANCH   2   4
TORSDOF 5
ENDMDL
MODEL       25
REMARK 921   NORMALIZED FREE ENERGY PREDICTED BY IDOCK:   -3.39 KCAL/MOL
REMARK 922        TOTAL FREE ENERGY PREDICTED BY IDOCK:   -4.47 KCAL/MOL
REMARK 923 INTER-LIGAND FREE ENERGY PREDICTED BY IDOCK:   -4.29 KCAL/MOL
REMARK 924 INTRA-LIGAND FREE ENERGY PREDICTED BY IDOCK:   -0.18 KCAL/MOL
REMARK 927      BINDING AFFINITY PREDICTED BY RF-SCORE:    0.00 PKD
ROOT
HETATM    1  C   UNL     1     -11.563  11.929  67.843  1.00  0.00    -0.323 C  
HETATM    2  N   UNL     1     -11.287  11.764  66.416  1.00  0.00    -0.329 N  
HETATM    3  C   UNL     1     -10.403  10.657  66.055  1.00  0.00    -0.225 C  
ENDROOT
BRANCH   2   4
HETATM    4  C   UNL     1     -11.805  12.671  65.467  1.00  0.00    -0.431 C  
HETATM    5  S   UNL     1     -12.082  12.292  63.843  1.00  0.00    -0.531 S  
BRANCH   4   6
HETATM    6  S   UNL     1     -12.264  14.278  66.082  1.00  0.00    -0.365 SA 
BRANCH   6   7
HETATM    7  S   UNL     1     -10.479  15.315  65.998  1.00  0.00    -0.336 SA 
BRANCH   7   8
HETATM    8  C   UNL     1     -10.660  16.436  67.363  1.00  0.00    -0.306 C  
HETATM    9  S   UNL     1     -11.414  15.840  68.751  1.00  0.00    -0.398 S  
BRANCH   8  10
HETATM   10  N   UNL     1     -10.122  17.729  67.220  1.00  0.00    -0.324 N  
HETATM   11  C   UNL     1      -9.199  18.361  68.166  1.00  0.00    -0.312 C  
HETATM   12  C   UNL     1     -10.442  18.592  66.078  1.00  0.00    -0.414 C  
ENDBRANCH   8  10
ENDBRANCH   7   8
ENDBRANCH   6   7
ENDBRANCH   4   6
ENDBRANCH   2   4
TORSDOF 5
ENDMDL
MODEL       26
REMARK 921   NORMALIZED FREE ENERGY PREDICTED BY IDOCK:   -3.38 KCAL/MOL
REMARK 922        TOTAL FREE ENERGY PREDICTED BY IDOCK:   -4.46 KCAL/MOL
REMARK 923 INTER-LIGAND FREE ENERGY PREDICTED BY IDOCK:   -4.35 KCAL/MOL
REMARK 924 INTRA-LIGAND FREE ENERGY PREDICTED BY IDOCK:   -0.12 KCAL/MOL
REMARK 927      BINDING AFFINITY PREDICTED BY RF-SCORE:    0.00 PKD
ROOT
HETATM    1  C   UNL     1     -13.915  13.975  72.315  1.00  0.00    -0.553 C  
HETATM    2  N   UNL     1     -12.657  14.661  72.021  1.00  0.00    -0.326 N  
HETATM    3  C   UNL     1     -12.216  15.647  73.006  1.00  0.00    -0.466 C  
ENDROOT
BRANCH   2   4
HETATM    4  C   UNL     1     -11.959  14.414  70.820  1.00  0.00    -0.323 C  
HETATM    5  S   UNL     1     -12.002  12.948  69.979  1.00  0.00    -0.243 S  
BRANCH   4   6
HETATM    6  S   UNL     1     -11.058  15.789  70.136  1.00  0.00    -0.380 SA 
BRANCH   6   7
HETATM    7  S   UNL     1      -9.977  14.903  68.614  1.00  0.00    -0.229 SA 
BRANCH   7   8
HETATM    8  C   UNL     1     -10.559  15.806  67.199  1.00  0.00    -0.313 C  
HETATM    9  S   UNL     1     -10.219  17.459  67.151  1.00  0.00    -0.327 S  
BRANCH   8  10
HETATM   10  N   UNL     1     -11.219  15.079  66.190  1.00  0.00    -0.334 N  
HETATM   11  C   UNL     1     -11.157  15.388  64.760  1.00  0.00    -0.403 C  
HETATM   12  C   UNL     1     -12.057  13.912  66.482  1.00  0.00    -0.449 C  
ENDBRANCH   8  10
ENDBRANCH   7   8
ENDBRANCH   6   7
ENDBRANCH   4   6
ENDBRANCH   2   4
TORSDOF 5
ENDMDL
MODEL       27
REMARK 921   NORMALIZED FREE ENERGY PREDICTED BY IDOCK:   -3.37 KCAL/MOL
REMARK 922        TOTAL FREE ENERGY PREDICTED BY IDOCK:   -4.44 KCAL/MOL
REMARK 923 INTER-LIGAND FREE ENERGY PREDICTED BY IDOCK:   -4.35 KCAL/MOL
REMARK 924 INTRA-LIGAND FREE ENERGY PREDICTED BY IDOCK:   -0.09 KCAL/MOL
REMARK 927      BINDING AFFINITY PREDICTED BY RF-SCORE:    0.00 PKD
ROOT
HETATM    1  C   UNL     1     -13.146  11.602  71.764  1.00  0.00    -0.382 C  
HETATM    2  N   UNL     1     -12.401  10.434  71.292  1.00  0.00    -0.377 N  
HETATM    3  C   UNL     1     -12.690   9.170  71.967  1.00  0.00    -0.398 C  
ENDROOT
BRANCH   2   4
HETATM    4  C   UNL     1     -11.421  10.558  70.284  1.00  0.00    -0.333 C  
HETATM    5  S   UNL     1     -10.115   9.502  70.094  1.00  0.00    -0.265 S  
BRANCH   4   6
HETATM    6  S   UNL     1     -11.664  11.872  69.107  1.00  0.00    -0.324 SA 
BRANCH   6   7
HETATM    7  S   UNL     1     -10.823  11.092  67.387  1.00  0.00    -0.291 SA 
BRANCH   7   8
HETATM    8  C   UNL     1     -11.326  12.290  66.177  1.00  0.00    -0.353 C  
HETATM    9  S   UNL     1     -11.882  13.776  66.754  1.00  0.00    -0.436 S  
BRANCH   8  10
HETATM   10  N   UNL     1     -11.182  11.945  64.820  1.00  0.00    -0.310 N  
HETATM   11  C   UNL     1     -10.171  11.026  64.292  1.00  0.00    -0.352 C  
HETATM   12  C   UNL     1     -12.054  12.489  63.774  1.00  0.00    -0.529 C  
ENDBRANCH   8  10
ENDBRANCH   7   8
ENDBRANCH   6   7
ENDBRANCH   4   6
ENDBRANCH   2   4
TORSDOF 5
ENDMDL
MODEL       28
REMARK 921   NORMALIZED FREE ENERGY PREDICTED BY IDOCK:   -3.37 KCAL/MOL
REMARK 922        TOTAL FREE ENERGY PREDICTED BY IDOCK:   -4.44 KCAL/MOL
REMARK 923 INTER-LIGAND FREE ENERGY PREDICTED BY IDOCK:   -4.29 KCAL/MOL
REMARK 924 INTRA-LIGAND FREE ENERGY PREDICTED BY IDOCK:   -0.15 KCAL/MOL
REMARK 927      BINDING AFFINITY PREDICTED BY RF-SCORE:    0.00 PKD
ROOT
HETATM    1  C   UNL     1     -10.413  12.614  65.286  1.00  0.00    -0.289 C  
HETATM    2  N   UNL     1     -11.027  13.921  65.526  1.00  0.00    -0.295 N  
HETATM    3  C   UNL     1     -12.129  14.287  64.637  1.00  0.00    -0.463 C  
ENDROOT
BRANCH   2   4
HETATM    4  C   UNL     1     -10.528  14.785  66.523  1.00  0.00    -0.291 C  
HETATM    5  S   UNL     1      -9.027  15.557  66.448  1.00  0.00    -0.329 S  
BRANCH   4   6
HETATM    6  S   UNL     1     -11.621  15.125  67.888  1.00  0.00    -0.252 SA 
BRANCH   6   7
HETATM    7  S   UNL     1     -11.390  13.448  69.073  1.00  0.00    -0.296 SA 
BRANCH   7   8
HETATM    8  C   UNL     1     -12.071  14.012  70.614  1.00  0.00    -0.354 C  
HETATM    9  S   UNL     1     -11.779  15.619  71.040  1.00  0.00    -0.445 S  
BRANCH   8  10
HETATM   10  N   UNL     1     -12.850  13.101  71.353  1.00  0.00    -0.354 N  
HETATM   11  C   UNL     1     -13.903  13.476  72.300  1.00  0.00    -0.581 C  
HETATM   12  C   UNL     1     -12.677  11.649  71.244  1.00  0.00    -0.340 C  
ENDBRANCH   8  10
ENDBRANCH   7   8
ENDBRANCH   6   7
ENDBRANCH   4   6
ENDBRANCH   2   4
TORSDOF 5
ENDMDL
MODEL       29
REMARK 921   NORMALIZED FREE ENERGY PREDICTED BY IDOCK:   -3.37 KCAL/MOL
REMARK 922        TOTAL FREE ENERGY PREDICTED BY IDOCK:   -4.44 KCAL/MOL
REMARK 923 INTER-LIGAND FREE ENERGY PREDICTED BY IDOCK:   -4.19 KCAL/MOL
REMARK 924 INTRA-LIGAND FREE ENERGY PREDICTED BY IDOCK:   -0.25 KCAL/MOL
REMARK 927      BINDING AFFINITY PREDICTED BY RF-SCORE:    0.00 PKD
ROOT
HETATM    1  C   UNL     1     -12.774  13.723  65.472  1.00  0.00    -0.488 C  
HETATM    2  N   UNL     1     -11.322  13.715  65.292  1.00  0.00    -0.292 N  
HETATM    3  C   UNL     1     -10.696  15.016  65.058  1.00  0.00    -0.427 C  
ENDROOT
BRANCH   2   4
HETATM    4  C   UNL     1     -10.598  12.505  65.289  1.00  0.00    -0.290 C  
HETATM    5  S   UNL     1     -10.418  11.508  63.936  1.00  0.00    -0.426 S  
BRANCH   4   6
HETATM    6  S   UNL     1      -9.763  12.083  66.805  1.00  0.00    -0.212 SA 
BRANCH   6   7
HETATM    7  S   UNL     1     -11.112  10.813  67.720  1.00  0.00    -0.318 SA 
BRANCH   7   8
HETATM    8  C   UNL     1     -11.474  11.704  69.213  1.00  0.00    -0.300 C  
HETATM    9  S   UNL     1     -11.564  13.386  69.100  1.00  0.00    -0.332 S  
BRANCH   8  10
HETATM   10  N   UNL     1     -11.712  10.952  70.379  1.00  0.00    -0.331 N  
HETATM   11  C   UNL     1     -12.792  11.206  71.334  1.00  0.00    -0.439 C  
HETATM   12  C   UNL     1     -10.875   9.808  70.760  1.00  0.00    -0.333 C  
ENDBRANCH   8  10
ENDBRANCH   7   8
ENDBRANCH   6   7
ENDBRANCH   4   6
ENDBRANCH   2   4
TORSDOF 5
ENDMDL
MODEL       30
REMARK 921   NORMALIZED FREE ENERGY PREDICTED BY IDOCK:   -3.35 KCAL/MOL
REMARK 922        TOTAL FREE ENERGY PREDICTED BY IDOCK:   -4.42 KCAL/MOL
REMARK 923 INTER-LIGAND FREE ENERGY PREDICTED BY IDOCK:   -4.30 KCAL/MOL
REMARK 924 INTRA-LIGAND FREE ENERGY PREDICTED BY IDOCK:   -0.12 KCAL/MOL
REMARK 927      BINDING AFFINITY PREDICTED BY RF-SCORE:    0.00 PKD
ROOT
HETATM    1  C   UNL     1     -10.129  12.454  63.785  1.00  0.00    -0.308 C  
HETATM    2  N   UNL     1     -11.368  12.816  64.475  1.00  0.00    -0.318 N  
HETATM    3  C   UNL     1     -12.603  12.281  63.904  1.00  0.00    -0.440 C  
ENDROOT
BRANCH   2   4
HETATM    4  C   UNL     1     -11.352  13.683  65.588  1.00  0.00    -0.299 C  
HETATM    5  S   UNL     1     -11.838  13.240  67.145  1.00  0.00    -0.358 S  
BRANCH   4   6
HETATM    6  S   UNL     1     -10.686  15.311  65.308  1.00  0.00    -0.441 SA 
BRANCH   6   7
HETATM    7  S   UNL     1     -10.425  16.024  67.230  1.00  0.00    -0.308 SA 
BRANCH   7   8
HETATM    8  C   UNL     1      -9.402  17.446  66.940  1.00  0.00    -0.263 C  
HETATM    9  S   UNL     1      -7.850  17.166  66.339  1.00  0.00    -0.327 S  
BRANCH   8  10
HETATM   10  N   UNL     1      -9.966  18.714  67.181  1.00  0.00    -0.316 N  
HETATM   11  C   UNL     1      -9.974  19.394  68.477  1.00  0.00    -0.434 C  
HETATM   12  C   UNL     1     -10.620  19.496  66.126  1.00  0.00    -0.487 C  
ENDBRANCH   8  10
ENDBRANCH   7   8
ENDBRANCH   6   7
ENDBRANCH   4   6
ENDBRANCH   2   4
TORSDOF 5
ENDMDL
MODEL       31
REMARK 921   NORMALIZED FREE ENERGY PREDICTED BY IDOCK:   -3.34 KCAL/MOL
REMARK 922        TOTAL FREE ENERGY PREDICTED BY IDOCK:   -4.41 KCAL/MOL
REMARK 923 INTER-LIGAND FREE ENERGY PREDICTED BY IDOCK:   -4.11 KCAL/MOL
REMARK 924 INTRA-LIGAND FREE ENERGY PREDICTED BY IDOCK:   -0.30 KCAL/MOL
REMARK 927      BINDING AFFINITY PREDICTED BY RF-SCORE:    0.00 PKD
ROOT
HETATM    1  C   UNL     1     -10.640  17.870  67.510  1.00  0.00    -0.376 C  
HETATM    2  N   UNL     1     -10.785  16.416  67.589  1.00  0.00    -0.326 N  
HETATM    3  C   UNL     1     -11.594  15.909  68.697  1.00  0.00    -0.380 C  
ENDROOT
BRANCH   2   4
HETATM    4  C   UNL     1     -10.124  15.570  66.674  1.00  0.00    -0.267 C  
HETATM    5  S   UNL     1      -8.697  14.731  67.015  1.00  0.00    -0.234 S  
BRANCH   4   6
HETATM    6  S   UNL     1     -10.927  15.330  65.102  1.00  0.00    -0.428 SA 
BRANCH   6   7
HETATM    7  S   UNL     1     -12.458  14.025  65.577  1.00  0.00    -0.497 SA 
BRANCH   7   8
HETATM    8  C   UNL     1     -11.551  12.639  66.217  1.00  0.00    -0.386 C  
HETATM    9  S   UNL     1     -11.755  12.277  67.854  1.00  0.00    -0.305 S  
BRANCH   8  10
HETATM   10  N   UNL     1     -10.762  11.903  65.312  1.00  0.00    -0.275 N  
HETATM   11  C   UNL     1      -9.547  11.167  65.667  1.00  0.00    -0.224 C  
HETATM   12  C   UNL     1     -11.091  11.801  63.886  1.00  0.00    -0.408 C  
ENDBRANCH   8  10
ENDBRANCH   7   8
ENDBRANCH   6   7
ENDBRANCH   4   6
ENDBRANCH   2   4
TORSDOF 5
ENDMDL
MODEL       32
REMARK 921   NORMALIZED FREE ENERGY PREDICTED BY IDOCK:   -3.33 KCAL/MOL
REMARK 922        TOTAL FREE ENERGY PREDICTED BY IDOCK:   -4.39 KCAL/MOL
REMARK 923 INTER-LIGAND FREE ENERGY PREDICTED BY IDOCK:   -4.17 KCAL/MOL
REMARK 924 INTRA-LIGAND FREE ENERGY PREDICTED BY IDOCK:   -0.22 KCAL/MOL
REMARK 927      BINDING AFFINITY PREDICTED BY RF-SCORE:    0.00 PKD
ROOT
HETATM    1  C   UNL     1      -9.772  11.397  63.025  1.00  0.00    -0.371 C  
HETATM    2  N   UNL     1     -10.848  11.736  63.956  1.00  0.00    -0.351 N  
HETATM    3  C   UNL     1     -11.985  12.460  63.390  1.00  0.00    -0.504 C  
ENDROOT
BRANCH   2   4
HETATM    4  C   UNL     1     -10.745  11.426  65.329  1.00  0.00    -0.265 C  
HETATM    5  S   UNL     1      -9.850  10.132  65.947  1.00  0.00    -0.257 S  
BRANCH   4   6
HETATM    6  S   UNL     1     -11.554  12.547  66.451  1.00  0.00    -0.395 SA 
BRANCH   6   7
HETATM    7  S   UNL     1      -9.991  13.733  67.101  1.00  0.00    -0.247 SA 
BRANCH   7   8
HETATM    8  C   UNL     1     -10.576  15.353  66.666  1.00  0.00    -0.306 C  
HETATM    9  S   UNL     1     -10.753  15.688  65.021  1.00  0.00    -0.375 S  
BRANCH   8  10
HETATM   10  N   UNL     1     -10.901  16.232  67.716  1.00  0.00    -0.330 N  
HETATM   11  C   UNL     1     -10.538  17.650  67.764  1.00  0.00    -0.378 C  
HETATM   12  C   UNL     1     -11.655  15.799  68.898  1.00  0.00    -0.394 C  
ENDBRANCH   8  10
ENDBRANCH   7   8
ENDBRANCH   6   7
ENDBRANCH   4   6
ENDBRANCH   2   4
TORSDOF 5
ENDMDL
MODEL       33
REMARK 921   NORMALIZED FREE ENERGY PREDICTED BY IDOCK:   -3.32 KCAL/MOL
REMARK 922        TOTAL FREE ENERGY PREDICTED BY IDOCK:   -4.38 KCAL/MOL
REMARK 923 INTER-LIGAND FREE ENERGY PREDICTED BY IDOCK:   -4.20 KCAL/MOL
REMARK 924 INTRA-LIGAND FREE ENERGY PREDICTED BY IDOCK:   -0.18 KCAL/MOL
REMARK 927      BINDING AFFINITY PREDICTED BY RF-SCORE:    0.00 PKD
ROOT
HETATM    1  C   UNL     1      -9.760  11.088  63.094  1.00  0.00    -0.369 C  
HETATM    2  N   UNL     1     -10.710  11.678  64.037  1.00  0.00    -0.351 N  
HETATM    3  C   UNL     1     -11.935  12.227  63.457  1.00  0.00    -0.533 C  
ENDROOT
BRANCH   2   4
HETATM    4  C   UNL     1     -10.412  11.758  65.414  1.00  0.00    -0.272 C  
HETATM    5  S   UNL     1     -10.143  10.417  66.407  1.00  0.00    -0.227 S  
BRANCH   4   6
HETATM    6  S   UNL     1     -10.232  13.397  66.086  1.00  0.00    -0.306 SA 
BRANCH   6   7
HETATM    7  S   UNL     1     -12.134  13.805  66.785  1.00  0.00    -0.395 SA 
BRANCH   7   8
HETATM    8  C   UNL     1     -11.847  13.923  68.533  1.00  0.00    -0.366 C  
HETATM    9  S   UNL     1     -11.679  12.473  69.383  1.00  0.00    -0.304 S  
BRANCH   8  10
HETATM   10  N   UNL     1     -11.728  15.211  69.089  1.00  0.00    -0.311 N  
HETATM   11  C   UNL     1     -12.188  15.592  70.426  1.00  0.00    -0.406 C  
HETATM   12  C   UNL     1     -11.117  16.327  68.360  1.00  0.00    -0.362 C  
ENDBRANCH   8  10
ENDBRANCH   7   8
ENDBRANCH   6   7
ENDBRANCH   4   6
ENDBRANCH   2   4
TORSDOF 5
ENDMDL
MODEL       34
REMARK 921   NORMALIZED FREE ENERGY PREDICTED BY IDOCK:   -3.32 KCAL/MOL
REMARK 922        TOTAL FREE ENERGY PREDICTED BY IDOCK:   -4.38 KCAL/MOL
REMARK 923 INTER-LIGAND FREE ENERGY PREDICTED BY IDOCK:   -4.29 KCAL/MOL
REMARK 924 INTRA-LIGAND FREE ENERGY PREDICTED BY IDOCK:   -0.09 KCAL/MOL
REMARK 927      BINDING AFFINITY PREDICTED BY RF-SCORE:    0.00 PKD
ROOT
HETATM    1  C   UNL     1     -13.072  11.572  71.813  1.00  0.00    -0.398 C  
HETATM    2  N   UNL     1     -12.288  12.159  70.726  1.00  0.00    -0.358 N  
HETATM    3  C   UNL     1     -11.562  11.217  69.875  1.00  0.00    -0.334 C  
ENDROOT
BRANCH   2   4
HETATM    4  C   UNL     1     -12.205  13.558  70.565  1.00  0.00    -0.361 C  
HETATM    5  S   UNL     1     -12.424  14.674  71.815  1.00  0.00    -0.349 S  
BRANCH   4   6
HETATM    6  S   UNL     1     -11.751  14.137  68.943  1.00  0.00    -0.354 SA 
BRANCH   6   7
HETATM    7  S   UNL     1     -11.038  16.038  69.331  1.00  0.00    -0.351 SA 
BRANCH   7   8
HETATM    8  C   UNL     1     -10.520  16.554  67.713  1.00  0.00    -0.308 C  
HETATM    9  S   UNL     1     -10.307  15.346  66.553  1.00  0.00    -0.298 S  
BRANCH   8  10
HETATM   10  N   UNL     1     -10.368  17.936  67.487  1.00  0.00    -0.363 N  
HETATM   11  C   UNL     1     -10.443  18.584  66.176  1.00  0.00    -0.413 C  
HETATM   12  C   UNL     1     -10.113  18.886  68.575  1.00  0.00    -0.402 C  
ENDBRANCH   8  10
ENDBRANCH   7   8
ENDBRANCH   6   7
ENDBRANCH   4   6
ENDBRANCH   2   4
TORSDOF 5
ENDMDL
MODEL       35
REMARK 921   NORMALIZED FREE ENERGY PREDICTED BY IDOCK:   -3.31 KCAL/MOL
REMARK 922        TOTAL FREE ENERGY PREDICTED BY IDOCK:   -4.36 KCAL/MOL
REMARK 923 INTER-LIGAND FREE ENERGY PREDICTED BY IDOCK:   -4.18 KCAL/MOL
REMARK 924 INTRA-LIGAND FREE ENERGY PREDICTED BY IDOCK:   -0.18 KCAL/MOL
REMARK 927      BINDING AFFINITY PREDICTED BY RF-SCORE:    0.00 PKD
ROOT
HETATM    1  C   UNL     1      -9.051  17.611  68.426  1.00  0.00    -0.277 C  
HETATM    2  N   UNL     1     -10.060  17.299  67.414  1.00  0.00    -0.297 N  
HETATM    3  C   UNL     1     -10.406  18.381  66.494  1.00  0.00    -0.400 C  
ENDROOT
BRANCH   2   4
HETATM    4  C   UNL     1     -10.694  16.038  67.385  1.00  0.00    -0.306 C  
HETATM    5  S   UNL     1     -11.606  15.404  68.659  1.00  0.00    -0.352 S  
BRANCH   4   6
HETATM    6  S   UNL     1     -10.572  15.131  65.858  1.00  0.00    -0.357 SA 
BRANCH   6   7
HETATM    7  S   UNL     1     -12.296  13.991  65.876  1.00  0.00    -0.467 SA 
BRANCH   7   8
HETATM    8  C   UNL     1     -11.694  12.436  65.265  1.00  0.00    -0.390 C  
HETATM    9  S   UNL     1     -11.779  12.182  63.598  1.00  0.00    -0.512 S  
BRANCH   8  10
HETATM   10  N   UNL     1     -11.141  11.539  66.199  1.00  0.00    -0.279 N  
HETATM   11  C   UNL     1     -10.130  10.526  65.889  1.00  0.00    -0.260 C  
HETATM   12  C   UNL     1     -11.535  11.534  67.611  1.00  0.00    -0.285 C  
ENDBRANCH   8  10
ENDBRANCH   7   8
ENDBRANCH   6   7
ENDBRANCH   4   6
ENDBRANCH   2   4
TORSDOF 5
ENDMDL
MODEL       36
REMARK 921   NORMALIZED FREE ENERGY PREDICTED BY IDOCK:   -3.30 KCAL/MOL
REMARK 922        TOTAL FREE ENERGY PREDICTED BY IDOCK:   -4.36 KCAL/MOL
REMARK 923 INTER-LIGAND FREE ENERGY PREDICTED BY IDOCK:   -4.16 KCAL/MOL
REMARK 924 INTRA-LIGAND FREE ENERGY PREDICTED BY IDOCK:   -0.20 KCAL/MOL
REMARK 927      BINDING AFFINITY PREDICTED BY RF-SCORE:    0.00 PKD
ROOT
HETATM    1  C   UNL     1     -10.282  15.723  65.490  1.00  0.00    -0.378 C  
HETATM    2  N   UNL     1     -10.971  14.435  65.412  1.00  0.00    -0.322 N  
HETATM    3  C   UNL     1     -12.225  14.421  64.661  1.00  0.00    -0.464 C  
ENDROOT
BRANCH   2   4
HETATM    4  C   UNL     1     -10.466  13.300  66.081  1.00  0.00    -0.293 C  
HETATM    5  S   UNL     1     -10.167  11.812  65.337  1.00  0.00    -0.271 S  
BRANCH   4   6
HETATM    6  S   UNL     1     -10.049  13.521  67.799  1.00  0.00    -0.241 SA 
BRANCH   6   7
HETATM    7  S   UNL     1     -11.906  13.592  68.703  1.00  0.00    -0.377 SA 
BRANCH   7   8
HETATM    8  C   UNL     1     -11.636  14.818  69.960  1.00  0.00    -0.286 C  
HETATM    9  S   UNL     1     -10.845  16.234  69.492  1.00  0.00    -0.352 S  
BRANCH   8  10
HETATM   10  N   UNL     1     -12.142  14.554  71.247  1.00  0.00    -0.345 N  
HETATM   11  C   UNL     1     -13.039  13.446  71.583  1.00  0.00    -0.375 C  
HETATM   12  C   UNL     1     -11.812  15.388  72.407  1.00  0.00    -0.459 C  
ENDBRANCH   8  10
ENDBRANCH   7   8
ENDBRANCH   6   7
ENDBRANCH   4   6
ENDBRANCH   2   4
TORSDOF 5
ENDMDL
MODEL       37
REMARK 921   NORMALIZED FREE ENERGY PREDICTED BY IDOCK:   -3.30 KCAL/MOL
REMARK 922        TOTAL FREE ENERGY PREDICTED BY IDOCK:   -4.36 KCAL/MOL
REMARK 923 INTER-LIGAND FREE ENERGY PREDICTED BY IDOCK:   -4.25 KCAL/MOL
REMARK 924 INTRA-LIGAND FREE ENERGY PREDICTED BY IDOCK:   -0.10 KCAL/MOL
REMARK 927      BINDING AFFINITY PREDICTED BY RF-SCORE:    0.00 PKD
ROOT
HETATM    1  C   UNL     1     -11.555   9.970  70.423  1.00  0.00    -0.302 C  
HETATM    2  N   UNL     1     -12.194  11.242  70.764  1.00  0.00    -0.377 N  
HETATM    3  C   UNL     1     -13.207  11.192  71.816  1.00  0.00    -0.381 C  
ENDROOT
BRANCH   2   4
HETATM    4  C   UNL     1     -11.877  12.424  70.061  1.00  0.00    -0.288 C  
HETATM    5  S   UNL     1     -12.313  13.977  70.567  1.00  0.00    -0.376 S  
BRANCH   4   6
HETATM    6  S   UNL     1     -10.877  12.227  68.600  1.00  0.00    -0.236 SA 
BRANCH   6   7
HETATM    7  S   UNL     1     -11.812  13.479  67.247  1.00  0.00    -0.378 SA 
BRANCH   7   8
HETATM    8  C   UNL     1     -11.293  12.774  65.702  1.00  0.00    -0.319 C  
HETATM    9  S   UNL     1     -10.177  11.509  65.772  1.00  0.00    -0.260 S  
BRANCH   8  10
HETATM   10  N   UNL     1     -11.881  13.279  64.526  1.00  0.00    -0.368 N  
HETATM   11  C   UNL     1     -12.204  12.480  63.342  1.00  0.00    -0.517 C  
HETATM   12  C   UNL     1     -12.234  14.694  64.370  1.00  0.00    -0.452 C  
ENDBRANCH   8  10
ENDBRANCH   7   8
ENDBRANCH   6   7
ENDBRANCH   4   6
ENDBRANCH   2   4
TORSDOF 5
ENDMDL
MODEL       38
REMARK 921   NORMALIZED FREE ENERGY PREDICTED BY IDOCK:   -3.30 KCAL/MOL
REMARK 922        TOTAL FREE ENERGY PREDICTED BY IDOCK:   -4.36 KCAL/MOL
REMARK 923 INTER-LIGAND FREE ENERGY PREDICTED BY IDOCK:   -4.13 KCAL/MOL
REMARK 924 INTRA-LIGAND FREE ENERGY PREDICTED BY IDOCK:   -0.22 KCAL/MOL
REMARK 927      BINDING AFFINITY PREDICTED BY RF-SCORE:    0.00 PKD
ROOT
HETATM    1  C   UNL     1      -8.104  17.835  67.052  1.00  0.00    -0.219 C  
HETATM    2  N   UNL     1      -9.450  17.386  66.698  1.00  0.00    -0.264 N  
HETATM    3  C   UNL     1     -10.378  18.424  66.251  1.00  0.00    -0.415 C  
ENDROOT
BRANCH   2   4
HETATM    4  C   UNL     1      -9.827  16.034  66.845  1.00  0.00    -0.245 C  
HETATM    5  S   UNL     1     -10.428  15.072  65.592  1.00  0.00    -0.381 S  
BRANCH   4   6
HETATM    6  S   UNL     1      -9.552  15.311  68.449  1.00  0.00    -0.211 SA 
BRANCH   6   7
HETATM    7  S   UNL     1     -10.860  16.372  69.648  1.00  0.00    -0.319 SA 
BRANCH   7   8
HETATM    8  C   UNL     1     -11.934  15.080  70.224  1.00  0.00    -0.315 C  
HETATM    9  S   UNL     1     -11.899  13.620  69.378  1.00  0.00    -0.348 S  
BRANCH   8  10
HETATM   10  N   UNL     1     -12.704  15.339  71.374  1.00  0.00    -0.357 N  
HETATM   11  C   UNL     1     -14.124  15.010  71.521  1.00  0.00    -0.521 C  
HETATM   12  C   UNL     1     -12.144  15.980  72.567  1.00  0.00    -0.537 C  
ENDBRANCH   8  10
ENDBRANCH   7   8
ENDBRANCH   6   7
ENDBRANCH   4   6
ENDBRANCH   2   4
TORSDOF 5
ENDMDL
MODEL       39
REMARK 921   NORMALIZED FREE ENERGY PREDICTED BY IDOCK:   -3.30 KCAL/MOL
REMARK 922        TOTAL FREE ENERGY PREDICTED BY IDOCK:   -4.35 KCAL/MOL
REMARK 923 INTER-LIGAND FREE ENERGY PREDICTED BY IDOCK:   -4.19 KCAL/MOL
REMARK 924 INTRA-LIGAND FREE ENERGY PREDICTED BY IDOCK:   -0.17 KCAL/MOL
REMARK 927      BINDING AFFINITY PREDICTED BY RF-SCORE:    0.00 PKD
ROOT
HETATM    1  C   UNL     1     -11.644  15.388  68.724  1.00  0.00    -0.368 C  
HETATM    2  N   UNL     1     -10.905  16.007  67.623  1.00  0.00    -0.323 N  
HETATM    3  C   UNL     1     -10.502  17.399  67.821  1.00  0.00    -0.376 C  
ENDROOT
BRANCH   2   4
HETATM    4  C   UNL     1     -10.660  15.303  66.426  1.00  0.00    -0.308 C  
HETATM    5  S   UNL     1     -11.006  15.900  64.883  1.00  0.00    -0.306 S  
BRANCH   4   6
HETATM    6  S   UNL     1      -9.853  13.724  66.593  1.00  0.00    -0.291 SA 
BRANCH   6   7
HETATM    7  S   UNL     1     -11.422  12.395  66.379  1.00  0.00    -0.384 SA 
BRANCH   7   8
HETATM    8  C   UNL     1     -11.205  11.864  64.699  1.00  0.00    -0.305 C  
HETATM    9  S   UNL     1     -12.133  12.642  63.522  1.00  0.00    -0.544 S  
BRANCH   8  10
HETATM   10  N   UNL     1     -10.240  10.869  64.449  1.00  0.00    -0.337 N  
HETATM   11  C   UNL     1      -9.518  10.700  63.187  1.00  0.00    -0.332 C  
HETATM   12  C   UNL     1      -9.857   9.876  65.459  1.00  0.00    -0.311 C  
ENDBRANCH   8  10
ENDBRANCH   7   8
ENDBRANCH   6   7
ENDBRANCH   4   6
ENDBRANCH   2   4
TORSDOF 5
ENDMDL
MODEL       40
REMARK 921   NORMALIZED FREE ENERGY PREDICTED BY IDOCK:   -3.30 KCAL/MOL
REMARK 922        TOTAL FREE ENERGY PREDICTED BY IDOCK:   -4.35 KCAL/MOL
REMARK 923 INTER-LIGAND FREE ENERGY PREDICTED BY IDOCK:   -4.20 KCAL/MOL
REMARK 924 INTRA-LIGAND FREE ENERGY PREDICTED BY IDOCK:   -0.14 KCAL/MOL
REMARK 927      BINDING AFFINITY PREDICTED BY RF-SCORE:    0.00 PKD
ROOT
HETATM    1  C   UNL     1     -12.299  13.768  70.236  1.00  0.00    -0.337 C  
HETATM    2  N   UNL     1     -11.771  15.107  69.970  1.00  0.00    -0.284 N  
HETATM    3  C   UNL     1     -11.614  15.980  71.132  1.00  0.00    -0.443 C  
ENDROOT
BRANCH   2   4
HETATM    4  C   UNL     1     -11.495  15.530  68.652  1.00  0.00    -0.359 C  
HETATM    5  S   UNL     1     -10.679  16.958  68.263  1.00  0.00    -0.363 S  
BRANCH   4   6
HETATM    6  S   UNL     1     -11.978  14.414  67.350  1.00  0.00    -0.309 SA 
BRANCH   6   7
HETATM    7  S   UNL     1     -10.190  14.068  66.373  1.00  0.00    -0.299 SA 
BRANCH   7   8
HETATM    8  C   UNL     1     -10.491  12.477  65.644  1.00  0.00    -0.273 C  
HETATM    9  S   UNL     1     -10.474  11.143  66.679  1.00  0.00    -0.259 S  
BRANCH   8  10
HETATM   10  N   UNL     1     -10.773  12.435  64.265  1.00  0.00    -0.329 N  
HETATM   11  C   UNL     1      -9.934  11.782  63.258  1.00  0.00    -0.410 C  
HETATM   12  C   UNL     1     -11.968  13.061  63.688  1.00  0.00    -0.539 C  
ENDBRANCH   8  10
ENDBRANCH   7   8
ENDBRANCH   6   7
ENDBRANCH   4   6
ENDBRANCH   2   4
TORSDOF 5
ENDMDL
MODEL       41
REMARK 921   NORMALIZED FREE ENERGY PREDICTED BY IDOCK:   -3.29 KCAL/MOL
REMARK 922        TOTAL FREE ENERGY PREDICTED BY IDOCK:   -4.35 KCAL/MOL
REMARK 923 INTER-LIGAND FREE ENERGY PREDICTED BY IDOCK:   -4.12 KCAL/MOL
REMARK 924 INTRA-LIGAND FREE ENERGY PREDICTED BY IDOCK:   -0.23 KCAL/MOL
REMARK 927      BINDING AFFINITY PREDICTED BY RF-SCORE:    0.00 PKD
ROOT
HETATM    1  C   UNL     1      -9.977  19.208  68.825  1.00  0.00    -0.427 C  
HETATM    2  N   UNL     1      -9.739  18.600  67.516  1.00  0.00    -0.303 N  
HETATM    3  C   UNL     1     -10.501  19.157  66.399  1.00  0.00    -0.463 C  
ENDROOT
BRANCH   2   4
HETATM    4  C   UNL     1      -8.866  17.501  67.374  1.00  0.00    -0.229 C  
HETATM    5  S   UNL     1      -7.474  17.509  66.416  1.00  0.00    -0.322 S  
BRANCH   4   6
HETATM    6  S   UNL     1      -9.246  16.063  68.353  1.00  0.00    -0.202 SA 
BRANCH   6   7
HETATM    7  S   UNL     1     -11.261  15.789  67.982  1.00  0.00    -0.308 SA 
BRANCH   7   8
HETATM    8  C   UNL     1     -11.213  14.741  66.549  1.00  0.00    -0.342 C  
HETATM    9  S   UNL     1     -10.783  15.463  65.084  1.00  0.00    -0.443 S  
BRANCH   8  10
HETATM   10  N   UNL     1     -11.487  13.372  66.733  1.00  0.00    -0.328 N  
HETATM   11  C   UNL     1     -11.716  12.411  65.652  1.00  0.00    -0.414 C  
HETATM   12  C   UNL     1     -11.572  12.761  68.063  1.00  0.00    -0.341 C  
ENDBRANCH   8  10
ENDBRANCH   7   8
ENDBRANCH   6   7
ENDBRANCH   4   6
ENDBRANCH   2   4
TORSDOF 5
ENDMDL
MODEL       42
REMARK 921   NORMALIZED FREE ENERGY PREDICTED BY IDOCK:   -3.29 KCAL/MOL
REMARK 922        TOTAL FREE ENERGY PREDICTED BY IDOCK:   -4.34 KCAL/MOL
REMARK 923 INTER-LIGAND FREE ENERGY PREDICTED BY IDOCK:   -4.21 KCAL/MOL
REMARK 924 INTRA-LIGAND FREE ENERGY PREDICTED BY IDOCK:   -0.13 KCAL/MOL
REMARK 927      BINDING AFFINITY PREDICTED BY RF-SCORE:    0.00 PKD
ROOT
HETATM    1  C   UNL     1     -12.678  13.862  65.357  1.00  0.00    -0.490 C  
HETATM    2  N   UNL     1     -11.702  13.655  66.428  1.00  0.00    -0.354 N  
HETATM    3  C   UNL     1     -11.191  12.294  66.579  1.00  0.00    -0.324 C  
ENDROOT
BRANCH   2   4
HETATM    4  C   UNL     1     -11.337  14.711  67.290  1.00  0.00    -0.353 C  
HETATM    5  S   UNL     1     -11.639  14.728  68.953  1.00  0.00    -0.328 S  
BRANCH   4   6
HETATM    6  S   UNL     1     -10.423  16.050  66.552  1.00  0.00    -0.287 SA 
BRANCH   6   7
HETATM    7  S   UNL     1     -10.513  17.510  68.012  1.00  0.00    -0.384 SA 
BRANCH   7   8
HETATM    8  C   UNL     1      -9.657  18.849  67.221  1.00  0.00    -0.307 C  
HETATM    9  S   UNL     1     -10.483  19.674  66.000  1.00  0.00    -0.472 S  
BRANCH   8  10
HETATM   10  N   UNL     1      -8.370  19.170  67.693  1.00  0.00    -0.285 N  
HETATM   11  C   UNL     1      -7.579  18.334  68.599  1.00  0.00    -0.296 C  
HETATM   12  C   UNL     1      -7.679  20.406  67.313  1.00  0.00    -0.333 C  
ENDBRANCH   8  10
ENDBRANCH   7   8
ENDBRANCH   6   7
ENDBRANCH   4   6
ENDBRANCH   2   4
TORSDOF 5
ENDMDL
MODEL       43
REMARK 921   NORMALIZED FREE ENERGY PREDICTED BY IDOCK:   -3.28 KCAL/MOL
REMARK 922        TOTAL FREE ENERGY PREDICTED BY IDOCK:   -4.33 KCAL/MOL
REMARK 923 INTER-LIGAND FREE ENERGY PREDICTED BY IDOCK:   -4.24 KCAL/MOL
REMARK 924 INTRA-LIGAND FREE ENERGY PREDICTED BY IDOCK:   -0.09 KCAL/MOL
REMARK 927      BINDING AFFINITY PREDICTED BY RF-SCORE:    0.00 PKD
ROOT
HETATM    1  C   UNL     1     -11.106   8.041  72.718  1.00  0.00    -0.381 C  
HETATM    2  N   UNL     1     -11.930   8.912  71.880  1.00  0.00    -0.348 N  
HETATM    3  C   UNL     1     -13.304   9.127  72.332  1.00  0.00    -0.463 C  
ENDROOT
BRANCH   2   4
HETATM    4  C   UNL     1     -11.426   9.452  70.678  1.00  0.00    -0.284 C  
HETATM    5  S   UNL     1     -10.456   8.602  69.586  1.00  0.00    -0.218 S  
BRANCH   4   6
HETATM    6  S   UNL     1     -11.942  11.111  70.284  1.00  0.00    -0.396 SA 
BRANCH   6   7
HETATM    7  S   UNL     1     -11.419  11.280  68.292  1.00  0.00    -0.309 SA 
BRANCH   7   8
HETATM    8  C   UNL     1     -11.715  13.006  67.997  1.00  0.00    -0.355 C  
HETATM    9  S   UNL     1     -12.035  13.971  69.345  1.00  0.00    -0.347 S  
BRANCH   8  10
HETATM   10  N   UNL     1     -11.615  13.467  66.670  1.00  0.00    -0.344 N  
HETATM   11  C   UNL     1     -11.965  12.684  65.483  1.00  0.00    -0.456 C  
HETATM   12  C   UNL     1     -11.135  14.813  66.340  1.00  0.00    -0.340 C  
ENDBRANCH   8  10
ENDBRANCH   7   8
ENDBRANCH   6   7
ENDBRANCH   4   6
ENDBRANCH   2   4
TORSDOF 5
ENDMDL
MODEL       44
REMARK 921   NORMALIZED FREE ENERGY PREDICTED BY IDOCK:   -3.28 KCAL/MOL
REMARK 922        TOTAL FREE ENERGY PREDICTED BY IDOCK:   -4.32 KCAL/MOL
REMARK 923 INTER-LIGAND FREE ENERGY PREDICTED BY IDOCK:   -4.15 KCAL/MOL
REMARK 924 INTRA-LIGAND FREE ENERGY PREDICTED BY IDOCK:   -0.17 KCAL/MOL
REMARK 927      BINDING AFFINITY PREDICTED BY RF-SCORE:    0.00 PKD
ROOT
HETATM    1  C   UNL     1     -12.363  11.662  70.801  1.00  0.00    -0.358 C  
HETATM    2  N   UNL     1     -12.644  13.058  71.137  1.00  0.00    -0.353 N  
HETATM    3  C   UNL     1     -13.613  13.280  72.209  1.00  0.00    -0.605 C  
ENDROOT
BRANCH   2   4
HETATM    4  C   UNL     1     -12.049  14.112  70.413  1.00  0.00    -0.346 C  
HETATM    5  S   UNL     1     -11.342  15.474  71.123  1.00  0.00    -0.397 S  
BRANCH   4   6
HETATM    6  S   UNL     1     -11.982  13.913  68.644  1.00  0.00    -0.325 SA 
BRANCH   6   7
HETATM    7  S   UNL     1     -10.006  13.397  68.327  1.00  0.00    -0.234 SA 
BRANCH   7   8
HETATM    8  C   UNL     1     -10.109  12.558  66.765  1.00  0.00    -0.223 C  
HETATM    9  S   UNL     1      -9.344  11.057  66.648  1.00  0.00    -0.181 S  
BRANCH   8  10
HETATM   10  N   UNL     1     -10.861  13.171  65.745  1.00  0.00    -0.272 N  
HETATM   11  C   UNL     1     -10.565  14.478  65.156  1.00  0.00    -0.410 C  
HETATM   12  C   UNL     1     -12.049  12.541  65.158  1.00  0.00    -0.446 C  
ENDBRANCH   8  10
ENDBRANCH   7   8
ENDBRANCH   6   7
ENDBRANCH   4   6
ENDBRANCH   2   4
TORSDOF 5
ENDMDL
MODEL       45
REMARK 921   NORMALIZED FREE ENERGY PREDICTED BY IDOCK:   -3.27 KCAL/MOL
REMARK 922        TOTAL FREE ENERGY PREDICTED BY IDOCK:   -4.32 KCAL/MOL
REMARK 923 INTER-LIGAND FREE ENERGY PREDICTED BY IDOCK:   -4.14 KCAL/MOL
REMARK 924 INTRA-LIGAND FREE ENERGY PREDICTED BY IDOCK:   -0.18 KCAL/MOL
REMARK 927      BINDING AFFINITY PREDICTED BY RF-SCORE:    0.00 PKD
ROOT
HETATM    1  C   UNL     1     -10.489  11.322  64.483  1.00  0.00    -0.334 C  
HETATM    2  N   UNL     1     -10.686  11.876  65.822  1.00  0.00    -0.274 N  
HETATM    3  C   UNL     1     -10.598  10.927  66.931  1.00  0.00    -0.261 C  
ENDROOT
BRANCH   2   4
HETATM    4  C   UNL     1     -11.003  13.239  66.005  1.00  0.00    -0.279 C  
HETATM    5  S   UNL     1     -12.523  13.911  65.699  1.00  0.00    -0.499 S  
BRANCH   4   6
HETATM    6  S   UNL     1      -9.713  14.262  66.685  1.00  0.00    -0.297 SA 
BRANCH   6   7
HETATM    7  S   UNL     1     -10.218  16.141  65.988  1.00  0.00    -0.373 SA 
BRANCH   7   8
HETATM    8  C   UNL     1     -10.427  17.034  67.508  1.00  0.00    -0.334 C  
HETATM    9  S   UNL     1     -11.151  16.208  68.791  1.00  0.00    -0.364 S  
BRANCH   8  10
HETATM   10  N   UNL     1      -9.934  18.352  67.563  1.00  0.00    -0.321 N  
HETATM   11  C   UNL     1      -8.767  18.777  68.339  1.00  0.00    -0.337 C  
HETATM   12  C   UNL     1     -10.559  19.456  66.827  1.00  0.00    -0.472 C  
ENDBRANCH   8  10
ENDBRANCH   7   8
ENDBRANCH   6   7
ENDBRANCH   4   6
ENDBRANCH   2   4
TORSDOF 5
ENDMDL
MODEL       46
REMARK 921   NORMALIZED FREE ENERGY PREDICTED BY IDOCK:   -3.27 KCAL/MOL
REMARK 922        TOTAL FREE ENERGY PREDICTED BY IDOCK:   -4.32 KCAL/MOL
REMARK 923 INTER-LIGAND FREE ENERGY PREDICTED BY IDOCK:   -4.18 KCAL/MOL
REMARK 924 INTRA-LIGAND FREE ENERGY PREDICTED BY IDOCK:   -0.13 KCAL/MOL
REMARK 927      BINDING AFFINITY PREDICTED BY RF-SCORE:    0.00 PKD
ROOT
HETATM    1  C   UNL     1     -10.541  13.606  64.673  1.00  0.00    -0.430 C  
HETATM    2  N   UNL     1     -11.393  14.139  65.736  1.00  0.00    -0.312 N  
HETATM    3  C   UNL     1     -12.835  14.013  65.529  1.00  0.00    -0.419 C  
ENDROOT
BRANCH   2   4
HETATM    4  C   UNL     1     -10.835  14.787  66.858  1.00  0.00    -0.316 C  
HETATM    5  S   UNL     1      -9.492  15.811  66.794  1.00  0.00    -0.256 S  
BRANCH   4   6
HETATM    6  S   UNL     1     -11.684  14.551  68.406  1.00  0.00    -0.324 SA 
BRANCH   6   7
HETATM    7  S   UNL     1     -11.531  12.511  68.694  1.00  0.00    -0.329 SA 
BRANCH   7   8
HETATM    8  C   UNL     1     -12.156  12.342  70.348  1.00  0.00    -0.297 C  
HETATM    9  S   UNL     1     -12.729  13.742  71.098  1.00  0.00    -0.350 S  
BRANCH   8  10
HETATM   10  N   UNL     1     -12.180  11.050  70.907  1.00  0.00    -0.362 N  
HETATM   11  C   UNL     1     -11.285   9.956  70.525  1.00  0.00    -0.330 C  
HETATM   12  C   UNL     1     -13.131  10.665  71.954  1.00  0.00    -0.458 C  
ENDBRANCH   8  10
ENDBRANCH   7   8
ENDBRANCH   6   7
ENDBRANCH   4   6
ENDBRANCH   2   4
TORSDOF 5
ENDMDL
MODEL       47
REMARK 921   NORMALIZED FREE ENERGY PREDICTED BY IDOCK:   -3.27 KCAL/MOL
REMARK 922        TOTAL FREE ENERGY PREDICTED BY IDOCK:   -4.31 KCAL/MOL
REMARK 923 INTER-LIGAND FREE ENERGY PREDICTED BY IDOCK:   -4.11 KCAL/MOL
REMARK 924 INTRA-LIGAND FREE ENERGY PREDICTED BY IDOCK:   -0.20 KCAL/MOL
REMARK 927      BINDING AFFINITY PREDICTED BY RF-SCORE:    0.00 PKD
ROOT
HETATM    1  C   UNL     1     -10.093  11.850  63.414  1.00  0.00    -0.438 C  
HETATM    2  N   UNL     1     -10.962  12.827  64.068  1.00  0.00    -0.388 N  
HETATM    3  C   UNL     1     -12.260  13.059  63.436  1.00  0.00    -0.472 C  
ENDROOT
BRANCH   2   4
HETATM    4  C   UNL     1     -10.528  13.538  65.207  1.00  0.00    -0.336 C  
HETATM    5  S   UNL     1      -9.634  12.856  66.469  1.00  0.00    -0.250 S  
BRANCH   4   6
HETATM    6  S   UNL     1     -10.891  15.281  65.233  1.00  0.00    -0.427 SA 
BRANCH   6   7
HETATM    7  S   UNL     1      -9.225  16.071  66.166  1.00  0.00    -0.351 SA 
BRANCH   7   8
HETATM    8  C   UNL     1      -9.958  16.882  67.565  1.00  0.00    -0.268 C  
HETATM    9  S   UNL     1     -10.619  18.414  67.306  1.00  0.00    -0.365 S  
BRANCH   8  10
HETATM   10  N   UNL     1      -9.988  16.178  68.785  1.00  0.00    -0.221 N  
HETATM   11  C   UNL     1      -8.840  15.494  69.384  1.00  0.00    -0.257 C  
HETATM   12  C   UNL     1     -11.205  16.059  69.594  1.00  0.00    -0.336 C  
ENDBRANCH   8  10
ENDBRANCH   7   8
ENDBRANCH   6   7
ENDBRANCH   4   6
ENDBRANCH   2   4
TORSDOF 5
ENDMDL
MODEL       48
REMARK 921   NORMALIZED FREE ENERGY PREDICTED BY IDOCK:   -3.27 KCAL/MOL
REMARK 922        TOTAL FREE ENERGY PREDICTED BY IDOCK:   -4.31 KCAL/MOL
REMARK 923 INTER-LIGAND FREE ENERGY PREDICTED BY IDOCK:   -4.22 KCAL/MOL
REMARK 924 INTRA-LIGAND FREE ENERGY PREDICTED BY IDOCK:   -0.09 KCAL/MOL
REMARK 927      BINDING AFFINITY PREDICTED BY RF-SCORE:    0.00 PKD
ROOT
HETATM    1  C   UNL     1      -9.343   9.745  65.186  1.00  0.00    -0.260 C  
HETATM    2  N   UNL     1     -10.001  10.690  64.284  1.00  0.00    -0.332 N  
HETATM    3  C   UNL     1      -9.627  10.600  62.873  1.00  0.00    -0.327 C  
ENDROOT
BRANCH   2   4
HETATM    4  C   UNL     1     -10.895  11.663  64.778  1.00  0.00    -0.308 C  
HETATM    5  S   UNL     1     -11.903  12.610  63.806  1.00  0.00    -0.541 S  
BRANCH   4   6
HETATM    6  S   UNL     1     -11.001  11.807  66.550  1.00  0.00    -0.304 SA 
BRANCH   6   7
HETATM    7  S   UNL     1     -11.901  13.651  66.796  1.00  0.00    -0.425 SA 
BRANCH   7   8
HETATM    8  C   UNL     1     -11.876  13.820  68.563  1.00  0.00    -0.370 C  
HETATM    9  S   UNL     1     -11.828  12.397  69.470  1.00  0.00    -0.272 S  
BRANCH   8  10
HETATM   10  N   UNL     1     -11.847  15.125  69.092  1.00  0.00    -0.318 N  
HETATM   11  C   UNL     1     -12.372  15.509  70.404  1.00  0.00    -0.413 C  
HETATM   12  C   UNL     1     -11.272  16.258  68.358  1.00  0.00    -0.349 C  
ENDBRANCH   8  10
ENDBRANCH   7   8
ENDBRANCH   6   7
ENDBRANCH   4   6
ENDBRANCH   2   4
TORSDOF 5
ENDMDL
MODEL       49
REMARK 921   NORMALIZED FREE ENERGY PREDICTED BY IDOCK:   -3.26 KCAL/MOL
REMARK 922        TOTAL FREE ENERGY PREDICTED BY IDOCK:   -4.31 KCAL/MOL
REMARK 923 INTER-LIGAND FREE ENERGY PREDICTED BY IDOCK:   -4.15 KCAL/MOL
REMARK 924 INTRA-LIGAND FREE ENERGY PREDICTED BY IDOCK:   -0.16 KCAL/MOL
REMARK 927      BINDING AFFINITY PREDICTED BY RF-SCORE:    0.00 PKD
ROOT
HETATM    1  C   UNL     1     -13.405  12.101  71.999  1.00  0.00    -0.365 C  
HETATM    2  N   UNL     1     -12.858  10.864  71.441  1.00  0.00    -0.425 N  
HETATM    3  C   UNL     1     -13.381   9.619  72.000  1.00  0.00    -0.457 C  
ENDROOT
BRANCH   2   4
HETATM    4  C   UNL     1     -11.841  10.897  70.463  1.00  0.00    -0.360 C  
HETATM    5  S   UNL     1     -10.717   9.659  70.219  1.00  0.00    -0.303 S  
BRANCH   4   6
HETATM    6  S   UNL     1     -11.835  12.313  69.382  1.00  0.00    -0.286 SA 
BRANCH   6   7
HETATM    7  S   UNL     1     -11.374  11.474  67.550  1.00  0.00    -0.285 SA 
BRANCH   7   8
HETATM    8  C   UNL     1     -11.363  12.907  66.502  1.00  0.00    -0.318 C  
HETATM    9  S   UNL     1     -12.340  12.858  65.125  1.00  0.00    -0.494 S  
BRANCH   8  10
HETATM   10  N   UNL     1     -10.584  14.006  66.909  1.00  0.00    -0.279 N  
HETATM   11  C   UNL     1     -11.114  15.328  67.250  1.00  0.00    -0.325 C  
HETATM   12  C   UNL     1      -9.124  13.931  67.034  1.00  0.00    -0.250 C  
ENDBRANCH   8  10
ENDBRANCH   7   8
ENDBRANCH   6   7
ENDBRANCH   4   6
ENDBRANCH   2   4
TORSDOF 5
ENDMDL
MODEL       50
REMARK 921   NORMALIZED FREE ENERGY PREDICTED BY IDOCK:   -3.24 KCAL/MOL
REMARK 922        TOTAL FREE ENERGY PREDICTED BY IDOCK:   -4.28 KCAL/MOL
REMARK 923 INTER-LIGAND FREE ENERGY PREDICTED BY IDOCK:   -4.17 KCAL/MOL
REMARK 924 INTRA-LIGAND FREE ENERGY PREDICTED BY IDOCK:   -0.11 KCAL/MOL
REMARK 927      BINDING AFFINITY PREDICTED BY RF-SCORE:    0.00 PKD
ROOT
HETATM    1  C   UNL     1     -14.293   8.494  71.726  1.00  0.00    -0.437 C  
HETATM    2  N   UNL     1     -12.869   8.172  71.627  1.00  0.00    -0.322 N  
HETATM    3  C   UNL     1     -12.527   6.751  71.663  1.00  0.00    -0.351 C  
ENDROOT
BRANCH   2   4
HETATM    4  C   UNL     1     -11.897   9.192  71.563  1.00  0.00    -0.358 C  
HETATM    5  S   UNL     1     -10.240   8.942  71.781  1.00  0.00    -0.317 S  
BRANCH   4   6
HETATM    6  S   UNL     1     -12.489  10.817  71.137  1.00  0.00    -0.422 SA 
BRANCH   6   7
HETATM    7  S   UNL     1     -11.548  11.176  69.332  1.00  0.00    -0.349 SA 
BRANCH   7   8
HETATM    8  C   UNL     1     -11.955  12.883  69.058  1.00  0.00    -0.251 C  
HETATM    9  S   UNL     1     -12.454  13.778  70.400  1.00  0.00    -0.279 S  
BRANCH   8  10
HETATM   10  N   UNL     1     -11.789  13.391  67.756  1.00  0.00    -0.358 N  
HETATM   11  C   UNL     1     -11.807  12.584  66.533  1.00  0.00    -0.367 C  
HETATM   12  C   UNL     1     -11.576  14.818  67.490  1.00  0.00    -0.361 C  
ENDBRANCH   8  10
ENDBRANCH   7   8
ENDBRANCH   6   7
ENDBRANCH   4   6
ENDBRANCH   2   4
TORSDOF 5
ENDMDL
MODEL       51
REMARK 921   NORMALIZED FREE ENERGY PREDICTED BY IDOCK:   -3.24 KCAL/MOL
REMARK 922        TOTAL FREE ENERGY PREDICTED BY IDOCK:   -4.27 KCAL/MOL
REMARK 923 INTER-LIGAND FREE ENERGY PREDICTED BY IDOCK:   -4.03 KCAL/MOL
REMARK 924 INTRA-LIGAND FREE ENERGY PREDICTED BY IDOCK:   -0.24 KCAL/MOL
REMARK 927      BINDING AFFINITY PREDICTED BY RF-SCORE:    0.00 PKD
ROOT
HETATM    1  C   UNL     1     -10.330  17.442  68.413  1.00  0.00    -0.379 C  
HETATM    2  N   UNL     1     -10.895  16.093  68.355  1.00  0.00    -0.302 N  
HETATM    3  C   UNL     1     -11.743  15.702  69.480  1.00  0.00    -0.370 C  
ENDROOT
BRANCH   2   4
HETATM    4  C   UNL     1     -10.576  15.217  67.296  1.00  0.00    -0.290 C  
HETATM    5  S   UNL     1     -10.643  15.639  65.660  1.00  0.00    -0.393 S  
BRANCH   4   6
HETATM    6  S   UNL     1      -9.985  13.603  67.761  1.00  0.00    -0.241 SA 
BRANCH   6   7
HETATM    7  S   UNL     1     -11.569  12.381  67.240  1.00  0.00    -0.355 SA 
BRANCH   7   8
HETATM    8  C   UNL     1     -10.877  11.470  65.882  1.00  0.00    -0.260 C  
HETATM    9  S   UNL     1      -9.993  10.082  66.259  1.00  0.00    -0.246 S  
BRANCH   8  10
HETATM   10  N   UNL     1     -11.150  11.934  64.581  1.00  0.00    -0.312 N  
HETATM   11  C   UNL     1     -12.370  12.638  64.182  1.00  0.00    -0.436 C  
HETATM   12  C   UNL     1     -10.212  11.749  63.468  1.00  0.00    -0.450 C  
ENDBRANCH   8  10
ENDBRANCH   7   8
ENDBRANCH   6   7
ENDBRANCH   4   6
ENDBRANCH   2   4
TORSDOF 5
ENDMDL
MODEL       52
REMARK 921   NORMALIZED FREE ENERGY PREDICTED BY IDOCK:   -3.23 KCAL/MOL
REMARK 922        TOTAL FREE ENERGY PREDICTED BY IDOCK:   -4.26 KCAL/MOL
REMARK 923 INTER-LIGAND FREE ENERGY PREDICTED BY IDOCK:   -4.17 KCAL/MOL
REMARK 924 INTRA-LIGAND FREE ENERGY PREDICTED BY IDOCK:   -0.09 KCAL/MOL
REMARK 927      BINDING AFFINITY PREDICTED BY RF-SCORE:    0.00 PKD
ROOT
HETATM    1  C   UNL     1     -12.099   8.901  71.812  1.00  0.00    -0.362 C  
HETATM    2  N   UNL     1     -11.116   9.567  70.957  1.00  0.00    -0.333 N  
HETATM    3  C   UNL     1      -9.727   9.139  71.118  1.00  0.00    -0.290 C  
ENDROOT
BRANCH   2   4
HETATM    4  C   UNL     1     -11.501  10.603  70.079  1.00  0.00    -0.325 C  
HETATM    5  S   UNL     1     -12.229  12.046  70.572  1.00  0.00    -0.235 S  
BRANCH   4   6
HETATM    6  S   UNL     1     -11.094  10.370  68.361  1.00  0.00    -0.252 SA 
BRANCH   6   7
HETATM    7  S   UNL     1     -11.439  12.244  67.562  1.00  0.00    -0.357 SA 
BRANCH   7   8
HETATM    8  C   UNL     1     -11.170  11.943  65.832  1.00  0.00    -0.322 C  
HETATM    9  S   UNL     1     -10.047  10.748  65.427  1.00  0.00    -0.289 S  
BRANCH   8  10
HETATM   10  N   UNL     1     -11.942  12.680  64.915  1.00  0.00    -0.383 N  
HETATM   11  C   UNL     1     -12.478  14.021  65.158  1.00  0.00    -0.452 C  
HETATM   12  C   UNL     1     -12.295  12.160  63.589  1.00  0.00    -0.568 C  
ENDBRANCH   8  10
ENDBRANCH   7   8
ENDBRANCH   6   7
ENDBRANCH   4   6
ENDBRANCH   2   4
TORSDOF 5
ENDMDL
MODEL       53
REMARK 921   NORMALIZED FREE ENERGY PREDICTED BY IDOCK:   -3.22 KCAL/MOL
REMARK 922        TOTAL FREE ENERGY PREDICTED BY IDOCK:   -4.26 KCAL/MOL
REMARK 923 INTER-LIGAND FREE ENERGY PREDICTED BY IDOCK:   -4.16 KCAL/MOL
REMARK 924 INTRA-LIGAND FREE ENERGY PREDICTED BY IDOCK:   -0.09 KCAL/MOL
REMARK 927      BINDING AFFINITY PREDICTED BY RF-SCORE:    0.00 PKD
ROOT
HETATM    1  C   UNL     1     -10.454  18.796  66.254  1.00  0.00    -0.435 C  
HETATM    2  N   UNL     1     -10.124  17.839  67.311  1.00  0.00    -0.324 N  
HETATM    3  C   UNL     1      -9.279  18.341  68.393  1.00  0.00    -0.317 C  
ENDROOT
BRANCH   2   4
HETATM    4  C   UNL     1     -10.558  16.499  67.238  1.00  0.00    -0.285 C  
HETATM    5  S   UNL     1     -10.251  15.470  65.932  1.00  0.00    -0.375 S  
BRANCH   4   6
HETATM    6  S   UNL     1     -11.404  15.866  68.672  1.00  0.00    -0.382 SA 
BRANCH   6   7
HETATM    7  S   UNL     1     -11.058  13.833  68.534  1.00  0.00    -0.281 SA 
BRANCH   7   8
HETATM    8  C   UNL     1     -12.011  13.222  69.902  1.00  0.00    -0.330 C  
HETATM    9  S   UNL     1     -12.766  14.368  70.885  1.00  0.00    -0.371 S  
BRANCH   8  10
HETATM   10  N   UNL     1     -12.117  11.826  70.050  1.00  0.00    -0.323 N  
HETATM   11  C   UNL     1     -12.709  11.148  71.206  1.00  0.00    -0.426 C  
HETATM   12  C   UNL     1     -11.630  10.889  69.032  1.00  0.00    -0.316 C  
ENDBRANCH   8  10
ENDBRANCH   7   8
ENDBRANCH   6   7
ENDBRANCH   4   6
ENDBRANCH   2   4
TORSDOF 5
ENDMDL
MODEL       54
REMARK 921   NORMALIZED FREE ENERGY PREDICTED BY IDOCK:   -3.22 KCAL/MOL
REMARK 922        TOTAL FREE ENERGY PREDICTED BY IDOCK:   -4.25 KCAL/MOL
REMARK 923 INTER-LIGAND FREE ENERGY PREDICTED BY IDOCK:   -4.11 KCAL/MOL
REMARK 924 INTRA-LIGAND FREE ENERGY PREDICTED BY IDOCK:   -0.14 KCAL/MOL
REMARK 927      BINDING AFFINITY PREDICTED BY RF-SCORE:    0.00 PKD
ROOT
HETATM    1  C   UNL     1     -13.149  10.758  71.910  1.00  0.00    -0.451 C  
HETATM    2  N   UNL     1     -12.064   9.901  71.432  1.00  0.00    -0.388 N  
HETATM    3  C   UNL     1     -11.917   8.612  72.106  1.00  0.00    -0.379 C  
ENDROOT
BRANCH   2   4
HETATM    4  C   UNL     1     -11.185  10.340  70.419  1.00  0.00    -0.332 C  
HETATM    5  S   UNL     1      -9.689   9.629  70.085  1.00  0.00    -0.248 S  
BRANCH   4   6
HETATM    6  S   UNL     1     -11.769  11.675  69.395  1.00  0.00    -0.360 SA 
BRANCH   6   7
HETATM    7  S   UNL     1     -11.102  11.124  67.518  1.00  0.00    -0.295 SA 
BRANCH   7   8
HETATM    8  C   UNL     1     -10.517  12.676  66.884  1.00  0.00    -0.233 C  
HETATM    9  S   UNL     1      -9.176  13.360  67.648  1.00  0.00    -0.224 S  
BRANCH   8  10
HETATM   10  N   UNL     1     -11.174  13.209  65.759  1.00  0.00    -0.284 N  
HETATM   11  C   UNL     1     -12.488  13.855  65.784  1.00  0.00    -0.495 C  
HETATM   12  C   UNL     1     -10.589  13.166  64.414  1.00  0.00    -0.421 C  
ENDBRANCH   8  10
ENDBRANCH   7   8
ENDBRANCH   6   7
ENDBRANCH   4   6
ENDBRANCH   2   4
TORSDOF 5
ENDMDL
MODEL       55
REMARK 921   NORMALIZED FREE ENERGY PREDICTED BY IDOCK:   -3.22 KCAL/MOL
REMARK 922        TOTAL FREE ENERGY PREDICTED BY IDOCK:   -4.25 KCAL/MOL
REMARK 923 INTER-LIGAND FREE ENERGY PREDICTED BY IDOCK:   -4.04 KCAL/MOL
REMARK 924 INTRA-LIGAND FREE ENERGY PREDICTED BY IDOCK:   -0.21 KCAL/MOL
REMARK 927      BINDING AFFINITY PREDICTED BY RF-SCORE:    0.00 PKD
ROOT
HETATM    1  C   UNL     1      -9.697   9.910  65.306  1.00  0.00    -0.313 C  
HETATM    2  N   UNL     1     -10.208  10.833  64.293  1.00  0.00    -0.353 N  
HETATM    3  C   UNL     1      -9.624  10.712  62.958  1.00  0.00    -0.348 C  
ENDROOT
BRANCH   2   4
HETATM    4  C   UNL     1     -11.166  11.815  64.624  1.00  0.00    -0.286 C  
HETATM    5  S   UNL     1     -12.150  12.601  63.497  1.00  0.00    -0.544 S  
BRANCH   4   6
HETATM    6  S   UNL     1     -11.378  12.154  66.359  1.00  0.00    -0.363 SA 
BRANCH   6   7
HETATM    7  S   UNL     1      -9.780  13.398  66.771  1.00  0.00    -0.268 SA 
BRANCH   7   8
HETATM    8  C   UNL     1     -10.604  14.809  67.466  1.00  0.00    -0.259 C  
HETATM    9  S   UNL     1     -11.207  14.651  69.035  1.00  0.00    -0.284 S  
BRANCH   8  10
HETATM   10  N   UNL     1     -10.657  15.981  66.687  1.00  0.00    -0.316 N  
HETATM   11  C   UNL     1     -10.494  17.340  67.206  1.00  0.00    -0.319 C  
HETATM   12  C   UNL     1     -10.890  15.952  65.239  1.00  0.00    -0.387 C  
ENDBRANCH   8  10
ENDBRANCH   7   8
ENDBRANCH   6   7
ENDBRANCH   4   6
ENDBRANCH   2   4
TORSDOF 5
ENDMDL
MODEL       56
REMARK 921   NORMALIZED FREE ENERGY PREDICTED BY IDOCK:   -3.21 KCAL/MOL
REMARK 922        TOTAL FREE ENERGY PREDICTED BY IDOCK:   -4.24 KCAL/MOL
REMARK 923 INTER-LIGAND FREE ENERGY PREDICTED BY IDOCK:   -4.11 KCAL/MOL
REMARK 924 INTRA-LIGAND FREE ENERGY PREDICTED BY IDOCK:   -0.13 KCAL/MOL
REMARK 927      BINDING AFFINITY PREDICTED BY RF-SCORE:    0.00 PKD
ROOT
HETATM    1  C   UNL     1      -8.830  19.177  68.596  1.00  0.00    -0.365 C  
HETATM    2  N   UNL     1      -9.512  18.658  67.411  1.00  0.00    -0.294 N  
HETATM    3  C   UNL     1     -10.625  19.461  66.906  1.00  0.00    -0.476 C  
ENDROOT
BRANCH   2   4
HETATM    4  C   UNL     1      -9.140  17.423  66.841  1.00  0.00    -0.245 C  
HETATM    5  S   UNL     1      -7.604  17.086  66.220  1.00  0.00    -0.250 S  
BRANCH   4   6
HETATM    6  S   UNL     1     -10.370  16.135  66.880  1.00  0.00    -0.297 SA 
BRANCH   6   7
HETATM    7  S   UNL     1     -11.034  16.211  68.836  1.00  0.00    -0.345 SA 
BRANCH   7   8
HETATM    8  C   UNL     1     -11.790  14.614  69.012  1.00  0.00    -0.310 C  
HETATM    9  S   UNL     1     -11.632  13.544  67.716  1.00  0.00    -0.360 S  
BRANCH   8  10
HETATM   10  N   UNL     1     -12.427  14.326  70.234  1.00  0.00    -0.356 N  
HETATM   11  C   UNL     1     -12.510  12.996  70.842  1.00  0.00    -0.310 C  
HETATM   12  C   UNL     1     -13.089  15.359  71.037  1.00  0.00    -0.501 C  
ENDBRANCH   8  10
ENDBRANCH   7   8
ENDBRANCH   6   7
ENDBRANCH   4   6
ENDBRANCH   2   4
TORSDOF 5
ENDMDL
MODEL       57
REMARK 921   NORMALIZED FREE ENERGY PREDICTED BY IDOCK:   -3.20 KCAL/MOL
REMARK 922        TOTAL FREE ENERGY PREDICTED BY IDOCK:   -4.23 KCAL/MOL
REMARK 923 INTER-LIGAND FREE ENERGY PREDICTED BY IDOCK:   -3.98 KCAL/MOL
REMARK 924 INTRA-LIGAND FREE ENERGY PREDICTED BY IDOCK:   -0.25 KCAL/MOL
REMARK 927      BINDING AFFINITY PREDICTED BY RF-SCORE:    0.00 PKD
ROOT
HETATM    1  C   UNL     1      -7.766  18.973  68.669  1.00  0.00    -0.343 C  
HETATM    2  N   UNL     1      -9.203  18.771  68.483  1.00  0.00    -0.338 N  
HETATM    3  C   UNL     1     -10.077  19.791  69.060  1.00  0.00    -0.334 C  
ENDROOT
BRANCH   2   4
HETATM    4  C   UNL     1      -9.697  17.619  67.834  1.00  0.00    -0.295 C  
HETATM    5  S   UNL     1     -10.207  17.581  66.223  1.00  0.00    -0.320 S  
BRANCH   4   6
HETATM    6  S   UNL     1      -9.680  16.113  68.784  1.00  0.00    -0.244 SA 
BRANCH   6   7
HETATM    7  S   UNL     1     -11.661  15.527  68.727  1.00  0.00    -0.326 SA 
BRANCH   7   8
HETATM    8  C   UNL     1     -11.533  13.932  67.956  1.00  0.00    -0.307 C  
HETATM    9  S   UNL     1     -11.641  12.582  68.963  1.00  0.00    -0.329 S  
BRANCH   8  10
HETATM   10  N   UNL     1     -11.402  13.895  66.555  1.00  0.00    -0.321 N  
HETATM   11  C   UNL     1     -10.133  13.755  65.836  1.00  0.00    -0.313 C  
HETATM   12  C   UNL     1     -12.555  13.997  65.654  1.00  0.00    -0.512 C  
ENDBRANCH   8  10
ENDBRANCH   7   8
ENDBRANCH   6   7
ENDBRANCH   4   6
ENDBRANCH   2   4
TORSDOF 5
ENDMDL
MODEL       58
REMARK 921   NORMALIZED FREE ENERGY PREDICTED BY IDOCK:   -3.20 KCAL/MOL
REMARK 922        TOTAL FREE ENERGY PREDICTED BY IDOCK:   -4.23 KCAL/MOL
REMARK 923 INTER-LIGAND FREE ENERGY PREDICTED BY IDOCK:   -4.09 KCAL/MOL
REMARK 924 INTRA-LIGAND FREE ENERGY PREDICTED BY IDOCK:   -0.14 KCAL/MOL
REMARK 927      BINDING AFFINITY PREDICTED BY RF-SCORE:    0.00 PKD
ROOT
HETATM    1  C   UNL     1     -12.611  11.571  70.973  1.00  0.00    -0.357 C  
HETATM    2  N   UNL     1     -12.783  13.006  71.205  1.00  0.00    -0.348 N  
HETATM    3  C   UNL     1     -13.728  13.379  72.257  1.00  0.00    -0.607 C  
ENDROOT
BRANCH   2   4
HETATM    4  C   UNL     1     -12.112  13.956  70.407  1.00  0.00    -0.351 C  
HETATM    5  S   UNL     1     -11.492  15.417  70.987  1.00  0.00    -0.394 S  
BRANCH   4   6
HETATM    6  S   UNL     1     -11.847  13.506  68.704  1.00  0.00    -0.363 SA 
BRANCH   6   7
HETATM    7  S   UNL     1     -11.314  15.308  67.843  1.00  0.00    -0.316 SA 
BRANCH   7   8
HETATM    8  C   UNL     1     -10.155  14.776  66.607  1.00  0.00    -0.264 C  
HETATM    9  S   UNL     1     -10.760  14.509  65.053  1.00  0.00    -0.439 S  
BRANCH   8  10
HETATM   10  N   UNL     1      -8.804  14.660  66.986  1.00  0.00    -0.229 N  
HETATM   11  C   UNL     1      -8.182  13.440  67.504  1.00  0.00    -0.185 C  
HETATM   12  C   UNL     1      -7.865  15.783  66.898  1.00  0.00    -0.236 C  
ENDBRANCH   8  10
ENDBRANCH   7   8
ENDBRANCH   6   7
ENDBRANCH   4   6
ENDBRANCH   2   4
TORSDOF 5
ENDMDL
MODEL       59
REMARK 921   NORMALIZED FREE ENERGY PREDICTED BY IDOCK:   -3.20 KCAL/MOL
REMARK 922        TOTAL FREE ENERGY PREDICTED BY IDOCK:   -4.22 KCAL/MOL
REMARK 923 INTER-LIGAND FREE ENERGY PREDICTED BY IDOCK:   -4.09 KCAL/MOL
REMARK 924 INTRA-LIGAND FREE ENERGY PREDICTED BY IDOCK:   -0.13 KCAL/MOL
REMARK 927      BINDING AFFINITY PREDICTED BY RF-SCORE:    0.00 PKD
ROOT
HETATM    1  C   UNL     1     -12.342  13.084  63.997  1.00  0.00    -0.363 C  
HETATM    2  N   UNL     1     -10.928  12.861  64.299  1.00  0.00    -0.365 N  
HETATM    3  C   UNL     1     -10.228  11.911  63.437  1.00  0.00    -0.449 C  
ENDROOT
BRANCH   2   4
HETATM    4  C   UNL     1     -10.314  13.491  65.402  1.00  0.00    -0.319 C  
HETATM    5  S   UNL     1      -9.607  12.666  66.697  1.00  0.00    -0.252 S  
BRANCH   4   6
HETATM    6  S   UNL     1     -10.221  15.269  65.341  1.00  0.00    -0.378 SA 
BRANCH   6   7
HETATM    7  S   UNL     1      -8.681  15.681  66.657  1.00  0.00    -0.320 SA 
BRANCH   7   8
HETATM    8  C   UNL     1      -8.568  17.448  66.521  1.00  0.00    -0.261 C  
HETATM    9  S   UNL     1      -7.109  18.083  65.956  1.00  0.00    -0.276 S  
BRANCH   8  10
HETATM   10  N   UNL     1      -9.714  18.201  66.843  1.00  0.00    -0.304 N  
HETATM   11  C   UNL     1     -10.156  19.400  66.128  1.00  0.00    -0.452 C  
HETATM   12  C   UNL     1     -10.598  17.847  67.958  1.00  0.00    -0.356 C  
ENDBRANCH   8  10
ENDBRANCH   7   8
ENDBRANCH   6   7
ENDBRANCH   4   6
ENDBRANCH   2   4
TORSDOF 5
ENDMDL
MODEL       60
REMARK 921   NORMALIZED FREE ENERGY PREDICTED BY IDOCK:   -3.18 KCAL/MOL
REMARK 922        TOTAL FREE ENERGY PREDICTED BY IDOCK:   -4.20 KCAL/MOL
REMARK 923 INTER-LIGAND FREE ENERGY PREDICTED BY IDOCK:   -4.11 KCAL/MOL
REMARK 924 INTRA-LIGAND FREE ENERGY PREDICTED BY IDOCK:   -0.09 KCAL/MOL
REMARK 927      BINDING AFFINITY PREDICTED BY RF-SCORE:    0.00 PKD
ROOT
HETATM    1  C   UNL     1     -11.013  15.780  64.807  1.00  0.00    -0.393 C  
HETATM    2  N   UNL     1     -11.505  14.493  65.297  1.00  0.00    -0.344 N  
HETATM    3  C   UNL     1     -12.137  13.624  64.305  1.00  0.00    -0.434 C  
ENDROOT
BRANCH   2   4
HETATM    4  C   UNL     1     -11.419  14.156  66.665  1.00  0.00    -0.366 C  
HETATM    5  S   UNL     1     -11.488  15.278  67.927  1.00  0.00    -0.278 S  
BRANCH   4   6
HETATM    6  S   UNL     1     -11.319  12.418  67.042  1.00  0.00    -0.348 SA 
BRANCH   6   7
HETATM    7  S   UNL     1     -11.705  12.379  69.072  1.00  0.00    -0.316 SA 
BRANCH   7   8
HETATM    8  C   UNL     1     -11.422  10.667  69.449  1.00  0.00    -0.286 C  
HETATM    9  S   UNL     1     -10.762   9.710  68.225  1.00  0.00    -0.186 S  
BRANCH   8  10
HETATM   10  N   UNL     1     -11.717  10.230  70.755  1.00  0.00    -0.334 N  
HETATM   11  C   UNL     1     -10.986   9.184  71.474  1.00  0.00    -0.364 C  
HETATM   12  C   UNL     1     -12.817  10.797  71.543  1.00  0.00    -0.462 C  
ENDBRANCH   8  10
ENDBRANCH   7   8
ENDBRANCH   6   7
ENDBRANCH   4   6
ENDBRANCH   2   4
TORSDOF 5
ENDMDL
MODEL       61
REMARK 921   NORMALIZED FREE ENERGY PREDICTED BY IDOCK:   -3.18 KCAL/MOL
REMARK 922        TOTAL FREE ENERGY PREDICTED BY IDOCK:   -4.20 KCAL/MOL
REMARK 923 INTER-LIGAND FREE ENERGY PREDICTED BY IDOCK:   -4.06 KCAL/MOL
REMARK 924 INTRA-LIGAND FREE ENERGY PREDICTED BY IDOCK:   -0.14 KCAL/MOL
REMARK 927      BINDING AFFINITY PREDICTED BY RF-SCORE:    0.00 PKD
ROOT
HETATM    1  C   UNL     1     -13.006  11.029  71.600  1.00  0.00    -0.456 C  
HETATM    2  N   UNL     1     -11.881  10.271  71.052  1.00  0.00    -0.363 N  
HETATM    3  C   UNL     1     -11.580   9.000  71.708  1.00  0.00    -0.374 C  
ENDROOT
BRANCH   2   4
HETATM    4  C   UNL     1     -11.107  10.787  69.990  1.00  0.00    -0.255 C  
HETATM    5  S   UNL     1      -9.702  10.059  69.396  1.00  0.00    -0.234 S  
BRANCH   4   6
HETATM    6  S   UNL     1     -11.737  12.252  69.198  1.00  0.00    -0.318 SA 
BRANCH   6   7
HETATM    7  S   UNL     1     -10.105  12.909  68.112  1.00  0.00    -0.243 SA 
BRANCH   7   8
HETATM    8  C   UNL     1     -10.827  14.218  67.153  1.00  0.00    -0.296 C  
HETATM    9  S   UNL     1     -10.786  15.769  67.819  1.00  0.00    -0.314 S  
BRANCH   8  10
HETATM   10  N   UNL     1     -11.338  13.890  65.883  1.00  0.00    -0.309 N  
HETATM   11  C   UNL     1     -10.524  13.623  64.696  1.00  0.00    -0.423 C  
HETATM   12  C   UNL     1     -12.777  13.782  65.620  1.00  0.00    -0.478 C  
ENDBRANCH   8  10
ENDBRANCH   7   8
ENDBRANCH   6   7
ENDBRANCH   4   6
ENDBRANCH   2   4
TORSDOF 5
ENDMDL
MODEL       62
REMARK 921   NORMALIZED FREE ENERGY PREDICTED BY IDOCK:   -3.18 KCAL/MOL
REMARK 922        TOTAL FREE ENERGY PREDICTED BY IDOCK:   -4.20 KCAL/MOL
REMARK 923 INTER-LIGAND FREE ENERGY PREDICTED BY IDOCK:   -3.92 KCAL/MOL
REMARK 924 INTRA-LIGAND FREE ENERGY PREDICTED BY IDOCK:   -0.28 KCAL/MOL
REMARK 927      BINDING AFFINITY PREDICTED BY RF-SCORE:    0.00 PKD
ROOT
HETATM    1  C   UNL     1     -10.199  19.917  68.294  1.00  0.00    -0.434 C  
HETATM    2  N   UNL     1      -9.658  19.513  66.997  1.00  0.00    -0.321 N  
HETATM    3  C   UNL     1     -10.503  19.783  65.834  1.00  0.00    -0.486 C  
ENDROOT
BRANCH   2   4
HETATM    4  C   UNL     1      -8.417  18.848  66.903  1.00  0.00    -0.286 C  
HETATM    5  S   UNL     1      -7.111  19.398  65.982  1.00  0.00    -0.286 S  
BRANCH   4   6
HETATM    6  S   UNL     1      -8.229  17.388  67.904  1.00  0.00    -0.231 SA 
BRANCH   6   7
HETATM    7  S   UNL     1      -8.565  15.868  66.545  1.00  0.00    -0.324 SA 
BRANCH   7   8
HETATM    8  C   UNL     1     -10.322  15.653  66.686  1.00  0.00    -0.289 C  
HETATM    9  S   UNL     1     -11.032  16.084  68.156  1.00  0.00    -0.337 S  
BRANCH   8  10
HETATM   10  N   UNL     1     -11.014  15.186  65.552  1.00  0.00    -0.349 N  
HETATM   11  C   UNL     1     -11.490  16.032  64.456  1.00  0.00    -0.271 C  
HETATM   12  C   UNL     1     -11.334  13.769  65.355  1.00  0.00    -0.308 C  
ENDBRANCH   8  10
ENDBRANCH   7   8
ENDBRANCH   6   7
ENDBRANCH   4   6
ENDBRANCH   2   4
TORSDOF 5
ENDMDL
MODEL       63
REMARK 921   NORMALIZED FREE ENERGY PREDICTED BY IDOCK:   -3.18 KCAL/MOL
REMARK 922        TOTAL FREE ENERGY PREDICTED BY IDOCK:   -4.20 KCAL/MOL
REMARK 923 INTER-LIGAND FREE ENERGY PREDICTED BY IDOCK:   -3.94 KCAL/MOL
REMARK 924 INTRA-LIGAND FREE ENERGY PREDICTED BY IDOCK:   -0.26 KCAL/MOL
REMARK 927      BINDING AFFINITY PREDICTED BY RF-SCORE:    0.00 PKD
ROOT
HETATM    1  C   UNL     1      -9.711  10.140  65.279  1.00  0.00    -0.300 C  
HETATM    2  N   UNL     1     -10.204  11.172  64.367  1.00  0.00    -0.304 N  
HETATM    3  C   UNL     1      -9.428  11.375  63.145  1.00  0.00    -0.343 C  
ENDROOT
BRANCH   2   4
HETATM    4  C   UNL     1     -11.331  11.954  64.698  1.00  0.00    -0.293 C  
HETATM    5  S   UNL     1     -12.583  12.320  63.623  1.00  0.00    -0.411 S  
BRANCH   4   6
HETATM    6  S   UNL     1     -11.442  12.497  66.390  1.00  0.00    -0.384 SA 
BRANCH   6   7
HETATM    7  S   UNL     1      -9.794  13.730  66.574  1.00  0.00    -0.296 SA 
BRANCH   7   8
HETATM    8  C   UNL     1     -10.547  15.336  66.486  1.00  0.00    -0.304 C  
HETATM    9  S   UNL     1     -11.007  15.886  64.958  1.00  0.00    -0.344 S  
BRANCH   8  10
HETATM   10  N   UNL     1     -10.756  16.024  67.697  1.00  0.00    -0.316 N  
HETATM   11  C   UNL     1     -10.000  17.200  68.133  1.00  0.00    -0.297 C  
HETATM   12  C   UNL     1     -11.780  15.617  68.665  1.00  0.00    -0.352 C  
ENDBRANCH   8  10
ENDBRANCH   7   8
ENDBRANCH   6   7
ENDBRANCH   4   6
ENDBRANCH   2   4
TORSDOF 5
ENDMDL
MODEL       64
REMARK 921   NORMALIZED FREE ENERGY PREDICTED BY IDOCK:   -3.18 KCAL/MOL
REMARK 922        TOTAL FREE ENERGY PREDICTED BY IDOCK:   -4.20 KCAL/MOL
REMARK 923 INTER-LIGAND FREE ENERGY PREDICTED BY IDOCK:   -3.99 KCAL/MOL
REMARK 924 INTRA-LIGAND FREE ENERGY PREDICTED BY IDOCK:   -0.20 KCAL/MOL
REMARK 927      BINDING AFFINITY PREDICTED BY RF-SCORE:    0.00 PKD
ROOT
HETATM    1  C   UNL     1      -8.014  18.086  68.208  1.00  0.00    -0.290 C  
HETATM    2  N   UNL     1      -9.451  18.102  68.477  1.00  0.00    -0.319 N  
HETATM    3  C   UNL     1     -10.012  19.383  68.904  1.00  0.00    -0.445 C  
ENDROOT
BRANCH   2   4
HETATM    4  C   UNL     1     -10.221  16.923  68.383  1.00  0.00    -0.322 C  
HETATM    5  S   UNL     1     -11.022  16.204  69.686  1.00  0.00    -0.359 S  
BRANCH   4   6
HETATM    6  S   UNL     1     -10.404  16.232  66.752  1.00  0.00    -0.290 SA 
BRANCH   6   7
HETATM    7  S   UNL     1      -9.726  14.296  67.009  1.00  0.00    -0.261 SA 
BRANCH   7   8
HETATM    8  C   UNL     1     -11.249  13.384  66.968  1.00  0.00    -0.305 C  
HETATM    9  S   UNL     1     -12.394  13.852  65.820  1.00  0.00    -0.492 S  
BRANCH   8  10
HETATM   10  N   UNL     1     -11.383  12.301  67.859  1.00  0.00    -0.276 N  
HETATM   11  C   UNL     1     -11.782  12.416  69.263  1.00  0.00    -0.329 C  
HETATM   12  C   UNL     1     -11.129  10.914  67.454  1.00  0.00    -0.307 C  
ENDBRANCH   8  10
ENDBRANCH   7   8
ENDBRANCH   6   7
ENDBRANCH   4   6
ENDBRANCH   2   4
TORSDOF 5
ENDMDL
MODEL       65
REMARK 921   NORMALIZED FREE ENERGY PREDICTED BY IDOCK:   -3.18 KCAL/MOL
REMARK 922        TOTAL FREE ENERGY PREDICTED BY IDOCK:   -4.20 KCAL/MOL
REMARK 923 INTER-LIGAND FREE ENERGY PREDICTED BY IDOCK:   -4.05 KCAL/MOL
REMARK 924 INTRA-LIGAND FREE ENERGY PREDICTED BY IDOCK:   -0.15 KCAL/MOL
REMARK 927      BINDING AFFINITY PREDICTED BY RF-SCORE:    0.00 PKD
ROOT
HETATM    1  C   UNL     1     -11.845  12.820  65.968  1.00  0.00    -0.439 C  
HETATM    2  N   UNL     1     -11.453  14.200  65.683  1.00  0.00    -0.318 N  
HETATM    3  C   UNL     1     -12.062  14.811  64.502  1.00  0.00    -0.446 C  
ENDROOT
BRANCH   2   4
HETATM    4  C   UNL     1     -10.495  14.862  66.479  1.00  0.00    -0.297 C  
HETATM    5  S   UNL     1      -9.557  14.105  67.664  1.00  0.00    -0.222 S  
BRANCH   4   6
HETATM    6  S   UNL     1     -10.228  16.586  66.119  1.00  0.00    -0.352 SA 
BRANCH   6   7
HETATM    7  S   UNL     1     -10.275  17.447  67.997  1.00  0.00    -0.364 SA 
BRANCH   7   8
HETATM    8  C   UNL     1      -9.178  18.827  67.777  1.00  0.00    -0.289 C  
HETATM    9  S   UNL     1      -9.821  20.210  67.054  1.00  0.00    -0.477 S  
BRANCH   8  10
HETATM   10  N   UNL     1      -7.863  18.697  68.264  1.00  0.00    -0.296 N  
HETATM   11  C   UNL     1      -7.164  19.703  69.066  1.00  0.00    -0.344 C  
HETATM   12  C   UNL     1      -7.044  17.508  68.006  1.00  0.00    -0.201 C  
ENDBRANCH   8  10
ENDBRANCH   7   8
ENDBRANCH   6   7
ENDBRANCH   4   6
ENDBRANCH   2   4
TORSDOF 5
ENDMDL
MODEL       66
REMARK 921   NORMALIZED FREE ENERGY PREDICTED BY IDOCK:   -3.18 KCAL/MOL
REMARK 922        TOTAL FREE ENERGY PREDICTED BY IDOCK:   -4.20 KCAL/MOL
REMARK 923 INTER-LIGAND FREE ENERGY PREDICTED BY IDOCK:   -4.02 KCAL/MOL
REMARK 924 INTRA-LIGAND FREE ENERGY PREDICTED BY IDOCK:   -0.18 KCAL/MOL
REMARK 927      BINDING AFFINITY PREDICTED BY RF-SCORE:    0.00 PKD
ROOT
HETATM    1  C   UNL     1     -10.147   8.958  71.914  1.00  0.00    -0.322 C  
HETATM    2  N   UNL     1     -11.373   8.515  71.250  1.00  0.00    -0.259 N  
HETATM    3  C   UNL     1     -11.258   7.318  70.418  1.00  0.00    -0.276 C  
ENDROOT
BRANCH   2   4
HETATM    4  C   UNL     1     -12.571   9.251  71.370  1.00  0.00    -0.336 C  
HETATM    5  S   UNL     1     -14.040   8.597  71.889  1.00  0.00    -0.433 S  
BRANCH   4   6
HETATM    6  S   UNL     1     -12.460  10.995  71.028  1.00  0.00    -0.405 SA 
BRANCH   6   7
HETATM    7  S   UNL     1     -11.751  11.026  69.087  1.00  0.00    -0.343 SA 
BRANCH   7   8
HETATM    8  C   UNL     1     -11.766  12.766  68.736  1.00  0.00    -0.323 C  
HETATM    9  S   UNL     1     -12.120  13.805  70.019  1.00  0.00    -0.345 S  
BRANCH   8  10
HETATM   10  N   UNL     1     -11.435  13.170  67.429  1.00  0.00    -0.312 N  
HETATM   11  C   UNL     1     -12.240  14.070  66.600  1.00  0.00    -0.428 C  
HETATM   12  C   UNL     1     -10.216  12.714  66.751  1.00  0.00    -0.237 C  
ENDBRANCH   8  10
ENDBRANCH   7   8
ENDBRANCH   6   7
ENDBRANCH   4   6
ENDBRANCH   2   4
TORSDOF 5
ENDMDL
MODEL       67
REMARK 921   NORMALIZED FREE ENERGY PREDICTED BY IDOCK:   -3.17 KCAL/MOL
REMARK 922        TOTAL FREE ENERGY PREDICTED BY IDOCK:   -4.19 KCAL/MOL
REMARK 923 INTER-LIGAND FREE ENERGY PREDICTED BY IDOCK:   -4.00 KCAL/MOL
REMARK 924 INTRA-LIGAND FREE ENERGY PREDICTED BY IDOCK:   -0.19 KCAL/MOL
REMARK 927      BINDING AFFINITY PREDICTED BY RF-SCORE:    0.00 PKD
ROOT
HETATM    1  C   UNL     1      -8.095  19.438  68.717  1.00  0.00    -0.353 C  
HETATM    2  N   UNL     1      -9.080  19.098  67.691  1.00  0.00    -0.293 N  
HETATM    3  C   UNL     1     -10.410  19.684  67.857  1.00  0.00    -0.454 C  
ENDROOT
BRANCH   2   4
HETATM    4  C   UNL     1      -8.762  18.207  66.645  1.00  0.00    -0.264 C  
HETATM    5  S   UNL     1      -7.223  18.055  65.961  1.00  0.00    -0.253 S  
BRANCH   4   6
HETATM    6  S   UNL     1     -10.073  17.131  66.100  1.00  0.00    -0.278 SA 
BRANCH   6   7
HETATM    7  S   UNL     1      -9.529  15.314  66.922  1.00  0.00    -0.247 SA 
BRANCH   7   8
HETATM    8  C   UNL     1     -11.020  14.854  67.770  1.00  0.00    -0.293 C  
HETATM    9  S   UNL     1     -11.512  15.840  69.049  1.00  0.00    -0.403 S  
BRANCH   8  10
HETATM   10  N   UNL     1     -11.720  13.729  67.293  1.00  0.00    -0.360 N  
HETATM   11  C   UNL     1     -11.728  12.413  67.934  1.00  0.00    -0.360 C  
HETATM   12  C   UNL     1     -12.532  13.770  66.071  1.00  0.00    -0.445 C  
ENDBRANCH   8  10
ENDBRANCH   7   8
ENDBRANCH   6   7
ENDBRANCH   4   6
ENDBRANCH   2   4
TORSDOF 5
ENDMDL
MODEL       68
REMARK 921   NORMALIZED FREE ENERGY PREDICTED BY IDOCK:   -3.17 KCAL/MOL
REMARK 922        TOTAL FREE ENERGY PREDICTED BY IDOCK:   -4.18 KCAL/MOL
REMARK 923 INTER-LIGAND FREE ENERGY PREDICTED BY IDOCK:   -3.96 KCAL/MOL
REMARK 924 INTRA-LIGAND FREE ENERGY PREDICTED BY IDOCK:   -0.23 KCAL/MOL
REMARK 927      BINDING AFFINITY PREDICTED BY RF-SCORE:    0.00 PKD
ROOT
HETATM    1  C   UNL     1     -10.544  13.774  64.596  1.00  0.00    -0.425 C  
HETATM    2  N   UNL     1     -11.044  14.047  65.943  1.00  0.00    -0.299 N  
HETATM    3  C   UNL     1     -12.469  13.801  66.163  1.00  0.00    -0.418 C  
ENDROOT
BRANCH   2   4
HETATM    4  C   UNL     1     -10.196  14.574  66.940  1.00  0.00    -0.264 C  
HETATM    5  S   UNL     1      -8.660  13.967  67.299  1.00  0.00    -0.202 S  
BRANCH   4   6
HETATM    6  S   UNL     1     -10.785  16.025  67.787  1.00  0.00    -0.322 SA 
BRANCH   6   7
HETATM    7  S   UNL     1      -9.048  16.813  68.583  1.00  0.00    -0.255 SA 
BRANCH   7   8
HETATM    8  C   UNL     1      -8.667  18.084  67.402  1.00  0.00    -0.248 C  
HETATM    9  S   UNL     1      -7.362  17.805  66.369  1.00  0.00    -0.300 S  
BRANCH   8  10
HETATM   10  N   UNL     1      -9.505  19.215  67.370  1.00  0.00    -0.301 N  
HETATM   11  C   UNL     1      -9.919  19.916  66.152  1.00  0.00    -0.487 C  
HETATM   12  C   UNL     1     -10.058  19.819  68.587  1.00  0.00    -0.440 C  
ENDBRANCH   8  10
ENDBRANCH   7   8
ENDBRANCH   6   7
ENDBRANCH   4   6
ENDBRANCH   2   4
TORSDOF 5
ENDMDL
MODEL       69
REMARK 921   NORMALIZED FREE ENERGY PREDICTED BY IDOCK:   -3.15 KCAL/MOL
REMARK 922        TOTAL FREE ENERGY PREDICTED BY IDOCK:   -4.17 KCAL/MOL
REMARK 923 INTER-LIGAND FREE ENERGY PREDICTED BY IDOCK:   -3.99 KCAL/MOL
REMARK 924 INTRA-LIGAND FREE ENERGY PREDICTED BY IDOCK:   -0.17 KCAL/MOL
REMARK 927      BINDING AFFINITY PREDICTED BY RF-SCORE:    0.00 PKD
ROOT
HETATM    1  C   UNL     1      -7.322  19.354  68.995  1.00  0.00    -0.360 C  
HETATM    2  N   UNL     1      -7.944  19.377  67.672  1.00  0.00    -0.276 N  
HETATM    3  C   UNL     1      -7.387  20.332  66.715  1.00  0.00    -0.281 C  
ENDROOT
BRANCH   2   4
HETATM    4  C   UNL     1      -9.056  18.559  67.378  1.00  0.00    -0.275 C  
HETATM    5  S   UNL     1     -10.640  19.127  67.224  1.00  0.00    -0.485 S  
BRANCH   4   6
HETATM    6  S   UNL     1      -8.708  16.839  67.071  1.00  0.00    -0.216 SA 
BRANCH   6   7
HETATM    7  S   UNL     1     -10.213  16.306  65.759  1.00  0.00    -0.351 SA 
BRANCH   7   8
HETATM    8  C   UNL     1     -10.950  14.933  66.610  1.00  0.00    -0.325 C  
HETATM    9  S   UNL     1     -11.397  15.178  68.220  1.00  0.00    -0.338 S  
BRANCH   8  10
HETATM   10  N   UNL     1     -11.159  13.749  65.878  1.00  0.00    -0.285 N  
HETATM   11  C   UNL     1     -11.865  12.567  66.379  1.00  0.00    -0.381 C  
HETATM   12  C   UNL     1     -10.677  13.580  64.503  1.00  0.00    -0.418 C  
ENDBRANCH   8  10
ENDBRANCH   7   8
ENDBRANCH   6   7
ENDBRANCH   4   6
ENDBRANCH   2   4
TORSDOF 5
ENDMDL
MODEL       70
REMARK 921   NORMALIZED FREE ENERGY PREDICTED BY IDOCK:   -3.15 KCAL/MOL
REMARK 922        TOTAL FREE ENERGY PREDICTED BY IDOCK:   -4.17 KCAL/MOL
REMARK 923 INTER-LIGAND FREE ENERGY PREDICTED BY IDOCK:   -4.04 KCAL/MOL
REMARK 924 INTRA-LIGAND FREE ENERGY PREDICTED BY IDOCK:   -0.12 KCAL/MOL
REMARK 927      BINDING AFFINITY PREDICTED BY RF-SCORE:    0.00 PKD
ROOT
HETATM    1  C   UNL     1     -11.569  12.760  68.733  1.00  0.00    -0.312 C  
HETATM    2  N   UNL     1     -11.304  12.829  67.296  1.00  0.00    -0.295 N  
HETATM    3  C   UNL     1     -10.828  11.597  66.669  1.00  0.00    -0.283 C  
ENDROOT
BRANCH   2   4
HETATM    4  C   UNL     1     -11.448  14.042  66.588  1.00  0.00    -0.364 C  
HETATM    5  S   UNL     1     -12.058  14.159  65.016  1.00  0.00    -0.443 S  
BRANCH   4   6
HETATM    6  S   UNL     1     -11.031  15.527  67.479  1.00  0.00    -0.298 SA 
BRANCH   6   7
HETATM    7  S   UNL     1      -9.887  16.565  66.106  1.00  0.00    -0.333 SA 
BRANCH   7   8
HETATM    8  C   UNL     1      -9.182  17.835  67.127  1.00  0.00    -0.253 C  
HETATM    9  S   UNL     1      -7.686  17.508  67.837  1.00  0.00    -0.218 S  
BRANCH   8  10
HETATM   10  N   UNL     1      -9.888  19.049  67.237  1.00  0.00    -0.315 N  
HETATM   11  C   UNL     1     -10.045  19.817  68.474  1.00  0.00    -0.445 C  
HETATM   12  C   UNL     1     -10.554  19.677  66.091  1.00  0.00    -0.483 C  
ENDBRANCH   8  10
ENDBRANCH   7   8
ENDBRANCH   6   7
ENDBRANCH   4   6
ENDBRANCH   2   4
TORSDOF 5
ENDMDL
MODEL       71
REMARK 921   NORMALIZED FREE ENERGY PREDICTED BY IDOCK:   -3.15 KCAL/MOL
REMARK 922        TOTAL FREE ENERGY PREDICTED BY IDOCK:   -4.16 KCAL/MOL
REMARK 923 INTER-LIGAND FREE ENERGY PREDICTED BY IDOCK:   -3.95 KCAL/MOL
REMARK 924 INTRA-LIGAND FREE ENERGY PREDICTED BY IDOCK:   -0.21 KCAL/MOL
REMARK 927      BINDING AFFINITY PREDICTED BY RF-SCORE:    0.00 PKD
ROOT
HETATM    1  C   UNL     1     -12.541  14.005  65.065  1.00  0.00    -0.390 C  
HETATM    2  N   UNL     1     -11.170  13.934  65.570  1.00  0.00    -0.303 N  
HETATM    3  C   UNL     1     -10.402  15.177  65.522  1.00  0.00    -0.375 C  
ENDROOT
BRANCH   2   4
HETATM    4  C   UNL     1     -10.623  12.712  66.015  1.00  0.00    -0.270 C  
HETATM    5  S   UNL     1     -10.430  11.345  65.040  1.00  0.00    -0.308 S  
BRANCH   4   6
HETATM    6  S   UNL     1     -10.030  12.681  67.695  1.00  0.00    -0.221 SA 
BRANCH   6   7
HETATM    7  S   UNL     1     -11.750  13.041  68.782  1.00  0.00    -0.329 SA 
BRANCH   7   8
HETATM    8  C   UNL     1     -11.839  11.582  69.791  1.00  0.00    -0.357 C  
HETATM    9  S   UNL     1     -10.938  10.246  69.288  1.00  0.00    -0.251 S  
BRANCH   8  10
HETATM   10  N   UNL     1     -12.611  11.649  70.966  1.00  0.00    -0.372 N  
HETATM   11  C   UNL     1     -13.139  12.882  71.552  1.00  0.00    -0.298 C  
HETATM   12  C   UNL     1     -12.970  10.455  71.739  1.00  0.00    -0.475 C  
ENDBRANCH   8  10
ENDBRANCH   7   8
ENDBRANCH   6   7
ENDBRANCH   4   6
ENDBRANCH   2   4
TORSDOF 5
ENDMDL
MODEL       72
REMARK 921   NORMALIZED FREE ENERGY PREDICTED BY IDOCK:   -3.14 KCAL/MOL
REMARK 922        TOTAL FREE ENERGY PREDICTED BY IDOCK:   -4.15 KCAL/MOL
REMARK 923 INTER-LIGAND FREE ENERGY PREDICTED BY IDOCK:   -4.06 KCAL/MOL
REMARK 924 INTRA-LIGAND FREE ENERGY PREDICTED BY IDOCK:   -0.09 KCAL/MOL
REMARK 927      BINDING AFFINITY PREDICTED BY RF-SCORE:    0.00 PKD
ROOT
HETATM    1  C   UNL     1     -13.724   9.159  72.110  1.00  0.00    -0.471 C  
HETATM    2  N   UNL     1     -12.534   9.839  71.598  1.00  0.00    -0.384 N  
HETATM    3  C   UNL     1     -11.269   9.119  71.743  1.00  0.00    -0.381 C  
ENDROOT
BRANCH   2   4
HETATM    4  C   UNL     1     -12.616  11.139  71.056  1.00  0.00    -0.403 C  
HETATM    5  S   UNL     1     -13.213  12.481  71.892  1.00  0.00    -0.283 S  
BRANCH   4   6
HETATM    6  S   UNL     1     -11.957  11.351  69.416  1.00  0.00    -0.324 SA 
BRANCH   6   7
HETATM    7  S   UNL     1     -11.432  13.350  69.399  1.00  0.00    -0.252 SA 
BRANCH   7   8
HETATM    8  C   UNL     1     -11.120  13.616  67.672  1.00  0.00    -0.273 C  
HETATM    9  S   UNL     1     -11.522  12.361  66.617  1.00  0.00    -0.379 S  
BRANCH   8  10
HETATM   10  N   UNL     1     -10.606  14.869  67.288  1.00  0.00    -0.268 N  
HETATM   11  C   UNL     1      -9.672  15.089  66.182  1.00  0.00    -0.306 C  
HETATM   12  C   UNL     1     -10.967  16.111  67.981  1.00  0.00    -0.338 C  
ENDBRANCH   8  10
ENDBRANCH   7   8
ENDBRANCH   6   7
ENDBRANCH   4   6
ENDBRANCH   2   4
TORSDOF 5
ENDMDL
MODEL       73
REMARK 921   NORMALIZED FREE ENERGY PREDICTED BY IDOCK:   -3.14 KCAL/MOL
REMARK 922        TOTAL FREE ENERGY PREDICTED BY IDOCK:   -4.15 KCAL/MOL
REMARK 923 INTER-LIGAND FREE ENERGY PREDICTED BY IDOCK:   -4.06 KCAL/MOL
REMARK 924 INTRA-LIGAND FREE ENERGY PREDICTED BY IDOCK:   -0.09 KCAL/MOL
REMARK 927      BINDING AFFINITY PREDICTED BY RF-SCORE:    0.00 PKD
ROOT
HETATM    1  C   UNL     1     -12.624  13.817  65.551  1.00  0.00    -0.512 C  
HETATM    2  N   UNL     1     -11.441  14.502  66.072  1.00  0.00    -0.345 N  
HETATM    3  C   UNL     1     -10.528  15.058  65.074  1.00  0.00    -0.386 C  
ENDROOT
BRANCH   2   4
HETATM    4  C   UNL     1     -11.185  14.558  67.458  1.00  0.00    -0.321 C  
HETATM    5  S   UNL     1     -11.063  13.201  68.458  1.00  0.00    -0.281 S  
BRANCH   4   6
HETATM    6  S   UNL     1     -10.892  16.177  68.140  1.00  0.00    -0.335 SA 
BRANCH   6   7
HETATM    7  S   UNL     1      -8.953  16.023  68.839  1.00  0.00    -0.251 SA 
BRANCH   7   8
HETATM    8  C   UNL     1      -8.173  17.386  68.010  1.00  0.00    -0.229 C  
HETATM    9  S   UNL     1      -7.454  17.066  66.517  1.00  0.00    -0.312 S  
BRANCH   8  10
HETATM   10  N   UNL     1      -8.247  18.651  68.624  1.00  0.00    -0.332 N  
HETATM   11  C   UNL     1      -9.490  19.359  68.937  1.00  0.00    -0.389 C  
HETATM   12  C   UNL     1      -7.052  19.403  69.021  1.00  0.00    -0.362 C  
ENDBRANCH   8  10
ENDBRANCH   7   8
ENDBRANCH   6   7
ENDBRANCH   4   6
ENDBRANCH   2   4
TORSDOF 5
ENDMDL
MODEL       74
REMARK 921   NORMALIZED FREE ENERGY PREDICTED BY IDOCK:   -3.14 KCAL/MOL
REMARK 922        TOTAL FREE ENERGY PREDICTED BY IDOCK:   -4.15 KCAL/MOL
REMARK 923 INTER-LIGAND FREE ENERGY PREDICTED BY IDOCK:   -3.99 KCAL/MOL
REMARK 924 INTRA-LIGAND FREE ENERGY PREDICTED BY IDOCK:   -0.16 KCAL/MOL
REMARK 927      BINDING AFFINITY PREDICTED BY RF-SCORE:    0.00 PKD
ROOT
HETATM    1  C   UNL     1     -12.182  14.571  64.284  1.00  0.00    -0.415 C  
HETATM    2  N   UNL     1     -10.972  14.099  64.958  1.00  0.00    -0.362 N  
HETATM    3  C   UNL     1     -10.078  15.134  65.475  1.00  0.00    -0.370 C  
ENDROOT
BRANCH   2   4
HETATM    4  C   UNL     1     -10.676  12.722  65.038  1.00  0.00    -0.296 C  
HETATM    5  S   UNL     1     -10.948  11.617  63.788  1.00  0.00    -0.433 S  
BRANCH   4   6
HETATM    6  S   UNL     1      -9.885  12.173  66.536  1.00  0.00    -0.223 SA 
BRANCH   6   7
HETATM    7  S   UNL     1     -11.479  11.977  67.837  1.00  0.00    -0.340 SA 
BRANCH   7   8
HETATM    8  C   UNL     1     -11.082  10.448  68.649  1.00  0.00    -0.262 C  
HETATM    9  S   UNL     1     -10.405   9.228  67.700  1.00  0.00    -0.265 S  
BRANCH   8  10
HETATM   10  N   UNL     1     -11.309  10.370  70.037  1.00  0.00    -0.290 N  
HETATM   11  C   UNL     1     -10.579   9.496  70.957  1.00  0.00    -0.322 C  
HETATM   12  C   UNL     1     -12.330  11.178  70.712  1.00  0.00    -0.406 C  
ENDBRANCH   8  10
ENDBRANCH   7   8
ENDBRANCH   6   7
ENDBRANCH   4   6
ENDBRANCH   2   4
TORSDOF 5
ENDMDL
MODEL       75
REMARK 921   NORMALIZED FREE ENERGY PREDICTED BY IDOCK:   -3.14 KCAL/MOL
REMARK 922        TOTAL FREE ENERGY PREDICTED BY IDOCK:   -4.14 KCAL/MOL
REMARK 923 INTER-LIGAND FREE ENERGY PREDICTED BY IDOCK:   -3.94 KCAL/MOL
REMARK 924 INTRA-LIGAND FREE ENERGY PREDICTED BY IDOCK:   -0.21 KCAL/MOL
REMARK 927      BINDING AFFINITY PREDICTED BY RF-SCORE:    0.00 PKD
ROOT
HETATM    1  C   UNL     1     -13.487  13.070  72.183  1.00  0.00    -0.542 C  
HETATM    2  N   UNL     1     -13.006  13.915  71.090  1.00  0.00    -0.331 N  
HETATM    3  C   UNL     1     -13.385  15.325  71.152  1.00  0.00    -0.498 C  
ENDROOT
BRANCH   2   4
HETATM    4  C   UNL     1     -12.271  13.366  70.018  1.00  0.00    -0.298 C  
HETATM    5  S   UNL     1     -11.845  11.735  69.893  1.00  0.00    -0.327 S  
BRANCH   4   6
HETATM    6  S   UNL     1     -11.863  14.482  68.691  1.00  0.00    -0.298 SA 
BRANCH   6   7
HETATM    7  S   UNL     1     -10.023  15.219  69.277  1.00  0.00    -0.255 SA 
BRANCH   7   8
HETATM    8  C   UNL     1      -9.352  15.759  67.724  1.00  0.00    -0.206 C  
HETATM    9  S   UNL     1      -7.869  15.099  67.258  1.00  0.00    -0.208 S  
BRANCH   8  10
HETATM   10  N   UNL     1     -10.119  16.660  66.961  1.00  0.00    -0.274 N  
HETATM   11  C   UNL     1     -10.574  16.420  65.589  1.00  0.00    -0.323 C  
HETATM   12  C   UNL     1     -10.547  17.963  67.480  1.00  0.00    -0.376 C  
ENDBRANCH   8  10
ENDBRANCH   7   8
ENDBRANCH   6   7
ENDBRANCH   4   6
ENDBRANCH   2   4
TORSDOF 5
ENDMDL
MODEL       76
REMARK 921   NORMALIZED FREE ENERGY PREDICTED BY IDOCK:   -3.13 KCAL/MOL
REMARK 922        TOTAL FREE ENERGY PREDICTED BY IDOCK:   -4.13 KCAL/MOL
REMARK 923 INTER-LIGAND FREE ENERGY PREDICTED BY IDOCK:   -3.98 KCAL/MOL
REMARK 924 INTRA-LIGAND FREE ENERGY PREDICTED BY IDOCK:   -0.15 KCAL/MOL
REMARK 927      BINDING AFFINITY PREDICTED BY RF-SCORE:    0.00 PKD
ROOT
HETATM    1  C   UNL     1     -11.756  12.596  67.260  1.00  0.00    -0.370 C  
HETATM    2  N   UNL     1     -11.835  12.646  68.720  1.00  0.00    -0.311 N  
HETATM    3  C   UNL     1     -11.771  11.359  69.412  1.00  0.00    -0.338 C  
ENDROOT
BRANCH   2   4
HETATM    4  C   UNL     1     -12.023  13.870  69.396  1.00  0.00    -0.354 C  
HETATM    5  S   UNL     1     -12.531  14.000  71.002  1.00  0.00    -0.386 S  
BRANCH   4   6
HETATM    6  S   UNL     1     -11.603  15.343  68.487  1.00  0.00    -0.340 SA 
BRANCH   6   7
HETATM    7  S   UNL     1      -9.757  15.840  69.270  1.00  0.00    -0.275 SA 
BRANCH   7   8
HETATM    8  C   UNL     1      -9.098  16.874  67.986  1.00  0.00    -0.234 C  
HETATM    9  S   UNL     1      -8.725  16.130  66.517  1.00  0.00    -0.330 S  
BRANCH   8  10
HETATM   10  N   UNL     1      -8.977  18.251  68.256  1.00  0.00    -0.298 N  
HETATM   11  C   UNL     1      -7.714  18.943  68.523  1.00  0.00    -0.331 C  
HETATM   12  C   UNL     1     -10.136  19.148  68.298  1.00  0.00    -0.416 C  
ENDBRANCH   8  10
ENDBRANCH   7   8
ENDBRANCH   6   7
ENDBRANCH   4   6
ENDBRANCH   2   4
TORSDOF 5
ENDMDL
MODEL       77
REMARK 921   NORMALIZED FREE ENERGY PREDICTED BY IDOCK:   -3.12 KCAL/MOL
REMARK 922        TOTAL FREE ENERGY PREDICTED BY IDOCK:   -4.13 KCAL/MOL
REMARK 923 INTER-LIGAND FREE ENERGY PREDICTED BY IDOCK:   -4.00 KCAL/MOL
REMARK 924 INTRA-LIGAND FREE ENERGY PREDICTED BY IDOCK:   -0.13 KCAL/MOL
REMARK 927      BINDING AFFINITY PREDICTED BY RF-SCORE:    0.00 PKD
ROOT
HETATM    1  C   UNL     1     -11.002   8.860  71.891  1.00  0.00    -0.369 C  
HETATM    2  N   UNL     1     -11.695   9.884  71.109  1.00  0.00    -0.368 N  
HETATM    3  C   UNL     1     -12.959  10.370  71.661  1.00  0.00    -0.475 C  
ENDROOT
BRANCH   2   4
HETATM    4  C   UNL     1     -11.186  10.318  69.867  1.00  0.00    -0.299 C  
HETATM    5  S   UNL     1     -10.186   9.388  68.872  1.00  0.00    -0.206 S  
BRANCH   4   6
HETATM    6  S   UNL     1     -11.728  11.921  69.311  1.00  0.00    -0.335 SA 
BRANCH   6   7
HETATM    7  S   UNL     1     -10.203  12.493  68.039  1.00  0.00    -0.230 SA 
BRANCH   7   8
HETATM    8  C   UNL     1     -11.068  13.557  66.910  1.00  0.00    -0.296 C  
HETATM    9  S   UNL     1     -11.949  12.813  65.677  1.00  0.00    -0.457 S  
BRANCH   8  10
HETATM   10  N   UNL     1     -11.005  14.943  67.145  1.00  0.00    -0.315 N  
HETATM   11  C   UNL     1     -10.337  15.911  66.272  1.00  0.00    -0.314 C  
HETATM   12  C   UNL     1     -11.620  15.570  68.320  1.00  0.00    -0.334 C  
ENDBRANCH   8  10
ENDBRANCH   7   8
ENDBRANCH   6   7
ENDBRANCH   4   6
ENDBRANCH   2   4
TORSDOF 5
ENDMDL
MODEL       78
REMARK 921   NORMALIZED FREE ENERGY PREDICTED BY IDOCK:   -3.11 KCAL/MOL
REMARK 922        TOTAL FREE ENERGY PREDICTED BY IDOCK:   -4.11 KCAL/MOL
REMARK 923 INTER-LIGAND FREE ENERGY PREDICTED BY IDOCK:   -3.95 KCAL/MOL
REMARK 924 INTRA-LIGAND FREE ENERGY PREDICTED BY IDOCK:   -0.16 KCAL/MOL
REMARK 927      BINDING AFFINITY PREDICTED BY RF-SCORE:    0.00 PKD
ROOT
HETATM    1  C   UNL     1     -10.045  11.727  64.835  1.00  0.00    -0.259 C  
HETATM    2  N   UNL     1     -11.309  12.136  65.449  1.00  0.00    -0.335 N  
HETATM    3  C   UNL     1     -12.388  12.488  64.527  1.00  0.00    -0.467 C  
ENDROOT
BRANCH   2   4
HETATM    4  C   UNL     1     -11.436  12.235  66.850  1.00  0.00    -0.356 C  
HETATM    5  S   UNL     1     -11.082  10.983  67.929  1.00  0.00    -0.307 S  
BRANCH   4   6
HETATM    6  S   UNL     1     -11.919  13.828  67.485  1.00  0.00    -0.338 SA 
BRANCH   6   7
HETATM    7  S   UNL     1     -11.616  13.609  69.518  1.00  0.00    -0.292 SA 
BRANCH   7   8
HETATM    8  C   UNL     1     -11.182  15.265  69.988  1.00  0.00    -0.287 C  
HETATM    9  S   UNL     1     -11.964  15.911  71.337  1.00  0.00    -0.466 S  
BRANCH   8  10
HETATM   10  N   UNL     1     -10.181  15.914  69.238  1.00  0.00    -0.232 N  
HETATM   11  C   UNL     1     -10.376  17.143  68.468  1.00  0.00    -0.364 C  
HETATM   12  C   UNL     1      -8.808  15.404  69.155  1.00  0.00    -0.249 C  
ENDBRANCH   8  10
ENDBRANCH   7   8
ENDBRANCH   6   7
ENDBRANCH   4   6
ENDBRANCH   2   4
TORSDOF 5
ENDMDL
MODEL       79
REMARK 921   NORMALIZED FREE ENERGY PREDICTED BY IDOCK:   -3.11 KCAL/MOL
REMARK 922        TOTAL FREE ENERGY PREDICTED BY IDOCK:   -4.10 KCAL/MOL
REMARK 923 INTER-LIGAND FREE ENERGY PREDICTED BY IDOCK:   -4.07 KCAL/MOL
REMARK 924 INTRA-LIGAND FREE ENERGY PREDICTED BY IDOCK:   -0.04 KCAL/MOL
REMARK 927      BINDING AFFINITY PREDICTED BY RF-SCORE:    0.00 PKD
ROOT
HETATM    1  C   UNL     1      -9.405  10.635  65.504  1.00  0.00    -0.205 C  
HETATM    2  N   UNL     1     -10.320  10.969  66.595  1.00  0.00    -0.232 N  
HETATM    3  C   UNL     1     -10.605   9.896  67.547  1.00  0.00    -0.275 C  
ENDROOT
BRANCH   2   4
HETATM    4  C   UNL     1     -10.928  12.240  66.670  1.00  0.00    -0.278 C  
HETATM    5  S   UNL     1     -12.064  12.818  65.560  1.00  0.00    -0.459 S  
BRANCH   4   6
HETATM    6  S   UNL     1     -10.507  13.231  68.089  1.00  0.00    -0.250 SA 
BRANCH   6   7
HETATM    7  S   UNL     1     -11.883  12.603  69.497  1.00  0.00    -0.277 SA 
BRANCH   7   8
HETATM    8  C   UNL     1     -12.238  14.124  70.343  1.00  0.00    -0.356 C  
HETATM    9  S   UNL     1     -11.355  15.485  69.876  1.00  0.00    -0.347 S  
BRANCH   8  10
HETATM   10  N   UNL     1     -13.262  14.109  71.308  1.00  0.00    -0.341 N  
HETATM   11  C   UNL     1     -13.480  13.037  72.281  1.00  0.00    -0.547 C  
HETATM   12  C   UNL     1     -14.239  15.196  71.435  1.00  0.00    -0.498 C  
ENDBRANCH   8  10
ENDBRANCH   7   8
ENDBRANCH   6   7
ENDBRANCH   4   6
ENDBRANCH   2   4
TORSDOF 5
ENDMDL
MODEL       80
REMARK 921   NORMALIZED FREE ENERGY PREDICTED BY IDOCK:   -3.11 KCAL/MOL
REMARK 922        TOTAL FREE ENERGY PREDICTED BY IDOCK:   -4.10 KCAL/MOL
REMARK 923 INTER-LIGAND FREE ENERGY PREDICTED BY IDOCK:   -3.93 KCAL/MOL
REMARK 924 INTRA-LIGAND FREE ENERGY PREDICTED BY IDOCK:   -0.18 KCAL/MOL
REMARK 927      BINDING AFFINITY PREDICTED BY RF-SCORE:    0.00 PKD
ROOT
HETATM    1  C   UNL     1      -9.581  10.822  62.960  1.00  0.00    -0.353 C  
HETATM    2  N   UNL     1     -10.061  11.043  64.324  1.00  0.00    -0.310 N  
HETATM    3  C   UNL     1      -9.754   9.991  65.292  1.00  0.00    -0.306 C  
ENDROOT
BRANCH   2   4
HETATM    4  C   UNL     1     -10.827  12.182  64.649  1.00  0.00    -0.306 C  
HETATM    5  S   UNL     1     -12.315  12.561  63.943  1.00  0.00    -0.488 S  
BRANCH   4   6
HETATM    6  S   UNL     1     -10.189  13.213  65.954  1.00  0.00    -0.293 SA 
BRANCH   6   7
HETATM    7  S   UNL     1     -11.905  14.064  66.730  1.00  0.00    -0.442 SA 
BRANCH   7   8
HETATM    8  C   UNL     1     -11.338  14.604  68.324  1.00  0.00    -0.297 C  
HETATM    9  S   UNL     1     -12.050  13.887  69.676  1.00  0.00    -0.334 S  
BRANCH   8  10
HETATM   10  N   UNL     1     -10.300  15.555  68.358  1.00  0.00    -0.227 N  
HETATM   11  C   UNL     1      -9.009  15.363  69.023  1.00  0.00    -0.230 C  
HETATM   12  C   UNL     1     -10.415  16.867  67.712  1.00  0.00    -0.340 C  
ENDBRANCH   8  10
ENDBRANCH   7   8
ENDBRANCH   6   7
ENDBRANCH   4   6
ENDBRANCH   2   4
TORSDOF 5
ENDMDL
MODEL       81
REMARK 921   NORMALIZED FREE ENERGY PREDICTED BY IDOCK:   -3.09 KCAL/MOL
REMARK 922        TOTAL FREE ENERGY PREDICTED BY IDOCK:   -4.09 KCAL/MOL
REMARK 923 INTER-LIGAND FREE ENERGY PREDICTED BY IDOCK:   -3.70 KCAL/MOL
REMARK 924 INTRA-LIGAND FREE ENERGY PREDICTED BY IDOCK:   -0.39 KCAL/MOL
REMARK 927      BINDING AFFINITY PREDICTED BY RF-SCORE:    0.00 PKD
ROOT
HETATM    1  C   UNL     1     -11.619  11.674  67.433  1.00  0.00    -0.254 C  
HETATM    2  N   UNL     1     -11.010  11.819  66.111  1.00  0.00    -0.299 N  
HETATM    3  C   UNL     1      -9.755  11.100  65.896  1.00  0.00    -0.229 C  
ENDROOT
BRANCH   2   4
HETATM    4  C   UNL     1     -11.587  12.660  65.135  1.00  0.00    -0.348 C  
HETATM    5  S   UNL     1     -11.942  12.177  63.554  1.00  0.00    -0.512 S  
BRANCH   4   6
HETATM    6  S   UNL     1     -12.035  14.298  65.672  1.00  0.00    -0.380 SA 
BRANCH   6   7
HETATM    7  S   UNL     1     -10.241  15.316  65.544  1.00  0.00    -0.399 SA 
BRANCH   7   8
HETATM    8  C   UNL     1     -10.066  15.927  67.202  1.00  0.00    -0.264 C  
HETATM    9  S   UNL     1     -10.188  17.597  67.421  1.00  0.00    -0.358 S  
BRANCH   8  10
HETATM   10  N   UNL     1      -9.889  14.981  68.230  1.00  0.00    -0.215 N  
HETATM   11  C   UNL     1     -10.754  14.848  69.405  1.00  0.00    -0.256 C  
HETATM   12  C   UNL     1      -8.788  14.012  68.224  1.00  0.00    -0.184 C  
ENDBRANCH   8  10
ENDBRANCH   7   8
ENDBRANCH   6   7
ENDBRANCH   4   6
ENDBRANCH   2   4
TORSDOF 5
ENDMDL
MODEL       82
REMARK 921   NORMALIZED FREE ENERGY PREDICTED BY IDOCK:   -3.09 KCAL/MOL
REMARK 922        TOTAL FREE ENERGY PREDICTED BY IDOCK:   -4.09 KCAL/MOL
REMARK 923 INTER-LIGAND FREE ENERGY PREDICTED BY IDOCK:   -3.86 KCAL/MOL
REMARK 924 INTRA-LIGAND FREE ENERGY PREDICTED BY IDOCK:   -0.22 KCAL/MOL
REMARK 927      BINDING AFFINITY PREDICTED BY RF-SCORE:    0.00 PKD
ROOT
HETATM    1  C   UNL     1      -8.790   9.539  63.842  1.00  0.00    -0.210 C  
HETATM    2  N   UNL     1      -9.794  10.252  64.632  1.00  0.00    -0.331 N  
HETATM    3  C   UNL     1     -10.653  11.178  63.896  1.00  0.00    -0.364 C  
ENDROOT
BRANCH   2   4
HETATM    4  C   UNL     1      -9.870  10.085  66.031  1.00  0.00    -0.257 C  
HETATM    5  S   UNL     1     -10.035   8.591  66.803  1.00  0.00    -0.301 S  
BRANCH   4   6
HETATM    6  S   UNL     1      -9.688  11.562  67.010  1.00  0.00    -0.186 SA 
BRANCH   6   7
HETATM    7  S   UNL     1     -11.499  11.666  68.002  1.00  0.00    -0.316 SA 
BRANCH   7   8
HETATM    8  C   UNL     1     -11.745  13.422  68.098  1.00  0.00    -0.362 C  
HETATM    9  S   UNL     1     -11.925  14.089  69.638  1.00  0.00    -0.353 S  
BRANCH   8  10
HETATM   10  N   UNL     1     -11.724  14.150  66.892  1.00  0.00    -0.393 N  
HETATM   11  C   UNL     1     -10.847  15.290  66.618  1.00  0.00    -0.310 C  
HETATM   12  C   UNL     1     -12.603  13.826  65.764  1.00  0.00    -0.480 C  
ENDBRANCH   8  10
ENDBRANCH   7   8
ENDBRANCH   6   7
ENDBRANCH   4   6
ENDBRANCH   2   4
TORSDOF 5
ENDMDL
MODEL       83
REMARK 921   NORMALIZED FREE ENERGY PREDICTED BY IDOCK:   -3.07 KCAL/MOL
REMARK 922        TOTAL FREE ENERGY PREDICTED BY IDOCK:   -4.06 KCAL/MOL
REMARK 923 INTER-LIGAND FREE ENERGY PREDICTED BY IDOCK:   -3.89 KCAL/MOL
REMARK 924 INTRA-LIGAND FREE ENERGY PREDICTED BY IDOCK:   -0.17 KCAL/MOL
REMARK 927      BINDING AFFINITY PREDICTED BY RF-SCORE:    0.00 PKD
ROOT
HETATM    1  C   UNL     1      -7.553  18.780  68.462  1.00  0.00    -0.327 C  
HETATM    2  N   UNL     1      -8.924  18.420  68.101  1.00  0.00    -0.301 N  
HETATM    3  C   UNL     1      -9.862  19.531  67.944  1.00  0.00    -0.379 C  
ENDROOT
BRANCH   2   4
HETATM    4  C   UNL     1      -9.311  17.069  67.977  1.00  0.00    -0.245 C  
HETATM    5  S   UNL     1     -10.347  16.273  69.050  1.00  0.00    -0.285 S  
BRANCH   4   6
HETATM    6  S   UNL     1      -8.717  16.209  66.534  1.00  0.00    -0.330 SA 
BRANCH   6   7
HETATM    7  S   UNL     1      -9.631  14.364  66.705  1.00  0.00    -0.279 SA 
BRANCH   7   8
HETATM    8  C   UNL     1     -10.787  14.419  65.358  1.00  0.00    -0.344 C  
HETATM    9  S   UNL     1     -11.231  15.946  64.790  1.00  0.00    -0.249 S  
BRANCH   8  10
HETATM   10  N   UNL     1     -11.217  13.192  64.818  1.00  0.00    -0.311 N  
HETATM   11  C   UNL     1     -12.524  12.579  65.069  1.00  0.00    -0.420 C  
HETATM   12  C   UNL     1     -10.375  12.386  63.928  1.00  0.00    -0.423 C  
ENDBRANCH   8  10
ENDBRANCH   7   8
ENDBRANCH   6   7
ENDBRANCH   4   6
ENDBRANCH   2   4
TORSDOF 5
ENDMDL
MODEL       84
REMARK 921   NORMALIZED FREE ENERGY PREDICTED BY IDOCK:   -3.07 KCAL/MOL
REMARK 922        TOTAL FREE ENERGY PREDICTED BY IDOCK:   -4.06 KCAL/MOL
REMARK 923 INTER-LIGAND FREE ENERGY PREDICTED BY IDOCK:   -3.95 KCAL/MOL
REMARK 924 INTRA-LIGAND FREE ENERGY PREDICTED BY IDOCK:   -0.11 KCAL/MOL
REMARK 927      BINDING AFFINITY PREDICTED BY RF-SCORE:    0.00 PKD
ROOT
HETATM    1  C   UNL     1     -10.990  11.441  66.652  1.00  0.00    -0.285 C  
HETATM    2  N   UNL     1     -11.475  12.596  67.409  1.00  0.00    -0.316 N  
HETATM    3  C   UNL     1     -11.789  12.357  68.817  1.00  0.00    -0.311 C  
ENDROOT
BRANCH   2   4
HETATM    4  C   UNL     1     -11.677  13.843  66.781  1.00  0.00    -0.399 C  
HETATM    5  S   UNL     1     -12.601  14.065  65.383  1.00  0.00    -0.454 S  
BRANCH   4   6
HETATM    6  S   UNL     1     -10.966  15.258  67.595  1.00  0.00    -0.317 SA 
BRANCH   6   7
HETATM    7  S   UNL     1      -9.490  15.841  66.272  1.00  0.00    -0.345 SA 
BRANCH   7   8
HETATM    8  C   UNL     1      -9.277  17.548  66.714  1.00  0.00    -0.265 C  
HETATM    9  S   UNL     1     -10.534  18.281  67.570  1.00  0.00    -0.404 S  
BRANCH   8  10
HETATM   10  N   UNL     1      -8.058  18.163  66.369  1.00  0.00    -0.269 N  
HETATM   11  C   UNL     1      -6.790  17.457  66.171  1.00  0.00    -0.243 C  
HETATM   12  C   UNL     1      -7.938  19.611  66.170  1.00  0.00    -0.343 C  
ENDBRANCH   8  10
ENDBRANCH   7   8
ENDBRANCH   6   7
ENDBRANCH   4   6
ENDBRANCH   2   4
TORSDOF 5
ENDMDL
MODEL       85
REMARK 921   NORMALIZED FREE ENERGY PREDICTED BY IDOCK:   -3.06 KCAL/MOL
REMARK 922        TOTAL FREE ENERGY PREDICTED BY IDOCK:   -4.05 KCAL/MOL
REMARK 923 INTER-LIGAND FREE ENERGY PREDICTED BY IDOCK:   -3.93 KCAL/MOL
REMARK 924 INTRA-LIGAND FREE ENERGY PREDICTED BY IDOCK:   -0.13 KCAL/MOL
REMARK 927      BINDING AFFINITY PREDICTED BY RF-SCORE:    0.00 PKD
ROOT
HETATM    1  C   UNL     1     -10.767  16.386  65.391  1.00  0.00    -0.296 C  
HETATM    2  N   UNL     1     -10.373  15.581  66.547  1.00  0.00    -0.280 N  
HETATM    3  C   UNL     1      -9.225  16.068  67.310  1.00  0.00    -0.205 C  
ENDROOT
BRANCH   2   4
HETATM    4  C   UNL     1     -11.039  14.375  66.852  1.00  0.00    -0.323 C  
HETATM    5  S   UNL     1     -12.315  13.737  65.946  1.00  0.00    -0.471 S  
BRANCH   4   6
HETATM    6  S   UNL     1     -10.403  13.455  68.239  1.00  0.00    -0.252 SA 
BRANCH   6   7
HETATM    7  S   UNL     1     -11.977  13.518  69.577  1.00  0.00    -0.316 SA 
BRANCH   7   8
HETATM    8  C   UNL     1     -12.009  11.840  70.159  1.00  0.00    -0.339 C  
HETATM    9  S   UNL     1     -10.941  10.754  69.430  1.00  0.00    -0.269 S  
BRANCH   8  10
HETATM   10  N   UNL     1     -12.883  11.536  71.220  1.00  0.00    -0.399 N  
HETATM   11  C   UNL     1     -13.405  12.510  72.180  1.00  0.00    -0.435 C  
HETATM   12  C   UNL     1     -13.368  10.175  71.473  1.00  0.00    -0.341 C  
ENDBRANCH   8  10
ENDBRANCH   7   8
ENDBRANCH   6   7
ENDBRANCH   4   6
ENDBRANCH   2   4
TORSDOF 5
ENDMDL
MODEL       86
REMARK 921   NORMALIZED FREE ENERGY PREDICTED BY IDOCK:   -3.05 KCAL/MOL
REMARK 922        TOTAL FREE ENERGY PREDICTED BY IDOCK:   -4.03 KCAL/MOL
REMARK 923 INTER-LIGAND FREE ENERGY PREDICTED BY IDOCK:   -3.83 KCAL/MOL
REMARK 924 INTRA-LIGAND FREE ENERGY PREDICTED BY IDOCK:   -0.21 KCAL/MOL
REMARK 927      BINDING AFFINITY PREDICTED BY RF-SCORE:    0.00 PKD
ROOT
HETATM    1  C   UNL     1      -7.292  19.322  68.400  1.00  0.00    -0.305 C  
HETATM    2  N   UNL     1      -7.750  17.937  68.283  1.00  0.00    -0.269 N  
HETATM    3  C   UNL     1      -6.990  16.943  69.040  1.00  0.00    -0.224 C  
ENDROOT
BRANCH   2   4
HETATM    4  C   UNL     1      -8.826  17.597  67.437  1.00  0.00    -0.235 C  
HETATM    5  S   UNL     1     -10.263  18.479  67.324  1.00  0.00    -0.392 S  
BRANCH   4   6
HETATM    6  S   UNL     1      -8.575  16.191  66.372  1.00  0.00    -0.338 SA 
BRANCH   6   7
HETATM    7  S   UNL     1     -10.439  15.941  65.516  1.00  0.00    -0.403 SA 
BRANCH   7   8
HETATM    8  C   UNL     1     -11.004  14.468  66.332  1.00  0.00    -0.324 C  
HETATM    9  S   UNL     1     -11.619  14.645  67.894  1.00  0.00    -0.349 S  
BRANCH   8  10
HETATM   10  N   UNL     1     -10.950  13.261  65.609  1.00  0.00    -0.276 N  
HETATM   11  C   UNL     1     -11.328  11.950  66.140  1.00  0.00    -0.324 C  
HETATM   12  C   UNL     1     -10.497  13.200  64.215  1.00  0.00    -0.389 C  
ENDBRANCH   8  10
ENDBRANCH   7   8
ENDBRANCH   6   7
ENDBRANCH   4   6
ENDBRANCH   2   4
TORSDOF 5
ENDMDL
MODEL       87
REMARK 921   NORMALIZED FREE ENERGY PREDICTED BY IDOCK:   -3.05 KCAL/MOL
REMARK 922        TOTAL FREE ENERGY PREDICTED BY IDOCK:   -4.03 KCAL/MOL
REMARK 923 INTER-LIGAND FREE ENERGY PREDICTED BY IDOCK:   -3.87 KCAL/MOL
REMARK 924 INTRA-LIGAND FREE ENERGY PREDICTED BY IDOCK:   -0.16 KCAL/MOL
REMARK 927      BINDING AFFINITY PREDICTED BY RF-SCORE:    0.00 PKD
ROOT
HETATM    1  C   UNL     1     -11.747  15.949  71.564  1.00  0.00    -0.475 C  
HETATM    2  N   UNL     1     -11.332  15.517  70.229  1.00  0.00    -0.300 N  
HETATM    3  C   UNL     1     -10.772  16.553  69.362  1.00  0.00    -0.330 C  
ENDROOT
BRANCH   2   4
HETATM    4  C   UNL     1     -11.527  14.186  69.804  1.00  0.00    -0.250 C  
HETATM    5  S   UNL     1     -12.611  13.107  70.524  1.00  0.00    -0.097 S  
BRANCH   4   6
HETATM    6  S   UNL     1     -10.619  13.681  68.358  1.00  0.00    -0.254 SA 
BRANCH   6   7
HETATM    7  S   UNL     1     -12.089  13.613  66.907  1.00  0.00    -0.354 SA 
BRANCH   7   8
HETATM    8  C   UNL     1     -11.136  13.872  65.431  1.00  0.00    -0.310 C  
HETATM    9  S   UNL     1     -10.184  15.264  65.366  1.00  0.00    -0.378 S  
BRANCH   8  10
HETATM   10  N   UNL     1     -11.197  12.879  64.434  1.00  0.00    -0.331 N  
HETATM   11  C   UNL     1     -12.295  12.717  63.479  1.00  0.00    -0.496 C  
HETATM   12  C   UNL     1     -10.136  11.882  64.253  1.00  0.00    -0.295 C  
ENDBRANCH   8  10
ENDBRANCH   7   8
ENDBRANCH   6   7
ENDBRANCH   4   6
ENDBRANCH   2   4
TORSDOF 5
ENDMDL
MODEL       88
REMARK 921   NORMALIZED FREE ENERGY PREDICTED BY IDOCK:   -3.05 KCAL/MOL
REMARK 922        TOTAL FREE ENERGY PREDICTED BY IDOCK:   -4.03 KCAL/MOL
REMARK 923 INTER-LIGAND FREE ENERGY PREDICTED BY IDOCK:   -3.89 KCAL/MOL
REMARK 924 INTRA-LIGAND FREE ENERGY PREDICTED BY IDOCK:   -0.14 KCAL/MOL
REMARK 927      BINDING AFFINITY PREDICTED BY RF-SCORE:    0.00 PKD
ROOT
HETATM    1  C   UNL     1     -10.689  13.200  66.352  1.00  0.00    -0.284 C  
HETATM    2  N   UNL     1     -11.136  13.560  67.697  1.00  0.00    -0.262 N  
HETATM    3  C   UNL     1     -11.548  12.452  68.557  1.00  0.00    -0.313 C  
ENDROOT
BRANCH   2   4
HETATM    4  C   UNL     1     -11.213  14.911  68.099  1.00  0.00    -0.299 C  
HETATM    5  S   UNL     1     -11.893  15.432  69.556  1.00  0.00    -0.350 S  
BRANCH   4   6
HETATM    6  S   UNL     1     -10.454  16.100  67.011  1.00  0.00    -0.291 SA 
BRANCH   6   7
HETATM    7  S   UNL     1     -10.378  17.797  68.188  1.00  0.00    -0.389 SA 
BRANCH   7   8
HETATM    8  C   UNL     1      -8.822  18.495  67.695  1.00  0.00    -0.271 C  
HETATM    9  S   UNL     1      -7.459  18.029  68.575  1.00  0.00    -0.284 S  
BRANCH   8  10
HETATM   10  N   UNL     1      -8.816  19.350  66.577  1.00  0.00    -0.337 N  
HETATM   11  C   UNL     1      -7.619  19.753  65.836  1.00  0.00    -0.323 C  
HETATM   12  C   UNL     1     -10.045  19.937  66.031  1.00  0.00    -0.487 C  
ENDBRANCH   8  10
ENDBRANCH   7   8
ENDBRANCH   6   7
ENDBRANCH   4   6
ENDBRANCH   2   4
TORSDOF 5
ENDMDL
MODEL       89
REMARK 921   NORMALIZED FREE ENERGY PREDICTED BY IDOCK:   -3.04 KCAL/MOL
REMARK 922        TOTAL FREE ENERGY PREDICTED BY IDOCK:   -4.02 KCAL/MOL
REMARK 923 INTER-LIGAND FREE ENERGY PREDICTED BY IDOCK:   -3.83 KCAL/MOL
REMARK 924 INTRA-LIGAND FREE ENERGY PREDICTED BY IDOCK:   -0.19 KCAL/MOL
REMARK 927      BINDING AFFINITY PREDICTED BY RF-SCORE:    0.00 PKD
ROOT
HETATM    1  C   UNL     1     -11.157   7.569  72.883  1.00  0.00    -0.375 C  
HETATM    2  N   UNL     1     -11.721   7.489  71.535  1.00  0.00    -0.270 N  
HETATM    3  C   UNL     1     -13.135   7.124  71.449  1.00  0.00    -0.352 C  
ENDROOT
BRANCH   2   4
HETATM    4  C   UNL     1     -10.914   7.695  70.397  1.00  0.00    -0.247 C  
HETATM    5  S   UNL     1     -10.815   6.623  69.093  1.00  0.00    -0.290 S  
BRANCH   4   6
HETATM    6  S   UNL     1     -10.026   9.238  70.331  1.00  0.00    -0.255 SA 
BRANCH   6   7
HETATM    7  S   UNL     1     -10.986  10.240  68.799  1.00  0.00    -0.237 SA 
BRANCH   7   8
HETATM    8  C   UNL     1     -11.906  11.461  69.702  1.00  0.00    -0.362 C  
HETATM    9  S   UNL     1     -12.697  10.946  71.102  1.00  0.00    -0.431 S  
BRANCH   8  10
HETATM   10  N   UNL     1     -11.877  12.785  69.223  1.00  0.00    -0.310 N  
HETATM   11  C   UNL     1     -12.036  13.980  70.054  1.00  0.00    -0.339 C  
HETATM   12  C   UNL     1     -11.679  13.103  67.805  1.00  0.00    -0.358 C  
ENDBRANCH   8  10
ENDBRANCH   7   8
ENDBRANCH   6   7
ENDBRANCH   4   6
ENDBRANCH   2   4
TORSDOF 5
ENDMDL
MODEL       90
REMARK 921   NORMALIZED FREE ENERGY PREDICTED BY IDOCK:   -3.03 KCAL/MOL
REMARK 922        TOTAL FREE ENERGY PREDICTED BY IDOCK:   -4.01 KCAL/MOL
REMARK 923 INTER-LIGAND FREE ENERGY PREDICTED BY IDOCK:   -3.89 KCAL/MOL
REMARK 924 INTRA-LIGAND FREE ENERGY PREDICTED BY IDOCK:   -0.11 KCAL/MOL
REMARK 927      BINDING AFFINITY PREDICTED BY RF-SCORE:    0.00 PKD
ROOT
HETATM    1  C   UNL     1     -12.246  14.434  71.142  1.00  0.00    -0.350 C  
HETATM    2  N   UNL     1     -11.725  14.197  69.795  1.00  0.00    -0.293 N  
HETATM    3  C   UNL     1     -11.584  15.377  68.943  1.00  0.00    -0.354 C  
ENDROOT
BRANCH   2   4
HETATM    4  C   UNL     1     -11.439  12.890  69.347  1.00  0.00    -0.260 C  
HETATM    5  S   UNL     1     -12.083  11.487  70.035  1.00  0.00    -0.317 S  
BRANCH   4   6
HETATM    6  S   UNL     1     -10.397  12.762  67.908  1.00  0.00    -0.232 SA 
BRANCH   6   7
HETATM    7  S   UNL     1     -11.771  12.726  66.365  1.00  0.00    -0.411 SA 
BRANCH   7   8
HETATM    8  C   UNL     1     -10.837  13.465  65.047  1.00  0.00    -0.328 C  
HETATM    9  S   UNL     1     -10.293  12.438  63.822  1.00  0.00    -0.378 S  
BRANCH   8  10
HETATM   10  N   UNL     1     -10.654  14.860  65.082  1.00  0.00    -0.399 N  
HETATM   11  C   UNL     1      -9.556  15.544  65.768  1.00  0.00    -0.332 C  
HETATM   12  C   UNL     1     -11.573  15.790  64.416  1.00  0.00    -0.240 C  
ENDBRANCH   8  10
ENDBRANCH   7   8
ENDBRANCH   6   7
ENDBRANCH   4   6
ENDBRANCH   2   4
TORSDOF 5
ENDMDL
MODEL       91
REMARK 921   NORMALIZED FREE ENERGY PREDICTED BY IDOCK:   -3.03 KCAL/MOL
REMARK 922        TOTAL FREE ENERGY PREDICTED BY IDOCK:   -4.00 KCAL/MOL
REMARK 923 INTER-LIGAND FREE ENERGY PREDICTED BY IDOCK:   -3.72 KCAL/MOL
REMARK 924 INTRA-LIGAND FREE ENERGY PREDICTED BY IDOCK:   -0.29 KCAL/MOL
REMARK 927      BINDING AFFINITY PREDICTED BY RF-SCORE:    0.00 PKD
ROOT
HETATM    1  C   UNL     1     -10.076  11.666  63.631  1.00  0.00    -0.402 C  
HETATM    2  N   UNL     1     -11.296  12.212  64.227  1.00  0.00    -0.338 N  
HETATM    3  C   UNL     1     -12.529  12.014  63.465  1.00  0.00    -0.540 C  
ENDROOT
BRANCH   2   4
HETATM    4  C   UNL     1     -11.253  12.937  65.436  1.00  0.00    -0.283 C  
HETATM    5  S   UNL     1     -12.460  14.001  65.951  1.00  0.00    -0.432 S  
BRANCH   4   6
HETATM    6  S   UNL     1      -9.860  12.612  66.498  1.00  0.00    -0.260 SA 
BRANCH   6   7
HETATM    7  S   UNL     1     -10.327  13.699  68.193  1.00  0.00    -0.251 SA 
BRANCH   7   8
HETATM    8  C   UNL     1      -9.265  15.110  68.008  1.00  0.00    -0.185 C  
HETATM    9  S   UNL     1      -7.710  14.990  68.656  1.00  0.00    -0.138 S  
BRANCH   8  10
HETATM   10  N   UNL     1      -9.766  16.213  67.292  1.00  0.00    -0.231 N  
HETATM   11  C   UNL     1      -9.564  16.445  65.860  1.00  0.00    -0.274 C  
HETATM   12  C   UNL     1     -10.562  17.267  67.930  1.00  0.00    -0.384 C  
ENDBRANCH   8  10
ENDBRANCH   7   8
ENDBRANCH   6   7
ENDBRANCH   4   6
ENDBRANCH   2   4
TORSDOF 5
ENDMDL
MODEL       92
REMARK 921   NORMALIZED FREE ENERGY PREDICTED BY IDOCK:   -3.02 KCAL/MOL
REMARK 922        TOTAL FREE ENERGY PREDICTED BY IDOCK:   -3.99 KCAL/MOL
REMARK 923 INTER-LIGAND FREE ENERGY PREDICTED BY IDOCK:   -3.82 KCAL/MOL
REMARK 924 INTRA-LIGAND FREE ENERGY PREDICTED BY IDOCK:   -0.17 KCAL/MOL
REMARK 927      BINDING AFFINITY PREDICTED BY RF-SCORE:    0.00 PKD
ROOT
HETATM    1  C   UNL     1      -7.165  18.312  68.236  1.00  0.00    -0.259 C  
HETATM    2  N   UNL     1      -7.773  17.110  68.807  1.00  0.00    -0.260 N  
HETATM    3  C   UNL     1      -6.860  16.176  69.464  1.00  0.00    -0.190 C  
ENDROOT
BRANCH   2   4
HETATM    4  C   UNL     1      -9.155  16.860  68.667  1.00  0.00    -0.265 C  
HETATM    5  S   UNL     1     -10.306  18.046  68.315  1.00  0.00    -0.356 S  
BRANCH   4   6
HETATM    6  S   UNL     1      -9.661  15.156  68.789  1.00  0.00    -0.229 SA 
BRANCH   6   7
HETATM    7  S   UNL     1     -11.716  15.312  68.945  1.00  0.00    -0.327 SA 
BRANCH   7   8
HETATM    8  C   UNL     1     -11.979  14.801  70.626  1.00  0.00    -0.309 C  
HETATM    9  S   UNL     1     -11.820  15.982  71.821  1.00  0.00    -0.520 S  
BRANCH   8  10
HETATM   10  N   UNL     1     -12.350  13.461  70.849  1.00  0.00    -0.375 N  
HETATM   11  C   UNL     1     -13.313  13.015  71.858  1.00  0.00    -0.446 C  
HETATM   12  C   UNL     1     -11.791  12.351  70.070  1.00  0.00    -0.288 C  
ENDBRANCH   8  10
ENDBRANCH   7   8
ENDBRANCH   6   7
ENDBRANCH   4   6
ENDBRANCH   2   4
TORSDOF 5
ENDMDL
MODEL       93
REMARK 921   NORMALIZED FREE ENERGY PREDICTED BY IDOCK:   -3.02 KCAL/MOL
REMARK 922        TOTAL FREE ENERGY PREDICTED BY IDOCK:   -3.99 KCAL/MOL
REMARK 923 INTER-LIGAND FREE ENERGY PREDICTED BY IDOCK:   -3.87 KCAL/MOL
REMARK 924 INTRA-LIGAND FREE ENERGY PREDICTED BY IDOCK:   -0.12 KCAL/MOL
REMARK 927      BINDING AFFINITY PREDICTED BY RF-SCORE:    0.00 PKD
ROOT
HETATM    1  C   UNL     1     -10.053  12.071  63.591  1.00  0.00    -0.415 C  
HETATM    2  N   UNL     1     -11.279  12.699  64.086  1.00  0.00    -0.358 N  
HETATM    3  C   UNL     1     -12.535  12.144  63.585  1.00  0.00    -0.549 C  
ENDROOT
BRANCH   2   4
HETATM    4  C   UNL     1     -11.225  13.815  64.948  1.00  0.00    -0.349 C  
HETATM    5  S   UNL     1     -11.329  15.421  64.433  1.00  0.00    -0.136 S  
BRANCH   4   6
HETATM    6  S   UNL     1     -11.131  13.458  66.691  1.00  0.00    -0.300 SA 
BRANCH   6   7
HETATM    7  S   UNL     1     -11.336  15.331  67.542  1.00  0.00    -0.251 SA 
BRANCH   7   8
HETATM    8  C   UNL     1     -10.513  15.100  69.098  1.00  0.00    -0.252 C  
HETATM    9  S   UNL     1      -8.843  15.348  69.128  1.00  0.00    -0.258 S  
BRANCH   8  10
HETATM   10  N   UNL     1     -11.308  14.776  70.214  1.00  0.00    -0.250 N  
HETATM   11  C   UNL     1     -12.215  13.628  70.291  1.00  0.00    -0.353 C  
HETATM   12  C   UNL     1     -11.306  15.579  71.441  1.00  0.00    -0.395 C  
ENDBRANCH   8  10
ENDBRANCH   7   8
ENDBRANCH   6   7
ENDBRANCH   4   6
ENDBRANCH   2   4
TORSDOF 5
ENDMDL
MODEL       94
REMARK 921   NORMALIZED FREE ENERGY PREDICTED BY IDOCK:   -3.01 KCAL/MOL
REMARK 922        TOTAL FREE ENERGY PREDICTED BY IDOCK:   -3.98 KCAL/MOL
REMARK 923 INTER-LIGAND FREE ENERGY PREDICTED BY IDOCK:   -3.80 KCAL/MOL
REMARK 924 INTRA-LIGAND FREE ENERGY PREDICTED BY IDOCK:   -0.18 KCAL/MOL
REMARK 927      BINDING AFFINITY PREDICTED BY RF-SCORE:    0.00 PKD
ROOT
HETATM    1  C   UNL     1     -11.971  14.011  68.078  1.00  0.00    -0.350 C  
HETATM    2  N   UNL     1     -11.740  13.301  66.820  1.00  0.00    -0.364 N  
HETATM    3  C   UNL     1     -12.542  13.737  65.678  1.00  0.00    -0.509 C  
ENDROOT
BRANCH   2   4
HETATM    4  C   UNL     1     -10.835  12.221  66.752  1.00  0.00    -0.253 C  
HETATM    5  S   UNL     1     -10.404  11.430  65.321  1.00  0.00    -0.295 S  
BRANCH   4   6
HETATM    6  S   UNL     1     -10.054  11.751  68.282  1.00  0.00    -0.200 SA 
BRANCH   6   7
HETATM    7  S   UNL     1     -10.865   9.885  68.643  1.00  0.00    -0.181 SA 
BRANCH   7   8
HETATM    8  C   UNL     1     -11.247   9.998  70.374  1.00  0.00    -0.323 C  
HETATM    9  S   UNL     1     -12.464  11.079  70.823  1.00  0.00    -0.400 S  
BRANCH   8  10
HETATM   10  N   UNL     1     -10.549   9.147  71.252  1.00  0.00    -0.302 N  
HETATM   11  C   UNL     1     -11.163   8.369  72.329  1.00  0.00    -0.376 C  
HETATM   12  C   UNL     1      -9.097   8.953  71.170  1.00  0.00    -0.249 C  
ENDBRANCH   8  10
ENDBRANCH   7   8
ENDBRANCH   6   7
ENDBRANCH   4   6
ENDBRANCH   2   4
TORSDOF 5
ENDMDL
MODEL       95
REMARK 921   NORMALIZED FREE ENERGY PREDICTED BY IDOCK:   -3.01 KCAL/MOL
REMARK 922        TOTAL FREE ENERGY PREDICTED BY IDOCK:   -3.98 KCAL/MOL
REMARK 923 INTER-LIGAND FREE ENERGY PREDICTED BY IDOCK:   -3.88 KCAL/MOL
REMARK 924 INTRA-LIGAND FREE ENERGY PREDICTED BY IDOCK:   -0.10 KCAL/MOL
REMARK 927      BINDING AFFINITY PREDICTED BY RF-SCORE:    0.00 PKD
ROOT
HETATM    1  C   UNL     1     -13.636  12.861  72.249  1.00  0.00    -0.515 C  
HETATM    2  N   UNL     1     -12.715  12.905  71.113  1.00  0.00    -0.335 N  
HETATM    3  C   UNL     1     -12.251  14.232  70.711  1.00  0.00    -0.353 C  
ENDROOT
BRANCH   2   4
HETATM    4  C   UNL     1     -12.358  11.727  70.423  1.00  0.00    -0.277 C  
HETATM    5  S   UNL     1     -11.429  11.698  69.011  1.00  0.00    -0.323 S  
BRANCH   4   6
HETATM    6  S   UNL     1     -12.863  10.192  71.171  1.00  0.00    -0.417 SA 
BRANCH   6   7
HETATM    7  S   UNL     1     -11.107   9.103  71.188  1.00  0.00    -0.355 SA 
BRANCH   7   8
HETATM    8  C   UNL     1     -11.710   7.461  70.880  1.00  0.00    -0.296 C  
HETATM    9  S   UNL     1     -13.216   7.063  71.531  1.00  0.00    -0.231 S  
BRANCH   8  10
HETATM   10  N   UNL     1     -10.921   6.617  70.076  1.00  0.00    -0.283 N  
HETATM   11  C   UNL     1     -10.956   6.584  68.612  1.00  0.00    -0.293 C  
HETATM   12  C   UNL     1      -9.962   5.663  70.642  1.00  0.00    -0.200 C  
ENDBRANCH   8  10
ENDBRANCH   7   8
ENDBRANCH   6   7
ENDBRANCH   4   6
ENDBRANCH   2   4
TORSDOF 5
ENDMDL
MODEL       96
REMARK 921   NORMALIZED FREE ENERGY PREDICTED BY IDOCK:   -2.99 KCAL/MOL
REMARK 922        TOTAL FREE ENERGY PREDICTED BY IDOCK:   -3.96 KCAL/MOL
REMARK 923 INTER-LIGAND FREE ENERGY PREDICTED BY IDOCK:   -3.83 KCAL/MOL
REMARK 924 INTRA-LIGAND FREE ENERGY PREDICTED BY IDOCK:   -0.13 KCAL/MOL
REMARK 927      BINDING AFFINITY PREDICTED BY RF-SCORE:    0.00 PKD
ROOT
HETATM    1  C   UNL     1     -12.290  13.433  66.185  1.00  0.00    -0.380 C  
HETATM    2  N   UNL     1     -11.467  12.326  66.670  1.00  0.00    -0.357 N  
HETATM    3  C   UNL     1     -10.749  11.562  65.651  1.00  0.00    -0.267 C  
ENDROOT
BRANCH   2   4
HETATM    4  C   UNL     1     -11.432  11.994  68.041  1.00  0.00    -0.328 C  
HETATM    5  S   UNL     1     -11.871  13.049  69.287  1.00  0.00    -0.295 S  
BRANCH   4   6
HETATM    6  S   UNL     1     -10.973  10.318  68.434  1.00  0.00    -0.249 SA 
BRANCH   6   7
HETATM    7  S   UNL     1     -11.642  10.116  70.379  1.00  0.00    -0.333 SA 
BRANCH   7   8
HETATM    8  C   UNL     1     -10.851   8.602  70.865  1.00  0.00    -0.239 C  
HETATM    9  S   UNL     1      -9.297   8.723  71.513  1.00  0.00    -0.268 S  
BRANCH   8  10
HETATM   10  N   UNL     1     -11.586   7.409  70.728  1.00  0.00    -0.294 N  
HETATM   11  C   UNL     1     -11.256   6.325  69.801  1.00  0.00    -0.430 C  
HETATM   12  C   UNL     1     -12.788   7.131  71.521  1.00  0.00    -0.391 C  
ENDBRANCH   8  10
ENDBRANCH   7   8
ENDBRANCH   6   7
ENDBRANCH   4   6
ENDBRANCH   2   4
TORSDOF 5
ENDMDL
MODEL       97
REMARK 921   NORMALIZED FREE ENERGY PREDICTED BY IDOCK:   -2.99 KCAL/MOL
REMARK 922        TOTAL FREE ENERGY PREDICTED BY IDOCK:   -3.95 KCAL/MOL
REMARK 923 INTER-LIGAND FREE ENERGY PREDICTED BY IDOCK:   -3.76 KCAL/MOL
REMARK 924 INTRA-LIGAND FREE ENERGY PREDICTED BY IDOCK:   -0.19 KCAL/MOL
REMARK 927      BINDING AFFINITY PREDICTED BY RF-SCORE:    0.00 PKD
ROOT
HETATM    1  C   UNL     1     -12.286  11.578  70.068  1.00  0.00    -0.278 C  
HETATM    2  N   UNL     1     -11.980  12.810  69.341  1.00  0.00    -0.291 N  
HETATM    3  C   UNL     1     -11.967  14.039  70.133  1.00  0.00    -0.330 C  
ENDROOT
BRANCH   2   4
HETATM    4  C   UNL     1     -11.773  12.797  67.945  1.00  0.00    -0.357 C  
HETATM    5  S   UNL     1     -12.012  14.131  66.936  1.00  0.00    -0.434 S  
BRANCH   4   6
HETATM    6  S   UNL     1     -11.135  11.282  67.258  1.00  0.00    -0.296 SA 
BRANCH   6   7
HETATM    7  S   UNL     1      -9.680  11.959  65.957  1.00  0.00    -0.239 SA 
BRANCH   7   8
HETATM    8  C   UNL     1     -10.244  11.279  64.416  1.00  0.00    -0.320 C  
HETATM    9  S   UNL     1     -11.618  11.976  63.727  1.00  0.00    -0.490 S  
BRANCH   8  10
HETATM   10  N   UNL     1      -9.484  10.240  63.846  1.00  0.00    -0.289 N  
HETATM   11  C   UNL     1      -9.297  10.030  62.409  1.00  0.00    -0.257 C  
HETATM   12  C   UNL     1      -8.787   9.238  64.660  1.00  0.00    -0.178 C  
ENDBRANCH   8  10
ENDBRANCH   7   8
ENDBRANCH   6   7
ENDBRANCH   4   6
ENDBRANCH   2   4
TORSDOF 5
ENDMDL
MODEL       98
REMARK 921   NORMALIZED FREE ENERGY PREDICTED BY IDOCK:   -2.98 KCAL/MOL
REMARK 922        TOTAL FREE ENERGY PREDICTED BY IDOCK:   -3.94 KCAL/MOL
REMARK 923 INTER-LIGAND FREE ENERGY PREDICTED BY IDOCK:   -3.75 KCAL/MOL
REMARK 924 INTRA-LIGAND FREE ENERGY PREDICTED BY IDOCK:   -0.18 KCAL/MOL
REMARK 927      BINDING AFFINITY PREDICTED BY RF-SCORE:    0.00 PKD
ROOT
HETATM    1  C   UNL     1     -11.472   8.538  71.961  1.00  0.00    -0.361 C  
HETATM    2  N   UNL     1     -11.697   9.747  71.169  1.00  0.00    -0.354 N  
HETATM    3  C   UNL     1     -12.876  10.537  71.522  1.00  0.00    -0.463 C  
ENDROOT
BRANCH   2   4
HETATM    4  C   UNL     1     -10.848  10.079  70.092  1.00  0.00    -0.311 C  
HETATM    5  S   UNL     1      -9.245   9.563  69.952  1.00  0.00    -0.234 S  
BRANCH   4   6
HETATM    6  S   UNL     1     -11.581  11.029  68.776  1.00  0.00    -0.314 SA 
BRANCH   6   7
HETATM    7  S   UNL     1      -9.929  11.850  67.844  1.00  0.00    -0.196 SA 
BRANCH   7   8
HETATM    8  C   UNL     1     -10.161  11.301  66.172  1.00  0.00    -0.245 C  
HETATM    9  S   UNL     1      -9.784   9.691  65.833  1.00  0.00    -0.286 S  
BRANCH   8  10
HETATM   10  N   UNL     1     -10.690  12.225  65.250  1.00  0.00    -0.282 N  
HETATM   11  C   UNL     1     -10.822  13.664  65.489  1.00  0.00    -0.294 C  
HETATM   12  C   UNL     1     -11.175  11.824  63.925  1.00  0.00    -0.414 C  
ENDBRANCH   8  10
ENDBRANCH   7   8
ENDBRANCH   6   7
ENDBRANCH   4   6
ENDBRANCH   2   4
TORSDOF 5
ENDMDL
MODEL       99
REMARK 921   NORMALIZED FREE ENERGY PREDICTED BY IDOCK:   -2.97 KCAL/MOL
REMARK 922        TOTAL FREE ENERGY PREDICTED BY IDOCK:   -3.93 KCAL/MOL
REMARK 923 INTER-LIGAND FREE ENERGY PREDICTED BY IDOCK:   -3.86 KCAL/MOL
REMARK 924 INTRA-LIGAND FREE ENERGY PREDICTED BY IDOCK:   -0.07 KCAL/MOL
REMARK 927      BINDING AFFINITY PREDICTED BY RF-SCORE:    0.00 PKD
ROOT
HETATM    1  C   UNL     1     -11.793  12.673  69.288  1.00  0.00    -0.302 C  
HETATM    2  N   UNL     1     -11.466  11.946  68.061  1.00  0.00    -0.299 N  
HETATM    3  C   UNL     1     -11.402  10.490  68.174  1.00  0.00    -0.254 C  
ENDROOT
BRANCH   2   4
HETATM    4  C   UNL     1     -11.175  12.635  66.865  1.00  0.00    -0.300 C  
HETATM    5  S   UNL     1     -10.289  11.981  65.583  1.00  0.00    -0.263 S  
BRANCH   4   6
HETATM    6  S   UNL     1     -11.878  14.263  66.703  1.00  0.00    -0.417 SA 
BRANCH   6   7
HETATM    7  S   UNL     1     -10.201  15.464  66.575  1.00  0.00    -0.292 SA 
BRANCH   7   8
HETATM    8  C   UNL     1     -10.560  16.699  67.799  1.00  0.00    -0.342 C  
HETATM    9  S   UNL     1     -11.384  16.192  69.183  1.00  0.00    -0.296 S  
BRANCH   8  10
HETATM   10  N   UNL     1     -10.093  18.006  67.563  1.00  0.00    -0.335 N  
HETATM   11  C   UNL     1     -10.509  18.855  66.444  1.00  0.00    -0.439 C  
HETATM   12  C   UNL     1      -9.116  18.662  68.438  1.00  0.00    -0.324 C  
ENDBRANCH   8  10
ENDBRANCH   7   8
ENDBRANCH   6   7
ENDBRANCH   4   6
ENDBRANCH   2   4
TORSDOF 5
ENDMDL
MODEL      100
REMARK 921   NORMALIZED FREE ENERGY PREDICTED BY IDOCK:   -2.96 KCAL/MOL
REMARK 922        TOTAL FREE ENERGY PREDICTED BY IDOCK:   -3.91 KCAL/MOL
REMARK 923 INTER-LIGAND FREE ENERGY PREDICTED BY IDOCK:   -3.63 KCAL/MOL
REMARK 924 INTRA-LIGAND FREE ENERGY PREDICTED BY IDOCK:   -0.29 KCAL/MOL
REMARK 927      BINDING AFFINITY PREDICTED BY RF-SCORE:    0.00 PKD
ROOT
HETATM    1  C   UNL     1     -12.758  12.026  63.455  1.00  0.00    -0.443 C  
HETATM    2  N   UNL     1     -12.058  12.785  64.491  1.00  0.00    -0.389 N  
HETATM    3  C   UNL     1     -12.901  13.538  65.418  1.00  0.00    -0.363 C  
ENDROOT
BRANCH   2   4
HETATM    4  C   UNL     1     -10.648  12.822  64.536  1.00  0.00    -0.360 C  
HETATM    5  S   UNL     1      -9.642  11.716  63.748  1.00  0.00    -0.144 S  
BRANCH   4   6
HETATM    6  S   UNL     1      -9.925  14.190  65.418  1.00  0.00    -0.231 SA 
BRANCH   6   7
HETATM    7  S   UNL     1      -9.151  13.277  67.103  1.00  0.00    -0.237 SA 
BRANCH   7   8
HETATM    8  C   UNL     1     -10.455  13.546  68.277  1.00  0.00    -0.253 C  
HETATM    9  S   UNL     1     -11.424  12.220  68.666  1.00  0.00    -0.332 S  
BRANCH   8  10
HETATM   10  N   UNL     1     -10.565  14.830  68.845  1.00  0.00    -0.243 N  
HETATM   11  C   UNL     1      -9.444  15.615  69.366  1.00  0.00    -0.279 C  
HETATM   12  C   UNL     1     -11.851  15.524  68.974  1.00  0.00    -0.354 C  
ENDBRANCH   8  10
ENDBRANCH   7   8
ENDBRANCH   6   7
ENDBRANCH   4   6
ENDBRANCH   2   4
TORSDOF 5
ENDMDL
MODEL      101
REMARK 921   NORMALIZED FREE ENERGY PREDICTED BY IDOCK:   -2.96 KCAL/MOL
REMARK 922        TOTAL FREE ENERGY PREDICTED BY IDOCK:   -3.91 KCAL/MOL
REMARK 923 INTER-LIGAND FREE ENERGY PREDICTED BY IDOCK:   -3.71 KCAL/MOL
REMARK 924 INTRA-LIGAND FREE ENERGY PREDICTED BY IDOCK:   -0.21 KCAL/MOL
REMARK 927      BINDING AFFINITY PREDICTED BY RF-SCORE:    0.00 PKD
ROOT
HETATM    1  C   UNL     1      -8.712   9.866  64.087  1.00  0.00    -0.206 C  
HETATM    2  N   UNL     1      -9.784  10.693  64.641  1.00  0.00    -0.273 N  
HETATM    3  C   UNL     1     -10.614  11.406  63.672  1.00  0.00    -0.412 C  
ENDROOT
BRANCH   2   4
HETATM    4  C   UNL     1      -9.948  10.828  66.036  1.00  0.00    -0.242 C  
HETATM    5  S   UNL     1     -10.148   9.530  67.100  1.00  0.00    -0.247 S  
BRANCH   4   6
HETATM    6  S   UNL     1      -9.845  12.484  66.684  1.00  0.00    -0.246 SA 
BRANCH   6   7
HETATM    7  S   UNL     1     -11.824  12.935  67.074  1.00  0.00    -0.333 SA 
BRANCH   7   8
HETATM    8  C   UNL     1     -11.678  13.895  68.561  1.00  0.00    -0.355 C  
HETATM    9  S   UNL     1     -11.238  15.515  68.389  1.00  0.00    -0.356 S  
BRANCH   8  10
HETATM   10  N   UNL     1     -11.986  13.258  69.779  1.00  0.00    -0.327 N  
HETATM   11  C   UNL     1     -12.403  13.948  71.002  1.00  0.00    -0.376 C  
HETATM   12  C   UNL     1     -11.915  11.803  69.945  1.00  0.00    -0.332 C  
ENDBRANCH   8  10
ENDBRANCH   7   8
ENDBRANCH   6   7
ENDBRANCH   4   6
ENDBRANCH   2   4
TORSDOF 5
ENDMDL
MODEL      102
REMARK 921   NORMALIZED FREE ENERGY PREDICTED BY IDOCK:   -2.95 KCAL/MOL
REMARK 922        TOTAL FREE ENERGY PREDICTED BY IDOCK:   -3.91 KCAL/MOL
REMARK 923 INTER-LIGAND FREE ENERGY PREDICTED BY IDOCK:   -3.71 KCAL/MOL
REMARK 924 INTRA-LIGAND FREE ENERGY PREDICTED BY IDOCK:   -0.20 KCAL/MOL
REMARK 927      BINDING AFFINITY PREDICTED BY RF-SCORE:    0.00 PKD
ROOT
HETATM    1  C   UNL     1     -10.976   6.630  67.139  1.00  0.00    -0.408 C  
HETATM    2  N   UNL     1     -10.505   7.876  67.746  1.00  0.00    -0.224 N  
HETATM    3  C   UNL     1     -10.609   7.962  69.202  1.00  0.00    -0.173 C  
ENDROOT
BRANCH   2   4
HETATM    4  C   UNL     1     -10.039   8.942  66.947  1.00  0.00    -0.273 C  
HETATM    5  S   UNL     1      -8.889   8.778  65.720  1.00  0.00    -0.202 S  
BRANCH   4   6
HETATM    6  S   UNL     1     -10.804  10.526  67.225  1.00  0.00    -0.252 SA 
BRANCH   6   7
HETATM    7  S   UNL     1      -9.528  11.818  66.238  1.00  0.00    -0.226 SA 
BRANCH   7   8
HETATM    8  C   UNL     1     -10.595  12.469  64.978  1.00  0.00    -0.300 C  
HETATM    9  S   UNL     1     -10.898  11.482  63.642  1.00  0.00    -0.394 S  
BRANCH   8  10
HETATM   10  N   UNL     1     -11.159  13.741  65.195  1.00  0.00    -0.315 N  
HETATM   11  C   UNL     1     -10.424  15.006  65.125  1.00  0.00    -0.412 C  
HETATM   12  C   UNL     1     -12.577  13.926  65.523  1.00  0.00    -0.526 C  
ENDBRANCH   8  10
ENDBRANCH   7   8
ENDBRANCH   6   7
ENDBRANCH   4   6
ENDBRANCH   2   4
TORSDOF 5
ENDMDL
MODEL      103
REMARK 921   NORMALIZED FREE ENERGY PREDICTED BY IDOCK:   -2.95 KCAL/MOL
REMARK 922        TOTAL FREE ENERGY PREDICTED BY IDOCK:   -3.90 KCAL/MOL
REMARK 923 INTER-LIGAND FREE ENERGY PREDICTED BY IDOCK:   -3.72 KCAL/MOL
REMARK 924 INTRA-LIGAND FREE ENERGY PREDICTED BY IDOCK:   -0.18 KCAL/MOL
REMARK 927      BINDING AFFINITY PREDICTED BY RF-SCORE:    0.00 PKD
ROOT
HETATM    1  C   UNL     1     -11.002   6.456  68.459  1.00  0.00    -0.319 C  
HETATM    2  N   UNL     1     -10.427   6.707  69.781  1.00  0.00    -0.199 N  
HETATM    3  C   UNL     1      -9.153   6.049  70.065  1.00  0.00    -0.146 C  
ENDROOT
BRANCH   2   4
HETATM    4  C   UNL     1     -11.111   7.493  70.733  1.00  0.00    -0.265 C  
HETATM    5  S   UNL     1     -12.516   7.005  71.536  1.00  0.00    -0.385 S  
BRANCH   4   6
HETATM    6  S   UNL     1     -10.362   9.054  71.148  1.00  0.00    -0.319 SA 
BRANCH   6   7
HETATM    7  S   UNL     1     -10.949  10.263  69.577  1.00  0.00    -0.274 SA 
BRANCH   7   8
HETATM    8  C   UNL     1     -12.018  11.416  70.402  1.00  0.00    -0.374 C  
HETATM    9  S   UNL     1     -13.024  10.801  71.610  1.00  0.00    -0.441 S  
BRANCH   8  10
HETATM   10  N   UNL     1     -11.922  12.772  70.034  1.00  0.00    -0.335 N  
HETATM   11  C   UNL     1     -11.309  13.262  68.797  1.00  0.00    -0.290 C  
HETATM   12  C   UNL     1     -12.441  13.854  70.877  1.00  0.00    -0.375 C  
ENDBRANCH   8  10
ENDBRANCH   7   8
ENDBRANCH   6   7
ENDBRANCH   4   6
ENDBRANCH   2   4
TORSDOF 5
ENDMDL
MODEL      104
REMARK 921   NORMALIZED FREE ENERGY PREDICTED BY IDOCK:   -2.94 KCAL/MOL
REMARK 922        TOTAL FREE ENERGY PREDICTED BY IDOCK:   -3.89 KCAL/MOL
REMARK 923 INTER-LIGAND FREE ENERGY PREDICTED BY IDOCK:   -3.72 KCAL/MOL
REMARK 924 INTRA-LIGAND FREE ENERGY PREDICTED BY IDOCK:   -0.17 KCAL/MOL
REMARK 927      BINDING AFFINITY PREDICTED BY RF-SCORE:    0.00 PKD
ROOT
HETATM    1  C   UNL     1     -12.705   9.907  71.266  1.00  0.00    -0.383 C  
HETATM    2  N   UNL     1     -12.893   8.475  71.503  1.00  0.00    -0.323 N  
HETATM    3  C   UNL     1     -14.277   8.014  71.594  1.00  0.00    -0.452 C  
ENDROOT
BRANCH   2   4
HETATM    4  C   UNL     1     -11.787   7.619  71.691  1.00  0.00    -0.291 C  
HETATM    5  S   UNL     1     -10.942   7.463  73.147  1.00  0.00    -0.302 S  
BRANCH   4   6
HETATM    6  S   UNL     1     -11.343   6.592  70.306  1.00  0.00    -0.390 SA 
BRANCH   6   7
HETATM    7  S   UNL     1      -9.756   7.624  69.475  1.00  0.00    -0.169 SA 
BRANCH   7   8
HETATM    8  C   UNL     1     -10.328   7.866  67.811  1.00  0.00    -0.226 C  
HETATM    9  S   UNL     1     -10.899   6.505  66.990  1.00  0.00    -0.371 S  
BRANCH   8  10
HETATM   10  N   UNL     1     -10.317   9.179  67.303  1.00  0.00    -0.255 N  
HETATM   11  C   UNL     1     -10.921  10.338  67.963  1.00  0.00    -0.289 C  
HETATM   12  C   UNL     1      -9.681   9.521  66.026  1.00  0.00    -0.272 C  
ENDBRANCH   8  10
ENDBRANCH   7   8
ENDBRANCH   6   7
ENDBRANCH   4   6
ENDBRANCH   2   4
TORSDOF 5
ENDMDL
MODEL      105
REMARK 921   NORMALIZED FREE ENERGY PREDICTED BY IDOCK:   -2.94 KCAL/MOL
REMARK 922        TOTAL FREE ENERGY PREDICTED BY IDOCK:   -3.89 KCAL/MOL
REMARK 923 INTER-LIGAND FREE ENERGY PREDICTED BY IDOCK:   -3.73 KCAL/MOL
REMARK 924 INTRA-LIGAND FREE ENERGY PREDICTED BY IDOCK:   -0.17 KCAL/MOL
REMARK 927      BINDING AFFINITY PREDICTED BY RF-SCORE:    0.00 PKD
ROOT
HETATM    1  C   UNL     1     -12.053  11.105  69.839  1.00  0.00    -0.344 C  
HETATM    2  N   UNL     1     -10.885  10.225  69.850  1.00  0.00    -0.283 N  
HETATM    3  C   UNL     1     -10.788   9.298  70.976  1.00  0.00    -0.314 C  
ENDROOT
BRANCH   2   4
HETATM    4  C   UNL     1      -9.891  10.324  68.853  1.00  0.00    -0.195 C  
HETATM    5  S   UNL     1      -8.230  10.267  69.157  1.00  0.00    -0.162 S  
BRANCH   4   6
HETATM    6  S   UNL     1     -10.471  10.426  67.172  1.00  0.00    -0.261 SA 
BRANCH   6   7
HETATM    7  S   UNL     1      -9.547  12.143  66.484  1.00  0.00    -0.231 SA 
BRANCH   7   8
HETATM    8  C   UNL     1     -10.652  12.639  65.186  1.00  0.00    -0.298 C  
HETATM    9  S   UNL     1     -10.536  11.810  63.720  1.00  0.00    -0.465 S  
BRANCH   8  10
HETATM   10  N   UNL     1     -11.585  13.653  65.477  1.00  0.00    -0.317 N  
HETATM   11  C   UNL     1     -11.982  14.717  64.551  1.00  0.00    -0.460 C  
HETATM   12  C   UNL     1     -12.267  13.745  66.772  1.00  0.00    -0.397 C  
ENDBRANCH   8  10
ENDBRANCH   7   8
ENDBRANCH   6   7
ENDBRANCH   4   6
ENDBRANCH   2   4
TORSDOF 5
ENDMDL
MODEL      106
REMARK 921   NORMALIZED FREE ENERGY PREDICTED BY IDOCK:   -2.94 KCAL/MOL
REMARK 922        TOTAL FREE ENERGY PREDICTED BY IDOCK:   -3.89 KCAL/MOL
REMARK 923 INTER-LIGAND FREE ENERGY PREDICTED BY IDOCK:   -3.70 KCAL/MOL
REMARK 924 INTRA-LIGAND FREE ENERGY PREDICTED BY IDOCK:   -0.19 KCAL/MOL
REMARK 927      BINDING AFFINITY PREDICTED BY RF-SCORE:    0.00 PKD
ROOT
HETATM    1  C   UNL     1     -11.863  11.816  69.007  1.00  0.00    -0.317 C  
HETATM    2  N   UNL     1     -12.276  11.560  70.387  1.00  0.00    -0.358 N  
HETATM    3  C   UNL     1     -12.758  12.717  71.140  1.00  0.00    -0.263 C  
ENDROOT
BRANCH   2   4
HETATM    4  C   UNL     1     -12.150  10.275  70.956  1.00  0.00    -0.386 C  
HETATM    5  S   UNL     1     -13.341   9.530  71.896  1.00  0.00    -0.450 S  
BRANCH   4   6
HETATM    6  S   UNL     1     -10.661   9.382  70.560  1.00  0.00    -0.296 SA 
BRANCH   6   7
HETATM    7  S   UNL     1     -10.304   8.317  72.294  1.00  0.00    -0.334 SA 
BRANCH   7   8
HETATM    8  C   UNL     1     -10.676   6.661  71.772  1.00  0.00    -0.227 C  
HETATM    9  S   UNL     1     -11.411   6.480  70.262  1.00  0.00    -0.415 S  
BRANCH   8  10
HETATM   10  N   UNL     1     -10.292   5.607  72.622  1.00  0.00    -0.192 N  
HETATM   11  C   UNL     1     -11.218   4.738  73.351  1.00  0.00    -0.343 C  
HETATM   12  C   UNL     1      -8.886   5.270  72.869  1.00  0.00    -0.121 C  
ENDBRANCH   8  10
ENDBRANCH   7   8
ENDBRANCH   6   7
ENDBRANCH   4   6
ENDBRANCH   2   4
TORSDOF 5
ENDMDL
MODEL      107
REMARK 921   NORMALIZED FREE ENERGY PREDICTED BY IDOCK:   -2.92 KCAL/MOL
REMARK 922        TOTAL FREE ENERGY PREDICTED BY IDOCK:   -3.87 KCAL/MOL
REMARK 923 INTER-LIGAND FREE ENERGY PREDICTED BY IDOCK:   -3.77 KCAL/MOL
REMARK 924 INTRA-LIGAND FREE ENERGY PREDICTED BY IDOCK:   -0.10 KCAL/MOL
REMARK 927      BINDING AFFINITY PREDICTED BY RF-SCORE:    0.00 PKD
ROOT
HETATM    1  C   UNL     1      -8.899  15.570  65.981  1.00  0.00    -0.125 C  
HETATM    2  N   UNL     1     -10.262  16.087  66.109  1.00  0.00    -0.306 N  
HETATM    3  C   UNL     1     -11.054  16.125  64.880  1.00  0.00    -0.325 C  
ENDROOT
BRANCH   2   4
HETATM    4  C   UNL     1     -10.741  16.572  67.344  1.00  0.00    -0.260 C  
HETATM    5  S   UNL     1     -10.471  18.138  67.919  1.00  0.00    -0.368 S  
BRANCH   4   6
HETATM    6  S   UNL     1     -11.765  15.458  68.283  1.00  0.00    -0.213 SA 
BRANCH   6   7
HETATM    7  S   UNL     1     -10.569  15.017  69.910  1.00  0.00    -0.138 SA 
BRANCH   7   8
HETATM    8  C   UNL     1     -11.786  14.717  71.168  1.00  0.00    -0.277 C  
HETATM    9  S   UNL     1     -12.119  15.985  72.231  1.00  0.00    -0.544 S  
BRANCH   8  10
HETATM   10  N   UNL     1     -12.427  13.464  71.168  1.00  0.00    -0.357 N  
HETATM   11  C   UNL     1     -12.149  12.380  70.223  1.00  0.00    -0.297 C  
HETATM   12  C   UNL     1     -13.467  13.113  72.142  1.00  0.00    -0.560 C  
ENDBRANCH   8  10
ENDBRANCH   7   8
ENDBRANCH   6   7
ENDBRANCH   4   6
ENDBRANCH   2   4
TORSDOF 5
ENDMDL
MODEL      108
REMARK 921   NORMALIZED FREE ENERGY PREDICTED BY IDOCK:   -2.92 KCAL/MOL
REMARK 922        TOTAL FREE ENERGY PREDICTED BY IDOCK:   -3.87 KCAL/MOL
REMARK 923 INTER-LIGAND FREE ENERGY PREDICTED BY IDOCK:   -3.76 KCAL/MOL
REMARK 924 INTRA-LIGAND FREE ENERGY PREDICTED BY IDOCK:   -0.10 KCAL/MOL
REMARK 927      BINDING AFFINITY PREDICTED BY RF-SCORE:    0.00 PKD
ROOT
HETATM    1  C   UNL     1     -11.419   7.814  72.511  1.00  0.00    -0.373 C  
HETATM    2  N   UNL     1     -10.856   7.761  71.162  1.00  0.00    -0.232 N  
HETATM    3  C   UNL     1     -11.168   6.565  70.381  1.00  0.00    -0.355 C  
ENDROOT
BRANCH   2   4
HETATM    4  C   UNL     1     -10.012   8.787  70.687  1.00  0.00    -0.198 C  
HETATM    5  S   UNL     1      -8.385   8.955  71.112  1.00  0.00    -0.165 S  
BRANCH   4   6
HETATM    6  S   UNL     1     -10.726   9.903  69.496  1.00  0.00    -0.255 SA 
BRANCH   6   7
HETATM    7  S   UNL     1     -12.199  10.847  70.596  1.00  0.00    -0.404 SA 
BRANCH   7   8
HETATM    8  C   UNL     1     -11.998  12.533  70.075  1.00  0.00    -0.299 C  
HETATM    9  S   UNL     1     -11.089  12.802  68.678  1.00  0.00    -0.280 S  
BRANCH   8  10
HETATM   10  N   UNL     1     -12.648  13.530  70.829  1.00  0.00    -0.331 N  
HETATM   11  C   UNL     1     -13.532  13.275  71.968  1.00  0.00    -0.507 C  
HETATM   12  C   UNL     1     -12.497  14.959  70.537  1.00  0.00    -0.363 C  
ENDBRANCH   8  10
ENDBRANCH   7   8
ENDBRANCH   6   7
ENDBRANCH   4   6
ENDBRANCH   2   4
TORSDOF 5
ENDMDL
MODEL      109
REMARK 921   NORMALIZED FREE ENERGY PREDICTED BY IDOCK:   -2.92 KCAL/MOL
REMARK 922        TOTAL FREE ENERGY PREDICTED BY IDOCK:   -3.86 KCAL/MOL
REMARK 923 INTER-LIGAND FREE ENERGY PREDICTED BY IDOCK:   -3.65 KCAL/MOL
REMARK 924 INTRA-LIGAND FREE ENERGY PREDICTED BY IDOCK:   -0.21 KCAL/MOL
REMARK 927      BINDING AFFINITY PREDICTED BY RF-SCORE:    0.00 PKD
ROOT
HETATM    1  C   UNL     1     -12.356  10.093  71.389  1.00  0.00    -0.416 C  
HETATM    2  N   UNL     1     -11.897  11.167  70.509  1.00  0.00    -0.355 N  
HETATM    3  C   UNL     1     -12.473  12.489  70.751  1.00  0.00    -0.268 C  
ENDROOT
BRANCH   2   4
HETATM    4  C   UNL     1     -10.996  10.906  69.455  1.00  0.00    -0.253 C  
HETATM    5  S   UNL     1     -10.496   9.360  68.991  1.00  0.00    -0.213 S  
BRANCH   4   6
HETATM    6  S   UNL     1     -10.442  12.321  68.525  1.00  0.00    -0.216 SA 
BRANCH   6   7
HETATM    7  S   UNL     1     -11.778  12.370  66.949  1.00  0.00    -0.313 SA 
BRANCH   7   8
HETATM    8  C   UNL     1     -10.698  12.731  65.586  1.00  0.00    -0.273 C  
HETATM    9  S   UNL     1     -10.199  14.334  65.407  1.00  0.00    -0.367 S  
BRANCH   8  10
HETATM   10  N   UNL     1     -10.289  11.654  64.775  1.00  0.00    -0.267 N  
HETATM   11  C   UNL     1     -10.154  10.269  65.229  1.00  0.00    -0.289 C  
HETATM   12  C   UNL     1      -9.949  11.823  63.359  1.00  0.00    -0.423 C  
ENDBRANCH   8  10
ENDBRANCH   7   8
ENDBRANCH   6   7
ENDBRANCH   4   6
ENDBRANCH   2   4
TORSDOF 5
ENDMDL
MODEL      110
REMARK 921   NORMALIZED FREE ENERGY PREDICTED BY IDOCK:   -2.91 KCAL/MOL
REMARK 922        TOTAL FREE ENERGY PREDICTED BY IDOCK:   -3.85 KCAL/MOL
REMARK 923 INTER-LIGAND FREE ENERGY PREDICTED BY IDOCK:   -3.73 KCAL/MOL
REMARK 924 INTRA-LIGAND FREE ENERGY PREDICTED BY IDOCK:   -0.13 KCAL/MOL
REMARK 927      BINDING AFFINITY PREDICTED BY RF-SCORE:    0.00 PKD
ROOT
HETATM    1  C   UNL     1     -10.689   7.096  67.011  1.00  0.00    -0.350 C  
HETATM    2  N   UNL     1     -10.464   8.345  67.739  1.00  0.00    -0.236 N  
HETATM    3  C   UNL     1     -10.372   8.233  69.194  1.00  0.00    -0.217 C  
ENDROOT
BRANCH   2   4
HETATM    4  C   UNL     1     -10.404   9.580  67.061  1.00  0.00    -0.250 C  
HETATM    5  S   UNL     1      -9.699   9.797  65.540  1.00  0.00    -0.304 S  
BRANCH   4   6
HETATM    6  S   UNL     1     -11.213  10.954  67.856  1.00  0.00    -0.315 SA 
BRANCH   6   7
HETATM    7  S   UNL     1      -9.937  12.526  67.438  1.00  0.00    -0.209 SA 
BRANCH   7   8
HETATM    8  C   UNL     1     -11.080  13.877  67.297  1.00  0.00    -0.299 C  
HETATM    9  S   UNL     1     -11.734  14.482  68.731  1.00  0.00    -0.328 S  
BRANCH   8  10
HETATM   10  N   UNL     1     -11.329  14.388  66.009  1.00  0.00    -0.330 N  
HETATM   11  C   UNL     1     -10.479  15.358  65.315  1.00  0.00    -0.415 C  
HETATM   12  C   UNL     1     -12.496  13.988  65.217  1.00  0.00    -0.475 C  
ENDBRANCH   8  10
ENDBRANCH   7   8
ENDBRANCH   6   7
ENDBRANCH   4   6
ENDBRANCH   2   4
TORSDOF 5
ENDMDL
MODEL      111
REMARK 921   NORMALIZED FREE ENERGY PREDICTED BY IDOCK:   -2.90 KCAL/MOL
REMARK 922        TOTAL FREE ENERGY PREDICTED BY IDOCK:   -3.84 KCAL/MOL
REMARK 923 INTER-LIGAND FREE ENERGY PREDICTED BY IDOCK:   -3.68 KCAL/MOL
REMARK 924 INTRA-LIGAND FREE ENERGY PREDICTED BY IDOCK:   -0.16 KCAL/MOL
REMARK 927      BINDING AFFINITY PREDICTED BY RF-SCORE:    0.00 PKD
ROOT
HETATM    1  C   UNL     1     -12.324  11.838  70.498  1.00  0.00    -0.299 C  
HETATM    2  N   UNL     1     -12.618  13.137  71.104  1.00  0.00    -0.361 N  
HETATM    3  C   UNL     1     -13.510  13.120  72.263  1.00  0.00    -0.568 C  
ENDROOT
BRANCH   2   4
HETATM    4  C   UNL     1     -12.108  14.330  70.548  1.00  0.00    -0.343 C  
HETATM    5  S   UNL     1     -11.543  15.637  71.458  1.00  0.00    -0.464 S  
BRANCH   4   6
HETATM    6  S   UNL     1     -11.989  14.382  68.772  1.00  0.00    -0.257 SA 
BRANCH   6   7
HETATM    7  S   UNL     1      -9.982  14.008  68.448  1.00  0.00    -0.235 SA 
BRANCH   7   8
HETATM    8  C   UNL     1     -10.041  13.051  66.953  1.00  0.00    -0.243 C  
HETATM    9  S   UNL     1     -10.478  13.862  65.539  1.00  0.00    -0.339 S  
BRANCH   8  10
HETATM   10  N   UNL     1      -9.673  11.694  67.034  1.00  0.00    -0.185 N  
HETATM   11  C   UNL     1      -8.908  11.097  68.131  1.00  0.00    -0.148 C  
HETATM   12  C   UNL     1     -10.030  10.720  65.996  1.00  0.00    -0.242 C  
ENDBRANCH   8  10
ENDBRANCH   7   8
ENDBRANCH   6   7
ENDBRANCH   4   6
ENDBRANCH   2   4
TORSDOF 5
ENDMDL
MODEL      112
REMARK 921   NORMALIZED FREE ENERGY PREDICTED BY IDOCK:   -2.90 KCAL/MOL
REMARK 922        TOTAL FREE ENERGY PREDICTED BY IDOCK:   -3.84 KCAL/MOL
REMARK 923 INTER-LIGAND FREE ENERGY PREDICTED BY IDOCK:   -3.67 KCAL/MOL
REMARK 924 INTRA-LIGAND FREE ENERGY PREDICTED BY IDOCK:   -0.17 KCAL/MOL
REMARK 927      BINDING AFFINITY PREDICTED BY RF-SCORE:    0.00 PKD
ROOT
HETATM    1  C   UNL     1      -9.287  12.495  66.592  1.00  0.00    -0.236 C  
HETATM    2  N   UNL     1     -10.686  12.904  66.462  1.00  0.00    -0.267 N  
HETATM    3  C   UNL     1     -11.633  12.259  67.370  1.00  0.00    -0.355 C  
ENDROOT
BRANCH   2   4
HETATM    4  C   UNL     1     -11.083  13.825  65.470  1.00  0.00    -0.298 C  
HETATM    5  S   UNL     1     -12.124  13.454  64.191  1.00  0.00    -0.423 S  
BRANCH   4   6
HETATM    6  S   UNL     1     -10.497  15.495  65.666  1.00  0.00    -0.401 SA 
BRANCH   6   7
HETATM    7  S   UNL     1     -10.750  15.822  67.691  1.00  0.00    -0.313 SA 
BRANCH   7   8
HETATM    8  C   UNL     1      -9.731  17.254  67.945  1.00  0.00    -0.273 C  
HETATM    9  S   UNL     1     -10.445  18.761  67.683  1.00  0.00    -0.428 S  
BRANCH   8  10
HETATM   10  N   UNL     1      -8.413  17.044  68.394  1.00  0.00    -0.230 N  
HETATM   11  C   UNL     1      -7.403  18.094  68.548  1.00  0.00    -0.278 C  
HETATM   12  C   UNL     1      -7.910  15.716  68.760  1.00  0.00    -0.169 C  
ENDBRANCH   8  10
ENDBRANCH   7   8
ENDBRANCH   6   7
ENDBRANCH   4   6
ENDBRANCH   2   4
TORSDOF 5
ENDMDL
MODEL      113
REMARK 921   NORMALIZED FREE ENERGY PREDICTED BY IDOCK:   -2.89 KCAL/MOL
REMARK 922        TOTAL FREE ENERGY PREDICTED BY IDOCK:   -3.82 KCAL/MOL
REMARK 923 INTER-LIGAND FREE ENERGY PREDICTED BY IDOCK:   -3.62 KCAL/MOL
REMARK 924 INTRA-LIGAND FREE ENERGY PREDICTED BY IDOCK:   -0.21 KCAL/MOL
REMARK 927      BINDING AFFINITY PREDICTED BY RF-SCORE:    0.00 PKD
ROOT
HETATM    1  C   UNL     1     -13.874   8.967  72.310  1.00  0.00    -0.474 C  
HETATM    2  N   UNL     1     -12.751   9.779  71.841  1.00  0.00    -0.404 N  
HETATM    3  C   UNL     1     -13.038  11.191  71.594  1.00  0.00    -0.424 C  
ENDROOT
BRANCH   2   4
HETATM    4  C   UNL     1     -11.490   9.199  71.592  1.00  0.00    -0.381 C  
HETATM    5  S   UNL     1     -10.409   9.744  70.412  1.00  0.00    -0.270 S  
BRANCH   4   6
HETATM    6  S   UNL     1     -11.010   7.865  72.670  1.00  0.00    -0.394 SA 
BRANCH   6   7
HETATM    7  S   UNL     1      -9.404   7.036  71.667  1.00  0.00    -0.155 SA 
BRANCH   7   8
HETATM    8  C   UNL     1     -10.184   5.692  70.806  1.00  0.00    -0.227 C  
HETATM    9  S   UNL     1     -11.029   6.073  69.396  1.00  0.00    -0.363 S  
BRANCH   8  10
HETATM   10  N   UNL     1     -10.006   4.396  71.325  1.00  0.00    -0.190 N  
HETATM   11  C   UNL     1     -10.271   4.004  72.711  1.00  0.00    -0.163 C  
HETATM   12  C   UNL     1      -9.523   3.280  70.503  1.00  0.00    -0.172 C  
ENDBRANCH   8  10
ENDBRANCH   7   8
ENDBRANCH   6   7
ENDBRANCH   4   6
ENDBRANCH   2   4
TORSDOF 5
ENDMDL
MODEL      114
REMARK 921   NORMALIZED FREE ENERGY PREDICTED BY IDOCK:   -2.89 KCAL/MOL
REMARK 922        TOTAL FREE ENERGY PREDICTED BY IDOCK:   -3.82 KCAL/MOL
REMARK 923 INTER-LIGAND FREE ENERGY PREDICTED BY IDOCK:   -3.69 KCAL/MOL
REMARK 924 INTRA-LIGAND FREE ENERGY PREDICTED BY IDOCK:   -0.13 KCAL/MOL
REMARK 927      BINDING AFFINITY PREDICTED BY RF-SCORE:    0.00 PKD
ROOT
HETATM    1  C   UNL     1     -10.001  11.766  63.666  1.00  0.00    -0.381 C  
HETATM    2  N   UNL     1     -11.030  12.656  64.204  1.00  0.00    -0.358 N  
HETATM    3  C   UNL     1     -12.191  12.890  63.347  1.00  0.00    -0.490 C  
ENDROOT
BRANCH   2   4
HETATM    4  C   UNL     1     -10.862  13.287  65.455  1.00  0.00    -0.291 C  
HETATM    5  S   UNL     1     -10.120  14.791  65.668  1.00  0.00    -0.381 S  
BRANCH   4   6
HETATM    6  S   UNL     1     -11.570  12.452  66.860  1.00  0.00    -0.358 SA 
BRANCH   6   7
HETATM    7  S   UNL     1      -9.897  11.897  67.939  1.00  0.00    -0.195 SA 
BRANCH   7   8
HETATM    8  C   UNL     1     -10.612  10.842  69.176  1.00  0.00    -0.220 C  
HETATM    9  S   UNL     1     -11.994  11.409  69.962  1.00  0.00    -0.371 S  
BRANCH   8  10
HETATM   10  N   UNL     1     -10.012   9.586  69.386  1.00  0.00    -0.181 N  
HETATM   11  C   UNL     1     -10.199   8.415  68.526  1.00  0.00    -0.201 C  
HETATM   12  C   UNL     1      -9.119   9.321  70.519  1.00  0.00    -0.259 C  
ENDBRANCH   8  10
ENDBRANCH   7   8
ENDBRANCH   6   7
ENDBRANCH   4   6
ENDBRANCH   2   4
TORSDOF 5
ENDMDL
MODEL      115
REMARK 921   NORMALIZED FREE ENERGY PREDICTED BY IDOCK:   -2.88 KCAL/MOL
REMARK 922        TOTAL FREE ENERGY PREDICTED BY IDOCK:   -3.81 KCAL/MOL
REMARK 923 INTER-LIGAND FREE ENERGY PREDICTED BY IDOCK:   -3.62 KCAL/MOL
REMARK 924 INTRA-LIGAND FREE ENERGY PREDICTED BY IDOCK:   -0.20 KCAL/MOL
REMARK 927      BINDING AFFINITY PREDICTED BY RF-SCORE:    0.00 PKD
ROOT
HETATM    1  C   UNL     1     -13.055  11.154  71.606  1.00  0.00    -0.424 C  
HETATM    2  N   UNL     1     -12.879   9.721  71.842  1.00  0.00    -0.412 N  
HETATM    3  C   UNL     1     -14.060   8.996  72.308  1.00  0.00    -0.413 C  
ENDROOT
BRANCH   2   4
HETATM    4  C   UNL     1     -11.618   9.108  71.680  1.00  0.00    -0.379 C  
HETATM    5  S   UNL     1     -11.008   7.906  72.699  1.00  0.00    -0.394 S  
BRANCH   4   6
HETATM    6  S   UNL     1     -10.682   9.601  70.247  1.00  0.00    -0.303 SA 
BRANCH   6   7
HETATM    7  S   UNL     1      -8.952   8.487  70.439  1.00  0.00    -0.160 SA 
BRANCH   7   8
HETATM    8  C   UNL     1      -8.951   7.577  68.913  1.00  0.00    -0.134 C  
HETATM    9  S   UNL     1      -7.466   7.391  68.132  1.00  0.00    -0.108 S  
BRANCH   8  10
HETATM   10  N   UNL     1     -10.174   7.029  68.481  1.00  0.00    -0.166 N  
HETATM   11  C   UNL     1     -11.006   6.114  69.265  1.00  0.00    -0.381 C  
HETATM   12  C   UNL     1     -10.747   7.330  67.165  1.00  0.00    -0.343 C  
ENDBRANCH   8  10
ENDBRANCH   7   8
ENDBRANCH   6   7
ENDBRANCH   4   6
ENDBRANCH   2   4
TORSDOF 5
ENDMDL
MODEL      116
REMARK 921   NORMALIZED FREE ENERGY PREDICTED BY IDOCK:   -2.88 KCAL/MOL
REMARK 922        TOTAL FREE ENERGY PREDICTED BY IDOCK:   -3.81 KCAL/MOL
REMARK 923 INTER-LIGAND FREE ENERGY PREDICTED BY IDOCK:   -3.65 KCAL/MOL
REMARK 924 INTRA-LIGAND FREE ENERGY PREDICTED BY IDOCK:   -0.16 KCAL/MOL
REMARK 927      BINDING AFFINITY PREDICTED BY RF-SCORE:    0.00 PKD
ROOT
HETATM    1  C   UNL     1      -7.283  19.511  68.041  1.00  0.00    -0.277 C  
HETATM    2  N   UNL     1      -7.733  19.059  66.724  1.00  0.00    -0.236 N  
HETATM    3  C   UNL     1      -6.939  19.511  65.582  1.00  0.00    -0.295 C  
ENDROOT
BRANCH   2   4
HETATM    4  C   UNL     1      -8.903  18.283  66.584  1.00  0.00    -0.284 C  
HETATM    5  S   UNL     1     -10.466  18.922  66.519  1.00  0.00    -0.419 S  
BRANCH   4   6
HETATM    6  S   UNL     1      -8.664  16.530  66.378  1.00  0.00    -0.343 SA 
BRANCH   6   7
HETATM    7  S   UNL     1     -10.598  15.839  66.148  1.00  0.00    -0.298 SA 
BRANCH   7   8
HETATM    8  C   UNL     1     -10.597  14.428  67.226  1.00  0.00    -0.279 C  
HETATM    9  S   UNL     1      -9.567  13.153  66.819  1.00  0.00    -0.253 S  
BRANCH   8  10
HETATM   10  N   UNL     1     -11.412  14.482  68.372  1.00  0.00    -0.286 N  
HETATM   11  C   UNL     1     -11.908  13.315  69.103  1.00  0.00    -0.329 C  
HETATM   12  C   UNL     1     -11.856  15.750  68.961  1.00  0.00    -0.355 C  
ENDBRANCH   8  10
ENDBRANCH   7   8
ENDBRANCH   6   7
ENDBRANCH   4   6
ENDBRANCH   2   4
TORSDOF 5
ENDMDL
MODEL      117
REMARK 921   NORMALIZED FREE ENERGY PREDICTED BY IDOCK:   -2.87 KCAL/MOL
REMARK 922        TOTAL FREE ENERGY PREDICTED BY IDOCK:   -3.80 KCAL/MOL
REMARK 923 INTER-LIGAND FREE ENERGY PREDICTED BY IDOCK:   -3.78 KCAL/MOL
REMARK 924 INTRA-LIGAND FREE ENERGY PREDICTED BY IDOCK:   -0.02 KCAL/MOL
REMARK 927      BINDING AFFINITY PREDICTED BY RF-SCORE:    0.00 PKD
ROOT
HETATM    1  C   UNL     1     -12.241  13.485  64.383  1.00  0.00    -0.390 C  
HETATM    2  N   UNL     1     -11.441  12.558  65.183  1.00  0.00    -0.316 N  
HETATM    3  C   UNL     1     -10.678  11.558  64.438  1.00  0.00    -0.344 C  
ENDROOT
BRANCH   2   4
HETATM    4  C   UNL     1     -11.467  12.607  66.593  1.00  0.00    -0.351 C  
HETATM    5  S   UNL     1     -11.847  13.988  67.490  1.00  0.00    -0.402 S  
BRANCH   4   6
HETATM    6  S   UNL     1     -11.159  11.070  67.439  1.00  0.00    -0.279 SA 
BRANCH   6   7
HETATM    7  S   UNL     1     -11.703  11.513  69.383  1.00  0.00    -0.372 SA 
BRANCH   7   8
HETATM    8  C   UNL     1     -11.369   9.972  70.200  1.00  0.00    -0.291 C  
HETATM    9  S   UNL     1     -12.464   9.481  71.388  1.00  0.00    -0.385 S  
BRANCH   8  10
HETATM   10  N   UNL     1     -10.246   9.238  69.773  1.00  0.00    -0.199 N  
HETATM   11  C   UNL     1      -8.854   9.600  70.050  1.00  0.00    -0.232 C  
HETATM   12  C   UNL     1     -10.366   8.006  68.986  1.00  0.00    -0.218 C  
ENDBRANCH   8  10
ENDBRANCH   7   8
ENDBRANCH   6   7
ENDBRANCH   4   6
ENDBRANCH   2   4
TORSDOF 5
ENDMDL
MODEL      118
REMARK 921   NORMALIZED FREE ENERGY PREDICTED BY IDOCK:   -2.87 KCAL/MOL
REMARK 922        TOTAL FREE ENERGY PREDICTED BY IDOCK:   -3.79 KCAL/MOL
REMARK 923 INTER-LIGAND FREE ENERGY PREDICTED BY IDOCK:   -3.65 KCAL/MOL
REMARK 924 INTRA-LIGAND FREE ENERGY PREDICTED BY IDOCK:   -0.14 KCAL/MOL
REMARK 927      BINDING AFFINITY PREDICTED BY RF-SCORE:    0.00 PKD
ROOT
HETATM    1  C   UNL     1      -8.781  10.216  64.335  1.00  0.00    -0.202 C  
HETATM    2  N   UNL     1      -9.910  11.100  64.626  1.00  0.00    -0.261 N  
HETATM    3  C   UNL     1     -10.289  12.030  63.563  1.00  0.00    -0.461 C  
ENDROOT
BRANCH   2   4
HETATM    4  C   UNL     1     -10.541  11.081  65.887  1.00  0.00    -0.206 C  
HETATM    5  S   UNL     1     -10.423   9.805  66.990  1.00  0.00    -0.202 S  
BRANCH   4   6
HETATM    6  S   UNL     1     -11.437  12.551  66.341  1.00  0.00    -0.384 SA 
BRANCH   6   7
HETATM    7  S   UNL     1      -9.959  13.739  67.163  1.00  0.00    -0.247 SA 
BRANCH   7   8
HETATM    8  C   UNL     1     -10.801  15.297  67.306  1.00  0.00    -0.318 C  
HETATM    9  S   UNL     1     -11.654  15.579  68.735  1.00  0.00    -0.376 S  
BRANCH   8  10
HETATM   10  N   UNL     1     -10.661  16.212  66.245  1.00  0.00    -0.261 N  
HETATM   11  C   UNL     1     -10.070  17.547  66.363  1.00  0.00    -0.345 C  
HETATM   12  C   UNL     1     -11.109  15.909  64.882  1.00  0.00    -0.389 C  
ENDBRANCH   8  10
ENDBRANCH   7   8
ENDBRANCH   6   7
ENDBRANCH   4   6
ENDBRANCH   2   4
TORSDOF 5
ENDMDL
MODEL      119
REMARK 921   NORMALIZED FREE ENERGY PREDICTED BY IDOCK:   -2.86 KCAL/MOL
REMARK 922        TOTAL FREE ENERGY PREDICTED BY IDOCK:   -3.79 KCAL/MOL
REMARK 923 INTER-LIGAND FREE ENERGY PREDICTED BY IDOCK:   -3.67 KCAL/MOL
REMARK 924 INTRA-LIGAND FREE ENERGY PREDICTED BY IDOCK:   -0.11 KCAL/MOL
REMARK 927      BINDING AFFINITY PREDICTED BY RF-SCORE:    0.00 PKD
ROOT
HETATM    1  C   UNL     1     -11.303   9.047  70.917  1.00  0.00    -0.293 C  
HETATM    2  N   UNL     1     -11.478  10.388  70.360  1.00  0.00    -0.315 N  
HETATM    3  C   UNL     1     -12.532  11.203  70.963  1.00  0.00    -0.403 C  
ENDROOT
BRANCH   2   4
HETATM    4  C   UNL     1     -10.705  10.826  69.264  1.00  0.00    -0.229 C  
HETATM    5  S   UNL     1      -9.339  10.019  68.682  1.00  0.00    -0.163 S  
BRANCH   4   6
HETATM    6  S   UNL     1     -11.292  12.278  68.417  1.00  0.00    -0.319 SA 
BRANCH   6   7
HETATM    7  S   UNL     1      -9.537  13.173  67.794  1.00  0.00    -0.215 SA 
BRANCH   7   8
HETATM    8  C   UNL     1     -10.113  14.172  66.443  1.00  0.00    -0.293 C  
HETATM    9  S   UNL     1      -9.473  15.729  66.312  1.00  0.00    -0.345 S  
BRANCH   8  10
HETATM   10  N   UNL     1     -11.024  13.587  65.543  1.00  0.00    -0.285 N  
HETATM   11  C   UNL     1     -12.422  13.994  65.385  1.00  0.00    -0.498 C  
HETATM   12  C   UNL     1     -10.651  12.483  64.654  1.00  0.00    -0.316 C  
ENDBRANCH   8  10
ENDBRANCH   7   8
ENDBRANCH   6   7
ENDBRANCH   4   6
ENDBRANCH   2   4
TORSDOF 5
ENDMDL
MODEL      120
REMARK 921   NORMALIZED FREE ENERGY PREDICTED BY IDOCK:   -2.86 KCAL/MOL
REMARK 922        TOTAL FREE ENERGY PREDICTED BY IDOCK:   -3.78 KCAL/MOL
REMARK 923 INTER-LIGAND FREE ENERGY PREDICTED BY IDOCK:   -3.77 KCAL/MOL
REMARK 924 INTRA-LIGAND FREE ENERGY PREDICTED BY IDOCK:   -0.01 KCAL/MOL
REMARK 927      BINDING AFFINITY PREDICTED BY RF-SCORE:    0.00 PKD
ROOT
HETATM    1  C   UNL     1      -8.200  15.939  66.377  1.00  0.00    -0.228 C  
HETATM    2  N   UNL     1      -9.597  16.367  66.296  1.00  0.00    -0.291 N  
HETATM    3  C   UNL     1     -10.469  15.559  65.445  1.00  0.00    -0.405 C  
ENDROOT
BRANCH   2   4
HETATM    4  C   UNL     1     -10.039  17.530  66.960  1.00  0.00    -0.323 C  
HETATM    5  S   UNL     1      -9.909  19.093  66.330  1.00  0.00    -0.401 S  
BRANCH   4   6
HETATM    6  S   UNL     1     -10.862  17.281  68.520  1.00  0.00    -0.150 SA 
BRANCH   6   7
HETATM    7  S   UNL     1      -9.864  15.645  69.295  1.00  0.00    -0.284 SA 
BRANCH   7   8
HETATM    8  C   UNL     1     -11.205  14.516  69.573  1.00  0.00    -0.264 C  
HETATM    9  S   UNL     1     -11.586  13.452  68.319  1.00  0.00    -0.366 S  
BRANCH   8  10
HETATM   10  N   UNL     1     -11.830  14.545  70.834  1.00  0.00    -0.313 N  
HETATM   11  C   UNL     1     -12.928  13.667  71.246  1.00  0.00    -0.322 C  
HETATM   12  C   UNL     1     -11.432  15.486  71.887  1.00  0.00    -0.423 C  
ENDBRANCH   8  10
ENDBRANCH   7   8
ENDBRANCH   6   7
ENDBRANCH   4   6
ENDBRANCH   2   4
TORSDOF 5
ENDMDL
MODEL      121
REMARK 921   NORMALIZED FREE ENERGY PREDICTED BY IDOCK:   -2.86 KCAL/MOL
REMARK 922        TOTAL FREE ENERGY PREDICTED BY IDOCK:   -3.78 KCAL/MOL
REMARK 923 INTER-LIGAND FREE ENERGY PREDICTED BY IDOCK:   -3.60 KCAL/MOL
REMARK 924 INTRA-LIGAND FREE ENERGY PREDICTED BY IDOCK:   -0.18 KCAL/MOL
REMARK 927      BINDING AFFINITY PREDICTED BY RF-SCORE:    0.00 PKD
ROOT
HETATM    1  C   UNL     1     -11.937  14.024  69.000  1.00  0.00    -0.357 C  
HETATM    2  N   UNL     1     -11.019  13.371  68.067  1.00  0.00    -0.237 N  
HETATM    3  C   UNL     1     -10.825  11.934  68.253  1.00  0.00    -0.224 C  
ENDROOT
BRANCH   2   4
HETATM    4  C   UNL     1     -10.326  14.117  67.090  1.00  0.00    -0.265 C  
HETATM    5  S   UNL     1     -11.032  14.730  65.682  1.00  0.00    -0.359 S  
BRANCH   4   6
HETATM    6  S   UNL     1      -8.621  14.488  67.448  1.00  0.00    -0.212 SA 
BRANCH   6   7
HETATM    7  S   UNL     1      -8.776  15.986  68.863  1.00  0.00    -0.248 SA 
BRANCH   7   8
HETATM    8  C   UNL     1      -8.325  17.415  67.911  1.00  0.00    -0.230 C  
HETATM    9  S   UNL     1      -7.776  17.148  66.337  1.00  0.00    -0.323 S  
BRANCH   8  10
HETATM   10  N   UNL     1      -8.501  18.678  68.509  1.00  0.00    -0.335 N  
HETATM   11  C   UNL     1      -9.798  19.298  68.791  1.00  0.00    -0.447 C  
HETATM   12  C   UNL     1      -7.371  19.518  68.918  1.00  0.00    -0.363 C  
ENDBRANCH   8  10
ENDBRANCH   7   8
ENDBRANCH   6   7
ENDBRANCH   4   6
ENDBRANCH   2   4
TORSDOF 5
ENDMDL
MODEL      122
REMARK 921   NORMALIZED FREE ENERGY PREDICTED BY IDOCK:   -2.85 KCAL/MOL
REMARK 922        TOTAL FREE ENERGY PREDICTED BY IDOCK:   -3.78 KCAL/MOL
REMARK 923 INTER-LIGAND FREE ENERGY PREDICTED BY IDOCK:   -3.64 KCAL/MOL
REMARK 924 INTRA-LIGAND FREE ENERGY PREDICTED BY IDOCK:   -0.13 KCAL/MOL
REMARK 927      BINDING AFFINITY PREDICTED BY RF-SCORE:    0.00 PKD
ROOT
HETATM    1  C   UNL     1     -10.876   7.268  69.787  1.00  0.00    -0.235 C  
HETATM    2  N   UNL     1     -10.511   8.672  69.598  1.00  0.00    -0.219 N  
HETATM    3  C   UNL     1     -10.305   9.454  70.817  1.00  0.00    -0.298 C  
ENDROOT
BRANCH   2   4
HETATM    4  C   UNL     1     -10.428   9.233  68.306  1.00  0.00    -0.215 C  
HETATM    5  S   UNL     1     -10.273   8.331  66.886  1.00  0.00    -0.312 S  
BRANCH   4   6
HETATM    6  S   UNL     1     -10.589  11.004  68.206  1.00  0.00    -0.203 SA 
BRANCH   6   7
HETATM    7  S   UNL     1      -9.742  11.426  66.368  1.00  0.00    -0.211 SA 
BRANCH   7   8
HETATM    8  C   UNL     1     -11.115  12.153  65.508  1.00  0.00    -0.316 C  
HETATM    9  S   UNL     1     -12.069  13.246  66.371  1.00  0.00    -0.365 S  
BRANCH   8  10
HETATM   10  N   UNL     1     -11.289  11.812  64.153  1.00  0.00    -0.359 N  
HETATM   11  C   UNL     1     -12.530  11.993  63.397  1.00  0.00    -0.509 C  
HETATM   12  C   UNL     1     -10.214  11.225  63.346  1.00  0.00    -0.403 C  
ENDBRANCH   8  10
ENDBRANCH   7   8
ENDBRANCH   6   7
ENDBRANCH   4   6
ENDBRANCH   2   4
TORSDOF 5
ENDMDL
MODEL      123
REMARK 921   NORMALIZED FREE ENERGY PREDICTED BY IDOCK:   -2.85 KCAL/MOL
REMARK 922        TOTAL FREE ENERGY PREDICTED BY IDOCK:   -3.77 KCAL/MOL
REMARK 923 INTER-LIGAND FREE ENERGY PREDICTED BY IDOCK:   -3.52 KCAL/MOL
REMARK 924 INTRA-LIGAND FREE ENERGY PREDICTED BY IDOCK:   -0.26 KCAL/MOL
REMARK 927      BINDING AFFINITY PREDICTED BY RF-SCORE:    0.00 PKD
ROOT
HETATM    1  C   UNL     1      -8.963  12.068  66.424  1.00  0.00    -0.161 C  
HETATM    2  N   UNL     1     -10.135  12.861  66.052  1.00  0.00    -0.281 N  
HETATM    3  C   UNL     1     -11.360  12.111  65.782  1.00  0.00    -0.354 C  
ENDROOT
BRANCH   2   4
HETATM    4  C   UNL     1     -10.048  14.262  65.910  1.00  0.00    -0.326 C  
HETATM    5  S   UNL     1     -11.190  15.208  65.099  1.00  0.00    -0.378 S  
BRANCH   4   6
HETATM    6  S   UNL     1      -8.677  15.052  66.727  1.00  0.00    -0.241 SA 
BRANCH   6   7
HETATM    7  S   UNL     1      -9.106  14.737  68.724  1.00  0.00    -0.173 SA 
BRANCH   7   8
HETATM    8  C   UNL     1     -10.606  15.669  68.911  1.00  0.00    -0.228 C  
HETATM    9  S   UNL     1     -10.590  17.267  68.367  1.00  0.00    -0.341 S  
BRANCH   8  10
HETATM   10  N   UNL     1     -11.723  15.005  69.453  1.00  0.00    -0.307 N  
HETATM   11  C   UNL     1     -12.626  15.567  70.459  1.00  0.00    -0.416 C  
HETATM   12  C   UNL     1     -12.099  13.645  69.051  1.00  0.00    -0.309 C  
ENDBRANCH   8  10
ENDBRANCH   7   8
ENDBRANCH   6   7
ENDBRANCH   4   6
ENDBRANCH   2   4
TORSDOF 5
ENDMDL
MODEL      124
REMARK 921   NORMALIZED FREE ENERGY PREDICTED BY IDOCK:   -2.85 KCAL/MOL
REMARK 922        TOTAL FREE ENERGY PREDICTED BY IDOCK:   -3.77 KCAL/MOL
REMARK 923 INTER-LIGAND FREE ENERGY PREDICTED BY IDOCK:   -3.64 KCAL/MOL
REMARK 924 INTRA-LIGAND FREE ENERGY PREDICTED BY IDOCK:   -0.13 KCAL/MOL
REMARK 927      BINDING AFFINITY PREDICTED BY RF-SCORE:    0.00 PKD
ROOT
HETATM    1  C   UNL     1      -9.466  15.758  68.142  1.00  0.00    -0.199 C  
HETATM    2  N   UNL     1     -10.670  14.928  68.167  1.00  0.00    -0.246 N  
HETATM    3  C   UNL     1     -11.747  15.382  69.046  1.00  0.00    -0.361 C  
ENDROOT
BRANCH   2   4
HETATM    4  C   UNL     1     -10.743  13.731  67.424  1.00  0.00    -0.275 C  
HETATM    5  S   UNL     1     -11.375  13.619  65.861  1.00  0.00    -0.315 S  
BRANCH   4   6
HETATM    6  S   UNL     1     -10.030  12.288  68.187  1.00  0.00    -0.212 SA 
BRANCH   6   7
HETATM    7  S   UNL     1     -11.700  11.213  68.757  1.00  0.00    -0.310 SA 
BRANCH   7   8
HETATM    8  C   UNL     1     -11.043  10.218  70.073  1.00  0.00    -0.311 C  
HETATM    9  S   UNL     1      -9.488   9.596  69.862  1.00  0.00    -0.241 S  
BRANCH   8  10
HETATM   10  N   UNL     1     -11.838  10.053  71.224  1.00  0.00    -0.379 N  
HETATM   11  C   UNL     1     -12.904  10.965  71.643  1.00  0.00    -0.449 C  
HETATM   12  C   UNL     1     -11.668   8.920  72.140  1.00  0.00    -0.341 C  
ENDBRANCH   8  10
ENDBRANCH   7   8
ENDBRANCH   6   7
ENDBRANCH   4   6
ENDBRANCH   2   4
TORSDOF 5
ENDMDL
MODEL      125
REMARK 921   NORMALIZED FREE ENERGY PREDICTED BY IDOCK:   -2.84 KCAL/MOL
REMARK 922        TOTAL FREE ENERGY PREDICTED BY IDOCK:   -3.76 KCAL/MOL
REMARK 923 INTER-LIGAND FREE ENERGY PREDICTED BY IDOCK:   -3.60 KCAL/MOL
REMARK 924 INTRA-LIGAND FREE ENERGY PREDICTED BY IDOCK:   -0.16 KCAL/MOL
REMARK 927      BINDING AFFINITY PREDICTED BY RF-SCORE:    0.00 PKD
ROOT
HETATM    1  C   UNL     1     -12.905  12.299  71.311  1.00  0.00    -0.239 C  
HETATM    2  N   UNL     1     -12.183  11.157  70.751  1.00  0.00    -0.372 N  
HETATM    3  C   UNL     1     -12.254   9.913  71.515  1.00  0.00    -0.416 C  
ENDROOT
BRANCH   2   4
HETATM    4  C   UNL     1     -11.418  11.289  69.573  1.00  0.00    -0.307 C  
HETATM    5  S   UNL     1     -10.172  10.238  69.125  1.00  0.00    -0.232 S  
BRANCH   4   6
HETATM    6  S   UNL     1     -11.888  12.608  68.473  1.00  0.00    -0.246 SA 
BRANCH   6   7
HETATM    7  S   UNL     1     -10.123  13.662  68.259  1.00  0.00    -0.241 SA 
BRANCH   7   8
HETATM    8  C   UNL     1     -10.675  15.328  68.525  1.00  0.00    -0.247 C  
HETATM    9  S   UNL     1     -11.674  15.603  69.858  1.00  0.00    -0.371 S  
BRANCH   8  10
HETATM   10  N   UNL     1     -10.206  16.319  67.640  1.00  0.00    -0.266 N  
HETATM   11  C   UNL     1     -10.501  17.749  67.752  1.00  0.00    -0.397 C  
HETATM   12  C   UNL     1      -9.354  16.004  66.489  1.00  0.00    -0.268 C  
ENDBRANCH   8  10
ENDBRANCH   7   8
ENDBRANCH   6   7
ENDBRANCH   4   6
ENDBRANCH   2   4
TORSDOF 5
ENDMDL
MODEL      126
REMARK 921   NORMALIZED FREE ENERGY PREDICTED BY IDOCK:   -2.83 KCAL/MOL
REMARK 922        TOTAL FREE ENERGY PREDICTED BY IDOCK:   -3.75 KCAL/MOL
REMARK 923 INTER-LIGAND FREE ENERGY PREDICTED BY IDOCK:   -3.59 KCAL/MOL
REMARK 924 INTRA-LIGAND FREE ENERGY PREDICTED BY IDOCK:   -0.16 KCAL/MOL
REMARK 927      BINDING AFFINITY PREDICTED BY RF-SCORE:    0.00 PKD
ROOT
HETATM    1  C   UNL     1     -10.600   8.321  72.552  1.00  0.00    -0.337 C  
HETATM    2  N   UNL     1     -11.383   8.448  71.323  1.00  0.00    -0.257 N  
HETATM    3  C   UNL     1     -12.026   7.227  70.840  1.00  0.00    -0.305 C  
ENDROOT
BRANCH   2   4
HETATM    4  C   UNL     1     -11.449   9.674  70.627  1.00  0.00    -0.306 C  
HETATM    5  S   UNL     1     -12.695  10.802  70.806  1.00  0.00    -0.343 S  
BRANCH   4   6
HETATM    6  S   UNL     1     -10.067  10.055  69.571  1.00  0.00    -0.240 SA 
BRANCH   6   7
HETATM    7  S   UNL     1     -10.964  10.270  67.721  1.00  0.00    -0.263 SA 
BRANCH   7   8
HETATM    8  C   UNL     1     -10.493  11.928  67.294  1.00  0.00    -0.222 C  
HETATM    9  S   UNL     1      -8.840  12.245  67.160  1.00  0.00    -0.200 S  
BRANCH   8  10
HETATM   10  N   UNL     1     -11.523  12.855  67.046  1.00  0.00    -0.319 N  
HETATM   11  C   UNL     1     -12.005  13.849  68.007  1.00  0.00    -0.355 C  
HETATM   12  C   UNL     1     -12.234  12.914  65.764  1.00  0.00    -0.439 C  
ENDBRANCH   8  10
ENDBRANCH   7   8
ENDBRANCH   6   7
ENDBRANCH   4   6
ENDBRANCH   2   4
TORSDOF 5
ENDMDL
MODEL      127
REMARK 921   NORMALIZED FREE ENERGY PREDICTED BY IDOCK:   -2.83 KCAL/MOL
REMARK 922        TOTAL FREE ENERGY PREDICTED BY IDOCK:   -3.75 KCAL/MOL
REMARK 923 INTER-LIGAND FREE ENERGY PREDICTED BY IDOCK:   -3.58 KCAL/MOL
REMARK 924 INTRA-LIGAND FREE ENERGY PREDICTED BY IDOCK:   -0.16 KCAL/MOL
REMARK 927      BINDING AFFINITY PREDICTED BY RF-SCORE:    0.00 PKD
ROOT
HETATM    1  C   UNL     1     -10.293   7.866  67.352  1.00  0.00    -0.279 C  
HETATM    2  N   UNL     1      -9.806   9.159  66.870  1.00  0.00    -0.198 N  
HETATM    3  C   UNL     1      -9.129   9.149  65.574  1.00  0.00    -0.219 C  
ENDROOT
BRANCH   2   4
HETATM    4  C   UNL     1      -9.940  10.323  67.655  1.00  0.00    -0.179 C  
HETATM    5  S   UNL     1      -8.972  10.685  68.993  1.00  0.00    -0.125 S  
BRANCH   4   6
HETATM    6  S   UNL     1     -11.160  11.502  67.112  1.00  0.00    -0.304 SA 
BRANCH   6   7
HETATM    7  S   UNL     1     -10.000  12.992  66.272  1.00  0.00    -0.286 SA 
BRANCH   7   8
HETATM    8  C   UNL     1     -10.959  13.416  64.839  1.00  0.00    -0.342 C  
HETATM    9  S   UNL     1     -11.462  15.021  64.699  1.00  0.00    -0.334 S  
BRANCH   8  10
HETATM   10  N   UNL     1     -11.194  12.403  63.889  1.00  0.00    -0.385 N  
HETATM   11  C   UNL     1     -12.515  12.012  63.392  1.00  0.00    -0.509 C  
HETATM   12  C   UNL     1     -10.108  11.620  63.291  1.00  0.00    -0.423 C  
ENDBRANCH   8  10
ENDBRANCH   7   8
ENDBRANCH   6   7
ENDBRANCH   4   6
ENDBRANCH   2   4
TORSDOF 5
ENDMDL
MODEL      128
REMARK 921   NORMALIZED FREE ENERGY PREDICTED BY IDOCK:   -2.82 KCAL/MOL
REMARK 922        TOTAL FREE ENERGY PREDICTED BY IDOCK:   -3.74 KCAL/MOL
REMARK 923 INTER-LIGAND FREE ENERGY PREDICTED BY IDOCK:   -3.58 KCAL/MOL
REMARK 924 INTRA-LIGAND FREE ENERGY PREDICTED BY IDOCK:   -0.16 KCAL/MOL
REMARK 927      BINDING AFFINITY PREDICTED BY RF-SCORE:    0.00 PKD
ROOT
HETATM    1  C   UNL     1     -12.118  13.804  68.606  1.00  0.00    -0.298 C  
HETATM    2  N   UNL     1     -11.763  12.470  68.120  1.00  0.00    -0.336 N  
HETATM    3  C   UNL     1     -11.574  12.340  66.676  1.00  0.00    -0.375 C  
ENDROOT
BRANCH   2   4
HETATM    4  C   UNL     1     -11.674  11.375  69.005  1.00  0.00    -0.343 C  
HETATM    5  S   UNL     1     -12.377  11.334  70.541  1.00  0.00    -0.344 S  
BRANCH   4   6
HETATM    6  S   UNL     1     -10.831   9.932  68.389  1.00  0.00    -0.192 SA 
BRANCH   6   7
HETATM    7  S   UNL     1     -10.184   9.017  70.125  1.00  0.00    -0.211 SA 
BRANCH   7   8
HETATM    8  C   UNL     1     -10.958   7.424  69.991  1.00  0.00    -0.248 C  
HETATM    9  S   UNL     1     -10.733   6.581  68.546  1.00  0.00    -0.288 S  
BRANCH   8  10
HETATM   10  N   UNL     1     -11.664   6.947  71.112  1.00  0.00    -0.317 N  
HETATM   11  C   UNL     1     -11.136   5.997  72.093  1.00  0.00    -0.279 C  
HETATM   12  C   UNL     1     -13.037   7.368  71.413  1.00  0.00    -0.350 C  
ENDBRANCH   8  10
ENDBRANCH   7   8
ENDBRANCH   6   7
ENDBRANCH   4   6
ENDBRANCH   2   4
TORSDOF 5
ENDMDL
MODEL      129
REMARK 921   NORMALIZED FREE ENERGY PREDICTED BY IDOCK:   -2.82 KCAL/MOL
REMARK 922        TOTAL FREE ENERGY PREDICTED BY IDOCK:   -3.73 KCAL/MOL
REMARK 923 INTER-LIGAND FREE ENERGY PREDICTED BY IDOCK:   -3.61 KCAL/MOL
REMARK 924 INTRA-LIGAND FREE ENERGY PREDICTED BY IDOCK:   -0.13 KCAL/MOL
REMARK 927      BINDING AFFINITY PREDICTED BY RF-SCORE:    0.00 PKD
ROOT
HETATM    1  C   UNL     1      -7.755  11.316  68.635  1.00  0.00    -0.136 C  
HETATM    2  N   UNL     1      -9.000  11.779  68.020  1.00  0.00    -0.169 N  
HETATM    3  C   UNL     1      -8.858  12.624  66.836  1.00  0.00    -0.201 C  
ENDROOT
BRANCH   2   4
HETATM    4  C   UNL     1     -10.251  11.464  68.591  1.00  0.00    -0.208 C  
HETATM    5  S   UNL     1     -10.555  10.081  69.514  1.00  0.00    -0.261 S  
BRANCH   4   6
HETATM    6  S   UNL     1     -11.541  12.673  68.374  1.00  0.00    -0.347 SA 
BRANCH   6   7
HETATM    7  S   UNL     1     -12.082  13.104  70.321  1.00  0.00    -0.262 SA 
BRANCH   7   8
HETATM    8  C   UNL     1     -12.135  14.879  70.286  1.00  0.00    -0.325 C  
HETATM    9  S   UNL     1     -11.418  15.642  68.961  1.00  0.00    -0.383 S  
BRANCH   8  10
HETATM   10  N   UNL     1     -12.812  15.531  71.334  1.00  0.00    -0.436 N  
HETATM   11  C   UNL     1     -14.265  15.538  71.517  1.00  0.00    -0.366 C  
HETATM   12  C   UNL     1     -12.106  16.290  72.373  1.00  0.00    -0.513 C  
ENDBRANCH   8  10
ENDBRANCH   7   8
ENDBRANCH   6   7
ENDBRANCH   4   6
ENDBRANCH   2   4
TORSDOF 5
ENDMDL
MODEL      130
REMARK 921   NORMALIZED FREE ENERGY PREDICTED BY IDOCK:   -2.82 KCAL/MOL
REMARK 922        TOTAL FREE ENERGY PREDICTED BY IDOCK:   -3.73 KCAL/MOL
REMARK 923 INTER-LIGAND FREE ENERGY PREDICTED BY IDOCK:   -3.57 KCAL/MOL
REMARK 924 INTRA-LIGAND FREE ENERGY PREDICTED BY IDOCK:   -0.16 KCAL/MOL
REMARK 927      BINDING AFFINITY PREDICTED BY RF-SCORE:    0.00 PKD
ROOT
HETATM    1  C   UNL     1     -11.685  15.300  64.475  1.00  0.00    -0.305 C  
HETATM    2  N   UNL     1     -10.919  15.131  65.710  1.00  0.00    -0.344 N  
HETATM    3  C   UNL     1      -9.719  15.956  65.841  1.00  0.00    -0.351 C  
ENDROOT
BRANCH   2   4
HETATM    4  C   UNL     1     -11.300  14.176  66.676  1.00  0.00    -0.344 C  
HETATM    5  S   UNL     1     -11.711  14.550  68.272  1.00  0.00    -0.324 S  
BRANCH   4   6
HETATM    6  S   UNL     1     -11.429  12.492  66.110  1.00  0.00    -0.397 SA 
BRANCH   6   7
HETATM    7  S   UNL     1      -9.496  11.795  66.339  1.00  0.00    -0.225 SA 
BRANCH   7   8
HETATM    8  C   UNL     1      -9.474  10.442  65.190  1.00  0.00    -0.249 C  
HETATM    9  S   UNL     1      -9.601  10.824  63.550  1.00  0.00    -0.350 S  
BRANCH   8  10
HETATM   10  N   UNL     1      -9.302   9.146  65.713  1.00  0.00    -0.234 N  
HETATM   11  C   UNL     1      -8.305   8.179  65.247  1.00  0.00    -0.152 C  
HETATM   12  C   UNL     1     -10.129   8.624  66.807  1.00  0.00    -0.296 C  
ENDBRANCH   8  10
ENDBRANCH   7   8
ENDBRANCH   6   7
ENDBRANCH   4   6
ENDBRANCH   2   4
TORSDOF 5
ENDMDL
MODEL      131
REMARK 921   NORMALIZED FREE ENERGY PREDICTED BY IDOCK:   -2.82 KCAL/MOL
REMARK 922        TOTAL FREE ENERGY PREDICTED BY IDOCK:   -3.73 KCAL/MOL
REMARK 923 INTER-LIGAND FREE ENERGY PREDICTED BY IDOCK:   -3.41 KCAL/MOL
REMARK 924 INTRA-LIGAND FREE ENERGY PREDICTED BY IDOCK:   -0.32 KCAL/MOL
REMARK 927      BINDING AFFINITY PREDICTED BY RF-SCORE:    0.00 PKD
ROOT
HETATM    1  C   UNL     1     -10.330   9.031  67.128  1.00  0.00    -0.272 C  
HETATM    2  N   UNL     1     -10.311  10.140  68.081  1.00  0.00    -0.175 N  
HETATM    3  C   UNL     1     -10.141  11.476  67.512  1.00  0.00    -0.183 C  
ENDROOT
BRANCH   2   4
HETATM    4  C   UNL     1     -10.393   9.905  69.470  1.00  0.00    -0.229 C  
HETATM    5  S   UNL     1      -9.088   9.424  70.431  1.00  0.00    -0.249 S  
BRANCH   4   6
HETATM    6  S   UNL     1     -11.968  10.234  70.232  1.00  0.00    -0.246 SA 
BRANCH   6   7
HETATM    7  S   UNL     1     -11.833   9.184  72.008  1.00  0.00    -0.280 SA 
BRANCH   7   8
HETATM    8  C   UNL     1     -12.558   7.628  71.551  1.00  0.00    -0.343 C  
HETATM    9  S   UNL     1     -14.242   7.526  71.586  1.00  0.00    -0.423 S  
BRANCH   8  10
HETATM   10  N   UNL     1     -11.687   6.600  71.142  1.00  0.00    -0.331 N  
HETATM   11  C   UNL     1     -10.974   5.697  72.047  1.00  0.00    -0.243 C  
HETATM   12  C   UNL     1     -11.403   6.327  69.729  1.00  0.00    -0.436 C  
ENDBRANCH   8  10
ENDBRANCH   7   8
ENDBRANCH   6   7
ENDBRANCH   4   6
ENDBRANCH   2   4
TORSDOF 5
ENDMDL
MODEL      132
REMARK 921   NORMALIZED FREE ENERGY PREDICTED BY IDOCK:   -2.81 KCAL/MOL
REMARK 922        TOTAL FREE ENERGY PREDICTED BY IDOCK:   -3.73 KCAL/MOL
REMARK 923 INTER-LIGAND FREE ENERGY PREDICTED BY IDOCK:   -3.55 KCAL/MOL
REMARK 924 INTRA-LIGAND FREE ENERGY PREDICTED BY IDOCK:   -0.17 KCAL/MOL
REMARK 927      BINDING AFFINITY PREDICTED BY RF-SCORE:    0.00 PKD
ROOT
HETATM    1  C   UNL     1     -12.031  11.666  69.925  1.00  0.00    -0.340 C  
HETATM    2  N   UNL     1     -12.658  11.226  71.172  1.00  0.00    -0.403 N  
HETATM    3  C   UNL     1     -13.285  12.269  71.981  1.00  0.00    -0.403 C  
ENDROOT
BRANCH   2   4
HETATM    4  C   UNL     1     -12.595   9.876  71.578  1.00  0.00    -0.416 C  
HETATM    5  S   UNL     1     -13.943   8.943  71.990  1.00  0.00    -0.420 S  
BRANCH   4   6
HETATM    6  S   UNL     1     -10.981   9.122  71.557  1.00  0.00    -0.378 SA 
BRANCH   6   7
HETATM    7  S   UNL     1     -11.319   7.317  72.504  1.00  0.00    -0.286 SA 
BRANCH   7   8
HETATM    8  C   UNL     1      -9.827   6.434  72.118  1.00  0.00    -0.158 C  
HETATM    9  S   UNL     1      -8.870   5.939  73.417  1.00  0.00    -0.125 S  
BRANCH   8  10
HETATM   10  N   UNL     1      -9.565   6.161  70.762  1.00  0.00    -0.168 N  
HETATM   11  C   UNL     1     -10.543   5.631  69.810  1.00  0.00    -0.329 C  
HETATM   12  C   UNL     1      -8.248   6.386  70.155  1.00  0.00    -0.129 C  
ENDBRANCH   8  10
ENDBRANCH   7   8
ENDBRANCH   6   7
ENDBRANCH   4   6
ENDBRANCH   2   4
TORSDOF 5
ENDMDL
MODEL      133
REMARK 921   NORMALIZED FREE ENERGY PREDICTED BY IDOCK:   -2.81 KCAL/MOL
REMARK 922        TOTAL FREE ENERGY PREDICTED BY IDOCK:   -3.72 KCAL/MOL
REMARK 923 INTER-LIGAND FREE ENERGY PREDICTED BY IDOCK:   -3.43 KCAL/MOL
REMARK 924 INTRA-LIGAND FREE ENERGY PREDICTED BY IDOCK:   -0.29 KCAL/MOL
REMARK 927      BINDING AFFINITY PREDICTED BY RF-SCORE:    0.00 PKD
ROOT
HETATM    1  C   UNL     1     -11.901  15.057  64.495  1.00  0.00    -0.371 C  
HETATM    2  N   UNL     1     -11.496  13.819  65.161  1.00  0.00    -0.312 N  
HETATM    3  C   UNL     1     -12.519  12.779  65.265  1.00  0.00    -0.465 C  
ENDROOT
BRANCH   2   4
HETATM    4  C   UNL     1     -10.206  13.682  65.717  1.00  0.00    -0.308 C  
HETATM    5  S   UNL     1      -9.296  14.965  66.334  1.00  0.00    -0.288 S  
BRANCH   4   6
HETATM    6  S   UNL     1      -9.573  12.021  65.837  1.00  0.00    -0.193 SA 
BRANCH   6   7
HETATM    7  S   UNL     1      -9.097  11.868  67.842  1.00  0.00    -0.190 SA 
BRANCH   7   8
HETATM    8  C   UNL     1     -10.533  11.043  68.482  1.00  0.00    -0.189 C  
HETATM    9  S   UNL     1     -10.689   9.397  68.139  1.00  0.00    -0.130 S  
BRANCH   8  10
HETATM   10  N   UNL     1     -11.420  11.798  69.273  1.00  0.00    -0.282 N  
HETATM   11  C   UNL     1     -11.769  13.200  69.034  1.00  0.00    -0.321 C  
HETATM   12  C   UNL     1     -12.099  11.237  70.446  1.00  0.00    -0.384 C  
ENDBRANCH   8  10
ENDBRANCH   7   8
ENDBRANCH   6   7
ENDBRANCH   4   6
ENDBRANCH   2   4
TORSDOF 5
ENDMDL
MODEL      134
REMARK 921   NORMALIZED FREE ENERGY PREDICTED BY IDOCK:   -2.81 KCAL/MOL
REMARK 922        TOTAL FREE ENERGY PREDICTED BY IDOCK:   -3.72 KCAL/MOL
REMARK 923 INTER-LIGAND FREE ENERGY PREDICTED BY IDOCK:   -3.53 KCAL/MOL
REMARK 924 INTRA-LIGAND FREE ENERGY PREDICTED BY IDOCK:   -0.18 KCAL/MOL
REMARK 927      BINDING AFFINITY PREDICTED BY RF-SCORE:    0.00 PKD
ROOT
HETATM    1  C   UNL     1     -14.269   8.038  71.588  1.00  0.00    -0.452 C  
HETATM    2  N   UNL     1     -13.052   8.844  71.505  1.00  0.00    -0.337 N  
HETATM    3  C   UNL     1     -13.181  10.248  71.895  1.00  0.00    -0.445 C  
ENDROOT
BRANCH   2   4
HETATM    4  C   UNL     1     -11.848   8.294  71.015  1.00  0.00    -0.255 C  
HETATM    5  S   UNL     1     -11.640   6.664  70.620  1.00  0.00    -0.387 S  
BRANCH   4   6
HETATM    6  S   UNL     1     -10.518   9.442  70.725  1.00  0.00    -0.322 SA 
BRANCH   6   7
HETATM    7  S   UNL     1     -10.660   9.787  68.692  1.00  0.00    -0.216 SA 
BRANCH   7   8
HETATM    8  C   UNL     1      -9.753  11.305  68.530  1.00  0.00    -0.198 C  
HETATM    9  S   UNL     1      -8.073  11.186  68.403  1.00  0.00    -0.147 S  
BRANCH   8  10
HETATM   10  N   UNL     1     -10.492  12.501  68.467  1.00  0.00    -0.235 N  
HETATM   11  C   UNL     1     -11.899  12.638  68.850  1.00  0.00    -0.302 C  
HETATM   12  C   UNL     1      -9.907  13.762  67.997  1.00  0.00    -0.239 C  
ENDBRANCH   8  10
ENDBRANCH   7   8
ENDBRANCH   6   7
ENDBRANCH   4   6
ENDBRANCH   2   4
TORSDOF 5
ENDMDL
MODEL      135
REMARK 921   NORMALIZED FREE ENERGY PREDICTED BY IDOCK:   -2.81 KCAL/MOL
REMARK 922        TOTAL FREE ENERGY PREDICTED BY IDOCK:   -3.72 KCAL/MOL
REMARK 923 INTER-LIGAND FREE ENERGY PREDICTED BY IDOCK:   -3.51 KCAL/MOL
REMARK 924 INTRA-LIGAND FREE ENERGY PREDICTED BY IDOCK:   -0.21 KCAL/MOL
REMARK 927      BINDING AFFINITY PREDICTED BY RF-SCORE:    0.00 PKD
ROOT
HETATM    1  C   UNL     1      -8.846  11.800  66.735  1.00  0.00    -0.191 C  
HETATM    2  N   UNL     1      -9.706  11.403  65.620  1.00  0.00    -0.224 N  
HETATM    3  C   UNL     1      -9.800   9.968  65.359  1.00  0.00    -0.314 C  
ENDROOT
BRANCH   2   4
HETATM    4  C   UNL     1     -10.349  12.370  64.819  1.00  0.00    -0.299 C  
HETATM    5  S   UNL     1     -11.115  12.032  63.351  1.00  0.00    -0.361 S  
BRANCH   4   6
HETATM    6  S   UNL     1     -10.409  14.024  65.477  1.00  0.00    -0.352 SA 
BRANCH   6   7
HETATM    7  S   UNL     1     -12.071  13.956  66.704  1.00  0.00    -0.433 SA 
BRANCH   7   8
HETATM    8  C   UNL     1     -11.367  14.403  68.272  1.00  0.00    -0.287 C  
HETATM    9  S   UNL     1      -9.961  15.336  68.245  1.00  0.00    -0.225 S  
BRANCH   8  10
HETATM   10  N   UNL     1     -12.052  13.994  69.433  1.00  0.00    -0.339 N  
HETATM   11  C   UNL     1     -12.274  12.602  69.828  1.00  0.00    -0.143 C  
HETATM   12  C   UNL     1     -12.625  14.952  70.385  1.00  0.00    -0.343 C  
ENDBRANCH   8  10
ENDBRANCH   7   8
ENDBRANCH   6   7
ENDBRANCH   4   6
ENDBRANCH   2   4
TORSDOF 5
ENDMDL
MODEL      136
REMARK 921   NORMALIZED FREE ENERGY PREDICTED BY IDOCK:   -2.80 KCAL/MOL
REMARK 922        TOTAL FREE ENERGY PREDICTED BY IDOCK:   -3.71 KCAL/MOL
REMARK 923 INTER-LIGAND FREE ENERGY PREDICTED BY IDOCK:   -3.58 KCAL/MOL
REMARK 924 INTRA-LIGAND FREE ENERGY PREDICTED BY IDOCK:   -0.14 KCAL/MOL
REMARK 927      BINDING AFFINITY PREDICTED BY RF-SCORE:    0.00 PKD
ROOT
HETATM    1  C   UNL     1      -9.107   9.026  69.346  1.00  0.00    -0.146 C  
HETATM    2  N   UNL     1      -9.832   9.631  68.229  1.00  0.00    -0.146 N  
HETATM    3  C   UNL     1     -10.395   8.703  67.249  1.00  0.00    -0.296 C  
ENDROOT
BRANCH   2   4
HETATM    4  C   UNL     1      -9.917  11.033  68.092  1.00  0.00    -0.177 C  
HETATM    5  S   UNL     1      -8.582  12.069  68.072  1.00  0.00    -0.176 S  
BRANCH   4   6
HETATM    6  S   UNL     1     -11.548  11.701  67.839  1.00  0.00    -0.272 SA 
BRANCH   6   7
HETATM    7  S   UNL     1     -11.494  13.445  68.948  1.00  0.00    -0.325 SA 
BRANCH   7   8
HETATM    8  C   UNL     1     -12.372  12.956  70.412  1.00  0.00    -0.258 C  
HETATM    9  S   UNL     1     -12.376  11.312  70.792  1.00  0.00    -0.375 S  
BRANCH   8  10
HETATM   10  N   UNL     1     -12.965  13.973  71.185  1.00  0.00    -0.337 N  
HETATM   11  C   UNL     1     -12.869  15.406  70.900  1.00  0.00    -0.476 C  
HETATM   12  C   UNL     1     -13.756  13.686  72.387  1.00  0.00    -0.595 C  
ENDBRANCH   8  10
ENDBRANCH   7   8
ENDBRANCH   6   7
ENDBRANCH   4   6
ENDBRANCH   2   4
TORSDOF 5
ENDMDL
MODEL      137
REMARK 921   NORMALIZED FREE ENERGY PREDICTED BY IDOCK:   -2.79 KCAL/MOL
REMARK 922        TOTAL FREE ENERGY PREDICTED BY IDOCK:   -3.70 KCAL/MOL
REMARK 923 INTER-LIGAND FREE ENERGY PREDICTED BY IDOCK:   -3.55 KCAL/MOL
REMARK 924 INTRA-LIGAND FREE ENERGY PREDICTED BY IDOCK:   -0.15 KCAL/MOL
REMARK 927      BINDING AFFINITY PREDICTED BY RF-SCORE:    0.00 PKD
ROOT
HETATM    1  C   UNL     1     -10.147  15.836  65.595  1.00  0.00    -0.371 C  
HETATM    2  N   UNL     1     -10.235  14.412  65.920  1.00  0.00    -0.310 N  
HETATM    3  C   UNL     1     -11.192  13.631  65.138  1.00  0.00    -0.310 C  
ENDROOT
BRANCH   2   4
HETATM    4  C   UNL     1      -9.475  13.860  66.973  1.00  0.00    -0.254 C  
HETATM    5  S   UNL     1      -7.805  14.057  67.145  1.00  0.00     0.092 S  
BRANCH   4   6
HETATM    6  S   UNL     1     -10.387  12.981  68.225  1.00  0.00    -0.254 SA 
BRANCH   6   7
HETATM    7  S   UNL     1     -11.068  14.510  69.438  1.00  0.00    -0.259 SA 
BRANCH   7   8
HETATM    8  C   UNL     1     -12.106  13.621  70.573  1.00  0.00    -0.339 C  
HETATM    9  S   UNL     1     -12.096  11.937  70.463  1.00  0.00    -0.233 S  
BRANCH   8  10
HETATM   10  N   UNL     1     -12.828  14.372  71.519  1.00  0.00    -0.322 N  
HETATM   11  C   UNL     1     -12.470  15.719  71.970  1.00  0.00    -0.457 C  
HETATM   12  C   UNL     1     -14.043  13.863  72.165  1.00  0.00    -0.536 C  
ENDBRANCH   8  10
ENDBRANCH   7   8
ENDBRANCH   6   7
ENDBRANCH   4   6
ENDBRANCH   2   4
TORSDOF 5
ENDMDL
MODEL      138
REMARK 921   NORMALIZED FREE ENERGY PREDICTED BY IDOCK:   -2.79 KCAL/MOL
REMARK 922        TOTAL FREE ENERGY PREDICTED BY IDOCK:   -3.70 KCAL/MOL
REMARK 923 INTER-LIGAND FREE ENERGY PREDICTED BY IDOCK:   -3.58 KCAL/MOL
REMARK 924 INTRA-LIGAND FREE ENERGY PREDICTED BY IDOCK:   -0.12 KCAL/MOL
REMARK 927      BINDING AFFINITY PREDICTED BY RF-SCORE:    0.00 PKD
ROOT
HETATM    1  C   UNL     1      -7.729  12.169  67.167  1.00  0.00    -0.151 C  
HETATM    2  N   UNL     1      -7.874  13.608  67.386  1.00  0.00    -0.167 N  
HETATM    3  C   UNL     1      -6.663  14.324  67.786  1.00  0.00    -0.176 C  
ENDROOT
BRANCH   2   4
HETATM    4  C   UNL     1      -9.132  14.236  67.270  1.00  0.00    -0.215 C  
HETATM    5  S   UNL     1      -9.933  14.500  65.805  1.00  0.00    -0.326 S  
BRANCH   4   6
HETATM    6  S   UNL     1      -9.930  14.685  68.798  1.00  0.00    -0.227 SA 
BRANCH   6   7
HETATM    7  S   UNL     1     -11.893  14.139  68.454  1.00  0.00    -0.338 SA 
BRANCH   7   8
HETATM    8  C   UNL     1     -12.285  13.276  69.956  1.00  0.00    -0.275 C  
HETATM    9  S   UNL     1     -11.932  11.626  70.008  1.00  0.00    -0.334 S  
BRANCH   8  10
HETATM   10  N   UNL     1     -12.815  14.029  71.021  1.00  0.00    -0.341 N  
HETATM   11  C   UNL     1     -13.334  13.466  72.269  1.00  0.00    -0.544 C  
HETATM   12  C   UNL     1     -12.903  15.493  70.980  1.00  0.00    -0.482 C  
ENDBRANCH   8  10
ENDBRANCH   7   8
ENDBRANCH   6   7
ENDBRANCH   4   6
ENDBRANCH   2   4
TORSDOF 5
ENDMDL
MODEL      139
REMARK 921   NORMALIZED FREE ENERGY PREDICTED BY IDOCK:   -2.79 KCAL/MOL
REMARK 922        TOTAL FREE ENERGY PREDICTED BY IDOCK:   -3.70 KCAL/MOL
REMARK 923 INTER-LIGAND FREE ENERGY PREDICTED BY IDOCK:   -3.62 KCAL/MOL
REMARK 924 INTRA-LIGAND FREE ENERGY PREDICTED BY IDOCK:   -0.08 KCAL/MOL
REMARK 927      BINDING AFFINITY PREDICTED BY RF-SCORE:    0.00 PKD
ROOT
HETATM    1  C   UNL     1     -10.438  17.065  69.008  1.00  0.00    -0.337 C  
HETATM    2  N   UNL     1      -9.647  17.637  67.918  1.00  0.00    -0.275 N  
HETATM    3  C   UNL     1      -8.248  17.931  68.222  1.00  0.00    -0.290 C  
ENDROOT
BRANCH   2   4
HETATM    4  C   UNL     1     -10.239  17.937  66.672  1.00  0.00    -0.371 C  
HETATM    5  S   UNL     1     -10.354  19.494  66.024  1.00  0.00    -0.488 S  
BRANCH   4   6
HETATM    6  S   UNL     1     -10.808  16.546  65.717  1.00  0.00    -0.051 SA 
BRANCH   6   7
HETATM    7  S   UNL     1      -9.446  15.074  66.216  1.00  0.00    -0.314 SA 
BRANCH   7   8
HETATM    8  C   UNL     1     -10.414  13.605  65.975  1.00  0.00    -0.300 C  
HETATM    9  S   UNL     1     -10.633  13.082  64.384  1.00  0.00    -0.410 S  
BRANCH   8  10
HETATM   10  N   UNL     1     -10.893  12.944  67.122  1.00  0.00    -0.253 N  
HETATM   11  C   UNL     1     -10.366  11.681  67.643  1.00  0.00    -0.189 C  
HETATM   12  C   UNL     1     -11.997  13.473  67.930  1.00  0.00    -0.337 C  
ENDBRANCH   8  10
ENDBRANCH   7   8
ENDBRANCH   6   7
ENDBRANCH   4   6
ENDBRANCH   2   4
TORSDOF 5
ENDMDL
MODEL      140
REMARK 921   NORMALIZED FREE ENERGY PREDICTED BY IDOCK:   -2.77 KCAL/MOL
REMARK 922        TOTAL FREE ENERGY PREDICTED BY IDOCK:   -3.67 KCAL/MOL
REMARK 923 INTER-LIGAND FREE ENERGY PREDICTED BY IDOCK:   -3.54 KCAL/MOL
REMARK 924 INTRA-LIGAND FREE ENERGY PREDICTED BY IDOCK:   -0.13 KCAL/MOL
REMARK 927      BINDING AFFINITY PREDICTED BY RF-SCORE:    0.00 PKD
ROOT
HETATM    1  C   UNL     1     -11.046   8.093  72.469  1.00  0.00    -0.377 C  
HETATM    2  N   UNL     1     -12.008   8.868  71.687  1.00  0.00    -0.321 N  
HETATM    3  C   UNL     1     -13.400   8.426  71.758  1.00  0.00    -0.357 C  
ENDROOT
BRANCH   2   4
HETATM    4  C   UNL     1     -11.586   9.939  70.871  1.00  0.00    -0.373 C  
HETATM    5  S   UNL     1     -12.423  11.398  70.707  1.00  0.00    -0.327 S  
BRANCH   4   6
HETATM    6  S   UNL     1     -10.020   9.731  70.048  1.00  0.00    -0.255 SA 
BRANCH   6   7
HETATM    7  S   UNL     1     -10.092  11.181  68.577  1.00  0.00    -0.206 SA 
BRANCH   7   8
HETATM    8  C   UNL     1     -10.162  10.187  67.108  1.00  0.00    -0.225 C  
HETATM    9  S   UNL     1     -10.342   8.521  67.316  1.00  0.00    -0.303 S  
BRANCH   8  10
HETATM   10  N   UNL     1     -10.114  10.853  65.868  1.00  0.00    -0.243 N  
HETATM   11  C   UNL     1     -10.263  12.298  65.688  1.00  0.00    -0.261 C  
HETATM   12  C   UNL     1      -9.905  10.142  64.602  1.00  0.00    -0.291 C  
ENDBRANCH   8  10
ENDBRANCH   7   8
ENDBRANCH   6   7
ENDBRANCH   4   6
ENDBRANCH   2   4
TORSDOF 5
ENDMDL
MODEL      141
REMARK 921   NORMALIZED FREE ENERGY PREDICTED BY IDOCK:   -2.76 KCAL/MOL
REMARK 922        TOTAL FREE ENERGY PREDICTED BY IDOCK:   -3.65 KCAL/MOL
REMARK 923 INTER-LIGAND FREE ENERGY PREDICTED BY IDOCK:   -3.46 KCAL/MOL
REMARK 924 INTRA-LIGAND FREE ENERGY PREDICTED BY IDOCK:   -0.19 KCAL/MOL
REMARK 927      BINDING AFFINITY PREDICTED BY RF-SCORE:    0.00 PKD
ROOT
HETATM    1  C   UNL     1     -10.478  10.842  65.325  1.00  0.00    -0.230 C  
HETATM    2  N   UNL     1     -11.123  12.065  65.806  1.00  0.00    -0.314 N  
HETATM    3  C   UNL     1     -12.246  12.556  65.009  1.00  0.00    -0.456 C  
ENDROOT
BRANCH   2   4
HETATM    4  C   UNL     1     -10.634  12.746  66.941  1.00  0.00    -0.244 C  
HETATM    5  S   UNL     1     -11.520  12.990  68.359  1.00  0.00    -0.334 S  
BRANCH   4   6
HETATM    6  S   UNL     1      -8.939  13.289  66.862  1.00  0.00    -0.170 SA 
BRANCH   6   7
HETATM    7  S   UNL     1      -8.777  14.488  68.538  1.00  0.00    -0.174 SA 
BRANCH   7   8
HETATM    8  C   UNL     1      -9.378  16.039  67.918  1.00  0.00    -0.208 C  
HETATM    9  S   UNL     1      -9.093  16.377  66.289  1.00  0.00    -0.337 S  
BRANCH   8  10
HETATM   10  N   UNL     1     -10.095  16.862  68.807  1.00  0.00    -0.277 N  
HETATM   11  C   UNL     1     -10.884  16.380  69.943  1.00  0.00    -0.333 C  
HETATM   12  C   UNL     1     -10.123  18.323  68.677  1.00  0.00    -0.385 C  
ENDBRANCH   8  10
ENDBRANCH   7   8
ENDBRANCH   6   7
ENDBRANCH   4   6
ENDBRANCH   2   4
TORSDOF 5
ENDMDL
MODEL      142
REMARK 921   NORMALIZED FREE ENERGY PREDICTED BY IDOCK:   -2.75 KCAL/MOL
REMARK 922        TOTAL FREE ENERGY PREDICTED BY IDOCK:   -3.64 KCAL/MOL
REMARK 923 INTER-LIGAND FREE ENERGY PREDICTED BY IDOCK:   -3.47 KCAL/MOL
REMARK 924 INTRA-LIGAND FREE ENERGY PREDICTED BY IDOCK:   -0.17 KCAL/MOL
REMARK 927      BINDING AFFINITY PREDICTED BY RF-SCORE:    0.00 PKD
ROOT
HETATM    1  C   UNL     1     -12.258  11.189  70.220  1.00  0.00    -0.352 C  
HETATM    2  N   UNL     1     -11.182  10.198  70.167  1.00  0.00    -0.288 N  
HETATM    3  C   UNL     1     -11.189   9.184  71.219  1.00  0.00    -0.337 C  
ENDROOT
BRANCH   2   4
HETATM    4  C   UNL     1     -10.173  10.274  69.183  1.00  0.00    -0.218 C  
HETATM    5  S   UNL     1      -8.570   9.800  69.428  1.00  0.00    -0.179 S  
BRANCH   4   6
HETATM    6  S   UNL     1     -10.687  10.827  67.570  1.00  0.00    -0.284 SA 
BRANCH   6   7
HETATM    7  S   UNL     1      -9.282  12.277  67.126  1.00  0.00    -0.203 SA 
BRANCH   7   8
HETATM    8  C   UNL     1     -10.286  13.506  66.330  1.00  0.00    -0.299 C  
HETATM    9  S   UNL     1     -10.653  13.258  64.701  1.00  0.00    -0.413 S  
BRANCH   8  10
HETATM   10  N   UNL     1     -10.751  14.577  67.116  1.00  0.00    -0.282 N  
HETATM   11  C   UNL     1     -11.752  14.462  68.179  1.00  0.00    -0.342 C  
HETATM   12  C   UNL     1     -10.265  15.949  66.941  1.00  0.00    -0.277 C  
ENDBRANCH   8  10
ENDBRANCH   7   8
ENDBRANCH   6   7
ENDBRANCH   4   6
ENDBRANCH   2   4
TORSDOF 5
ENDMDL
MODEL      143
REMARK 921   NORMALIZED FREE ENERGY PREDICTED BY IDOCK:   -2.74 KCAL/MOL
REMARK 922        TOTAL FREE ENERGY PREDICTED BY IDOCK:   -3.64 KCAL/MOL
REMARK 923 INTER-LIGAND FREE ENERGY PREDICTED BY IDOCK:   -3.42 KCAL/MOL
REMARK 924 INTRA-LIGAND FREE ENERGY PREDICTED BY IDOCK:   -0.22 KCAL/MOL
REMARK 927      BINDING AFFINITY PREDICTED BY RF-SCORE:    0.00 PKD
ROOT
HETATM    1  C   UNL     1      -6.686  14.291  68.098  1.00  0.00    -0.128 C  
HETATM    2  N   UNL     1      -7.158  15.568  67.561  1.00  0.00    -0.175 N  
HETATM    3  C   UNL     1      -6.127  16.486  67.082  1.00  0.00    -0.161 C  
ENDROOT
BRANCH   2   4
HETATM    4  C   UNL     1      -8.531  15.896  67.571  1.00  0.00    -0.165 C  
HETATM    5  S   UNL     1      -9.391  16.429  66.218  1.00  0.00    -0.330 S  
BRANCH   4   6
HETATM    6  S   UNL     1      -9.391  15.633  69.108  1.00  0.00    -0.265 SA 
BRANCH   6   7
HETATM    7  S   UNL     1     -11.373  15.792  68.544  1.00  0.00    -0.377 SA 
BRANCH   7   8
HETATM    8  C   UNL     1     -11.812  14.086  68.323  1.00  0.00    -0.371 C  
HETATM    9  S   UNL     1     -11.900  13.516  66.737  1.00  0.00    -0.413 S  
BRANCH   8  10
HETATM   10  N   UNL     1     -12.009  13.309  69.481  1.00  0.00    -0.317 N  
HETATM   11  C   UNL     1     -11.773  11.867  69.571  1.00  0.00    -0.345 C  
HETATM   12  C   UNL     1     -12.483  13.886  70.743  1.00  0.00    -0.375 C  
ENDBRANCH   8  10
ENDBRANCH   7   8
ENDBRANCH   6   7
ENDBRANCH   4   6
ENDBRANCH   2   4
TORSDOF 5
ENDMDL
MODEL      144
REMARK 921   NORMALIZED FREE ENERGY PREDICTED BY IDOCK:   -2.74 KCAL/MOL
REMARK 922        TOTAL FREE ENERGY PREDICTED BY IDOCK:   -3.63 KCAL/MOL
REMARK 923 INTER-LIGAND FREE ENERGY PREDICTED BY IDOCK:   -3.45 KCAL/MOL
REMARK 924 INTRA-LIGAND FREE ENERGY PREDICTED BY IDOCK:   -0.18 KCAL/MOL
REMARK 927      BINDING AFFINITY PREDICTED BY RF-SCORE:    0.00 PKD
ROOT
HETATM    1  C   UNL     1     -10.770   8.673  71.967  1.00  0.00    -0.357 C  
HETATM    2  N   UNL     1     -11.027   7.482  71.158  1.00  0.00    -0.243 N  
HETATM    3  C   UNL     1     -11.722   6.385  71.829  1.00  0.00    -0.324 C  
ENDROOT
BRANCH   2   4
HETATM    4  C   UNL     1     -10.566   7.395  69.827  1.00  0.00    -0.236 C  
HETATM    5  S   UNL     1     -10.956   6.139  68.766  1.00  0.00    -0.306 S  
BRANCH   4   6
HETATM    6  S   UNL     1      -9.587   8.763  69.243  1.00  0.00    -0.165 SA 
BRANCH   6   7
HETATM    7  S   UNL     1     -10.446   9.176  67.408  1.00  0.00    -0.245 SA 
BRANCH   7   8
HETATM    8  C   UNL     1     -11.069  10.817  67.674  1.00  0.00    -0.319 C  
HETATM    9  S   UNL     1     -11.741  11.147  69.187  1.00  0.00    -0.363 S  
BRANCH   8  10
HETATM   10  N   UNL     1     -10.918  11.748  66.629  1.00  0.00    -0.281 N  
HETATM   11  C   UNL     1      -9.706  11.914  65.823  1.00  0.00    -0.237 C  
HETATM   12  C   UNL     1     -11.990  12.669  66.235  1.00  0.00    -0.374 C  
ENDBRANCH   8  10
ENDBRANCH   7   8
ENDBRANCH   6   7
ENDBRANCH   4   6
ENDBRANCH   2   4
TORSDOF 5
ENDMDL
MODEL      145
REMARK 921   NORMALIZED FREE ENERGY PREDICTED BY IDOCK:   -2.74 KCAL/MOL
REMARK 922        TOTAL FREE ENERGY PREDICTED BY IDOCK:   -3.63 KCAL/MOL
REMARK 923 INTER-LIGAND FREE ENERGY PREDICTED BY IDOCK:   -3.39 KCAL/MOL
REMARK 924 INTRA-LIGAND FREE ENERGY PREDICTED BY IDOCK:   -0.24 KCAL/MOL
REMARK 927      BINDING AFFINITY PREDICTED BY RF-SCORE:    0.00 PKD
ROOT
HETATM    1  C   UNL     1     -12.340  13.936  66.172  1.00  0.00    -0.465 C  
HETATM    2  N   UNL     1     -10.959  13.473  66.035  1.00  0.00    -0.276 N  
HETATM    3  C   UNL     1      -9.934  14.315  66.651  1.00  0.00    -0.275 C  
ENDROOT
BRANCH   2   4
HETATM    4  C   UNL     1     -10.653  12.312  65.296  1.00  0.00    -0.287 C  
HETATM    5  S   UNL     1     -10.982  12.119  63.649  1.00  0.00    -0.481 S  
BRANCH   4   6
HETATM    6  S   UNL     1      -9.784  11.027  66.172  1.00  0.00    -0.228 SA 
BRANCH   6   7
HETATM    7  S   UNL     1     -11.081  10.588  67.720  1.00  0.00    -0.277 SA 
BRANCH   7   8
HETATM    8  C   UNL     1     -10.181   9.322  68.582  1.00  0.00    -0.199 C  
HETATM    9  S   UNL     1      -9.918   9.557  70.233  1.00  0.00    -0.273 S  
BRANCH   8  10
HETATM   10  N   UNL     1      -9.790   8.186  67.848  1.00  0.00    -0.161 N  
HETATM   11  C   UNL     1     -10.705   7.302  67.123  1.00  0.00    -0.343 C  
HETATM   12  C   UNL     1      -8.389   7.767  67.736  1.00  0.00    -0.125 C  
ENDBRANCH   8  10
ENDBRANCH   7   8
ENDBRANCH   6   7
ENDBRANCH   4   6
ENDBRANCH   2   4
TORSDOF 5
ENDMDL
MODEL      146
REMARK 921   NORMALIZED FREE ENERGY PREDICTED BY IDOCK:   -2.74 KCAL/MOL
REMARK 922        TOTAL FREE ENERGY PREDICTED BY IDOCK:   -3.63 KCAL/MOL
REMARK 923 INTER-LIGAND FREE ENERGY PREDICTED BY IDOCK:   -3.31 KCAL/MOL
REMARK 924 INTRA-LIGAND FREE ENERGY PREDICTED BY IDOCK:   -0.31 KCAL/MOL
REMARK 927      BINDING AFFINITY PREDICTED BY RF-SCORE:    0.00 PKD
ROOT
HETATM    1  C   UNL     1      -5.826  14.670  68.076  1.00  0.00    -0.146 C  
HETATM    2  N   UNL     1      -7.227  14.424  67.735  1.00  0.00    -0.158 N  
HETATM    3  C   UNL     1      -7.565  13.054  67.351  1.00  0.00    -0.137 C  
ENDROOT
BRANCH   2   4
HETATM    4  C   UNL     1      -8.168  15.475  67.727  1.00  0.00    -0.147 C  
HETATM    5  S   UNL     1      -8.236  16.680  66.543  1.00  0.00    -0.321 S  
BRANCH   4   6
HETATM    6  S   UNL     1      -9.397  15.442  69.015  1.00  0.00    -0.247 SA 
BRANCH   6   7
HETATM    7  S   UNL     1     -11.145  15.807  67.974  1.00  0.00    -0.323 SA 
BRANCH   7   8
HETATM    8  C   UNL     1     -11.509  14.195  67.325  1.00  0.00    -0.350 C  
HETATM    9  S   UNL     1     -11.733  12.950  68.443  1.00  0.00    -0.343 S  
BRANCH   8  10
HETATM   10  N   UNL     1     -11.637  14.068  65.928  1.00  0.00    -0.337 N  
HETATM   11  C   UNL     1     -12.909  13.993  65.207  1.00  0.00    -0.384 C  
HETATM   12  C   UNL     1     -10.474  13.998  65.036  1.00  0.00    -0.420 C  
ENDBRANCH   8  10
ENDBRANCH   7   8
ENDBRANCH   6   7
ENDBRANCH   4   6
ENDBRANCH   2   4
TORSDOF 5
ENDMDL
MODEL      147
REMARK 921   NORMALIZED FREE ENERGY PREDICTED BY IDOCK:   -2.74 KCAL/MOL
REMARK 922        TOTAL FREE ENERGY PREDICTED BY IDOCK:   -3.63 KCAL/MOL
REMARK 923 INTER-LIGAND FREE ENERGY PREDICTED BY IDOCK:   -3.52 KCAL/MOL
REMARK 924 INTRA-LIGAND FREE ENERGY PREDICTED BY IDOCK:   -0.10 KCAL/MOL
REMARK 927      BINDING AFFINITY PREDICTED BY RF-SCORE:    0.00 PKD
ROOT
HETATM    1  C   UNL     1     -13.452  13.509  72.543  1.00  0.00    -0.556 C  
HETATM    2  N   UNL     1     -13.266  14.189  71.261  1.00  0.00    -0.341 N  
HETATM    3  C   UNL     1     -13.989  15.449  71.090  1.00  0.00    -0.316 C  
ENDROOT
BRANCH   2   4
HETATM    4  C   UNL     1     -12.479  13.614  70.241  1.00  0.00    -0.265 C  
HETATM    5  S   UNL     1     -12.099  11.970  70.147  1.00  0.00    -0.241 S  
BRANCH   4   6
HETATM    6  S   UNL     1     -11.947  14.712  68.944  1.00  0.00    -0.236 SA 
BRANCH   6   7
HETATM    7  S   UNL     1     -10.552  15.896  69.905  1.00  0.00    -0.323 SA 
BRANCH   7   8
HETATM    8  C   UNL     1      -9.749  16.680  68.528  1.00  0.00    -0.244 C  
HETATM    9  S   UNL     1     -10.462  18.085  67.923  1.00  0.00    -0.376 S  
BRANCH   8  10
HETATM   10  N   UNL     1      -8.549  16.109  68.064  1.00  0.00    -0.169 N  
HETATM   11  C   UNL     1      -7.419  15.728  68.914  1.00  0.00    -0.173 C  
HETATM   12  C   UNL     1      -8.307  15.836  66.643  1.00  0.00    -0.284 C  
ENDBRANCH   8  10
ENDBRANCH   7   8
ENDBRANCH   6   7
ENDBRANCH   4   6
ENDBRANCH   2   4
TORSDOF 5
ENDMDL
MODEL      148
REMARK 921   NORMALIZED FREE ENERGY PREDICTED BY IDOCK:   -2.73 KCAL/MOL
REMARK 922        TOTAL FREE ENERGY PREDICTED BY IDOCK:   -3.62 KCAL/MOL
REMARK 923 INTER-LIGAND FREE ENERGY PREDICTED BY IDOCK:   -3.41 KCAL/MOL
REMARK 924 INTRA-LIGAND FREE ENERGY PREDICTED BY IDOCK:   -0.21 KCAL/MOL
REMARK 927      BINDING AFFINITY PREDICTED BY RF-SCORE:    0.00 PKD
ROOT
HETATM    1  C   UNL     1     -13.077  10.083  71.749  1.00  0.00    -0.457 C  
HETATM    2  N   UNL     1     -12.528   8.731  71.650  1.00  0.00    -0.323 N  
HETATM    3  C   UNL     1     -13.503   7.647  71.535  1.00  0.00    -0.336 C  
ENDROOT
BRANCH   2   4
HETATM    4  C   UNL     1     -11.137   8.505  71.726  1.00  0.00    -0.307 C  
HETATM    5  S   UNL     1     -10.414   7.353  72.730  1.00  0.00    -0.308 S  
BRANCH   4   6
HETATM    6  S   UNL     1     -10.124   9.454  70.611  1.00  0.00    -0.296 SA 
BRANCH   6   7
HETATM    7  S   UNL     1     -10.504   8.557  68.788  1.00  0.00    -0.142 SA 
BRANCH   7   8
HETATM    8  C   UNL     1     -10.824   9.971  67.762  1.00  0.00    -0.282 C  
HETATM    9  S   UNL     1     -11.709  11.234  68.449  1.00  0.00    -0.260 S  
BRANCH   8  10
HETATM   10  N   UNL     1     -10.279   9.971  66.464  1.00  0.00    -0.233 N  
HETATM   11  C   UNL     1     -10.424  11.058  65.494  1.00  0.00    -0.238 C  
HETATM   12  C   UNL     1      -9.491   8.848  65.943  1.00  0.00    -0.234 C  
ENDBRANCH   8  10
ENDBRANCH   7   8
ENDBRANCH   6   7
ENDBRANCH   4   6
ENDBRANCH   2   4
TORSDOF 5
ENDMDL
MODEL      149
REMARK 921   NORMALIZED FREE ENERGY PREDICTED BY IDOCK:   -2.73 KCAL/MOL
REMARK 922        TOTAL FREE ENERGY PREDICTED BY IDOCK:   -3.62 KCAL/MOL
REMARK 923 INTER-LIGAND FREE ENERGY PREDICTED BY IDOCK:   -3.42 KCAL/MOL
REMARK 924 INTRA-LIGAND FREE ENERGY PREDICTED BY IDOCK:   -0.20 KCAL/MOL
REMARK 927      BINDING AFFINITY PREDICTED BY RF-SCORE:    0.00 PKD
ROOT
HETATM    1  C   UNL     1     -11.254  12.016  65.344  1.00  0.00    -0.322 C  
HETATM    2  N   UNL     1     -10.874  11.803  66.741  1.00  0.00    -0.257 N  
HETATM    3  C   UNL     1     -11.706  12.467  67.743  1.00  0.00    -0.359 C  
ENDROOT
BRANCH   2   4
HETATM    4  C   UNL     1      -9.731  11.046  67.076  1.00  0.00    -0.182 C  
HETATM    5  S   UNL     1      -8.590  10.500  65.954  1.00  0.00    -0.168 S  
BRANCH   4   6
HETATM    6  S   UNL     1      -9.466  10.747  68.811  1.00  0.00    -0.177 SA 
BRANCH   6   7
HETATM    7  S   UNL     1     -10.623   9.069  69.156  1.00  0.00    -0.165 SA 
BRANCH   7   8
HETATM    8  C   UNL     1     -10.881   9.177  70.910  1.00  0.00    -0.278 C  
HETATM    9  S   UNL     1      -9.610   8.681  71.905  1.00  0.00    -0.311 S  
BRANCH   8  10
HETATM   10  N   UNL     1     -12.104   9.713  71.357  1.00  0.00    -0.361 N  
HETATM   11  C   UNL     1     -12.552  11.087  71.121  1.00  0.00    -0.418 C  
HETATM   12  C   UNL     1     -13.074   8.924  72.125  1.00  0.00    -0.421 C  
ENDBRANCH   8  10
ENDBRANCH   7   8
ENDBRANCH   6   7
ENDBRANCH   4   6
ENDBRANCH   2   4
TORSDOF 5
ENDMDL
MODEL      150
REMARK 921   NORMALIZED FREE ENERGY PREDICTED BY IDOCK:   -2.73 KCAL/MOL
REMARK 922        TOTAL FREE ENERGY PREDICTED BY IDOCK:   -3.62 KCAL/MOL
REMARK 923 INTER-LIGAND FREE ENERGY PREDICTED BY IDOCK:   -3.33 KCAL/MOL
REMARK 924 INTRA-LIGAND FREE ENERGY PREDICTED BY IDOCK:   -0.29 KCAL/MOL
REMARK 927      BINDING AFFINITY PREDICTED BY RF-SCORE:    0.00 PKD
ROOT
HETATM    1  C   UNL     1     -10.118  11.677  63.836  1.00  0.00    -0.357 C  
HETATM    2  N   UNL     1     -10.848  11.663  65.104  1.00  0.00    -0.295 N  
HETATM    3  C   UNL     1     -12.075  12.456  65.149  1.00  0.00    -0.405 C  
ENDROOT
BRANCH   2   4
HETATM    4  C   UNL     1     -10.345  10.967  66.223  1.00  0.00    -0.250 C  
HETATM    5  S   UNL     1      -9.768   9.379  66.174  1.00  0.00    -0.279 S  
BRANCH   4   6
HETATM    6  S   UNL     1     -10.248  11.887  67.744  1.00  0.00    -0.204 SA 
BRANCH   6   7
HETATM    7  S   UNL     1      -8.539  13.018  67.474  1.00  0.00    -0.204 SA 
BRANCH   7   8
HETATM    8  C   UNL     1      -9.092  14.621  68.001  1.00  0.00    -0.189 C  
HETATM    9  S   UNL     1      -8.224  15.363  69.244  1.00  0.00    -0.253 S  
BRANCH   8  10
HETATM   10  N   UNL     1     -10.184  15.190  67.318  1.00  0.00    -0.241 N  
HETATM   11  C   UNL     1     -11.512  15.406  67.895  1.00  0.00    -0.299 C  
HETATM   12  C   UNL     1     -10.093  15.632  65.922  1.00  0.00    -0.353 C  
ENDBRANCH   8  10
ENDBRANCH   7   8
ENDBRANCH   6   7
ENDBRANCH   4   6
ENDBRANCH   2   4
TORSDOF 5
ENDMDL
MODEL      151
REMARK 921   NORMALIZED FREE ENERGY PREDICTED BY IDOCK:   -2.73 KCAL/MOL
REMARK 922        TOTAL FREE ENERGY PREDICTED BY IDOCK:   -3.62 KCAL/MOL
REMARK 923 INTER-LIGAND FREE ENERGY PREDICTED BY IDOCK:   -3.52 KCAL/MOL
REMARK 924 INTRA-LIGAND FREE ENERGY PREDICTED BY IDOCK:   -0.09 KCAL/MOL
REMARK 927      BINDING AFFINITY PREDICTED BY RF-SCORE:    0.00 PKD
ROOT
HETATM    1  C   UNL     1     -12.095  13.540  63.954  1.00  0.00    -0.438 C  
HETATM    2  N   UNL     1     -11.103  12.628  64.525  1.00  0.00    -0.310 N  
HETATM    3  C   UNL     1     -10.214  11.965  63.573  1.00  0.00    -0.457 C  
ENDROOT
BRANCH   2   4
HETATM    4  C   UNL     1     -11.067  12.373  65.912  1.00  0.00    -0.313 C  
HETATM    5  S   UNL     1     -11.756  13.378  67.083  1.00  0.00    -0.389 S  
BRANCH   4   6
HETATM    6  S   UNL     1     -10.312  10.838  66.410  1.00  0.00    -0.235 SA 
BRANCH   6   7
HETATM    7  S   UNL     1     -11.060  10.570  68.318  1.00  0.00    -0.280 SA 
BRANCH   7   8
HETATM    8  C   UNL     1     -10.391   8.979  68.736  1.00  0.00    -0.215 C  
HETATM    9  S   UNL     1     -10.351   7.817  67.512  1.00  0.00    -0.276 S  
BRANCH   8  10
HETATM   10  N   UNL     1      -9.892   8.805  70.042  1.00  0.00    -0.174 N  
HETATM   11  C   UNL     1     -10.660   9.032  71.268  1.00  0.00    -0.308 C  
HETATM   12  C   UNL     1      -8.517   8.369  70.306  1.00  0.00    -0.126 C  
ENDBRANCH   8  10
ENDBRANCH   7   8
ENDBRANCH   6   7
ENDBRANCH   4   6
ENDBRANCH   2   4
TORSDOF 5
ENDMDL
MODEL      152
REMARK 921   NORMALIZED FREE ENERGY PREDICTED BY IDOCK:   -2.73 KCAL/MOL
REMARK 922        TOTAL FREE ENERGY PREDICTED BY IDOCK:   -3.61 KCAL/MOL
REMARK 923 INTER-LIGAND FREE ENERGY PREDICTED BY IDOCK:   -3.46 KCAL/MOL
REMARK 924 INTRA-LIGAND FREE ENERGY PREDICTED BY IDOCK:   -0.16 KCAL/MOL
REMARK 927      BINDING AFFINITY PREDICTED BY RF-SCORE:    0.00 PKD
ROOT
HETATM    1  C   UNL     1     -13.632   9.536  72.004  1.00  0.00    -0.415 C  
HETATM    2  N   UNL     1     -12.496   8.698  71.620  1.00  0.00    -0.321 N  
HETATM    3  C   UNL     1     -12.705   7.253  71.702  1.00  0.00    -0.375 C  
ENDROOT
BRANCH   2   4
HETATM    4  C   UNL     1     -11.261   9.273  71.253  1.00  0.00    -0.355 C  
HETATM    5  S   UNL     1      -9.770   8.819  71.906  1.00  0.00    -0.281 S  
BRANCH   4   6
HETATM    6  S   UNL     1     -11.314  10.489  69.953  1.00  0.00    -0.331 SA 
BRANCH   6   7
HETATM    7  S   UNL     1      -9.451  10.293  69.081  1.00  0.00    -0.218 SA 
BRANCH   7   8
HETATM    8  C   UNL     1      -9.771  10.876  67.435  1.00  0.00    -0.168 C  
HETATM    9  S   UNL     1      -9.785   9.722  66.202  1.00  0.00    -0.264 S  
BRANCH   8  10
HETATM   10  N   UNL     1     -10.042  12.247  67.270  1.00  0.00    -0.203 N  
HETATM   11  C   UNL     1     -11.332  12.802  66.855  1.00  0.00    -0.321 C  
HETATM   12  C   UNL     1      -9.029  13.282  67.504  1.00  0.00    -0.208 C  
ENDBRANCH   8  10
ENDBRANCH   7   8
ENDBRANCH   6   7
ENDBRANCH   4   6
ENDBRANCH   2   4
TORSDOF 5
ENDMDL
MODEL      153
REMARK 921   NORMALIZED FREE ENERGY PREDICTED BY IDOCK:   -2.73 KCAL/MOL
REMARK 922        TOTAL FREE ENERGY PREDICTED BY IDOCK:   -3.61 KCAL/MOL
REMARK 923 INTER-LIGAND FREE ENERGY PREDICTED BY IDOCK:   -3.40 KCAL/MOL
REMARK 924 INTRA-LIGAND FREE ENERGY PREDICTED BY IDOCK:   -0.21 KCAL/MOL
REMARK 927      BINDING AFFINITY PREDICTED BY RF-SCORE:    0.00 PKD
ROOT
HETATM    1  C   UNL     1      -9.083  11.956  67.131  1.00  0.00    -0.178 C  
HETATM    2  N   UNL     1     -10.315  12.742  67.066  1.00  0.00    -0.233 N  
HETATM    3  C   UNL     1     -11.238  12.405  65.983  1.00  0.00    -0.335 C  
ENDROOT
BRANCH   2   4
HETATM    4  C   UNL     1     -10.550  13.800  67.970  1.00  0.00    -0.252 C  
HETATM    5  S   UNL     1     -11.789  13.811  69.119  1.00  0.00    -0.367 S  
BRANCH   4   6
HETATM    6  S   UNL     1      -9.388  15.149  67.921  1.00  0.00    -0.186 SA 
BRANCH   6   7
HETATM    7  S   UNL     1     -10.069  16.267  66.322  1.00  0.00    -0.342 SA 
BRANCH   7   8
HETATM    8  C   UNL     1      -9.450  17.880  66.733  1.00  0.00    -0.287 C  
HETATM    9  S   UNL     1     -10.579  19.129  66.849  1.00  0.00    -0.435 S  
BRANCH   8  10
HETATM   10  N   UNL     1      -8.070  18.003  66.985  1.00  0.00    -0.220 N  
HETATM   11  C   UNL     1      -7.486  18.463  68.247  1.00  0.00    -0.280 C  
HETATM   12  C   UNL     1      -7.055  17.674  65.978  1.00  0.00    -0.283 C  
ENDBRANCH   8  10
ENDBRANCH   7   8
ENDBRANCH   6   7
ENDBRANCH   4   6
ENDBRANCH   2   4
TORSDOF 5
ENDMDL
MODEL      154
REMARK 921   NORMALIZED FREE ENERGY PREDICTED BY IDOCK:   -2.72 KCAL/MOL
REMARK 922        TOTAL FREE ENERGY PREDICTED BY IDOCK:   -3.61 KCAL/MOL
REMARK 923 INTER-LIGAND FREE ENERGY PREDICTED BY IDOCK:   -3.45 KCAL/MOL
REMARK 924 INTRA-LIGAND FREE ENERGY PREDICTED BY IDOCK:   -0.16 KCAL/MOL
REMARK 927      BINDING AFFINITY PREDICTED BY RF-SCORE:    0.00 PKD
ROOT
HETATM    1  C   UNL     1      -6.647  14.268  67.909  1.00  0.00    -0.165 C  
HETATM    2  N   UNL     1      -7.366  15.420  67.365  1.00  0.00    -0.198 N  
HETATM    3  C   UNL     1      -6.547  16.570  66.985  1.00  0.00    -0.199 C  
ENDROOT
BRANCH   2   4
HETATM    4  C   UNL     1      -8.775  15.421  67.278  1.00  0.00    -0.196 C  
HETATM    5  S   UNL     1      -9.657  16.325  66.156  1.00  0.00    -0.344 S  
BRANCH   4   6
HETATM    6  S   UNL     1      -9.632  14.319  68.384  1.00  0.00    -0.221 SA 
BRANCH   6   7
HETATM    7  S   UNL     1     -11.586  14.455  67.723  1.00  0.00    -0.371 SA 
BRANCH   7   8
HETATM    8  C   UNL     1     -11.756  12.937  66.817  1.00  0.00    -0.383 C  
HETATM    9  S   UNL     1     -12.402  13.040  65.261  1.00  0.00    -0.491 S  
BRANCH   8  10
HETATM   10  N   UNL     1     -11.296  11.756  67.432  1.00  0.00    -0.301 N  
HETATM   11  C   UNL     1     -11.671  11.312  68.776  1.00  0.00    -0.338 C  
HETATM   12  C   UNL     1     -10.370  10.833  66.767  1.00  0.00    -0.243 C  
ENDBRANCH   8  10
ENDBRANCH   7   8
ENDBRANCH   6   7
ENDBRANCH   4   6
ENDBRANCH   2   4
TORSDOF 5
ENDMDL
MODEL      155
REMARK 921   NORMALIZED FREE ENERGY PREDICTED BY IDOCK:   -2.72 KCAL/MOL
REMARK 922        TOTAL FREE ENERGY PREDICTED BY IDOCK:   -3.61 KCAL/MOL
REMARK 923 INTER-LIGAND FREE ENERGY PREDICTED BY IDOCK:   -3.51 KCAL/MOL
REMARK 924 INTRA-LIGAND FREE ENERGY PREDICTED BY IDOCK:   -0.10 KCAL/MOL
REMARK 927      BINDING AFFINITY PREDICTED BY RF-SCORE:    0.00 PKD
ROOT
HETATM    1  C   UNL     1     -11.020   8.904  71.856  1.00  0.00    -0.369 C  
HETATM    2  N   UNL     1     -10.925   8.303  70.526  1.00  0.00    -0.241 N  
HETATM    3  C   UNL     1     -11.506   6.969  70.379  1.00  0.00    -0.310 C  
ENDROOT
BRANCH   2   4
HETATM    4  C   UNL     1     -10.253   8.964  69.477  1.00  0.00    -0.204 C  
HETATM    5  S   UNL     1      -8.820   8.415  68.769  1.00  0.00    -0.140 S  
BRANCH   4   6
HETATM    6  S   UNL     1     -11.048  10.420  68.828  1.00  0.00    -0.240 SA 
BRANCH   6   7
HETATM    7  S   UNL     1     -10.183  10.608  66.961  1.00  0.00    -0.230 SA 
BRANCH   7   8
HETATM    8  C   UNL     1     -11.135  11.936  66.265  1.00  0.00    -0.314 C  
HETATM    9  S   UNL     1     -11.640  13.153  67.320  1.00  0.00    -0.374 S  
BRANCH   8  10
HETATM   10  N   UNL     1     -11.364  11.915  64.876  1.00  0.00    -0.303 N  
HETATM   11  C   UNL     1     -12.564  12.434  64.217  1.00  0.00    -0.401 C  
HETATM   12  C   UNL     1     -10.395  11.354  63.928  1.00  0.00    -0.379 C  
ENDBRANCH   8  10
ENDBRANCH   7   8
ENDBRANCH   6   7
ENDBRANCH   4   6
ENDBRANCH   2   4
TORSDOF 5
ENDMDL
MODEL      156
REMARK 921   NORMALIZED FREE ENERGY PREDICTED BY IDOCK:   -2.72 KCAL/MOL
REMARK 922        TOTAL FREE ENERGY PREDICTED BY IDOCK:   -3.60 KCAL/MOL
REMARK 923 INTER-LIGAND FREE ENERGY PREDICTED BY IDOCK:   -3.43 KCAL/MOL
REMARK 924 INTRA-LIGAND FREE ENERGY PREDICTED BY IDOCK:   -0.17 KCAL/MOL
REMARK 927      BINDING AFFINITY PREDICTED BY RF-SCORE:    0.00 PKD
ROOT
HETATM    1  C   UNL     1      -9.185  12.186  67.748  1.00  0.00    -0.189 C  
HETATM    2  N   UNL     1      -9.502  13.542  67.300  1.00  0.00    -0.222 N  
HETATM    3  C   UNL     1     -10.862  13.756  66.806  1.00  0.00    -0.284 C  
ENDROOT
BRANCH   2   4
HETATM    4  C   UNL     1      -8.519  14.554  67.296  1.00  0.00    -0.215 C  
HETATM    5  S   UNL     1      -6.940  14.347  67.862  1.00  0.00    -0.178 S  
BRANCH   4   6
HETATM    6  S   UNL     1      -8.989  16.105  66.559  1.00  0.00    -0.317 SA 
BRANCH   6   7
HETATM    7  S   UNL     1      -7.673  17.435  67.437  1.00  0.00    -0.196 SA 
BRANCH   7   8
HETATM    8  C   UNL     1      -8.242  18.981  66.774  1.00  0.00    -0.279 C  
HETATM    9  S   UNL     1      -7.156  19.852  65.819  1.00  0.00    -0.307 S  
BRANCH   8  10
HETATM   10  N   UNL     1      -9.572  19.355  67.044  1.00  0.00    -0.316 N  
HETATM   11  C   UNL     1     -10.134  19.543  68.383  1.00  0.00    -0.445 C  
HETATM   12  C   UNL     1     -10.551  19.600  65.979  1.00  0.00    -0.483 C  
ENDBRANCH   8  10
ENDBRANCH   7   8
ENDBRANCH   6   7
ENDBRANCH   4   6
ENDBRANCH   2   4
TORSDOF 5
ENDMDL
MODEL      157
REMARK 921   NORMALIZED FREE ENERGY PREDICTED BY IDOCK:   -2.71 KCAL/MOL
REMARK 922        TOTAL FREE ENERGY PREDICTED BY IDOCK:   -3.59 KCAL/MOL
REMARK 923 INTER-LIGAND FREE ENERGY PREDICTED BY IDOCK:   -3.48 KCAL/MOL
REMARK 924 INTRA-LIGAND FREE ENERGY PREDICTED BY IDOCK:   -0.10 KCAL/MOL
REMARK 927      BINDING AFFINITY PREDICTED BY RF-SCORE:    0.00 PKD
ROOT
HETATM    1  C   UNL     1     -12.081  10.668  69.980  1.00  0.00    -0.316 C  
HETATM    2  N   UNL     1     -12.659  10.565  71.321  1.00  0.00    -0.388 N  
HETATM    3  C   UNL     1     -12.962  11.829  71.990  1.00  0.00    -0.265 C  
ENDROOT
BRANCH   2   4
HETATM    4  C   UNL     1     -12.846   9.309  71.936  1.00  0.00    -0.404 C  
HETATM    5  S   UNL     1     -14.349   8.566  72.142  1.00  0.00    -0.373 S  
BRANCH   4   6
HETATM    6  S   UNL     1     -11.367   8.448  72.432  1.00  0.00    -0.346 SA 
BRANCH   6   7
HETATM    7  S   UNL     1     -11.743   6.516  71.801  1.00  0.00    -0.331 SA 
BRANCH   7   8
HETATM    8  C   UNL     1     -10.674   5.585  72.870  1.00  0.00    -0.249 C  
HETATM    9  S   UNL     1      -9.869   6.439  74.084  1.00  0.00    -0.312 S  
BRANCH   8  10
HETATM   10  N   UNL     1     -10.605   4.193  72.671  1.00  0.00    -0.158 N  
HETATM   11  C   UNL     1     -11.211   3.190  73.549  1.00  0.00    -0.185 C  
HETATM   12  C   UNL     1      -9.899   3.596  71.532  1.00  0.00    -0.157 C  
ENDBRANCH   8  10
ENDBRANCH   7   8
ENDBRANCH   6   7
ENDBRANCH   4   6
ENDBRANCH   2   4
TORSDOF 5
ENDMDL
MODEL      158
REMARK 921   NORMALIZED FREE ENERGY PREDICTED BY IDOCK:   -2.71 KCAL/MOL
REMARK 922        TOTAL FREE ENERGY PREDICTED BY IDOCK:   -3.59 KCAL/MOL
REMARK 923 INTER-LIGAND FREE ENERGY PREDICTED BY IDOCK:   -3.48 KCAL/MOL
REMARK 924 INTRA-LIGAND FREE ENERGY PREDICTED BY IDOCK:   -0.11 KCAL/MOL
REMARK 927      BINDING AFFINITY PREDICTED BY RF-SCORE:    0.00 PKD
ROOT
HETATM    1  C   UNL     1      -8.527   9.963  69.895  1.00  0.00    -0.191 C  
HETATM    2  N   UNL     1      -9.851   9.540  69.440  1.00  0.00    -0.177 N  
HETATM    3  C   UNL     1     -10.046   8.100  69.277  1.00  0.00    -0.202 C  
ENDROOT
BRANCH   2   4
HETATM    4  C   UNL     1     -10.847  10.488  69.124  1.00  0.00    -0.237 C  
HETATM    5  S   UNL     1     -11.941  11.127  70.242  1.00  0.00    -0.396 S  
BRANCH   4   6
HETATM    6  S   UNL     1     -10.859  11.087  67.446  1.00  0.00    -0.291 SA 
BRANCH   6   7
HETATM    7  S   UNL     1     -11.780  12.928  67.635  1.00  0.00    -0.359 SA 
BRANCH   7   8
HETATM    8  C   UNL     1     -10.896  13.886  66.429  1.00  0.00    -0.291 C  
HETATM    9  S   UNL     1     -10.461  13.106  64.997  1.00  0.00    -0.348 S  
BRANCH   8  10
HETATM   10  N   UNL     1     -10.661  15.243  66.722  1.00  0.00    -0.299 N  
HETATM   11  C   UNL     1      -9.978  16.186  65.833  1.00  0.00    -0.356 C  
HETATM   12  C   UNL     1     -11.087  15.861  67.982  1.00  0.00    -0.334 C  
ENDBRANCH   8  10
ENDBRANCH   7   8
ENDBRANCH   6   7
ENDBRANCH   4   6
ENDBRANCH   2   4
TORSDOF 5
ENDMDL
MODEL      159
REMARK 921   NORMALIZED FREE ENERGY PREDICTED BY IDOCK:   -2.70 KCAL/MOL
REMARK 922        TOTAL FREE ENERGY PREDICTED BY IDOCK:   -3.58 KCAL/MOL
REMARK 923 INTER-LIGAND FREE ENERGY PREDICTED BY IDOCK:   -3.42 KCAL/MOL
REMARK 924 INTRA-LIGAND FREE ENERGY PREDICTED BY IDOCK:   -0.16 KCAL/MOL
REMARK 927      BINDING AFFINITY PREDICTED BY RF-SCORE:    0.00 PKD
ROOT
HETATM    1  C   UNL     1     -10.595   7.293  66.982  1.00  0.00    -0.344 C  
HETATM    2  N   UNL     1     -10.370   8.428  67.877  1.00  0.00    -0.221 N  
HETATM    3  C   UNL     1     -10.526   8.162  69.306  1.00  0.00    -0.214 C  
ENDROOT
BRANCH   2   4
HETATM    4  C   UNL     1     -10.080   9.710  67.364  1.00  0.00    -0.204 C  
HETATM    5  S   UNL     1     -10.028  10.086  65.717  1.00  0.00    -0.256 S  
BRANCH   4   6
HETATM    6  S   UNL     1      -9.848  11.004  68.566  1.00  0.00    -0.197 SA 
BRANCH   6   7
HETATM    7  S   UNL     1     -11.295  12.378  68.029  1.00  0.00    -0.311 SA 
BRANCH   7   8
HETATM    8  C   UNL     1     -12.033  12.742  69.602  1.00  0.00    -0.288 C  
HETATM    9  S   UNL     1     -12.312  11.439  70.639  1.00  0.00    -0.345 S  
BRANCH   8  10
HETATM   10  N   UNL     1     -12.292  14.093  69.904  1.00  0.00    -0.346 N  
HETATM   11  C   UNL     1     -13.143  14.558  71.000  1.00  0.00    -0.366 C  
HETATM   12  C   UNL     1     -11.717  15.195  69.125  1.00  0.00    -0.325 C  
ENDBRANCH   8  10
ENDBRANCH   7   8
ENDBRANCH   6   7
ENDBRANCH   4   6
ENDBRANCH   2   4
TORSDOF 5
ENDMDL
MODEL      160
REMARK 921   NORMALIZED FREE ENERGY PREDICTED BY IDOCK:   -2.70 KCAL/MOL
REMARK 922        TOTAL FREE ENERGY PREDICTED BY IDOCK:   -3.57 KCAL/MOL
REMARK 923 INTER-LIGAND FREE ENERGY PREDICTED BY IDOCK:   -3.17 KCAL/MOL
REMARK 924 INTRA-LIGAND FREE ENERGY PREDICTED BY IDOCK:   -0.41 KCAL/MOL
REMARK 927      BINDING AFFINITY PREDICTED BY RF-SCORE:    0.00 PKD
ROOT
HETATM    1  C   UNL     1      -6.743  12.658  67.382  1.00  0.00    -0.142 C  
HETATM    2  N   UNL     1      -8.069  13.165  67.738  1.00  0.00    -0.150 N  
HETATM    3  C   UNL     1      -9.137  12.170  67.821  1.00  0.00    -0.189 C  
ENDROOT
BRANCH   2   4
HETATM    4  C   UNL     1      -8.292  14.545  67.925  1.00  0.00    -0.159 C  
HETATM    5  S   UNL     1      -7.877  15.395  69.326  1.00  0.00    -0.232 S  
BRANCH   4   6
HETATM    6  S   UNL     1      -8.977  15.427  66.537  1.00  0.00    -0.319 SA 
BRANCH   6   7
HETATM    7  S   UNL     1     -10.610  16.379  67.374  1.00  0.00    -0.276 SA 
BRANCH   7   8
HETATM    8  C   UNL     1     -11.588  14.995  67.905  1.00  0.00    -0.333 C  
HETATM    9  S   UNL     1     -12.231  14.003  66.700  1.00  0.00    -0.361 S  
BRANCH   8  10
HETATM   10  N   UNL     1     -11.722  14.785  69.290  1.00  0.00    -0.299 N  
HETATM   11  C   UNL     1     -12.076  13.508  69.914  1.00  0.00    -0.341 C  
HETATM   12  C   UNL     1     -11.517  15.857  70.271  1.00  0.00    -0.366 C  
ENDBRANCH   8  10
ENDBRANCH   7   8
ENDBRANCH   6   7
ENDBRANCH   4   6
ENDBRANCH   2   4
TORSDOF 5
ENDMDL
MODEL      161
REMARK 921   NORMALIZED FREE ENERGY PREDICTED BY IDOCK:   -2.69 KCAL/MOL
REMARK 922        TOTAL FREE ENERGY PREDICTED BY IDOCK:   -3.57 KCAL/MOL
REMARK 923 INTER-LIGAND FREE ENERGY PREDICTED BY IDOCK:   -3.39 KCAL/MOL
REMARK 924 INTRA-LIGAND FREE ENERGY PREDICTED BY IDOCK:   -0.18 KCAL/MOL
REMARK 927      BINDING AFFINITY PREDICTED BY RF-SCORE:    0.00 PKD
ROOT
HETATM    1  C   UNL     1      -9.787  10.300  64.777  1.00  0.00    -0.334 C  
HETATM    2  N   UNL     1     -10.081  11.732  64.815  1.00  0.00    -0.257 N  
HETATM    3  C   UNL     1     -10.446  12.349  63.540  1.00  0.00    -0.393 C  
ENDROOT
BRANCH   2   4
HETATM    4  C   UNL     1      -9.954  12.468  66.012  1.00  0.00    -0.257 C  
HETATM    5  S   UNL     1      -8.912  12.053  67.277  1.00  0.00    -0.187 S  
BRANCH   4   6
HETATM    6  S   UNL     1     -10.906  13.970  66.118  1.00  0.00    -0.295 SA 
BRANCH   6   7
HETATM    7  S   UNL     1      -9.439  15.420  66.249  1.00  0.00    -0.332 SA 
BRANCH   7   8
HETATM    8  C   UNL     1      -9.703  16.038  67.892  1.00  0.00    -0.220 C  
HETATM    9  S   UNL     1     -11.234  15.804  68.563  1.00  0.00    -0.370 S  
BRANCH   8  10
HETATM   10  N   UNL     1      -8.609  16.635  68.547  1.00  0.00    -0.224 N  
HETATM   11  C   UNL     1      -7.598  15.911  69.321  1.00  0.00    -0.221 C  
HETATM   12  C   UNL     1      -8.370  18.082  68.517  1.00  0.00    -0.304 C  
ENDBRANCH   8  10
ENDBRANCH   7   8
ENDBRANCH   6   7
ENDBRANCH   4   6
ENDBRANCH   2   4
TORSDOF 5
ENDMDL
MODEL      162
REMARK 921   NORMALIZED FREE ENERGY PREDICTED BY IDOCK:   -2.69 KCAL/MOL
REMARK 922        TOTAL FREE ENERGY PREDICTED BY IDOCK:   -3.57 KCAL/MOL
REMARK 923 INTER-LIGAND FREE ENERGY PREDICTED BY IDOCK:   -3.47 KCAL/MOL
REMARK 924 INTRA-LIGAND FREE ENERGY PREDICTED BY IDOCK:   -0.10 KCAL/MOL
REMARK 927      BINDING AFFINITY PREDICTED BY RF-SCORE:    0.00 PKD
ROOT
HETATM    1  C   UNL     1     -10.716  12.487  64.866  1.00  0.00    -0.295 C  
HETATM    2  N   UNL     1      -9.964  11.250  65.074  1.00  0.00    -0.258 N  
HETATM    3  C   UNL     1      -9.293  10.699  63.898  1.00  0.00    -0.267 C  
ENDROOT
BRANCH   2   4
HETATM    4  C   UNL     1      -9.952  10.610  66.332  1.00  0.00    -0.222 C  
HETATM    5  S   UNL     1     -10.106   8.942  66.552  1.00  0.00    -0.250 S  
BRANCH   4   6
HETATM    6  S   UNL     1      -9.665  11.657  67.744  1.00  0.00    -0.177 SA 
BRANCH   6   7
HETATM    7  S   UNL     1     -11.584  12.126  68.350  1.00  0.00    -0.345 SA 
BRANCH   7   8
HETATM    8  C   UNL     1     -11.645  11.356  69.949  1.00  0.00    -0.323 C  
HETATM    9  S   UNL     1     -10.689   9.983  70.176  1.00  0.00    -0.316 S  
BRANCH   8  10
HETATM   10  N   UNL     1     -12.444  11.965  70.935  1.00  0.00    -0.353 N  
HETATM   11  C   UNL     1     -13.143  11.250  72.006  1.00  0.00    -0.326 C  
HETATM   12  C   UNL     1     -12.660  13.415  70.986  1.00  0.00    -0.343 C  
ENDBRANCH   8  10
ENDBRANCH   7   8
ENDBRANCH   6   7
ENDBRANCH   4   6
ENDBRANCH   2   4
TORSDOF 5
ENDMDL
MODEL      163
REMARK 921   NORMALIZED FREE ENERGY PREDICTED BY IDOCK:   -2.69 KCAL/MOL
REMARK 922        TOTAL FREE ENERGY PREDICTED BY IDOCK:   -3.57 KCAL/MOL
REMARK 923 INTER-LIGAND FREE ENERGY PREDICTED BY IDOCK:   -3.48 KCAL/MOL
REMARK 924 INTRA-LIGAND FREE ENERGY PREDICTED BY IDOCK:   -0.08 KCAL/MOL
REMARK 927      BINDING AFFINITY PREDICTED BY RF-SCORE:    0.00 PKD
ROOT
HETATM    1  C   UNL     1      -8.048  10.302  65.916  1.00  0.00    -0.143 C  
HETATM    2  N   UNL     1      -9.438  10.753  65.851  1.00  0.00    -0.188 N  
HETATM    3  C   UNL     1     -10.088  10.649  64.545  1.00  0.00    -0.353 C  
ENDROOT
BRANCH   2   4
HETATM    4  C   UNL     1     -10.074  11.310  66.980  1.00  0.00    -0.206 C  
HETATM    5  S   UNL     1     -11.048  10.436  68.050  1.00  0.00    -0.271 S  
BRANCH   4   6
HETATM    6  S   UNL     1      -9.731  13.026  67.311  1.00  0.00    -0.232 SA 
BRANCH   6   7
HETATM    7  S   UNL     1     -11.618  13.869  67.305  1.00  0.00    -0.387 SA 
BRANCH   7   8
HETATM    8  C   UNL     1     -11.290  15.467  68.006  1.00  0.00    -0.330 C  
HETATM    9  S   UNL     1     -11.687  15.687  69.632  1.00  0.00    -0.364 S  
BRANCH   8  10
HETATM   10  N   UNL     1     -10.676  16.428  67.180  1.00  0.00    -0.279 N  
HETATM   11  C   UNL     1     -10.385  16.244  65.756  1.00  0.00    -0.374 C  
HETATM   12  C   UNL     1     -10.257  17.742  67.679  1.00  0.00    -0.358 C  
ENDBRANCH   8  10
ENDBRANCH   7   8
ENDBRANCH   6   7
ENDBRANCH   4   6
ENDBRANCH   2   4
TORSDOF 5
ENDMDL
MODEL      164
REMARK 921   NORMALIZED FREE ENERGY PREDICTED BY IDOCK:   -2.68 KCAL/MOL
REMARK 922        TOTAL FREE ENERGY PREDICTED BY IDOCK:   -3.55 KCAL/MOL
REMARK 923 INTER-LIGAND FREE ENERGY PREDICTED BY IDOCK:   -3.34 KCAL/MOL
REMARK 924 INTRA-LIGAND FREE ENERGY PREDICTED BY IDOCK:   -0.21 KCAL/MOL
REMARK 927      BINDING AFFINITY PREDICTED BY RF-SCORE:    0.00 PKD
ROOT
HETATM    1  C   UNL     1     -12.449  11.174  70.916  1.00  0.00    -0.409 C  
HETATM    2  N   UNL     1     -12.392   9.841  71.516  1.00  0.00    -0.378 N  
HETATM    3  C   UNL     1     -13.620   9.368  72.152  1.00  0.00    -0.457 C  
ENDROOT
BRANCH   2   4
HETATM    4  C   UNL     1     -11.192   9.099  71.523  1.00  0.00    -0.360 C  
HETATM    5  S   UNL     1      -9.885   9.394  70.493  1.00  0.00    -0.274 S  
BRANCH   4   6
HETATM    6  S   UNL     1     -11.054   7.837  72.773  1.00  0.00    -0.393 SA 
BRANCH   6   7
HETATM    7  S   UNL     1     -11.380   6.104  71.696  1.00  0.00    -0.262 SA 
BRANCH   7   8
HETATM    8  C   UNL     1      -9.946   5.149  72.128  1.00  0.00    -0.187 C  
HETATM    9  S   UNL     1      -8.506   5.522  71.329  1.00  0.00    -0.128 S  
BRANCH   8  10
HETATM   10  N   UNL     1     -10.089   4.180  73.139  1.00  0.00    -0.139 N  
HETATM   11  C   UNL     1     -10.387   2.765  72.908  1.00  0.00    -0.153 C  
HETATM   12  C   UNL     1      -9.952   4.505  74.563  1.00  0.00    -0.202 C  
ENDBRANCH   8  10
ENDBRANCH   7   8
ENDBRANCH   6   7
ENDBRANCH   4   6
ENDBRANCH   2   4
TORSDOF 5
ENDMDL
MODEL      165
REMARK 921   NORMALIZED FREE ENERGY PREDICTED BY IDOCK:   -2.68 KCAL/MOL
REMARK 922        TOTAL FREE ENERGY PREDICTED BY IDOCK:   -3.55 KCAL/MOL
REMARK 923 INTER-LIGAND FREE ENERGY PREDICTED BY IDOCK:   -3.45 KCAL/MOL
REMARK 924 INTRA-LIGAND FREE ENERGY PREDICTED BY IDOCK:   -0.09 KCAL/MOL
REMARK 927      BINDING AFFINITY PREDICTED BY RF-SCORE:    0.00 PKD
ROOT
HETATM    1  C   UNL     1     -11.872   7.553  71.161  1.00  0.00    -0.299 C  
HETATM    2  N   UNL     1     -11.097   7.212  69.968  1.00  0.00    -0.267 N  
HETATM    3  C   UNL     1     -10.834   5.790  69.756  1.00  0.00    -0.349 C  
ENDROOT
BRANCH   2   4
HETATM    4  C   UNL     1     -10.593   8.219  69.118  1.00  0.00    -0.165 C  
HETATM    5  S   UNL     1      -9.911   7.928  67.599  1.00  0.00    -0.178 S  
BRANCH   4   6
HETATM    6  S   UNL     1     -10.787   9.896  69.684  1.00  0.00    -0.266 SA 
BRANCH   6   7
HETATM    7  S   UNL     1     -11.027  10.940  67.916  1.00  0.00    -0.293 SA 
BRANCH   7   8
HETATM    8  C   UNL     1     -11.674  12.484  68.505  1.00  0.00    -0.324 C  
HETATM    9  S   UNL     1     -12.056  12.580  70.147  1.00  0.00    -0.216 S  
BRANCH   8  10
HETATM   10  N   UNL     1     -11.780  13.541  67.581  1.00  0.00    -0.342 N  
HETATM   11  C   UNL     1     -12.232  13.400  66.195  1.00  0.00    -0.415 C  
HETATM   12  C   UNL     1     -11.438  14.925  67.927  1.00  0.00    -0.340 C  
ENDBRANCH   8  10
ENDBRANCH   7   8
ENDBRANCH   6   7
ENDBRANCH   4   6
ENDBRANCH   2   4
TORSDOF 5
ENDMDL
MODEL      166
REMARK 921   NORMALIZED FREE ENERGY PREDICTED BY IDOCK:   -2.67 KCAL/MOL
REMARK 922        TOTAL FREE ENERGY PREDICTED BY IDOCK:   -3.55 KCAL/MOL
REMARK 923 INTER-LIGAND FREE ENERGY PREDICTED BY IDOCK:   -3.39 KCAL/MOL
REMARK 924 INTRA-LIGAND FREE ENERGY PREDICTED BY IDOCK:   -0.16 KCAL/MOL
REMARK 927      BINDING AFFINITY PREDICTED BY RF-SCORE:    0.00 PKD
ROOT
HETATM    1  C   UNL     1     -10.901  16.436  69.342  1.00  0.00    -0.327 C  
HETATM    2  N   UNL     1     -10.995  15.534  68.194  1.00  0.00    -0.299 N  
HETATM    3  C   UNL     1     -10.629  16.103  66.898  1.00  0.00    -0.283 C  
ENDROOT
BRANCH   2   4
HETATM    4  C   UNL     1     -11.472  14.215  68.343  1.00  0.00    -0.302 C  
HETATM    5  S   UNL     1     -12.033  13.566  69.800  1.00  0.00    -0.326 S  
BRANCH   4   6
HETATM    6  S   UNL     1     -11.555  13.235  66.858  1.00  0.00    -0.385 SA 
BRANCH   6   7
HETATM    7  S   UNL     1      -9.610  12.564  66.658  1.00  0.00    -0.242 SA 
BRANCH   7   8
HETATM    8  C   UNL     1      -9.871  10.868  66.200  1.00  0.00    -0.222 C  
HETATM    9  S   UNL     1      -9.747  10.488  64.560  1.00  0.00    -0.336 S  
BRANCH   8  10
HETATM   10  N   UNL     1     -10.113   9.944  67.235  1.00  0.00    -0.199 N  
HETATM   11  C   UNL     1     -10.506   8.547  67.035  1.00  0.00    -0.292 C  
HETATM   12  C   UNL     1      -9.991  10.302  68.652  1.00  0.00    -0.173 C  
ENDBRANCH   8  10
ENDBRANCH   7   8
ENDBRANCH   6   7
ENDBRANCH   4   6
ENDBRANCH   2   4
TORSDOF 5
ENDMDL
MODEL      167
REMARK 921   NORMALIZED FREE ENERGY PREDICTED BY IDOCK:   -2.67 KCAL/MOL
REMARK 922        TOTAL FREE ENERGY PREDICTED BY IDOCK:   -3.54 KCAL/MOL
REMARK 923 INTER-LIGAND FREE ENERGY PREDICTED BY IDOCK:   -3.34 KCAL/MOL
REMARK 924 INTRA-LIGAND FREE ENERGY PREDICTED BY IDOCK:   -0.20 KCAL/MOL
REMARK 927      BINDING AFFINITY PREDICTED BY RF-SCORE:    0.00 PKD
ROOT
HETATM    1  C   UNL     1      -5.918  11.865  67.049  1.00  0.00    -0.153 C  
HETATM    2  N   UNL     1      -7.038  12.643  67.578  1.00  0.00    -0.142 N  
HETATM    3  C   UNL     1      -6.830  14.087  67.673  1.00  0.00    -0.179 C  
ENDROOT
BRANCH   2   4
HETATM    4  C   UNL     1      -8.218  12.009  68.020  1.00  0.00    -0.156 C  
HETATM    5  S   UNL     1      -8.281  10.430  68.621  1.00  0.00    -0.129 S  
BRANCH   4   6
HETATM    6  S   UNL     1      -9.697  13.002  68.009  1.00  0.00    -0.228 SA 
BRANCH   6   7
HETATM    7  S   UNL     1     -11.133  11.657  67.377  1.00  0.00    -0.300 SA 
BRANCH   7   8
HETATM    8  C   UNL     1     -11.001  11.807  65.613  1.00  0.00    -0.295 C  
HETATM    9  S   UNL     1      -9.793  10.904  64.854  1.00  0.00    -0.310 S  
BRANCH   8  10
HETATM   10  N   UNL     1     -11.939  12.627  64.956  1.00  0.00    -0.395 N  
HETATM   11  C   UNL     1     -12.495  13.866  65.503  1.00  0.00    -0.511 C  
HETATM   12  C   UNL     1     -12.466  12.307  63.625  1.00  0.00    -0.541 C  
ENDBRANCH   8  10
ENDBRANCH   7   8
ENDBRANCH   6   7
ENDBRANCH   4   6
ENDBRANCH   2   4
TORSDOF 5
ENDMDL
MODEL      168
REMARK 921   NORMALIZED FREE ENERGY PREDICTED BY IDOCK:   -2.66 KCAL/MOL
REMARK 922        TOTAL FREE ENERGY PREDICTED BY IDOCK:   -3.53 KCAL/MOL
REMARK 923 INTER-LIGAND FREE ENERGY PREDICTED BY IDOCK:   -3.34 KCAL/MOL
REMARK 924 INTRA-LIGAND FREE ENERGY PREDICTED BY IDOCK:   -0.19 KCAL/MOL
REMARK 927      BINDING AFFINITY PREDICTED BY RF-SCORE:    0.00 PKD
ROOT
HETATM    1  C   UNL     1     -11.668  14.323  64.952  1.00  0.00    -0.397 C  
HETATM    2  N   UNL     1     -10.775  13.731  65.948  1.00  0.00    -0.282 N  
HETATM    3  C   UNL     1     -10.166  12.452  65.586  1.00  0.00    -0.262 C  
ENDROOT
BRANCH   2   4
HETATM    4  C   UNL     1     -10.577  14.345  67.203  1.00  0.00    -0.277 C  
HETATM    5  S   UNL     1     -11.805  14.621  68.331  1.00  0.00    -0.260 S  
BRANCH   4   6
HETATM    6  S   UNL     1      -8.896  14.760  67.619  1.00  0.00    -0.188 SA 
BRANCH   6   7
HETATM    7  S   UNL     1      -8.488  16.321  66.327  1.00  0.00    -0.286 SA 
BRANCH   7   8
HETATM    8  C   UNL     1      -8.655  17.721  67.407  1.00  0.00    -0.231 C  
HETATM    9  S   UNL     1     -10.203  18.062  67.988  1.00  0.00    -0.398 S  
BRANCH   8  10
HETATM   10  N   UNL     1      -7.483  18.424  67.747  1.00  0.00    -0.227 N  
HETATM   11  C   UNL     1      -6.201  18.303  67.050  1.00  0.00    -0.168 C  
HETATM   12  C   UNL     1      -7.433  19.372  68.865  1.00  0.00    -0.364 C  
ENDBRANCH   8  10
ENDBRANCH   7   8
ENDBRANCH   6   7
ENDBRANCH   4   6
ENDBRANCH   2   4
TORSDOF 5
ENDMDL
MODEL      169
REMARK 921   NORMALIZED FREE ENERGY PREDICTED BY IDOCK:   -2.66 KCAL/MOL
REMARK 922        TOTAL FREE ENERGY PREDICTED BY IDOCK:   -3.53 KCAL/MOL
REMARK 923 INTER-LIGAND FREE ENERGY PREDICTED BY IDOCK:   -3.28 KCAL/MOL
REMARK 924 INTRA-LIGAND FREE ENERGY PREDICTED BY IDOCK:   -0.24 KCAL/MOL
REMARK 927      BINDING AFFINITY PREDICTED BY RF-SCORE:    0.00 PKD
ROOT
HETATM    1  C   UNL     1     -12.123  13.860  69.234  1.00  0.00    -0.339 C  
HETATM    2  N   UNL     1     -11.443  13.646  67.957  1.00  0.00    -0.291 N  
HETATM    3  C   UNL     1     -12.201  13.998  66.757  1.00  0.00    -0.404 C  
ENDROOT
BRANCH   2   4
HETATM    4  C   UNL     1     -10.154  13.074  67.908  1.00  0.00    -0.235 C  
HETATM    5  S   UNL     1      -9.828  11.439  68.187  1.00  0.00    -0.197 S  
BRANCH   4   6
HETATM    6  S   UNL     1      -8.828  14.163  67.431  1.00  0.00    -0.217 SA 
BRANCH   6   7
HETATM    7  S   UNL     1      -8.668  15.415  69.068  1.00  0.00    -0.247 SA 
BRANCH   7   8
HETATM    8  C   UNL     1      -8.738  17.012  68.295  1.00  0.00    -0.241 C  
HETATM    9  S   UNL     1     -10.177  17.426  67.515  1.00  0.00    -0.343 S  
BRANCH   8  10
HETATM   10  N   UNL     1      -7.612  17.848  68.425  1.00  0.00    -0.272 N  
HETATM   11  C   UNL     1      -6.233  17.446  68.139  1.00  0.00    -0.155 C  
HETATM   12  C   UNL     1      -7.715  19.241  68.873  1.00  0.00    -0.341 C  
ENDBRANCH   8  10
ENDBRANCH   7   8
ENDBRANCH   6   7
ENDBRANCH   4   6
ENDBRANCH   2   4
TORSDOF 5
ENDMDL
MODEL      170
REMARK 921   NORMALIZED FREE ENERGY PREDICTED BY IDOCK:   -2.65 KCAL/MOL
REMARK 922        TOTAL FREE ENERGY PREDICTED BY IDOCK:   -3.52 KCAL/MOL
REMARK 923 INTER-LIGAND FREE ENERGY PREDICTED BY IDOCK:   -3.23 KCAL/MOL
REMARK 924 INTRA-LIGAND FREE ENERGY PREDICTED BY IDOCK:   -0.29 KCAL/MOL
REMARK 927      BINDING AFFINITY PREDICTED BY RF-SCORE:    0.00 PKD
ROOT
HETATM    1  C   UNL     1     -11.446  15.554  64.545  1.00  0.00    -0.308 C  
HETATM    2  N   UNL     1     -11.459  14.816  65.808  1.00  0.00    -0.344 N  
HETATM    3  C   UNL     1     -12.457  13.753  65.922  1.00  0.00    -0.468 C  
ENDROOT
BRANCH   2   4
HETATM    4  C   UNL     1     -10.591  15.168  66.863  1.00  0.00    -0.297 C  
HETATM    5  S   UNL     1     -11.070  16.013  68.246  1.00  0.00    -0.343 S  
BRANCH   4   6
HETATM    6  S   UNL     1      -8.913  14.587  66.729  1.00  0.00    -0.218 SA 
BRANCH   6   7
HETATM    7  S   UNL     1      -8.741  13.334  68.363  1.00  0.00    -0.076 SA 
BRANCH   7   8
HETATM    8  C   UNL     1      -9.593  11.887  67.785  1.00  0.00    -0.190 C  
HETATM    9  S   UNL     1      -9.416  11.492  66.154  1.00  0.00    -0.224 S  
BRANCH   8  10
HETATM   10  N   UNL     1     -10.318  11.136  68.731  1.00  0.00    -0.199 N  
HETATM   11  C   UNL     1      -9.728  10.182  69.672  1.00  0.00    -0.221 C  
HETATM   12  C   UNL     1     -11.774  11.241  68.868  1.00  0.00    -0.341 C  
ENDBRANCH   8  10
ENDBRANCH   7   8
ENDBRANCH   6   7
ENDBRANCH   4   6
ENDBRANCH   2   4
TORSDOF 5
ENDMDL
MODEL      171
REMARK 921   NORMALIZED FREE ENERGY PREDICTED BY IDOCK:   -2.65 KCAL/MOL
REMARK 922        TOTAL FREE ENERGY PREDICTED BY IDOCK:   -3.51 KCAL/MOL
REMARK 923 INTER-LIGAND FREE ENERGY PREDICTED BY IDOCK:   -3.71 KCAL/MOL
REMARK 924 INTRA-LIGAND FREE ENERGY PREDICTED BY IDOCK:    0.20 KCAL/MOL
REMARK 927      BINDING AFFINITY PREDICTED BY RF-SCORE:    0.00 PKD
ROOT
HETATM    1  C   UNL     1     -12.000  16.028  71.580  1.00  0.00    -0.499 C  
HETATM    2  N   UNL     1     -11.517  14.898  70.786  1.00  0.00    -0.282 N  
HETATM    3  C   UNL     1     -10.371  15.165  69.917  1.00  0.00    -0.189 C  
ENDROOT
BRANCH   2   4
HETATM    4  C   UNL     1     -12.171  13.649  70.828  1.00  0.00    -0.347 C  
HETATM    5  S   UNL     1     -13.458  13.283  71.862  1.00  0.00    -0.399 S  
BRANCH   4   6
HETATM    6  S   UNL     1     -11.634  12.439  69.637  1.00  0.00    -0.220 SA 
BRANCH   6   7
HETATM    7  S   UNL     1     -12.142  13.325  67.840  1.00  0.00    -0.120 SA 
BRANCH   7   8
HETATM    8  C   UNL     1     -11.487  12.155  66.675  1.00  0.00    -0.365 C  
HETATM    9  S   UNL     1     -10.684  10.811  67.306  1.00  0.00    -0.282 S  
BRANCH   8  10
HETATM   10  N   UNL     1     -11.721  12.396  65.308  1.00  0.00    -0.378 N  
HETATM   11  C   UNL     1     -10.877  11.909  64.215  1.00  0.00    -0.344 C  
HETATM   12  C   UNL     1     -12.865  13.182  64.834  1.00  0.00    -0.280 C  
ENDBRANCH   8  10
ENDBRANCH   7   8
ENDBRANCH   6   7
ENDBRANCH   4   6
ENDBRANCH   2   4
TORSDOF 5
ENDMDL
MODEL      172
REMARK 921   NORMALIZED FREE ENERGY PREDICTED BY IDOCK:   -2.64 KCAL/MOL
REMARK 922        TOTAL FREE ENERGY PREDICTED BY IDOCK:   -3.50 KCAL/MOL
REMARK 923 INTER-LIGAND FREE ENERGY PREDICTED BY IDOCK:   -3.36 KCAL/MOL
REMARK 924 INTRA-LIGAND FREE ENERGY PREDICTED BY IDOCK:   -0.13 KCAL/MOL
REMARK 927      BINDING AFFINITY PREDICTED BY RF-SCORE:    0.00 PKD
ROOT
HETATM    1  C   UNL     1      -8.850   8.766  70.653  1.00  0.00    -0.182 C  
HETATM    2  N   UNL     1      -9.402   8.981  69.316  1.00  0.00    -0.148 N  
HETATM    3  C   UNL     1     -10.039   7.824  68.689  1.00  0.00    -0.199 C  
ENDROOT
BRANCH   2   4
HETATM    4  C   UNL     1      -9.263  10.224  68.663  1.00  0.00    -0.159 C  
HETATM    5  S   UNL     1      -7.865  11.173  68.714  1.00  0.00    -0.132 S  
BRANCH   4   6
HETATM    6  S   UNL     1     -10.640  10.747  67.663  1.00  0.00    -0.251 SA 
BRANCH   6   7
HETATM    7  S   UNL     1      -9.822  12.278  66.542  1.00  0.00    -0.233 SA 
BRANCH   7   8
HETATM    8  C   UNL     1     -11.186  12.708  65.488  1.00  0.00    -0.302 C  
HETATM    9  S   UNL     1     -12.233  13.912  66.040  1.00  0.00    -0.468 S  
BRANCH   8  10
HETATM   10  N   UNL     1     -11.278  12.056  64.243  1.00  0.00    -0.336 N  
HETATM   11  C   UNL     1     -10.167  11.381  63.567  1.00  0.00    -0.413 C  
HETATM   12  C   UNL     1     -12.530  11.988  63.482  1.00  0.00    -0.540 C  
ENDBRANCH   8  10
ENDBRANCH   7   8
ENDBRANCH   6   7
ENDBRANCH   4   6
ENDBRANCH   2   4
TORSDOF 5
ENDMDL
MODEL      173
REMARK 921   NORMALIZED FREE ENERGY PREDICTED BY IDOCK:   -2.63 KCAL/MOL
REMARK 922        TOTAL FREE ENERGY PREDICTED BY IDOCK:   -3.49 KCAL/MOL
REMARK 923 INTER-LIGAND FREE ENERGY PREDICTED BY IDOCK:   -3.30 KCAL/MOL
REMARK 924 INTRA-LIGAND FREE ENERGY PREDICTED BY IDOCK:   -0.20 KCAL/MOL
REMARK 927      BINDING AFFINITY PREDICTED BY RF-SCORE:    0.00 PKD
ROOT
HETATM    1  C   UNL     1     -11.200  13.960  64.650  1.00  0.00    -0.378 C  
HETATM    2  N   UNL     1     -11.523  12.534  64.614  1.00  0.00    -0.314 N  
HETATM    3  C   UNL     1     -12.464  12.113  63.577  1.00  0.00    -0.555 C  
ENDROOT
BRANCH   2   4
HETATM    4  C   UNL     1     -10.992  11.645  65.573  1.00  0.00    -0.270 C  
HETATM    5  S   UNL     1     -11.399  11.663  67.213  1.00  0.00    -0.286 S  
BRANCH   4   6
HETATM    6  S   UNL     1      -9.896  10.385  64.955  1.00  0.00    -0.335 SA 
BRANCH   6   7
HETATM    7  S   UNL     1      -8.802   9.882  66.636  1.00  0.00    -0.135 SA 
BRANCH   7   8
HETATM    8  C   UNL     1      -9.129   8.141  66.758  1.00  0.00    -0.157 C  
HETATM    9  S   UNL     1      -8.123   7.107  65.880  1.00  0.00    -0.129 S  
BRANCH   8  10
HETATM   10  N   UNL     1     -10.170   7.732  67.614  1.00  0.00    -0.201 N  
HETATM   11  C   UNL     1     -10.417   8.276  68.951  1.00  0.00    -0.191 C  
HETATM   12  C   UNL     1     -11.133   6.691  67.239  1.00  0.00    -0.345 C  
ENDBRANCH   8  10
ENDBRANCH   7   8
ENDBRANCH   6   7
ENDBRANCH   4   6
ENDBRANCH   2   4
TORSDOF 5
ENDMDL
MODEL      174
REMARK 921   NORMALIZED FREE ENERGY PREDICTED BY IDOCK:   -2.63 KCAL/MOL
REMARK 922        TOTAL FREE ENERGY PREDICTED BY IDOCK:   -3.49 KCAL/MOL
REMARK 923 INTER-LIGAND FREE ENERGY PREDICTED BY IDOCK:   -3.26 KCAL/MOL
REMARK 924 INTRA-LIGAND FREE ENERGY PREDICTED BY IDOCK:   -0.23 KCAL/MOL
REMARK 927      BINDING AFFINITY PREDICTED BY RF-SCORE:    0.00 PKD
ROOT
HETATM    1  C   UNL     1      -7.757  10.003  65.658  1.00  0.00    -0.136 C  
HETATM    2  N   UNL     1      -9.217  10.058  65.568  1.00  0.00    -0.182 N  
HETATM    3  C   UNL     1      -9.948   9.066  66.354  1.00  0.00    -0.300 C  
ENDROOT
BRANCH   2   4
HETATM    4  C   UNL     1      -9.857  10.983  64.717  1.00  0.00    -0.276 C  
HETATM    5  S   UNL     1      -9.645  11.038  63.041  1.00  0.00    -0.368 S  
BRANCH   4   6
HETATM    6  S   UNL     1     -11.021  12.087  65.489  1.00  0.00    -0.305 SA 
BRANCH   6   7
HETATM    7  S   UNL     1      -9.851  13.070  66.880  1.00  0.00    -0.246 SA 
BRANCH   7   8
HETATM    8  C   UNL     1     -10.945  13.134  68.277  1.00  0.00    -0.253 C  
HETATM    9  S   UNL     1     -11.546  11.663  68.849  1.00  0.00    -0.343 S  
BRANCH   8  10
HETATM   10  N   UNL     1     -11.201  14.395  68.847  1.00  0.00    -0.249 N  
HETATM   11  C   UNL     1     -10.686  15.666  68.333  1.00  0.00    -0.271 C  
HETATM   12  C   UNL     1     -12.031  14.563  70.045  1.00  0.00    -0.330 C  
ENDBRANCH   8  10
ENDBRANCH   7   8
ENDBRANCH   6   7
ENDBRANCH   4   6
ENDBRANCH   2   4
TORSDOF 5
ENDMDL
MODEL      175
REMARK 921   NORMALIZED FREE ENERGY PREDICTED BY IDOCK:   -2.63 KCAL/MOL
REMARK 922        TOTAL FREE ENERGY PREDICTED BY IDOCK:   -3.48 KCAL/MOL
REMARK 923 INTER-LIGAND FREE ENERGY PREDICTED BY IDOCK:   -3.36 KCAL/MOL
REMARK 924 INTRA-LIGAND FREE ENERGY PREDICTED BY IDOCK:   -0.12 KCAL/MOL
REMARK 927      BINDING AFFINITY PREDICTED BY RF-SCORE:    0.00 PKD
ROOT
HETATM    1  C   UNL     1     -11.948  15.350  69.377  1.00  0.00    -0.327 C  
HETATM    2  N   UNL     1     -11.537  15.161  67.986  1.00  0.00    -0.341 N  
HETATM    3  C   UNL     1     -10.778  16.257  67.385  1.00  0.00    -0.287 C  
ENDROOT
BRANCH   2   4
HETATM    4  C   UNL     1     -11.914  14.007  67.267  1.00  0.00    -0.413 C  
HETATM    5  S   UNL     1     -12.495  14.023  65.680  1.00  0.00    -0.483 S  
BRANCH   4   6
HETATM    6  S   UNL     1     -11.662  12.449  68.093  1.00  0.00    -0.331 SA 
BRANCH   6   7
HETATM    7  S   UNL     1     -10.892  11.264  66.585  1.00  0.00    -0.252 SA 
BRANCH   7   8
HETATM    8  C   UNL     1      -9.699  10.296  67.475  1.00  0.00    -0.169 C  
HETATM    9  S   UNL     1      -8.291  11.083  67.975  1.00  0.00    -0.130 S  
BRANCH   8  10
HETATM   10  N   UNL     1     -10.023   8.954  67.749  1.00  0.00    -0.181 N  
HETATM   11  C   UNL     1     -10.524   8.459  69.033  1.00  0.00    -0.201 C  
HETATM   12  C   UNL     1      -9.885   7.891  66.747  1.00  0.00    -0.248 C  
ENDBRANCH   8  10
ENDBRANCH   7   8
ENDBRANCH   6   7
ENDBRANCH   4   6
ENDBRANCH   2   4
TORSDOF 5
ENDMDL
MODEL      176
REMARK 921   NORMALIZED FREE ENERGY PREDICTED BY IDOCK:   -2.61 KCAL/MOL
REMARK 922        TOTAL FREE ENERGY PREDICTED BY IDOCK:   -3.46 KCAL/MOL
REMARK 923 INTER-LIGAND FREE ENERGY PREDICTED BY IDOCK:   -3.27 KCAL/MOL
REMARK 924 INTRA-LIGAND FREE ENERGY PREDICTED BY IDOCK:   -0.19 KCAL/MOL
REMARK 927      BINDING AFFINITY PREDICTED BY RF-SCORE:    0.00 PKD
ROOT
HETATM    1  C   UNL     1     -13.059  10.256  71.730  1.00  0.00    -0.465 C  
HETATM    2  N   UNL     1     -12.872   8.808  71.642  1.00  0.00    -0.335 N  
HETATM    3  C   UNL     1     -14.089   7.999  71.665  1.00  0.00    -0.431 C  
ENDROOT
BRANCH   2   4
HETATM    4  C   UNL     1     -11.579   8.245  71.600  1.00  0.00    -0.284 C  
HETATM    5  S   UNL     1     -10.771   7.616  72.945  1.00  0.00    -0.392 S  
BRANCH   4   6
HETATM    6  S   UNL     1     -10.823   8.129  69.992  1.00  0.00    -0.200 SA 
BRANCH   6   7
HETATM    7  S   UNL     1     -10.912   6.101  69.601  1.00  0.00    -0.414 SA 
BRANCH   7   8
HETATM    8  C   UNL     1      -9.811   5.963  68.215  1.00  0.00    -0.137 C  
HETATM    9  S   UNL     1     -10.483   5.470  66.747  1.00  0.00    -0.294 S  
BRANCH   8  10
HETATM   10  N   UNL     1      -8.464   6.320  68.415  1.00  0.00    -0.115 N  
HETATM   11  C   UNL     1      -7.647   5.899  69.556  1.00  0.00    -0.088 C  
HETATM   12  C   UNL     1      -7.728   7.171  67.474  1.00  0.00    -0.111 C  
ENDBRANCH   8  10
ENDBRANCH   7   8
ENDBRANCH   6   7
ENDBRANCH   4   6
ENDBRANCH   2   4
TORSDOF 5
ENDMDL
MODEL      177
REMARK 921   NORMALIZED FREE ENERGY PREDICTED BY IDOCK:   -2.60 KCAL/MOL
REMARK 922        TOTAL FREE ENERGY PREDICTED BY IDOCK:   -3.46 KCAL/MOL
REMARK 923 INTER-LIGAND FREE ENERGY PREDICTED BY IDOCK:   -3.31 KCAL/MOL
REMARK 924 INTRA-LIGAND FREE ENERGY PREDICTED BY IDOCK:   -0.15 KCAL/MOL
REMARK 927      BINDING AFFINITY PREDICTED BY RF-SCORE:    0.00 PKD
ROOT
HETATM    1  C   UNL     1     -12.731  13.110  70.876  1.00  0.00    -0.233 C  
HETATM    2  N   UNL     1     -12.418  14.463  70.416  1.00  0.00    -0.342 N  
HETATM    3  C   UNL     1     -12.880  15.556  71.271  1.00  0.00    -0.475 C  
ENDROOT
BRANCH   2   4
HETATM    4  C   UNL     1     -11.762  14.678  69.186  1.00  0.00    -0.309 C  
HETATM    5  S   UNL     1     -11.406  16.204  68.552  1.00  0.00    -0.308 S  
BRANCH   4   6
HETATM    6  S   UNL     1     -11.212  13.220  68.322  1.00  0.00    -0.297 SA 
BRANCH   6   7
HETATM    7  S   UNL     1      -9.356  13.792  67.616  1.00  0.00    -0.223 SA 
BRANCH   7   8
HETATM    8  C   UNL     1      -8.800  12.295  66.841  1.00  0.00    -0.207 C  
HETATM    9  S   UNL     1      -7.275  11.721  67.285  1.00  0.00    -0.149 S  
BRANCH   8  10
HETATM   10  N   UNL     1      -9.681  11.658  65.947  1.00  0.00    -0.229 N  
HETATM   11  C   UNL     1     -10.344  12.311  64.816  1.00  0.00    -0.291 C  
HETATM   12  C   UNL     1     -10.032  10.239  66.066  1.00  0.00    -0.245 C  
ENDBRANCH   8  10
ENDBRANCH   7   8
ENDBRANCH   6   7
ENDBRANCH   4   6
ENDBRANCH   2   4
TORSDOF 5
ENDMDL
MODEL      178
REMARK 921   NORMALIZED FREE ENERGY PREDICTED BY IDOCK:   -2.60 KCAL/MOL
REMARK 922        TOTAL FREE ENERGY PREDICTED BY IDOCK:   -3.45 KCAL/MOL
REMARK 923 INTER-LIGAND FREE ENERGY PREDICTED BY IDOCK:   -3.11 KCAL/MOL
REMARK 924 INTRA-LIGAND FREE ENERGY PREDICTED BY IDOCK:   -0.34 KCAL/MOL
REMARK 927      BINDING AFFINITY PREDICTED BY RF-SCORE:    0.00 PKD
ROOT
HETATM    1  C   UNL     1     -11.995  14.197  69.508  1.00  0.00    -0.340 C  
HETATM    2  N   UNL     1     -11.318  13.733  68.297  1.00  0.00    -0.268 N  
HETATM    3  C   UNL     1     -11.809  14.285  67.035  1.00  0.00    -0.428 C  
ENDROOT
BRANCH   2   4
HETATM    4  C   UNL     1     -10.295  12.764  68.363  1.00  0.00    -0.243 C  
HETATM    5  S   UNL     1     -10.552  11.133  68.724  1.00  0.00    -0.212 S  
BRANCH   4   6
HETATM    6  S   UNL     1      -8.656  13.321  67.945  1.00  0.00    -0.200 SA 
BRANCH   6   7
HETATM    7  S   UNL     1      -8.434  14.994  69.139  1.00  0.00    -0.165 SA 
BRANCH   7   8
HETATM    8  C   UNL     1      -8.381  16.287  67.923  1.00  0.00    -0.166 C  
HETATM    9  S   UNL     1      -7.003  16.371  66.951  1.00  0.00    -0.179 S  
BRANCH   8  10
HETATM   10  N   UNL     1      -9.507  17.125  67.814  1.00  0.00    -0.250 N  
HETATM   11  C   UNL     1     -10.301  17.613  68.944  1.00  0.00    -0.323 C  
HETATM   12  C   UNL     1     -10.008  17.603  66.521  1.00  0.00    -0.332 C  
ENDBRANCH   8  10
ENDBRANCH   7   8
ENDBRANCH   6   7
ENDBRANCH   4   6
ENDBRANCH   2   4
TORSDOF 5
ENDMDL
MODEL      179
REMARK 921   NORMALIZED FREE ENERGY PREDICTED BY IDOCK:   -2.59 KCAL/MOL
REMARK 922        TOTAL FREE ENERGY PREDICTED BY IDOCK:   -3.44 KCAL/MOL
REMARK 923 INTER-LIGAND FREE ENERGY PREDICTED BY IDOCK:   -3.29 KCAL/MOL
REMARK 924 INTRA-LIGAND FREE ENERGY PREDICTED BY IDOCK:   -0.15 KCAL/MOL
REMARK 927      BINDING AFFINITY PREDICTED BY RF-SCORE:    0.00 PKD
ROOT
HETATM    1  C   UNL     1     -12.252  13.652  70.201  1.00  0.00    -0.342 C  
HETATM    2  N   UNL     1     -11.850  13.532  68.799  1.00  0.00    -0.339 N  
HETATM    3  C   UNL     1     -11.977  14.742  67.988  1.00  0.00    -0.227 C  
ENDROOT
BRANCH   2   4
HETATM    4  C   UNL     1     -11.426  12.295  68.269  1.00  0.00    -0.315 C  
HETATM    5  S   UNL     1     -10.581  12.124  66.816  1.00  0.00    -0.233 S  
BRANCH   4   6
HETATM    6  S   UNL     1     -11.747  10.858  69.271  1.00  0.00    -0.325 SA 
BRANCH   6   7
HETATM    7  S   UNL     1      -9.885   9.969  69.386  1.00  0.00    -0.235 SA 
BRANCH   7   8
HETATM    8  C   UNL     1     -10.296   8.381  70.065  1.00  0.00    -0.211 C  
HETATM    9  S   UNL     1     -10.302   8.244  71.748  1.00  0.00    -0.280 S  
BRANCH   8  10
HETATM   10  N   UNL     1     -10.639   7.356  69.163  1.00  0.00    -0.218 N  
HETATM   11  C   UNL     1     -11.224   6.068  69.542  1.00  0.00    -0.346 C  
HETATM   12  C   UNL     1     -10.436   7.482  67.716  1.00  0.00    -0.223 C  
ENDBRANCH   8  10
ENDBRANCH   7   8
ENDBRANCH   6   7
ENDBRANCH   4   6
ENDBRANCH   2   4
TORSDOF 5
ENDMDL
MODEL      180
REMARK 921   NORMALIZED FREE ENERGY PREDICTED BY IDOCK:   -2.59 KCAL/MOL
REMARK 922        TOTAL FREE ENERGY PREDICTED BY IDOCK:   -3.44 KCAL/MOL
REMARK 923 INTER-LIGAND FREE ENERGY PREDICTED BY IDOCK:   -3.19 KCAL/MOL
REMARK 924 INTRA-LIGAND FREE ENERGY PREDICTED BY IDOCK:   -0.25 KCAL/MOL
REMARK 927      BINDING AFFINITY PREDICTED BY RF-SCORE:    0.00 PKD
ROOT
HETATM    1  C   UNL     1     -10.134  13.932  65.891  1.00  0.00    -0.317 C  
HETATM    2  N   UNL     1     -10.420  15.259  66.437  1.00  0.00    -0.294 N  
HETATM    3  C   UNL     1     -10.559  16.340  65.462  1.00  0.00    -0.353 C  
ENDROOT
BRANCH   2   4
HETATM    4  C   UNL     1     -10.494  15.471  67.830  1.00  0.00    -0.266 C  
HETATM    5  S   UNL     1     -11.887  15.230  68.756  1.00  0.00    -0.266 S  
BRANCH   4   6
HETATM    6  S   UNL     1      -8.975  15.935  68.636  1.00  0.00    -0.216 SA 
BRANCH   6   7
HETATM    7  S   UNL     1      -8.986  17.994  68.457  1.00  0.00    -0.264 SA 
BRANCH   7   8
HETATM    8  C   UNL     1      -7.511  18.271  67.507  1.00  0.00    -0.214 C  
HETATM    9  S   UNL     1      -6.923  16.969  66.607  1.00  0.00    -0.262 S  
BRANCH   8  10
HETATM   10  N   UNL     1      -6.958  19.565  67.526  1.00  0.00    -0.212 N  
HETATM   11  C   UNL     1      -6.259  20.161  68.666  1.00  0.00    -0.292 C  
HETATM   12  C   UNL     1      -7.031  20.468  66.371  1.00  0.00    -0.234 C  
ENDBRANCH   8  10
ENDBRANCH   7   8
ENDBRANCH   6   7
ENDBRANCH   4   6
ENDBRANCH   2   4
TORSDOF 5
ENDMDL
MODEL      181
REMARK 921   NORMALIZED FREE ENERGY PREDICTED BY IDOCK:   -2.59 KCAL/MOL
REMARK 922        TOTAL FREE ENERGY PREDICTED BY IDOCK:   -3.44 KCAL/MOL
REMARK 923 INTER-LIGAND FREE ENERGY PREDICTED BY IDOCK:   -3.27 KCAL/MOL
REMARK 924 INTRA-LIGAND FREE ENERGY PREDICTED BY IDOCK:   -0.16 KCAL/MOL
REMARK 927      BINDING AFFINITY PREDICTED BY RF-SCORE:    0.00 PKD
ROOT
HETATM    1  C   UNL     1     -11.458   6.413  70.089  1.00  0.00    -0.417 C  
HETATM    2  N   UNL     1     -11.291   7.740  70.680  1.00  0.00    -0.274 N  
HETATM    3  C   UNL     1     -12.243   8.102  71.729  1.00  0.00    -0.319 C  
ENDROOT
BRANCH   2   4
HETATM    4  C   UNL     1     -10.299   8.626  70.208  1.00  0.00    -0.198 C  
HETATM    5  S   UNL     1      -8.803   8.867  70.958  1.00  0.00    -0.242 S  
BRANCH   4   6
HETATM    6  S   UNL     1     -10.653   9.457  68.673  1.00  0.00    -0.169 SA 
BRANCH   6   7
HETATM    7  S   UNL     1     -11.041  11.391  69.291  1.00  0.00    -0.247 SA 
BRANCH   7   8
HETATM    8  C   UNL     1     -10.230  12.333  68.023  1.00  0.00    -0.206 C  
HETATM    9  S   UNL     1      -8.549  12.204  67.928  1.00  0.00    -0.176 S  
BRANCH   8  10
HETATM   10  N   UNL     1     -11.040  13.084  67.150  1.00  0.00    -0.265 N  
HETATM   11  C   UNL     1     -11.607  12.585  65.896  1.00  0.00    -0.405 C  
HETATM   12  C   UNL     1     -11.403  14.479  67.421  1.00  0.00    -0.356 C  
ENDBRANCH   8  10
ENDBRANCH   7   8
ENDBRANCH   6   7
ENDBRANCH   4   6
ENDBRANCH   2   4
TORSDOF 5
ENDMDL
MODEL      182
REMARK 921   NORMALIZED FREE ENERGY PREDICTED BY IDOCK:   -2.59 KCAL/MOL
REMARK 922        TOTAL FREE ENERGY PREDICTED BY IDOCK:   -3.43 KCAL/MOL
REMARK 923 INTER-LIGAND FREE ENERGY PREDICTED BY IDOCK:   -3.11 KCAL/MOL
REMARK 924 INTRA-LIGAND FREE ENERGY PREDICTED BY IDOCK:   -0.32 KCAL/MOL
REMARK 927      BINDING AFFINITY PREDICTED BY RF-SCORE:    0.00 PKD
ROOT
HETATM    1  C   UNL     1      -8.329  12.163  67.090  1.00  0.00    -0.183 C  
HETATM    2  N   UNL     1      -8.878  10.916  66.558  1.00  0.00    -0.158 N  
HETATM    3  C   UNL     1      -8.671  10.679  65.130  1.00  0.00    -0.186 C  
ENDROOT
BRANCH   2   4
HETATM    4  C   UNL     1      -9.614  10.037  67.381  1.00  0.00    -0.154 C  
HETATM    5  S   UNL     1     -10.144   8.505  66.903  1.00  0.00    -0.310 S  
BRANCH   4   6
HETATM    6  S   UNL     1      -9.904  10.582  69.052  1.00  0.00    -0.213 SA 
BRANCH   6   7
HETATM    7  S   UNL     1     -11.893  11.143  69.000  1.00  0.00    -0.322 SA 
BRANCH   7   8
HETATM    8  C   UNL     1     -11.774  12.797  68.364  1.00  0.00    -0.339 C  
HETATM    9  S   UNL     1     -11.982  12.996  66.700  1.00  0.00    -0.340 S  
BRANCH   8  10
HETATM   10  N   UNL     1     -11.565  13.837  69.289  1.00  0.00    -0.291 N  
HETATM   11  C   UNL     1     -10.606  14.930  69.118  1.00  0.00    -0.246 C  
HETATM   12  C   UNL     1     -12.308  13.927  70.551  1.00  0.00    -0.369 C  
ENDBRANCH   8  10
ENDBRANCH   7   8
ENDBRANCH   6   7
ENDBRANCH   4   6
ENDBRANCH   2   4
TORSDOF 5
ENDMDL
MODEL      183
REMARK 921   NORMALIZED FREE ENERGY PREDICTED BY IDOCK:   -2.58 KCAL/MOL
REMARK 922        TOTAL FREE ENERGY PREDICTED BY IDOCK:   -3.43 KCAL/MOL
REMARK 923 INTER-LIGAND FREE ENERGY PREDICTED BY IDOCK:   -3.27 KCAL/MOL
REMARK 924 INTRA-LIGAND FREE ENERGY PREDICTED BY IDOCK:   -0.16 KCAL/MOL
REMARK 927      BINDING AFFINITY PREDICTED BY RF-SCORE:    0.00 PKD
ROOT
HETATM    1  C   UNL     1     -11.721  11.422  69.856  1.00  0.00    -0.346 C  
HETATM    2  N   UNL     1     -11.986  10.457  70.923  1.00  0.00    -0.348 N  
HETATM    3  C   UNL     1     -13.149  10.732  71.765  1.00  0.00    -0.468 C  
ENDROOT
BRANCH   2   4
HETATM    4  C   UNL     1     -11.120   9.366  71.147  1.00  0.00    -0.362 C  
HETATM    5  S   UNL     1      -9.609   9.185  70.411  1.00  0.00    -0.243 S  
BRANCH   4   6
HETATM    6  S   UNL     1     -11.654   8.173  72.356  1.00  0.00    -0.402 SA 
BRANCH   6   7
HETATM    7  S   UNL     1      -9.882   7.652  73.284  1.00  0.00    -0.305 SA 
BRANCH   7   8
HETATM    8  C   UNL     1      -9.807   5.911  72.944  1.00  0.00    -0.167 C  
HETATM    9  S   UNL     1     -11.217   5.018  73.196  1.00  0.00    -0.314 S  
BRANCH   8  10
HETATM   10  N   UNL     1      -8.597   5.398  72.440  1.00  0.00    -0.122 N  
HETATM   11  C   UNL     1      -7.637   6.155  71.633  1.00  0.00    -0.096 C  
HETATM   12  C   UNL     1      -8.169   4.015  72.679  1.00  0.00    -0.095 C  
ENDBRANCH   8  10
ENDBRANCH   7   8
ENDBRANCH   6   7
ENDBRANCH   4   6
ENDBRANCH   2   4
TORSDOF 5
ENDMDL
MODEL      184
REMARK 921   NORMALIZED FREE ENERGY PREDICTED BY IDOCK:   -2.58 KCAL/MOL
REMARK 922        TOTAL FREE ENERGY PREDICTED BY IDOCK:   -3.42 KCAL/MOL
REMARK 923 INTER-LIGAND FREE ENERGY PREDICTED BY IDOCK:   -3.05 KCAL/MOL
REMARK 924 INTRA-LIGAND FREE ENERGY PREDICTED BY IDOCK:   -0.37 KCAL/MOL
REMARK 927      BINDING AFFINITY PREDICTED BY RF-SCORE:    0.00 PKD
ROOT
HETATM    1  C   UNL     1     -11.014   5.917  66.879  1.00  0.00    -0.217 C  
HETATM    2  N   UNL     1     -10.594   6.554  68.127  1.00  0.00    -0.223 N  
HETATM    3  C   UNL     1     -11.108   5.956  69.359  1.00  0.00    -0.299 C  
ENDROOT
BRANCH   2   4
HETATM    4  C   UNL     1      -9.791   7.714  68.116  1.00  0.00    -0.164 C  
HETATM    5  S   UNL     1      -8.106   7.704  68.251  1.00  0.00    -0.125 S  
BRANCH   4   6
HETATM    6  S   UNL     1     -10.640   9.257  67.854  1.00  0.00    -0.198 SA 
BRANCH   6   7
HETATM    7  S   UNL     1      -9.973  10.408  69.436  1.00  0.00    -0.192 SA 
BRANCH   7   8
HETATM    8  C   UNL     1     -10.616   9.504  70.823  1.00  0.00    -0.317 C  
HETATM    9  S   UNL     1      -9.504   8.654  71.767  1.00  0.00    -0.296 S  
BRANCH   8  10
HETATM   10  N   UNL     1     -11.998   9.595  71.074  1.00  0.00    -0.322 N  
HETATM   11  C   UNL     1     -12.840   8.487  71.532  1.00  0.00    -0.311 C  
HETATM   12  C   UNL     1     -12.749  10.842  70.896  1.00  0.00    -0.384 C  
ENDBRANCH   8  10
ENDBRANCH   7   8
ENDBRANCH   6   7
ENDBRANCH   4   6
ENDBRANCH   2   4
TORSDOF 5
ENDMDL
MODEL      185
REMARK 921   NORMALIZED FREE ENERGY PREDICTED BY IDOCK:   -2.58 KCAL/MOL
REMARK 922        TOTAL FREE ENERGY PREDICTED BY IDOCK:   -3.42 KCAL/MOL
REMARK 923 INTER-LIGAND FREE ENERGY PREDICTED BY IDOCK:   -3.24 KCAL/MOL
REMARK 924 INTRA-LIGAND FREE ENERGY PREDICTED BY IDOCK:   -0.18 KCAL/MOL
REMARK 927      BINDING AFFINITY PREDICTED BY RF-SCORE:    0.00 PKD
ROOT
HETATM    1  C   UNL     1      -9.514  13.975  67.960  1.00  0.00    -0.206 C  
HETATM    2  N   UNL     1     -10.947  13.679  67.981  1.00  0.00    -0.244 N  
HETATM    3  C   UNL     1     -11.771  14.544  68.823  1.00  0.00    -0.327 C  
ENDROOT
BRANCH   2   4
HETATM    4  C   UNL     1     -11.471  12.578  67.270  1.00  0.00    -0.353 C  
HETATM    5  S   UNL     1     -11.949  12.634  65.650  1.00  0.00    -0.439 S  
BRANCH   4   6
HETATM    6  S   UNL     1     -11.533  11.031  68.149  1.00  0.00    -0.274 SA 
BRANCH   6   7
HETATM    7  S   UNL     1     -10.234   9.847  67.062  1.00  0.00    -0.239 SA 
BRANCH   7   8
HETATM    8  C   UNL     1     -10.360   8.301  67.928  1.00  0.00    -0.219 C  
HETATM    9  S   UNL     1     -10.673   6.925  67.002  1.00  0.00    -0.336 S  
BRANCH   8  10
HETATM   10  N   UNL     1     -10.143   8.315  69.319  1.00  0.00    -0.194 N  
HETATM   11  C   UNL     1      -8.983   8.918  69.979  1.00  0.00    -0.165 C  
HETATM   12  C   UNL     1     -11.083   7.709  70.268  1.00  0.00    -0.244 C  
ENDBRANCH   8  10
ENDBRANCH   7   8
ENDBRANCH   6   7
ENDBRANCH   4   6
ENDBRANCH   2   4
TORSDOF 5
ENDMDL
MODEL      186
REMARK 921   NORMALIZED FREE ENERGY PREDICTED BY IDOCK:   -2.57 KCAL/MOL
REMARK 922        TOTAL FREE ENERGY PREDICTED BY IDOCK:   -3.42 KCAL/MOL
REMARK 923 INTER-LIGAND FREE ENERGY PREDICTED BY IDOCK:   -3.28 KCAL/MOL
REMARK 924 INTRA-LIGAND FREE ENERGY PREDICTED BY IDOCK:   -0.14 KCAL/MOL
REMARK 927      BINDING AFFINITY PREDICTED BY RF-SCORE:    0.00 PKD
ROOT
HETATM    1  C   UNL     1      -8.512  10.005  69.902  1.00  0.00    -0.150 C  
HETATM    2  N   UNL     1      -9.812   9.534  69.425  1.00  0.00    -0.177 N  
HETATM    3  C   UNL     1     -10.002   8.084  69.402  1.00  0.00    -0.190 C  
ENDROOT
BRANCH   2   4
HETATM    4  C   UNL     1     -10.788  10.442  68.962  1.00  0.00    -0.234 C  
HETATM    5  S   UNL     1     -11.878  11.259  69.963  1.00  0.00    -0.391 S  
BRANCH   4   6
HETATM    6  S   UNL     1     -10.777  10.785  67.214  1.00  0.00    -0.282 SA 
BRANCH   6   7
HETATM    7  S   UNL     1     -11.799  12.578  67.105  1.00  0.00    -0.232 SA 
BRANCH   7   8
HETATM    8  C   UNL     1     -10.887  13.423  65.837  1.00  0.00    -0.274 C  
HETATM    9  S   UNL     1      -9.603  14.399  66.336  1.00  0.00    -0.292 S  
BRANCH   8  10
HETATM   10  N   UNL     1     -11.260  13.187  64.500  1.00  0.00    -0.337 N  
HETATM   11  C   UNL     1     -12.381  13.836  63.816  1.00  0.00    -0.256 C  
HETATM   12  C   UNL     1     -10.541  12.242  63.639  1.00  0.00    -0.462 C  
ENDBRANCH   8  10
ENDBRANCH   7   8
ENDBRANCH   6   7
ENDBRANCH   4   6
ENDBRANCH   2   4
TORSDOF 5
ENDMDL
MODEL      187
REMARK 921   NORMALIZED FREE ENERGY PREDICTED BY IDOCK:   -2.57 KCAL/MOL
REMARK 922        TOTAL FREE ENERGY PREDICTED BY IDOCK:   -3.41 KCAL/MOL
REMARK 923 INTER-LIGAND FREE ENERGY PREDICTED BY IDOCK:   -3.29 KCAL/MOL
REMARK 924 INTRA-LIGAND FREE ENERGY PREDICTED BY IDOCK:   -0.12 KCAL/MOL
REMARK 927      BINDING AFFINITY PREDICTED BY RF-SCORE:    0.00 PKD
ROOT
HETATM    1  C   UNL     1      -7.587   9.546  63.587  1.00  0.00    -0.119 C  
HETATM    2  N   UNL     1      -8.516   9.757  64.697  1.00  0.00    -0.158 N  
HETATM    3  C   UNL     1      -8.315   8.914  65.875  1.00  0.00    -0.127 C  
ENDROOT
BRANCH   2   4
HETATM    4  C   UNL     1      -9.575  10.684  64.592  1.00  0.00    -0.280 C  
HETATM    5  S   UNL     1     -10.216  11.233  63.127  1.00  0.00    -0.261 S  
BRANCH   4   6
HETATM    6  S   UNL     1     -10.311  11.216  66.124  1.00  0.00    -0.253 SA 
BRANCH   6   7
HETATM    7  S   UNL     1     -11.713  12.597  65.491  1.00  0.00    -0.422 SA 
BRANCH   7   8
HETATM    8  C   UNL     1     -11.247  14.027  66.435  1.00  0.00    -0.319 C  
HETATM    9  S   UNL     1     -11.469  13.949  68.107  1.00  0.00    -0.334 S  
BRANCH   8  10
HETATM   10  N   UNL     1     -10.678  15.110  65.738  1.00  0.00    -0.333 N  
HETATM   11  C   UNL     1      -9.333  15.641  65.969  1.00  0.00    -0.349 C  
HETATM   12  C   UNL     1     -11.399  15.832  64.684  1.00  0.00    -0.337 C  
ENDBRANCH   8  10
ENDBRANCH   7   8
ENDBRANCH   6   7
ENDBRANCH   4   6
ENDBRANCH   2   4
TORSDOF 5
ENDMDL
MODEL      188
REMARK 921   NORMALIZED FREE ENERGY PREDICTED BY IDOCK:   -2.57 KCAL/MOL
REMARK 922        TOTAL FREE ENERGY PREDICTED BY IDOCK:   -3.41 KCAL/MOL
REMARK 923 INTER-LIGAND FREE ENERGY PREDICTED BY IDOCK:   -3.27 KCAL/MOL
REMARK 924 INTRA-LIGAND FREE ENERGY PREDICTED BY IDOCK:   -0.15 KCAL/MOL
REMARK 927      BINDING AFFINITY PREDICTED BY RF-SCORE:    0.00 PKD
ROOT
HETATM    1  C   UNL     1     -12.528  10.780  70.980  1.00  0.00    -0.420 C  
HETATM    2  N   UNL     1     -12.650   9.428  71.523  1.00  0.00    -0.340 N  
HETATM    3  C   UNL     1     -13.847   9.160  72.320  1.00  0.00    -0.463 C  
ENDROOT
BRANCH   2   4
HETATM    4  C   UNL     1     -11.631   8.472  71.329  1.00  0.00    -0.283 C  
HETATM    5  S   UNL     1     -10.003   8.727  71.708  1.00  0.00    -0.327 S  
BRANCH   4   6
HETATM    6  S   UNL     1     -12.150   6.879  70.725  1.00  0.00    -0.284 SA 
BRANCH   6   7
HETATM    7  S   UNL     1     -10.375   5.823  70.664  1.00  0.00    -0.263 SA 
BRANCH   7   8
HETATM    8  C   UNL     1     -10.235   5.474  68.928  1.00  0.00    -0.214 C  
HETATM    9  S   UNL     1     -10.971   6.560  67.865  1.00  0.00    -0.258 S  
BRANCH   8  10
HETATM   10  N   UNL     1      -9.480   4.347  68.550  1.00  0.00    -0.149 N  
HETATM   11  C   UNL     1      -9.282   3.897  67.170  1.00  0.00    -0.176 C  
HETATM   12  C   UNL     1      -8.801   3.491  69.528  1.00  0.00    -0.090 C  
ENDBRANCH   8  10
ENDBRANCH   7   8
ENDBRANCH   6   7
ENDBRANCH   4   6
ENDBRANCH   2   4
TORSDOF 5
ENDMDL
MODEL      189
REMARK 921   NORMALIZED FREE ENERGY PREDICTED BY IDOCK:   -2.57 KCAL/MOL
REMARK 922        TOTAL FREE ENERGY PREDICTED BY IDOCK:   -3.41 KCAL/MOL
REMARK 923 INTER-LIGAND FREE ENERGY PREDICTED BY IDOCK:   -3.25 KCAL/MOL
REMARK 924 INTRA-LIGAND FREE ENERGY PREDICTED BY IDOCK:   -0.16 KCAL/MOL
REMARK 927      BINDING AFFINITY PREDICTED BY RF-SCORE:    0.00 PKD
ROOT
HETATM    1  C   UNL     1     -11.814   6.766  71.150  1.00  0.00    -0.360 C  
HETATM    2  N   UNL     1     -11.634   8.146  71.601  1.00  0.00    -0.266 N  
HETATM    3  C   UNL     1     -10.374   8.442  72.281  1.00  0.00    -0.333 C  
ENDROOT
BRANCH   2   4
HETATM    4  C   UNL     1     -12.657   9.104  71.433  1.00  0.00    -0.323 C  
HETATM    5  S   UNL     1     -14.282   8.836  71.811  1.00  0.00    -0.319 S  
BRANCH   4   6
HETATM    6  S   UNL     1     -12.143  10.712  70.866  1.00  0.00    -0.390 SA 
BRANCH   6   7
HETATM    7  S   UNL     1     -11.273  10.285  69.040  1.00  0.00    -0.176 SA 
BRANCH   7   8
HETATM    8  C   UNL     1     -10.564  11.857  68.614  1.00  0.00    -0.234 C  
HETATM    9  S   UNL     1     -11.594  13.194  68.632  1.00  0.00    -0.343 S  
BRANCH   8  10
HETATM   10  N   UNL     1      -9.183  11.895  68.340  1.00  0.00    -0.191 N  
HETATM   11  C   UNL     1      -8.287  10.739  68.392  1.00  0.00    -0.132 C  
HETATM   12  C   UNL     1      -8.491  13.133  67.966  1.00  0.00    -0.181 C  
ENDBRANCH   8  10
ENDBRANCH   7   8
ENDBRANCH   6   7
ENDBRANCH   4   6
ENDBRANCH   2   4
TORSDOF 5
ENDMDL
MODEL      190
REMARK 921   NORMALIZED FREE ENERGY PREDICTED BY IDOCK:   -2.57 KCAL/MOL
REMARK 922        TOTAL FREE ENERGY PREDICTED BY IDOCK:   -3.41 KCAL/MOL
REMARK 923 INTER-LIGAND FREE ENERGY PREDICTED BY IDOCK:   -3.30 KCAL/MOL
REMARK 924 INTRA-LIGAND FREE ENERGY PREDICTED BY IDOCK:   -0.10 KCAL/MOL
REMARK 927      BINDING AFFINITY PREDICTED BY RF-SCORE:    0.00 PKD
ROOT
HETATM    1  C   UNL     1     -12.052  14.264  69.329  1.00  0.00    -0.313 C  
HETATM    2  N   UNL     1     -11.536  14.586  67.999  1.00  0.00    -0.320 N  
HETATM    3  C   UNL     1     -10.850  15.871  67.869  1.00  0.00    -0.327 C  
ENDROOT
BRANCH   2   4
HETATM    4  C   UNL     1     -11.754  13.721  66.906  1.00  0.00    -0.395 C  
HETATM    5  S   UNL     1     -12.561  14.164  65.488  1.00  0.00    -0.411 S  
BRANCH   4   6
HETATM    6  S   UNL     1     -11.041  12.094  67.036  1.00  0.00    -0.313 SA 
BRANCH   6   7
HETATM    7  S   UNL     1     -10.977  11.476  65.065  1.00  0.00    -0.198 SA 
BRANCH   7   8
HETATM    8  C   UNL     1      -9.375  10.713  64.989  1.00  0.00    -0.217 C  
HETATM    9  S   UNL     1      -8.427  10.778  66.385  1.00  0.00    -0.162 S  
BRANCH   8  10
HETATM   10  N   UNL     1      -9.019  10.063  63.792  1.00  0.00    -0.228 N  
HETATM   11  C   UNL     1      -8.294   8.793  63.712  1.00  0.00    -0.136 C  
HETATM   12  C   UNL     1      -9.350  10.611  62.472  1.00  0.00    -0.286 C  
ENDBRANCH   8  10
ENDBRANCH   7   8
ENDBRANCH   6   7
ENDBRANCH   4   6
ENDBRANCH   2   4
TORSDOF 5
ENDMDL
MODEL      191
REMARK 921   NORMALIZED FREE ENERGY PREDICTED BY IDOCK:   -2.57 KCAL/MOL
REMARK 922        TOTAL FREE ENERGY PREDICTED BY IDOCK:   -3.41 KCAL/MOL
REMARK 923 INTER-LIGAND FREE ENERGY PREDICTED BY IDOCK:   -3.20 KCAL/MOL
REMARK 924 INTRA-LIGAND FREE ENERGY PREDICTED BY IDOCK:   -0.21 KCAL/MOL
REMARK 927      BINDING AFFINITY PREDICTED BY RF-SCORE:    0.00 PKD
ROOT
HETATM    1  C   UNL     1     -11.890   6.145  71.972  1.00  0.00    -0.280 C  
HETATM    2  N   UNL     1     -11.548   7.519  72.340  1.00  0.00    -0.307 N  
HETATM    3  C   UNL     1     -10.418   7.678  73.255  1.00  0.00    -0.355 C  
ENDROOT
BRANCH   2   4
HETATM    4  C   UNL     1     -12.316   8.607  71.875  1.00  0.00    -0.354 C  
HETATM    5  S   UNL     1     -13.982   8.766  72.112  1.00  0.00    -0.441 S  
BRANCH   4   6
HETATM    6  S   UNL     1     -11.417   9.917  71.069  1.00  0.00    -0.392 SA 
BRANCH   6   7
HETATM    7  S   UNL     1     -10.599   8.955  69.433  1.00  0.00    -0.186 SA 
BRANCH   7   8
HETATM    8  C   UNL     1      -9.177   9.968  69.106  1.00  0.00    -0.190 C  
HETATM    9  S   UNL     1      -7.819   9.720  70.078  1.00  0.00    -0.183 S  
BRANCH   8  10
HETATM   10  N   UNL     1      -9.256  10.874  68.031  1.00  0.00    -0.152 N  
HETATM   11  C   UNL     1      -8.941  10.549  66.638  1.00  0.00    -0.141 C  
HETATM   12  C   UNL     1      -9.671  12.269  68.208  1.00  0.00    -0.219 C  
ENDBRANCH   8  10
ENDBRANCH   7   8
ENDBRANCH   6   7
ENDBRANCH   4   6
ENDBRANCH   2   4
TORSDOF 5
ENDMDL
MODEL      192
REMARK 921   NORMALIZED FREE ENERGY PREDICTED BY IDOCK:   -2.57 KCAL/MOL
REMARK 922        TOTAL FREE ENERGY PREDICTED BY IDOCK:   -3.41 KCAL/MOL
REMARK 923 INTER-LIGAND FREE ENERGY PREDICTED BY IDOCK:   -3.10 KCAL/MOL
REMARK 924 INTRA-LIGAND FREE ENERGY PREDICTED BY IDOCK:   -0.31 KCAL/MOL
REMARK 927      BINDING AFFINITY PREDICTED BY RF-SCORE:    0.00 PKD
ROOT
HETATM    1  C   UNL     1      -7.914  12.112  67.067  1.00  0.00    -0.138 C  
HETATM    2  N   UNL     1      -8.691  10.972  66.579  1.00  0.00    -0.163 N  
HETATM    3  C   UNL     1      -8.337  10.473  65.251  1.00  0.00    -0.155 C  
ENDROOT
BRANCH   2   4
HETATM    4  C   UNL     1      -9.755  10.441  67.338  1.00  0.00    -0.163 C  
HETATM    5  S   UNL     1     -10.268   8.832  67.261  1.00  0.00    -0.284 S  
BRANCH   4   6
HETATM    6  S   UNL     1     -10.522  11.550  68.501  1.00  0.00    -0.214 SA 
BRANCH   6   7
HETATM    7  S   UNL     1     -11.762  12.678  67.293  1.00  0.00    -0.338 SA 
BRANCH   7   8
HETATM    8  C   UNL     1     -10.920  14.241  67.288  1.00  0.00    -0.297 C  
HETATM    9  S   UNL     1     -10.491  14.887  68.788  1.00  0.00    -0.249 S  
BRANCH   8  10
HETATM   10  N   UNL     1     -10.619  14.816  66.038  1.00  0.00    -0.300 N  
HETATM   11  C   UNL     1     -10.352  16.238  65.812  1.00  0.00    -0.374 C  
HETATM   12  C   UNL     1     -10.544  14.022  64.807  1.00  0.00    -0.421 C  
ENDBRANCH   8  10
ENDBRANCH   7   8
ENDBRANCH   6   7
ENDBRANCH   4   6
ENDBRANCH   2   4
TORSDOF 5
ENDMDL
MODEL      193
REMARK 921   NORMALIZED FREE ENERGY PREDICTED BY IDOCK:   -2.57 KCAL/MOL
REMARK 922        TOTAL FREE ENERGY PREDICTED BY IDOCK:   -3.41 KCAL/MOL
REMARK 923 INTER-LIGAND FREE ENERGY PREDICTED BY IDOCK:   -3.26 KCAL/MOL
REMARK 924 INTRA-LIGAND FREE ENERGY PREDICTED BY IDOCK:   -0.15 KCAL/MOL
REMARK 927      BINDING AFFINITY PREDICTED BY RF-SCORE:    0.00 PKD
ROOT
HETATM    1  C   UNL     1      -8.462   8.918  64.558  1.00  0.00    -0.161 C  
HETATM    2  N   UNL     1      -9.276  10.046  64.106  1.00  0.00    -0.256 N  
HETATM    3  C   UNL     1      -9.387  10.221  62.659  1.00  0.00    -0.309 C  
ENDROOT
BRANCH   2   4
HETATM    4  C   UNL     1      -9.859  10.938  65.031  1.00  0.00    -0.281 C  
HETATM    5  S   UNL     1     -11.130  11.990  64.666  1.00  0.00    -0.331 S  
BRANCH   4   6
HETATM    6  S   UNL     1      -9.246  10.852  66.701  1.00  0.00    -0.171 SA 
BRANCH   6   7
HETATM    7  S   UNL     1     -10.647   9.650  67.631  1.00  0.00    -0.259 SA 
BRANCH   7   8
HETATM    8  C   UNL     1     -10.284   9.950  69.343  1.00  0.00    -0.216 C  
HETATM    9  S   UNL     1      -8.714   9.613  69.866  1.00  0.00    -0.229 S  
BRANCH   8  10
HETATM   10  N   UNL     1     -11.309  10.495  70.140  1.00  0.00    -0.302 N  
HETATM   11  C   UNL     1     -11.986  11.767  69.880  1.00  0.00    -0.332 C  
HETATM   12  C   UNL     1     -11.810   9.821  71.343  1.00  0.00    -0.408 C  
ENDBRANCH   8  10
ENDBRANCH   7   8
ENDBRANCH   6   7
ENDBRANCH   4   6
ENDBRANCH   2   4
TORSDOF 5
ENDMDL
MODEL      194
REMARK 921   NORMALIZED FREE ENERGY PREDICTED BY IDOCK:   -2.56 KCAL/MOL
REMARK 922        TOTAL FREE ENERGY PREDICTED BY IDOCK:   -3.40 KCAL/MOL
REMARK 923 INTER-LIGAND FREE ENERGY PREDICTED BY IDOCK:   -3.21 KCAL/MOL
REMARK 924 INTRA-LIGAND FREE ENERGY PREDICTED BY IDOCK:   -0.19 KCAL/MOL
REMARK 927      BINDING AFFINITY PREDICTED BY RF-SCORE:    0.00 PKD
ROOT
HETATM    1  C   UNL     1      -8.234   9.829  70.305  1.00  0.00    -0.148 C  
HETATM    2  N   UNL     1      -9.030   9.033  69.370  1.00  0.00    -0.142 N  
HETATM    3  C   UNL     1      -9.262   7.639  69.748  1.00  0.00    -0.147 C  
ENDROOT
BRANCH   2   4
HETATM    4  C   UNL     1      -9.484   9.582  68.153  1.00  0.00    -0.133 C  
HETATM    5  S   UNL     1      -9.932   8.666  66.805  1.00  0.00    -0.293 S  
BRANCH   4   6
HETATM    6  S   UNL     1      -9.665  11.353  68.108  1.00  0.00    -0.198 SA 
BRANCH   6   7
HETATM    7  S   UNL     1     -11.627  11.617  68.700  1.00  0.00    -0.333 SA 
BRANCH   7   8
HETATM    8  C   UNL     1     -11.802  13.378  68.558  1.00  0.00    -0.366 C  
HETATM    9  S   UNL     1     -12.092  14.238  69.982  1.00  0.00    -0.356 S  
BRANCH   8  10
HETATM   10  N   UNL     1     -11.639  13.948  67.281  1.00  0.00    -0.344 N  
HETATM   11  C   UNL     1     -10.883  15.171  67.000  1.00  0.00    -0.314 C  
HETATM   12  C   UNL     1     -12.227  13.356  66.075  1.00  0.00    -0.437 C  
ENDBRANCH   8  10
ENDBRANCH   7   8
ENDBRANCH   6   7
ENDBRANCH   4   6
ENDBRANCH   2   4
TORSDOF 5
ENDMDL
MODEL      195
REMARK 921   NORMALIZED FREE ENERGY PREDICTED BY IDOCK:   -2.55 KCAL/MOL
REMARK 922        TOTAL FREE ENERGY PREDICTED BY IDOCK:   -3.39 KCAL/MOL
REMARK 923 INTER-LIGAND FREE ENERGY PREDICTED BY IDOCK:   -3.26 KCAL/MOL
REMARK 924 INTRA-LIGAND FREE ENERGY PREDICTED BY IDOCK:   -0.13 KCAL/MOL
REMARK 927      BINDING AFFINITY PREDICTED BY RF-SCORE:    0.00 PKD
ROOT
HETATM    1  C   UNL     1     -11.088  16.673  68.431  1.00  0.00    -0.305 C  
HETATM    2  N   UNL     1     -10.167  16.448  67.317  1.00  0.00    -0.273 N  
HETATM    3  C   UNL     1      -9.172  17.494  67.083  1.00  0.00    -0.243 C  
ENDROOT
BRANCH   2   4
HETATM    4  C   UNL     1     -10.288  15.309  66.493  1.00  0.00    -0.286 C  
HETATM    5  S   UNL     1     -10.959  15.326  64.941  1.00  0.00    -0.402 S  
BRANCH   4   6
HETATM    6  S   UNL     1      -9.598  13.797  67.132  1.00  0.00    -0.252 SA 
BRANCH   6   7
HETATM    7  S   UNL     1     -11.256  12.570  67.264  1.00  0.00    -0.315 SA 
BRANCH   7   8
HETATM    8  C   UNL     1     -10.505  11.006  67.642  1.00  0.00    -0.204 C  
HETATM    9  S   UNL     1     -10.389  10.584  69.273  1.00  0.00    -0.227 S  
BRANCH   8  10
HETATM   10  N   UNL     1     -10.101  10.199  66.561  1.00  0.00    -0.225 N  
HETATM   11  C   UNL     1     -10.033  10.640  65.167  1.00  0.00    -0.303 C  
HETATM   12  C   UNL     1      -9.700   8.799  66.733  1.00  0.00    -0.221 C  
ENDBRANCH   8  10
ENDBRANCH   7   8
ENDBRANCH   6   7
ENDBRANCH   4   6
ENDBRANCH   2   4
TORSDOF 5
ENDMDL
MODEL      196
REMARK 921   NORMALIZED FREE ENERGY PREDICTED BY IDOCK:   -2.55 KCAL/MOL
REMARK 922        TOTAL FREE ENERGY PREDICTED BY IDOCK:   -3.38 KCAL/MOL
REMARK 923 INTER-LIGAND FREE ENERGY PREDICTED BY IDOCK:   -3.20 KCAL/MOL
REMARK 924 INTRA-LIGAND FREE ENERGY PREDICTED BY IDOCK:   -0.18 KCAL/MOL
REMARK 927      BINDING AFFINITY PREDICTED BY RF-SCORE:    0.00 PKD
ROOT
HETATM    1  C   UNL     1      -7.549   6.075  68.341  1.00  0.00    -0.091 C  
HETATM    2  N   UNL     1      -8.770   5.691  69.048  1.00  0.00    -0.104 N  
HETATM    3  C   UNL     1      -8.586   5.024  70.336  1.00  0.00    -0.108 C  
ENDROOT
BRANCH   2   4
HETATM    4  C   UNL     1     -10.041   5.908  68.474  1.00  0.00    -0.167 C  
HETATM    5  S   UNL     1     -10.414   5.610  66.852  1.00  0.00    -0.302 S  
BRANCH   4   6
HETATM    6  S   UNL     1     -11.325   6.445  69.584  1.00  0.00    -0.363 SA 
BRANCH   6   7
HETATM    7  S   UNL     1     -10.638   8.295  70.200  1.00  0.00    -0.234 SA 
BRANCH   7   8
HETATM    8  C   UNL     1     -11.452   8.465  71.769  1.00  0.00    -0.301 C  
HETATM    9  S   UNL     1     -10.857   7.536  73.047  1.00  0.00    -0.384 S  
BRANCH   8  10
HETATM   10  N   UNL     1     -12.503   9.397  71.860  1.00  0.00    -0.381 N  
HETATM   11  C   UNL     1     -13.741   9.193  72.615  1.00  0.00    -0.351 C  
HETATM   12  C   UNL     1     -12.459  10.700  71.186  1.00  0.00    -0.418 C  
ENDBRANCH   8  10
ENDBRANCH   7   8
ENDBRANCH   6   7
ENDBRANCH   4   6
ENDBRANCH   2   4
TORSDOF 5
ENDMDL
MODEL      197
REMARK 921   NORMALIZED FREE ENERGY PREDICTED BY IDOCK:   -2.54 KCAL/MOL
REMARK 922        TOTAL FREE ENERGY PREDICTED BY IDOCK:   -3.37 KCAL/MOL
REMARK 923 INTER-LIGAND FREE ENERGY PREDICTED BY IDOCK:   -3.20 KCAL/MOL
REMARK 924 INTRA-LIGAND FREE ENERGY PREDICTED BY IDOCK:   -0.17 KCAL/MOL
REMARK 927      BINDING AFFINITY PREDICTED BY RF-SCORE:    0.00 PKD
ROOT
HETATM    1  C   UNL     1      -7.582  10.963  67.404  1.00  0.00    -0.100 C  
HETATM    2  N   UNL     1      -8.462   9.796  67.479  1.00  0.00    -0.121 N  
HETATM    3  C   UNL     1      -7.888   8.528  67.032  1.00  0.00    -0.096 C  
ENDROOT
BRANCH   2   4
HETATM    4  C   UNL     1      -9.802   9.923  67.903  1.00  0.00    -0.143 C  
HETATM    5  S   UNL     1     -10.856  11.133  67.373  1.00  0.00    -0.283 S  
BRANCH   4   6
HETATM    6  S   UNL     1     -10.403   8.654  68.998  1.00  0.00    -0.200 SA 
BRANCH   6   7
HETATM    7  S   UNL     1      -9.782   9.330  70.850  1.00  0.00    -0.255 SA 
BRANCH   7   8
HETATM    8  C   UNL     1     -11.175   8.902  71.865  1.00  0.00    -0.377 C  
HETATM    9  S   UNL     1     -10.958   7.652  72.977  1.00  0.00    -0.344 S  
BRANCH   8  10
HETATM   10  N   UNL     1     -12.350   9.663  71.712  1.00  0.00    -0.387 N  
HETATM   11  C   UNL     1     -12.428  10.956  71.029  1.00  0.00    -0.411 C  
HETATM   12  C   UNL     1     -13.645   9.222  72.240  1.00  0.00    -0.480 C  
ENDBRANCH   8  10
ENDBRANCH   7   8
ENDBRANCH   6   7
ENDBRANCH   4   6
ENDBRANCH   2   4
TORSDOF 5
ENDMDL
MODEL      198
REMARK 921   NORMALIZED FREE ENERGY PREDICTED BY IDOCK:   -2.54 KCAL/MOL
REMARK 922        TOTAL FREE ENERGY PREDICTED BY IDOCK:   -3.37 KCAL/MOL
REMARK 923 INTER-LIGAND FREE ENERGY PREDICTED BY IDOCK:   -3.17 KCAL/MOL
REMARK 924 INTRA-LIGAND FREE ENERGY PREDICTED BY IDOCK:   -0.20 KCAL/MOL
REMARK 927      BINDING AFFINITY PREDICTED BY RF-SCORE:    0.00 PKD
ROOT
HETATM    1  C   UNL     1     -10.633  14.097  64.883  1.00  0.00    -0.430 C  
HETATM    2  N   UNL     1     -11.617  13.282  65.596  1.00  0.00    -0.324 N  
HETATM    3  C   UNL     1     -12.652  12.656  64.774  1.00  0.00    -0.454 C  
ENDROOT
BRANCH   2   4
HETATM    4  C   UNL     1     -11.585  13.169  67.002  1.00  0.00    -0.359 C  
HETATM    5  S   UNL     1     -11.678  14.482  68.063  1.00  0.00    -0.328 S  
BRANCH   4   6
HETATM    6  S   UNL     1     -11.530  11.515  67.658  1.00  0.00    -0.259 SA 
BRANCH   6   7
HETATM    7  S   UNL     1      -9.806  10.754  66.810  1.00  0.00    -0.199 SA 
BRANCH   7   8
HETATM    8  C   UNL     1      -9.379   9.478  67.968  1.00  0.00    -0.132 C  
HETATM    9  S   UNL     1      -9.890   7.910  67.607  1.00  0.00    -0.178 S  
BRANCH   8  10
HETATM   10  N   UNL     1      -8.601   9.845  69.084  1.00  0.00    -0.145 N  
HETATM   11  C   UNL     1      -7.531  10.845  69.066  1.00  0.00    -0.124 C  
HETATM   12  C   UNL     1      -8.793   9.243  70.407  1.00  0.00    -0.234 C  
ENDBRANCH   8  10
ENDBRANCH   7   8
ENDBRANCH   6   7
ENDBRANCH   4   6
ENDBRANCH   2   4
TORSDOF 5
ENDMDL
MODEL      199
REMARK 921   NORMALIZED FREE ENERGY PREDICTED BY IDOCK:   -2.53 KCAL/MOL
REMARK 922        TOTAL FREE ENERGY PREDICTED BY IDOCK:   -3.36 KCAL/MOL
REMARK 923 INTER-LIGAND FREE ENERGY PREDICTED BY IDOCK:   -3.16 KCAL/MOL
REMARK 924 INTRA-LIGAND FREE ENERGY PREDICTED BY IDOCK:   -0.20 KCAL/MOL
REMARK 927      BINDING AFFINITY PREDICTED BY RF-SCORE:    0.00 PKD
ROOT
HETATM    1  C   UNL     1      -9.773  10.215  65.224  1.00  0.00    -0.300 C  
HETATM    2  N   UNL     1     -10.180  11.214  64.235  1.00  0.00    -0.312 N  
HETATM    3  C   UNL     1      -9.332  11.329  63.049  1.00  0.00    -0.341 C  
ENDROOT
BRANCH   2   4
HETATM    4  C   UNL     1     -11.295  12.048  64.462  1.00  0.00    -0.330 C  
HETATM    5  S   UNL     1     -12.541  12.295  63.347  1.00  0.00    -0.280 S  
BRANCH   4   6
HETATM    6  S   UNL     1     -11.399  12.800  66.073  1.00  0.00    -0.339 SA 
BRANCH   6   7
HETATM    7  S   UNL     1     -10.210  14.477  65.862  1.00  0.00    -0.339 SA 
BRANCH   7   8
HETATM    8  C   UNL     1      -9.326  14.475  67.402  1.00  0.00    -0.197 C  
HETATM    9  S   UNL     1     -10.200  14.879  68.789  1.00  0.00    -0.248 S  
BRANCH   8  10
HETATM   10  N   UNL     1      -7.972  14.091  67.376  1.00  0.00    -0.181 N  
HETATM   11  C   UNL     1      -6.838  15.008  67.505  1.00  0.00    -0.168 C  
HETATM   12  C   UNL     1      -7.555  12.694  67.210  1.00  0.00    -0.120 C  
ENDBRANCH   8  10
ENDBRANCH   7   8
ENDBRANCH   6   7
ENDBRANCH   4   6
ENDBRANCH   2   4
TORSDOF 5
ENDMDL
MODEL      200
REMARK 921   NORMALIZED FREE ENERGY PREDICTED BY IDOCK:   -2.53 KCAL/MOL
REMARK 922        TOTAL FREE ENERGY PREDICTED BY IDOCK:   -3.36 KCAL/MOL
REMARK 923 INTER-LIGAND FREE ENERGY PREDICTED BY IDOCK:   -3.21 KCAL/MOL
REMARK 924 INTRA-LIGAND FREE ENERGY PREDICTED BY IDOCK:   -0.14 KCAL/MOL
REMARK 927      BINDING AFFINITY PREDICTED BY RF-SCORE:    0.00 PKD
ROOT
HETATM    1  C   UNL     1      -8.737   8.373  69.620  1.00  0.00    -0.133 C  
HETATM    2  N   UNL     1      -8.468   9.682  69.022  1.00  0.00    -0.125 N  
HETATM    3  C   UNL     1      -7.434  10.485  69.672  1.00  0.00    -0.141 C  
ENDROOT
BRANCH   2   4
HETATM    4  C   UNL     1      -9.218  10.145  67.921  1.00  0.00    -0.138 C  
HETATM    5  S   UNL     1      -9.921   9.139  66.759  1.00  0.00    -0.272 S  
BRANCH   4   6
HETATM    6  S   UNL     1      -9.490  11.903  67.837  1.00  0.00    -0.200 SA 
BRANCH   6   7
HETATM    7  S   UNL     1     -11.532  12.025  67.539  1.00  0.00    -0.327 SA 
BRANCH   7   8
HETATM    8  C   UNL     1     -11.621  13.198  66.208  1.00  0.00    -0.356 C  
HETATM    9  S   UNL     1     -12.247  12.647  64.740  1.00  0.00    -0.475 S  
BRANCH   8  10
HETATM   10  N   UNL     1     -11.214  14.519  66.476  1.00  0.00    -0.337 N  
HETATM   11  C   UNL     1     -10.611  15.425  65.496  1.00  0.00    -0.383 C  
HETATM   12  C   UNL     1     -11.358  15.132  67.801  1.00  0.00    -0.328 C  
ENDBRANCH   8  10
ENDBRANCH   7   8
ENDBRANCH   6   7
ENDBRANCH   4   6
ENDBRANCH   2   4
TORSDOF 5
ENDMDL
MODEL      201
REMARK 921   NORMALIZED FREE ENERGY PREDICTED BY IDOCK:   -2.52 KCAL/MOL
REMARK 922        TOTAL FREE ENERGY PREDICTED BY IDOCK:   -3.35 KCAL/MOL
REMARK 923 INTER-LIGAND FREE ENERGY PREDICTED BY IDOCK:   -3.17 KCAL/MOL
REMARK 924 INTRA-LIGAND FREE ENERGY PREDICTED BY IDOCK:   -0.18 KCAL/MOL
REMARK 927      BINDING AFFINITY PREDICTED BY RF-SCORE:    0.00 PKD
ROOT
HETATM    1  C   UNL     1      -8.129  10.623  65.911  1.00  0.00    -0.159 C  
HETATM    2  N   UNL     1      -9.550  10.972  65.946  1.00  0.00    -0.208 N  
HETATM    3  C   UNL     1     -10.286  10.801  64.694  1.00  0.00    -0.350 C  
ENDROOT
BRANCH   2   4
HETATM    4  C   UNL     1     -10.139  11.498  67.115  1.00  0.00    -0.197 C  
HETATM    5  S   UNL     1     -11.498  12.503  67.125  1.00  0.00    -0.370 S  
BRANCH   4   6
HETATM    6  S   UNL     1      -9.426  10.973  68.660  1.00  0.00    -0.185 SA 
BRANCH   6   7
HETATM    7  S   UNL     1     -11.090  10.423  69.756  1.00  0.00    -0.314 SA 
BRANCH   7   8
HETATM    8  C   UNL     1     -10.884   8.662  69.848  1.00  0.00    -0.208 C  
HETATM    9  S   UNL     1     -10.185   7.901  68.513  1.00  0.00    -0.203 S  
BRANCH   8  10
HETATM   10  N   UNL     1     -11.268   8.023  71.042  1.00  0.00    -0.261 N  
HETATM   11  C   UNL     1     -12.225   6.918  71.130  1.00  0.00    -0.379 C  
HETATM   12  C   UNL     1     -10.731   8.413  72.350  1.00  0.00    -0.335 C  
ENDBRANCH   8  10
ENDBRANCH   7   8
ENDBRANCH   6   7
ENDBRANCH   4   6
ENDBRANCH   2   4
TORSDOF 5
ENDMDL
MODEL      202
REMARK 921   NORMALIZED FREE ENERGY PREDICTED BY IDOCK:   -2.51 KCAL/MOL
REMARK 922        TOTAL FREE ENERGY PREDICTED BY IDOCK:   -3.34 KCAL/MOL
REMARK 923 INTER-LIGAND FREE ENERGY PREDICTED BY IDOCK:   -3.16 KCAL/MOL
REMARK 924 INTRA-LIGAND FREE ENERGY PREDICTED BY IDOCK:   -0.18 KCAL/MOL
REMARK 927      BINDING AFFINITY PREDICTED BY RF-SCORE:    0.00 PKD
ROOT
HETATM    1  C   UNL     1     -11.390  14.854  66.857  1.00  0.00    -0.337 C  
HETATM    2  N   UNL     1     -10.150  14.380  66.244  1.00  0.00    -0.286 N  
HETATM    3  C   UNL     1      -9.071  15.361  66.133  1.00  0.00    -0.304 C  
ENDROOT
BRANCH   2   4
HETATM    4  C   UNL     1     -10.044  13.066  65.742  1.00  0.00    -0.287 C  
HETATM    5  S   UNL     1     -10.572  12.588  64.209  1.00  0.00    -0.397 S  
BRANCH   4   6
HETATM    6  S   UNL     1      -9.215  11.887  66.790  1.00  0.00    -0.198 SA 
BRANCH   6   7
HETATM    7  S   UNL     1     -10.787  10.773  67.539  1.00  0.00    -0.303 SA 
BRANCH   7   8
HETATM    8  C   UNL     1     -10.194   9.118  67.288  1.00  0.00    -0.254 C  
HETATM    9  S   UNL     1      -9.406   8.798  65.829  1.00  0.00    -0.146 S  
BRANCH   8  10
HETATM   10  N   UNL     1     -10.373   8.196  68.336  1.00  0.00    -0.208 N  
HETATM   11  C   UNL     1     -10.564   6.755  68.161  1.00  0.00    -0.230 C  
HETATM   12  C   UNL     1     -10.387   8.602  69.746  1.00  0.00    -0.212 C  
ENDBRANCH   8  10
ENDBRANCH   7   8
ENDBRANCH   6   7
ENDBRANCH   4   6
ENDBRANCH   2   4
TORSDOF 5
ENDMDL
MODEL      203
REMARK 921   NORMALIZED FREE ENERGY PREDICTED BY IDOCK:   -2.51 KCAL/MOL
REMARK 922        TOTAL FREE ENERGY PREDICTED BY IDOCK:   -3.33 KCAL/MOL
REMARK 923 INTER-LIGAND FREE ENERGY PREDICTED BY IDOCK:   -3.14 KCAL/MOL
REMARK 924 INTRA-LIGAND FREE ENERGY PREDICTED BY IDOCK:   -0.20 KCAL/MOL
REMARK 927      BINDING AFFINITY PREDICTED BY RF-SCORE:    0.00 PKD
ROOT
HETATM    1  C   UNL     1     -11.516  14.986  67.693  1.00  0.00    -0.333 C  
HETATM    2  N   UNL     1     -11.782  13.626  68.161  1.00  0.00    -0.338 N  
HETATM    3  C   UNL     1     -12.013  13.472  69.596  1.00  0.00    -0.337 C  
ENDROOT
BRANCH   2   4
HETATM    4  C   UNL     1     -11.751  12.533  67.269  1.00  0.00    -0.362 C  
HETATM    5  S   UNL     1     -11.955  12.664  65.596  1.00  0.00    -0.439 S  
BRANCH   4   6
HETATM    6  S   UNL     1     -11.382  10.944  67.985  1.00  0.00    -0.286 SA 
BRANCH   6   7
HETATM    7  S   UNL     1      -9.339  10.794  67.712  1.00  0.00    -0.153 SA 
BRANCH   7   8
HETATM    8  C   UNL     1      -9.183   9.120  67.139  1.00  0.00    -0.133 C  
HETATM    9  S   UNL     1      -9.353   7.897  68.290  1.00  0.00    -0.143 S  
BRANCH   8  10
HETATM   10  N   UNL     1      -8.980   8.920  65.761  1.00  0.00    -0.191 N  
HETATM   11  C   UNL     1      -8.244   7.797  65.177  1.00  0.00    -0.132 C  
HETATM   12  C   UNL     1      -9.501   9.844  64.747  1.00  0.00    -0.291 C  
ENDBRANCH   8  10
ENDBRANCH   7   8
ENDBRANCH   6   7
ENDBRANCH   4   6
ENDBRANCH   2   4
TORSDOF 5
ENDMDL
MODEL      204
REMARK 921   NORMALIZED FREE ENERGY PREDICTED BY IDOCK:   -2.50 KCAL/MOL
REMARK 922        TOTAL FREE ENERGY PREDICTED BY IDOCK:   -3.32 KCAL/MOL
REMARK 923 INTER-LIGAND FREE ENERGY PREDICTED BY IDOCK:   -3.11 KCAL/MOL
REMARK 924 INTRA-LIGAND FREE ENERGY PREDICTED BY IDOCK:   -0.22 KCAL/MOL
REMARK 927      BINDING AFFINITY PREDICTED BY RF-SCORE:    0.00 PKD
ROOT
HETATM    1  C   UNL     1     -10.633   5.517  70.471  1.00  0.00    -0.269 C  
HETATM    2  N   UNL     1      -9.241   5.946  70.334  1.00  0.00    -0.156 N  
HETATM    3  C   UNL     1      -8.275   5.286  71.211  1.00  0.00    -0.119 C  
ENDROOT
BRANCH   2   4
HETATM    4  C   UNL     1      -8.884   6.981  69.444  1.00  0.00    -0.136 C  
HETATM    5  S   UNL     1      -7.439   7.026  68.568  1.00  0.00    -0.105 S  
BRANCH   4   6
HETATM    6  S   UNL     1     -10.102   8.256  69.191  1.00  0.00    -0.206 SA 
BRANCH   6   7
HETATM    7  S   UNL     1      -9.989   9.336  70.950  1.00  0.00    -0.289 SA 
BRANCH   7   8
HETATM    8  C   UNL     1     -11.707   9.633  71.289  1.00  0.00    -0.382 C  
HETATM    9  S   UNL     1     -12.568   8.389  72.039  1.00  0.00    -0.368 S  
BRANCH   8  10
HETATM   10  N   UNL     1     -12.227  10.899  70.959  1.00  0.00    -0.358 N  
HETATM   11  C   UNL     1     -11.929  11.630  69.725  1.00  0.00    -0.332 C  
HETATM   12  C   UNL     1     -13.141  11.628  71.844  1.00  0.00    -0.385 C  
ENDBRANCH   8  10
ENDBRANCH   7   8
ENDBRANCH   6   7
ENDBRANCH   4   6
ENDBRANCH   2   4
TORSDOF 5
ENDMDL
MODEL      205
REMARK 921   NORMALIZED FREE ENERGY PREDICTED BY IDOCK:   -2.50 KCAL/MOL
REMARK 922        TOTAL FREE ENERGY PREDICTED BY IDOCK:   -3.32 KCAL/MOL
REMARK 923 INTER-LIGAND FREE ENERGY PREDICTED BY IDOCK:   -3.13 KCAL/MOL
REMARK 924 INTRA-LIGAND FREE ENERGY PREDICTED BY IDOCK:   -0.18 KCAL/MOL
REMARK 927      BINDING AFFINITY PREDICTED BY RF-SCORE:    0.00 PKD
ROOT
HETATM    1  C   UNL     1     -12.502  13.627  70.648  1.00  0.00    -0.347 C  
HETATM    2  N   UNL     1     -11.843  14.581  69.755  1.00  0.00    -0.296 N  
HETATM    3  C   UNL     1     -11.436  15.850  70.356  1.00  0.00    -0.378 C  
ENDROOT
BRANCH   2   4
HETATM    4  C   UNL     1     -11.677  14.296  68.384  1.00  0.00    -0.338 C  
HETATM    5  S   UNL     1     -11.209  15.434  67.225  1.00  0.00    -0.215 S  
BRANCH   4   6
HETATM    6  S   UNL     1     -11.899  12.596  67.901  1.00  0.00    -0.265 SA 
BRANCH   6   7
HETATM    7  S   UNL     1      -9.964  11.871  67.913  1.00  0.00    -0.196 SA 
BRANCH   7   8
HETATM    8  C   UNL     1     -10.222  10.192  68.429  1.00  0.00    -0.169 C  
HETATM    9  S   UNL     1     -10.665   9.942  70.039  1.00  0.00    -0.312 S  
BRANCH   8  10
HETATM   10  N   UNL     1     -10.091   9.184  67.454  1.00  0.00    -0.212 N  
HETATM   11  C   UNL     1     -10.098   9.411  66.008  1.00  0.00    -0.231 C  
HETATM   12  C   UNL     1      -9.932   7.768  67.804  1.00  0.00    -0.174 C  
ENDBRANCH   8  10
ENDBRANCH   7   8
ENDBRANCH   6   7
ENDBRANCH   4   6
ENDBRANCH   2   4
TORSDOF 5
ENDMDL
MODEL      206
REMARK 921   NORMALIZED FREE ENERGY PREDICTED BY IDOCK:   -2.49 KCAL/MOL
REMARK 922        TOTAL FREE ENERGY PREDICTED BY IDOCK:   -3.31 KCAL/MOL
REMARK 923 INTER-LIGAND FREE ENERGY PREDICTED BY IDOCK:   -3.54 KCAL/MOL
REMARK 924 INTRA-LIGAND FREE ENERGY PREDICTED BY IDOCK:    0.23 KCAL/MOL
REMARK 927      BINDING AFFINITY PREDICTED BY RF-SCORE:    0.00 PKD
ROOT
HETATM    1  C   UNL     1      -9.579   8.730  71.050  1.00  0.00    -0.229 C  
HETATM    2  N   UNL     1     -10.940   9.045  71.483  1.00  0.00    -0.321 N  
HETATM    3  C   UNL     1     -11.514   8.162  72.497  1.00  0.00    -0.404 C  
ENDROOT
BRANCH   2   4
HETATM    4  C   UNL     1     -11.660  10.108  70.898  1.00  0.00    -0.372 C  
HETATM    5  S   UNL     1     -12.999  10.855  71.609  1.00  0.00    -0.417 S  
BRANCH   4   6
HETATM    6  S   UNL     1     -11.029  10.729  69.353  1.00  0.00    -0.269 SA 
BRANCH   6   7
HETATM    7  S   UNL     1     -11.842  12.628  69.269  1.00  0.00    -0.274 SA 
BRANCH   7   8
HETATM    8  C   UNL     1     -11.144  13.241  67.755  1.00  0.00    -0.265 C  
HETATM    9  S   UNL     1     -11.409  14.868  67.392  1.00  0.00    -0.338 S  
BRANCH   8  10
HETATM   10  N   UNL     1     -10.377  12.348  66.983  1.00  0.00    -0.219 N  
HETATM   11  C   UNL     1      -8.920  12.216  67.057  1.00  0.00    -0.201 C  
HETATM   12  C   UNL     1     -10.979  11.439  66.002  1.00  0.00    -0.226 C  
ENDBRANCH   8  10
ENDBRANCH   7   8
ENDBRANCH   6   7
ENDBRANCH   4   6
ENDBRANCH   2   4
TORSDOF 5
ENDMDL
MODEL      207
REMARK 921   NORMALIZED FREE ENERGY PREDICTED BY IDOCK:   -2.49 KCAL/MOL
REMARK 922        TOTAL FREE ENERGY PREDICTED BY IDOCK:   -3.30 KCAL/MOL
REMARK 923 INTER-LIGAND FREE ENERGY PREDICTED BY IDOCK:   -3.12 KCAL/MOL
REMARK 924 INTRA-LIGAND FREE ENERGY PREDICTED BY IDOCK:   -0.18 KCAL/MOL
REMARK 927      BINDING AFFINITY PREDICTED BY RF-SCORE:    0.00 PKD
ROOT
HETATM    1  C   UNL     1      -6.207   8.910  68.047  1.00  0.00    -0.051 C  
HETATM    2  N   UNL     1      -7.379   9.535  68.660  1.00  0.00    -0.074 N  
HETATM    3  C   UNL     1      -7.267   9.861  70.081  1.00  0.00    -0.155 C  
ENDROOT
BRANCH   2   4
HETATM    4  C   UNL     1      -8.561   9.746  67.917  1.00  0.00    -0.125 C  
HETATM    5  S   UNL     1      -9.887   8.698  67.922  1.00  0.00    -0.183 S  
BRANCH   4   6
HETATM    6  S   UNL     1      -8.651  11.270  66.999  1.00  0.00    -0.153 SA 
BRANCH   6   7
HETATM    7  S   UNL     1     -10.153  10.880  65.634  1.00  0.00    -0.271 SA 
BRANCH   7   8
HETATM    8  C   UNL     1     -11.410  12.018  66.160  1.00  0.00    -0.351 C  
HETATM    9  S   UNL     1     -11.613  12.222  67.824  1.00  0.00    -0.346 S  
BRANCH   8  10
HETATM   10  N   UNL     1     -12.119  12.713  65.162  1.00  0.00    -0.433 N  
HETATM   11  C   UNL     1     -12.440  12.178  63.837  1.00  0.00    -0.478 C  
HETATM   12  C   UNL     1     -12.618  14.078  65.358  1.00  0.00    -0.505 C  
ENDBRANCH   8  10
ENDBRANCH   7   8
ENDBRANCH   6   7
ENDBRANCH   4   6
ENDBRANCH   2   4
TORSDOF 5
ENDMDL
MODEL      208
REMARK 921   NORMALIZED FREE ENERGY PREDICTED BY IDOCK:   -2.49 KCAL/MOL
REMARK 922        TOTAL FREE ENERGY PREDICTED BY IDOCK:   -3.30 KCAL/MOL
REMARK 923 INTER-LIGAND FREE ENERGY PREDICTED BY IDOCK:   -3.14 KCAL/MOL
REMARK 924 INTRA-LIGAND FREE ENERGY PREDICTED BY IDOCK:   -0.17 KCAL/MOL
REMARK 927      BINDING AFFINITY PREDICTED BY RF-SCORE:    0.00 PKD
ROOT
HETATM    1  C   UNL     1      -9.429  11.896  66.309  1.00  0.00    -0.227 C  
HETATM    2  N   UNL     1      -9.623  12.681  67.528  1.00  0.00    -0.180 N  
HETATM    3  C   UNL     1     -10.576  12.140  68.496  1.00  0.00    -0.233 C  
ENDROOT
BRANCH   2   4
HETATM    4  C   UNL     1      -8.966  13.916  67.708  1.00  0.00    -0.188 C  
HETATM    5  S   UNL     1      -7.304  14.147  67.507  1.00  0.00    -0.134 S  
BRANCH   4   6
HETATM    6  S   UNL     1     -10.005  15.312  68.087  1.00  0.00    -0.223 SA 
BRANCH   6   7
HETATM    7  S   UNL     1      -9.750  16.521  66.430  1.00  0.00    -0.303 SA 
BRANCH   7   8
HETATM    8  C   UNL     1      -8.974  17.946  67.152  1.00  0.00    -0.251 C  
HETATM    9  S   UNL     1      -8.179  17.724  68.624  1.00  0.00    -0.233 S  
BRANCH   8  10
HETATM   10  N   UNL     1      -9.029  19.153  66.429  1.00  0.00    -0.339 N  
HETATM   11  C   UNL     1     -10.262  19.826  66.015  1.00  0.00    -0.501 C  
HETATM   12  C   UNL     1      -7.822  19.873  66.009  1.00  0.00    -0.323 C  
ENDBRANCH   8  10
ENDBRANCH   7   8
ENDBRANCH   6   7
ENDBRANCH   4   6
ENDBRANCH   2   4
TORSDOF 5
ENDMDL
MODEL      209
REMARK 921   NORMALIZED FREE ENERGY PREDICTED BY IDOCK:   -2.47 KCAL/MOL
REMARK 922        TOTAL FREE ENERGY PREDICTED BY IDOCK:   -3.29 KCAL/MOL
REMARK 923 INTER-LIGAND FREE ENERGY PREDICTED BY IDOCK:   -3.06 KCAL/MOL
REMARK 924 INTRA-LIGAND FREE ENERGY PREDICTED BY IDOCK:   -0.23 KCAL/MOL
REMARK 927      BINDING AFFINITY PREDICTED BY RF-SCORE:    0.00 PKD
ROOT
HETATM    1  C   UNL     1      -7.903   9.061  68.366  1.00  0.00    -0.103 C  
HETATM    2  N   UNL     1      -8.190  10.076  67.352  1.00  0.00    -0.117 N  
HETATM    3  C   UNL     1      -7.296  10.102  66.196  1.00  0.00    -0.115 C  
ENDROOT
BRANCH   2   4
HETATM    4  C   UNL     1      -9.236  11.006  67.532  1.00  0.00    -0.145 C  
HETATM    5  S   UNL     1     -10.873  10.592  67.605  1.00  0.00    -0.312 S  
BRANCH   4   6
HETATM    6  S   UNL     1      -8.749  12.701  67.780  1.00  0.00    -0.191 SA 
BRANCH   6   7
HETATM    7  S   UNL     1     -10.553  13.704  67.673  1.00  0.00    -0.243 SA 
BRANCH   7   8
HETATM    8  C   UNL     1     -10.386  14.561  66.126  1.00  0.00    -0.297 C  
HETATM    9  S   UNL     1      -9.398  15.930  66.111  1.00  0.00    -0.359 S  
BRANCH   8  10
HETATM   10  N   UNL     1     -11.044  14.018  65.006  1.00  0.00    -0.345 N  
HETATM   11  C   UNL     1     -12.220  14.606  64.360  1.00  0.00    -0.452 C  
HETATM   12  C   UNL     1     -10.604  12.777  64.361  1.00  0.00    -0.379 C  
ENDBRANCH   8  10
ENDBRANCH   7   8
ENDBRANCH   6   7
ENDBRANCH   4   6
ENDBRANCH   2   4
TORSDOF 5
ENDMDL
MODEL      210
REMARK 921   NORMALIZED FREE ENERGY PREDICTED BY IDOCK:   -2.46 KCAL/MOL
REMARK 922        TOTAL FREE ENERGY PREDICTED BY IDOCK:   -3.27 KCAL/MOL
REMARK 923 INTER-LIGAND FREE ENERGY PREDICTED BY IDOCK:   -3.15 KCAL/MOL
REMARK 924 INTRA-LIGAND FREE ENERGY PREDICTED BY IDOCK:   -0.12 KCAL/MOL
REMARK 927      BINDING AFFINITY PREDICTED BY RF-SCORE:    0.00 PKD
ROOT
HETATM    1  C   UNL     1     -12.584  11.353  70.961  1.00  0.00    -0.386 C  
HETATM    2  N   UNL     1     -11.576  10.469  70.375  1.00  0.00    -0.319 N  
HETATM    3  C   UNL     1     -10.822  11.010  69.246  1.00  0.00    -0.238 C  
ENDROOT
BRANCH   2   4
HETATM    4  C   UNL     1     -11.402   9.152  70.851  1.00  0.00    -0.295 C  
HETATM    5  S   UNL     1     -12.133   8.540  72.247  1.00  0.00    -0.373 S  
BRANCH   4   6
HETATM    6  S   UNL     1     -10.411   8.074  69.836  1.00  0.00    -0.234 SA 
BRANCH   6   7
HETATM    7  S   UNL     1     -11.277   6.227  70.169  1.00  0.00    -0.401 SA 
BRANCH   7   8
HETATM    8  C   UNL     1      -9.913   5.318  70.852  1.00  0.00    -0.208 C  
HETATM    9  S   UNL     1      -8.529   5.176  69.895  1.00  0.00    -0.097 S  
BRANCH   8  10
HETATM   10  N   UNL     1     -10.053   4.820  72.161  1.00  0.00    -0.186 N  
HETATM   11  C   UNL     1      -9.059   3.998  72.855  1.00  0.00    -0.107 C  
HETATM   12  C   UNL     1     -11.243   5.082  72.978  1.00  0.00    -0.310 C  
ENDBRANCH   8  10
ENDBRANCH   7   8
ENDBRANCH   6   7
ENDBRANCH   4   6
ENDBRANCH   2   4
TORSDOF 5
ENDMDL
MODEL      211
REMARK 921   NORMALIZED FREE ENERGY PREDICTED BY IDOCK:   -2.46 KCAL/MOL
REMARK 922        TOTAL FREE ENERGY PREDICTED BY IDOCK:   -3.27 KCAL/MOL
REMARK 923 INTER-LIGAND FREE ENERGY PREDICTED BY IDOCK:   -3.13 KCAL/MOL
REMARK 924 INTRA-LIGAND FREE ENERGY PREDICTED BY IDOCK:   -0.14 KCAL/MOL
REMARK 927      BINDING AFFINITY PREDICTED BY RF-SCORE:    0.00 PKD
ROOT
HETATM    1  C   UNL     1      -9.762  14.479  67.967  1.00  0.00    -0.218 C  
HETATM    2  N   UNL     1     -10.992  13.852  68.452  1.00  0.00    -0.244 N  
HETATM    3  C   UNL     1     -11.599  14.457  69.637  1.00  0.00    -0.292 C  
ENDROOT
BRANCH   2   4
HETATM    4  C   UNL     1     -11.510  12.696  67.832  1.00  0.00    -0.309 C  
HETATM    5  S   UNL     1     -11.868  12.580  66.184  1.00  0.00    -0.358 S  
BRANCH   4   6
HETATM    6  S   UNL     1     -11.700  11.263  68.873  1.00  0.00    -0.350 SA 
BRANCH   6   7
HETATM    7  S   UNL     1     -10.731   9.793  67.791  1.00  0.00    -0.243 SA 
BRANCH   7   8
HETATM    8  C   UNL     1      -9.922   8.883  69.083  1.00  0.00    -0.190 C  
HETATM    9  S   UNL     1      -8.309   9.267  69.399  1.00  0.00    -0.136 S  
BRANCH   8  10
HETATM   10  N   UNL     1     -10.688   7.938  69.792  1.00  0.00    -0.246 N  
HETATM   11  C   UNL     1     -11.175   8.113  71.163  1.00  0.00    -0.257 C  
HETATM   12  C   UNL     1     -11.084   6.651  69.211  1.00  0.00    -0.289 C  
ENDBRANCH   8  10
ENDBRANCH   7   8
ENDBRANCH   6   7
ENDBRANCH   4   6
ENDBRANCH   2   4
TORSDOF 5
ENDMDL
MODEL      212
REMARK 921   NORMALIZED FREE ENERGY PREDICTED BY IDOCK:   -2.46 KCAL/MOL
REMARK 922        TOTAL FREE ENERGY PREDICTED BY IDOCK:   -3.27 KCAL/MOL
REMARK 923 INTER-LIGAND FREE ENERGY PREDICTED BY IDOCK:   -2.93 KCAL/MOL
REMARK 924 INTRA-LIGAND FREE ENERGY PREDICTED BY IDOCK:   -0.34 KCAL/MOL
REMARK 927      BINDING AFFINITY PREDICTED BY RF-SCORE:    0.00 PKD
ROOT
HETATM    1  C   UNL     1     -11.168  15.273  67.837  1.00  0.00    -0.331 C  
HETATM    2  N   UNL     1     -10.375  14.587  66.816  1.00  0.00    -0.266 N  
HETATM    3  C   UNL     1      -9.151  15.263  66.389  1.00  0.00    -0.312 C  
ENDROOT
BRANCH   2   4
HETATM    4  C   UNL     1     -10.818  13.374  66.247  1.00  0.00    -0.289 C  
HETATM    5  S   UNL     1     -10.575  12.936  64.633  1.00  0.00    -0.383 S  
BRANCH   4   6
HETATM    6  S   UNL     1     -11.601  12.223  67.358  1.00  0.00    -0.338 SA 
BRANCH   6   7
HETATM    7  S   UNL     1      -9.986  11.358  68.316  1.00  0.00    -0.204 SA 
BRANCH   7   8
HETATM    8  C   UNL     1      -9.545  10.076  67.169  1.00  0.00    -0.165 C  
HETATM    9  S   UNL     1     -10.443   8.648  67.232  1.00  0.00    -0.250 S  
BRANCH   8  10
HETATM   10  N   UNL     1      -8.513  10.350  66.251  1.00  0.00    -0.139 N  
HETATM   11  C   UNL     1      -8.380   9.731  64.931  1.00  0.00    -0.148 C  
HETATM   12  C   UNL     1      -7.440  11.308  66.539  1.00  0.00    -0.105 C  
ENDBRANCH   8  10
ENDBRANCH   7   8
ENDBRANCH   6   7
ENDBRANCH   4   6
ENDBRANCH   2   4
TORSDOF 5
ENDMDL
MODEL      213
REMARK 921   NORMALIZED FREE ENERGY PREDICTED BY IDOCK:   -2.46 KCAL/MOL
REMARK 922        TOTAL FREE ENERGY PREDICTED BY IDOCK:   -3.27 KCAL/MOL
REMARK 923 INTER-LIGAND FREE ENERGY PREDICTED BY IDOCK:   -3.08 KCAL/MOL
REMARK 924 INTRA-LIGAND FREE ENERGY PREDICTED BY IDOCK:   -0.19 KCAL/MOL
REMARK 927      BINDING AFFINITY PREDICTED BY RF-SCORE:    0.00 PKD
ROOT
HETATM    1  C   UNL     1     -11.745  12.060  68.259  1.00  0.00    -0.334 C  
HETATM    2  N   UNL     1     -11.683  11.349  69.536  1.00  0.00    -0.316 N  
HETATM    3  C   UNL     1     -12.260  12.040  70.687  1.00  0.00    -0.316 C  
ENDROOT
BRANCH   2   4
HETATM    4  C   UNL     1     -11.043  10.095  69.637  1.00  0.00    -0.263 C  
HETATM    5  S   UNL     1     -10.289   9.305  68.347  1.00  0.00    -0.209 S  
BRANCH   4   6
HETATM    6  S   UNL     1     -10.974   9.377  71.266  1.00  0.00    -0.374 SA 
BRANCH   6   7
HETATM    7  S   UNL     1     -11.605   7.438  70.926  1.00  0.00    -0.287 SA 
BRANCH   7   8
HETATM    8  C   UNL     1     -10.188   6.510  71.457  1.00  0.00    -0.192 C  
HETATM    9  S   UNL     1      -8.692   7.292  71.397  1.00  0.00    -0.126 S  
BRANCH   8  10
HETATM   10  N   UNL     1     -10.406   5.205  71.938  1.00  0.00    -0.208 N  
HETATM   11  C   UNL     1      -9.742   4.003  71.431  1.00  0.00    -0.183 C  
HETATM   12  C   UNL     1     -11.348   4.916  73.025  1.00  0.00    -0.273 C  
ENDBRANCH   8  10
ENDBRANCH   7   8
ENDBRANCH   6   7
ENDBRANCH   4   6
ENDBRANCH   2   4
TORSDOF 5
ENDMDL
MODEL      214
REMARK 921   NORMALIZED FREE ENERGY PREDICTED BY IDOCK:   -2.45 KCAL/MOL
REMARK 922        TOTAL FREE ENERGY PREDICTED BY IDOCK:   -3.26 KCAL/MOL
REMARK 923 INTER-LIGAND FREE ENERGY PREDICTED BY IDOCK:   -3.10 KCAL/MOL
REMARK 924 INTRA-LIGAND FREE ENERGY PREDICTED BY IDOCK:   -0.15 KCAL/MOL
REMARK 927      BINDING AFFINITY PREDICTED BY RF-SCORE:    0.00 PKD
ROOT
HETATM    1  C   UNL     1      -7.878   9.665  65.560  1.00  0.00    -0.111 C  
HETATM    2  N   UNL     1      -8.907   9.746  66.597  1.00  0.00    -0.137 N  
HETATM    3  C   UNL     1      -9.977   8.753  66.521  1.00  0.00    -0.290 C  
ENDROOT
BRANCH   2   4
HETATM    4  C   UNL     1      -8.880  10.769  67.569  1.00  0.00    -0.128 C  
HETATM    5  S   UNL     1      -7.537  11.134  68.528  1.00  0.00    -0.128 S  
BRANCH   4   6
HETATM    6  S   UNL     1     -10.346  11.771  67.697  1.00  0.00    -0.204 SA 
BRANCH   6   7
HETATM    7  S   UNL     1      -9.577  13.689  67.718  1.00  0.00    -0.232 SA 
BRANCH   7   8
HETATM    8  C   UNL     1     -11.040  14.657  67.445  1.00  0.00    -0.326 C  
HETATM    9  S   UNL     1     -11.613  15.565  68.747  1.00  0.00    -0.376 S  
BRANCH   8  10
HETATM   10  N   UNL     1     -11.598  14.644  66.152  1.00  0.00    -0.355 N  
HETATM   11  C   UNL     1     -12.860  13.996  65.791  1.00  0.00    -0.377 C  
HETATM   12  C   UNL     1     -10.948  15.298  65.010  1.00  0.00    -0.437 C  
ENDBRANCH   8  10
ENDBRANCH   7   8
ENDBRANCH   6   7
ENDBRANCH   4   6
ENDBRANCH   2   4
TORSDOF 5
ENDMDL
MODEL      215
REMARK 921   NORMALIZED FREE ENERGY PREDICTED BY IDOCK:   -2.44 KCAL/MOL
REMARK 922        TOTAL FREE ENERGY PREDICTED BY IDOCK:   -3.25 KCAL/MOL
REMARK 923 INTER-LIGAND FREE ENERGY PREDICTED BY IDOCK:   -3.08 KCAL/MOL
REMARK 924 INTRA-LIGAND FREE ENERGY PREDICTED BY IDOCK:   -0.17 KCAL/MOL
REMARK 927      BINDING AFFINITY PREDICTED BY RF-SCORE:    0.00 PKD
ROOT
HETATM    1  C   UNL     1     -11.382   8.911  70.727  1.00  0.00    -0.278 C  
HETATM    2  N   UNL     1     -11.334   7.449  70.740  1.00  0.00    -0.275 N  
HETATM    3  C   UNL     1     -12.323   6.779  71.583  1.00  0.00    -0.362 C  
ENDROOT
BRANCH   2   4
HETATM    4  C   UNL     1     -10.343   6.748  70.020  1.00  0.00    -0.199 C  
HETATM    5  S   UNL     1     -10.105   5.078  70.109  1.00  0.00    -0.262 S  
BRANCH   4   6
HETATM    6  S   UNL     1      -9.361   7.714  68.891  1.00  0.00    -0.145 SA 
BRANCH   6   7
HETATM    7  S   UNL     1     -10.515   7.707  67.176  1.00  0.00    -0.341 SA 
BRANCH   7   8
HETATM    8  C   UNL     1      -9.714   8.964  66.210  1.00  0.00    -0.275 C  
HETATM    9  S   UNL     1      -8.396   8.485  65.270  1.00  0.00    -0.163 S  
BRANCH   8  10
HETATM   10  N   UNL     1     -10.258  10.262  66.249  1.00  0.00    -0.233 N  
HETATM   11  C   UNL     1     -10.367  11.160  65.097  1.00  0.00    -0.293 C  
HETATM   12  C   UNL     1     -10.783  10.856  67.483  1.00  0.00    -0.252 C  
ENDBRANCH   8  10
ENDBRANCH   7   8
ENDBRANCH   6   7
ENDBRANCH   4   6
ENDBRANCH   2   4
TORSDOF 5
ENDMDL
MODEL      216
REMARK 921   NORMALIZED FREE ENERGY PREDICTED BY IDOCK:   -2.44 KCAL/MOL
REMARK 922        TOTAL FREE ENERGY PREDICTED BY IDOCK:   -3.24 KCAL/MOL
REMARK 923 INTER-LIGAND FREE ENERGY PREDICTED BY IDOCK:   -3.09 KCAL/MOL
REMARK 924 INTRA-LIGAND FREE ENERGY PREDICTED BY IDOCK:   -0.16 KCAL/MOL
REMARK 927      BINDING AFFINITY PREDICTED BY RF-SCORE:    0.00 PKD
ROOT
HETATM    1  C   UNL     1      -8.197   6.066  65.817  1.00  0.00    -0.136 C  
HETATM    2  N   UNL     1      -9.497   5.851  66.452  1.00  0.00    -0.156 N  
HETATM    3  C   UNL     1     -10.176   4.599  66.123  1.00  0.00    -0.277 C  
ENDROOT
BRANCH   2   4
HETATM    4  C   UNL     1     -10.070   6.837  67.283  1.00  0.00    -0.182 C  
HETATM    5  S   UNL     1     -10.048   8.494  66.947  1.00  0.00    -0.310 S  
BRANCH   4   6
HETATM    6  S   UNL     1     -10.938   6.246  68.721  1.00  0.00    -0.332 SA 
BRANCH   6   7
HETATM    7  S   UNL     1      -9.708   6.855  70.267  1.00  0.00    -0.171 SA 
BRANCH   7   8
HETATM    8  C   UNL     1     -10.888   7.129  71.566  1.00  0.00    -0.225 C  
HETATM    9  S   UNL     1     -11.095   5.886  72.689  1.00  0.00    -0.290 S  
BRANCH   8  10
HETATM   10  N   UNL     1     -11.535   8.379  71.605  1.00  0.00    -0.270 N  
HETATM   11  C   UNL     1     -12.834   8.630  72.232  1.00  0.00    -0.383 C  
HETATM   12  C   UNL     1     -10.953   9.584  71.005  1.00  0.00    -0.353 C  
ENDBRANCH   8  10
ENDBRANCH   7   8
ENDBRANCH   6   7
ENDBRANCH   4   6
ENDBRANCH   2   4
TORSDOF 5
ENDMDL
MODEL      217
REMARK 921   NORMALIZED FREE ENERGY PREDICTED BY IDOCK:   -2.44 KCAL/MOL
REMARK 922        TOTAL FREE ENERGY PREDICTED BY IDOCK:   -3.24 KCAL/MOL
REMARK 923 INTER-LIGAND FREE ENERGY PREDICTED BY IDOCK:   -3.06 KCAL/MOL
REMARK 924 INTRA-LIGAND FREE ENERGY PREDICTED BY IDOCK:   -0.18 KCAL/MOL
REMARK 927      BINDING AFFINITY PREDICTED BY RF-SCORE:    0.00 PKD
ROOT
HETATM    1  C   UNL     1      -9.778  10.466  64.485  1.00  0.00    -0.330 C  
HETATM    2  N   UNL     1      -8.942  10.498  65.685  1.00  0.00    -0.172 N  
HETATM    3  C   UNL     1      -7.497  10.451  65.464  1.00  0.00    -0.142 C  
ENDROOT
BRANCH   2   4
HETATM    4  C   UNL     1      -9.519  10.512  66.973  1.00  0.00    -0.163 C  
HETATM    5  S   UNL     1      -8.764   9.910  68.360  1.00  0.00    -0.122 S  
BRANCH   4   6
HETATM    6  S   UNL     1     -11.109  11.302  67.113  1.00  0.00    -0.276 SA 
BRANCH   6   7
HETATM    7  S   UNL     1     -10.701  12.909  68.347  1.00  0.00    -0.261 SA 
BRANCH   7   8
HETATM    8  C   UNL     1     -11.738  12.551  69.743  1.00  0.00    -0.285 C  
HETATM    9  S   UNL     1     -12.183  10.939  69.975  1.00  0.00    -0.328 S  
BRANCH   8  10
HETATM   10  N   UNL     1     -12.080  13.621  70.592  1.00  0.00    -0.344 N  
HETATM   11  C   UNL     1     -11.439  14.938  70.579  1.00  0.00    -0.262 C  
HETATM   12  C   UNL     1     -13.140  13.517  71.601  1.00  0.00    -0.374 C  
ENDBRANCH   8  10
ENDBRANCH   7   8
ENDBRANCH   6   7
ENDBRANCH   4   6
ENDBRANCH   2   4
TORSDOF 5
ENDMDL
MODEL      218
REMARK 921   NORMALIZED FREE ENERGY PREDICTED BY IDOCK:   -2.43 KCAL/MOL
REMARK 922        TOTAL FREE ENERGY PREDICTED BY IDOCK:   -3.24 KCAL/MOL
REMARK 923 INTER-LIGAND FREE ENERGY PREDICTED BY IDOCK:   -3.11 KCAL/MOL
REMARK 924 INTRA-LIGAND FREE ENERGY PREDICTED BY IDOCK:   -0.12 KCAL/MOL
REMARK 927      BINDING AFFINITY PREDICTED BY RF-SCORE:    0.00 PKD
ROOT
HETATM    1  C   UNL     1      -9.737   7.481  67.546  1.00  0.00    -0.150 C  
HETATM    2  N   UNL     1      -8.937   7.281  66.338  1.00  0.00    -0.154 N  
HETATM    3  C   UNL     1      -8.627   5.894  65.994  1.00  0.00    -0.142 C  
ENDROOT
BRANCH   2   4
HETATM    4  C   UNL     1      -8.451   8.380  65.599  1.00  0.00    -0.164 C  
HETATM    5  S   UNL     1      -7.574   8.246  64.161  1.00  0.00    -0.135 S  
BRANCH   4   6
HETATM    6  S   UNL     1      -8.889   9.995  66.210  1.00  0.00    -0.146 SA 
BRANCH   6   7
HETATM    7  S   UNL     1     -10.232  10.661  64.788  1.00  0.00    -0.283 SA 
BRANCH   7   8
HETATM    8  C   UNL     1     -10.970  12.044  65.624  1.00  0.00    -0.297 C  
HETATM    9  S   UNL     1     -10.509  12.307  67.227  1.00  0.00    -0.220 S  
BRANCH   8  10
HETATM   10  N   UNL     1     -11.848  12.859  64.885  1.00  0.00    -0.345 N  
HETATM   11  C   UNL     1     -12.150  12.690  63.461  1.00  0.00    -0.561 C  
HETATM   12  C   UNL     1     -12.566  13.988  65.486  1.00  0.00    -0.516 C  
ENDBRANCH   8  10
ENDBRANCH   7   8
ENDBRANCH   6   7
ENDBRANCH   4   6
ENDBRANCH   2   4
TORSDOF 5
ENDMDL
MODEL      219
REMARK 921   NORMALIZED FREE ENERGY PREDICTED BY IDOCK:   -2.43 KCAL/MOL
REMARK 922        TOTAL FREE ENERGY PREDICTED BY IDOCK:   -3.23 KCAL/MOL
REMARK 923 INTER-LIGAND FREE ENERGY PREDICTED BY IDOCK:   -3.08 KCAL/MOL
REMARK 924 INTRA-LIGAND FREE ENERGY PREDICTED BY IDOCK:   -0.16 KCAL/MOL
REMARK 927      BINDING AFFINITY PREDICTED BY RF-SCORE:    0.00 PKD
ROOT
HETATM    1  C   UNL     1     -11.715  12.615  63.473  1.00  0.00    -0.531 C  
HETATM    2  N   UNL     1     -10.599  11.815  63.979  1.00  0.00    -0.336 N  
HETATM    3  C   UNL     1      -9.619  11.378  62.986  1.00  0.00    -0.376 C  
ENDROOT
BRANCH   2   4
HETATM    4  C   UNL     1     -10.527  11.448  65.339  1.00  0.00    -0.280 C  
HETATM    5  S   UNL     1     -11.239  12.322  66.599  1.00  0.00    -0.335 S  
BRANCH   4   6
HETATM    6  S   UNL     1      -9.699   9.913  65.697  1.00  0.00    -0.292 SA 
BRANCH   6   7
HETATM    7  S   UNL     1     -10.519   9.376  67.516  1.00  0.00    -0.274 SA 
BRANCH   7   8
HETATM    8  C   UNL     1      -9.078   8.838  68.405  1.00  0.00    -0.141 C  
HETATM    9  S   UNL     1      -8.472   9.879  69.588  1.00  0.00    -0.189 S  
BRANCH   8  10
HETATM   10  N   UNL     1      -8.565   7.562  68.102  1.00  0.00    -0.124 N  
HETATM   11  C   UNL     1      -9.374   6.352  67.939  1.00  0.00    -0.114 C  
HETATM   12  C   UNL     1      -7.131   7.315  67.918  1.00  0.00    -0.085 C  
ENDBRANCH   8  10
ENDBRANCH   7   8
ENDBRANCH   6   7
ENDBRANCH   4   6
ENDBRANCH   2   4
TORSDOF 5
ENDMDL
MODEL      220
REMARK 921   NORMALIZED FREE ENERGY PREDICTED BY IDOCK:   -2.43 KCAL/MOL
REMARK 922        TOTAL FREE ENERGY PREDICTED BY IDOCK:   -3.23 KCAL/MOL
REMARK 923 INTER-LIGAND FREE ENERGY PREDICTED BY IDOCK:   -3.07 KCAL/MOL
REMARK 924 INTRA-LIGAND FREE ENERGY PREDICTED BY IDOCK:   -0.16 KCAL/MOL
REMARK 927      BINDING AFFINITY PREDICTED BY RF-SCORE:    0.00 PKD
ROOT
HETATM    1  C   UNL     1     -12.604  13.608  70.919  1.00  0.00    -0.346 C  
HETATM    2  N   UNL     1     -11.547  14.290  70.173  1.00  0.00    -0.266 N  
HETATM    3  C   UNL     1     -11.067  15.549  70.742  1.00  0.00    -0.351 C  
ENDROOT
BRANCH   2   4
HETATM    4  C   UNL     1     -11.077  13.776  68.946  1.00  0.00    -0.266 C  
HETATM    5  S   UNL     1     -10.119  14.643  67.856  1.00  0.00    -0.227 S  
BRANCH   4   6
HETATM    6  S   UNL     1     -11.468  12.072  68.606  1.00  0.00    -0.323 SA 
BRANCH   6   7
HETATM    7  S   UNL     1      -9.696  11.108  69.057  1.00  0.00    -0.027 SA 
BRANCH   7   8
HETATM    8  C   UNL     1     -10.281   9.492  69.505  1.00  0.00    -0.213 C  
HETATM    9  S   UNL     1     -10.340   8.331  68.281  1.00  0.00    -0.172 S  
BRANCH   8  10
HETATM   10  N   UNL     1     -10.609   9.269  70.856  1.00  0.00    -0.270 N  
HETATM   11  C   UNL     1     -11.965   9.314  71.407  1.00  0.00    -0.351 C  
HETATM   12  C   UNL     1      -9.595   8.963  71.870  1.00  0.00    -0.256 C  
ENDBRANCH   8  10
ENDBRANCH   7   8
ENDBRANCH   6   7
ENDBRANCH   4   6
ENDBRANCH   2   4
TORSDOF 5
ENDMDL
MODEL      221
REMARK 921   NORMALIZED FREE ENERGY PREDICTED BY IDOCK:   -2.43 KCAL/MOL
REMARK 922        TOTAL FREE ENERGY PREDICTED BY IDOCK:   -3.23 KCAL/MOL
REMARK 923 INTER-LIGAND FREE ENERGY PREDICTED BY IDOCK:   -3.05 KCAL/MOL
REMARK 924 INTRA-LIGAND FREE ENERGY PREDICTED BY IDOCK:   -0.18 KCAL/MOL
REMARK 927      BINDING AFFINITY PREDICTED BY RF-SCORE:    0.00 PKD
ROOT
HETATM    1  C   UNL     1      -8.564   6.561  69.797  1.00  0.00    -0.136 C  
HETATM    2  N   UNL     1      -9.326   7.754  69.429  1.00  0.00    -0.153 N  
HETATM    3  C   UNL     1      -9.931   8.498  70.533  1.00  0.00    -0.188 C  
ENDROOT
BRANCH   2   4
HETATM    4  C   UNL     1      -9.504   8.112  68.076  1.00  0.00    -0.143 C  
HETATM    5  S   UNL     1     -10.529   7.301  67.004  1.00  0.00    -0.323 S  
BRANCH   4   6
HETATM    6  S   UNL     1      -8.643   9.572  67.529  1.00  0.00    -0.126 SA 
BRANCH   6   7
HETATM    7  S   UNL     1      -9.664  10.072  65.802  1.00  0.00    -0.275 SA 
BRANCH   7   8
HETATM    8  C   UNL     1     -10.669  11.422  66.369  1.00  0.00    -0.275 C  
HETATM    9  S   UNL     1     -10.916  11.550  68.034  1.00  0.00    -0.252 S  
BRANCH   8  10
HETATM   10  N   UNL     1     -11.152  12.325  65.402  1.00  0.00    -0.302 N  
HETATM   11  C   UNL     1     -10.597  12.488  64.057  1.00  0.00    -0.421 C  
HETATM   12  C   UNL     1     -12.290  13.215  65.657  1.00  0.00    -0.461 C  
ENDBRANCH   8  10
ENDBRANCH   7   8
ENDBRANCH   6   7
ENDBRANCH   4   6
ENDBRANCH   2   4
TORSDOF 5
ENDMDL
MODEL      222
REMARK 921   NORMALIZED FREE ENERGY PREDICTED BY IDOCK:   -2.43 KCAL/MOL
REMARK 922        TOTAL FREE ENERGY PREDICTED BY IDOCK:   -3.22 KCAL/MOL
REMARK 923 INTER-LIGAND FREE ENERGY PREDICTED BY IDOCK:   -3.10 KCAL/MOL
REMARK 924 INTRA-LIGAND FREE ENERGY PREDICTED BY IDOCK:   -0.13 KCAL/MOL
REMARK 927      BINDING AFFINITY PREDICTED BY RF-SCORE:    0.00 PKD
ROOT
HETATM    1  C   UNL     1      -8.762   9.098  65.251  1.00  0.00    -0.188 C  
HETATM    2  N   UNL     1      -9.037   9.313  66.671  1.00  0.00    -0.138 N  
HETATM    3  C   UNL     1      -8.287   8.476  67.606  1.00  0.00    -0.129 C  
ENDROOT
BRANCH   2   4
HETATM    4  C   UNL     1     -10.018  10.238  67.089  1.00  0.00    -0.197 C  
HETATM    5  S   UNL     1     -10.827  10.161  68.571  1.00  0.00    -0.231 S  
BRANCH   4   6
HETATM    6  S   UNL     1     -10.328  11.606  65.991  1.00  0.00    -0.252 SA 
BRANCH   6   7
HETATM    7  S   UNL     1      -9.688  13.225  67.104  1.00  0.00    -0.243 SA 
BRANCH   7   8
HETATM    8  C   UNL     1     -11.172  14.196  67.195  1.00  0.00    -0.317 C  
HETATM    9  S   UNL     1     -12.289  14.010  65.943  1.00  0.00    -0.467 S  
BRANCH   8  10
HETATM   10  N   UNL     1     -11.345  15.017  68.326  1.00  0.00    -0.304 N  
HETATM   11  C   UNL     1     -11.742  14.542  69.653  1.00  0.00    -0.307 C  
HETATM   12  C   UNL     1     -11.139  16.469  68.281  1.00  0.00    -0.321 C  
ENDBRANCH   8  10
ENDBRANCH   7   8
ENDBRANCH   6   7
ENDBRANCH   4   6
ENDBRANCH   2   4
TORSDOF 5
ENDMDL
MODEL      223
REMARK 921   NORMALIZED FREE ENERGY PREDICTED BY IDOCK:   -2.42 KCAL/MOL
REMARK 922        TOTAL FREE ENERGY PREDICTED BY IDOCK:   -3.22 KCAL/MOL
REMARK 923 INTER-LIGAND FREE ENERGY PREDICTED BY IDOCK:   -3.09 KCAL/MOL
REMARK 924 INTRA-LIGAND FREE ENERGY PREDICTED BY IDOCK:   -0.13 KCAL/MOL
REMARK 927      BINDING AFFINITY PREDICTED BY RF-SCORE:    0.00 PKD
ROOT
HETATM    1  C   UNL     1     -10.861   6.021  67.941  1.00  0.00    -0.290 C  
HETATM    2  N   UNL     1     -10.442   7.109  68.825  1.00  0.00    -0.199 N  
HETATM    3  C   UNL     1     -11.083   7.155  70.138  1.00  0.00    -0.272 C  
ENDROOT
BRANCH   2   4
HETATM    4  C   UNL     1      -9.517   8.081  68.390  1.00  0.00    -0.145 C  
HETATM    5  S   UNL     1      -7.861   8.037  68.729  1.00  0.00    -0.116 S  
BRANCH   4   6
HETATM    6  S   UNL     1     -10.163   9.373  67.348  1.00  0.00    -0.256 SA 
BRANCH   6   7
HETATM    7  S   UNL     1      -9.603  11.086  68.359  1.00  0.00    -0.187 SA 
BRANCH   7   8
HETATM    8  C   UNL     1     -11.047  12.099  68.159  1.00  0.00    -0.248 C  
HETATM    9  S   UNL     1     -11.543  12.425  66.578  1.00  0.00    -0.375 S  
BRANCH   8  10
HETATM   10  N   UNL     1     -11.713  12.522  69.325  1.00  0.00    -0.309 N  
HETATM   11  C   UNL     1     -11.989  13.918  69.673  1.00  0.00    -0.342 C  
HETATM   12  C   UNL     1     -12.207  11.578  70.334  1.00  0.00    -0.355 C  
ENDBRANCH   8  10
ENDBRANCH   7   8
ENDBRANCH   6   7
ENDBRANCH   4   6
ENDBRANCH   2   4
TORSDOF 5
ENDMDL
MODEL      224
REMARK 921   NORMALIZED FREE ENERGY PREDICTED BY IDOCK:   -2.42 KCAL/MOL
REMARK 922        TOTAL FREE ENERGY PREDICTED BY IDOCK:   -3.21 KCAL/MOL
REMARK 923 INTER-LIGAND FREE ENERGY PREDICTED BY IDOCK:   -3.23 KCAL/MOL
REMARK 924 INTRA-LIGAND FREE ENERGY PREDICTED BY IDOCK:    0.02 KCAL/MOL
REMARK 927      BINDING AFFINITY PREDICTED BY RF-SCORE:    0.00 PKD
ROOT
HETATM    1  C   UNL     1      -7.912  11.329  68.693  1.00  0.00    -0.145 C  
HETATM    2  N   UNL     1      -9.149  11.870  68.129  1.00  0.00    -0.185 N  
HETATM    3  C   UNL     1      -9.005  12.685  66.924  1.00  0.00    -0.213 C  
ENDROOT
BRANCH   2   4
HETATM    4  C   UNL     1     -10.391  11.655  68.764  1.00  0.00    -0.195 C  
HETATM    5  S   UNL     1     -10.755  10.300  69.706  1.00  0.00    -0.295 S  
BRANCH   4   6
HETATM    6  S   UNL     1     -11.591  12.961  68.607  1.00  0.00    -0.337 SA 
BRANCH   6   7
HETATM    7  S   UNL     1     -12.047  13.388  70.577  1.00  0.00    -0.263 SA 
BRANCH   7   8
HETATM    8  C   UNL     1     -11.529  15.082  70.698  1.00  0.00    -0.293 C  
HETATM    9  S   UNL     1     -12.086  15.963  72.026  1.00  0.00    -0.545 S  
BRANCH   8  10
HETATM   10  N   UNL     1     -10.650  15.566  69.710  1.00  0.00    -0.274 N  
HETATM   11  C   UNL     1      -9.217  15.270  69.646  1.00  0.00    -0.134 C  
HETATM   12  C   UNL     1     -11.098  16.439  68.619  1.00  0.00    -0.352 C  
ENDBRANCH   8  10
ENDBRANCH   7   8
ENDBRANCH   6   7
ENDBRANCH   4   6
ENDBRANCH   2   4
TORSDOF 5
ENDMDL
MODEL      225
REMARK 921   NORMALIZED FREE ENERGY PREDICTED BY IDOCK:   -2.42 KCAL/MOL
REMARK 922        TOTAL FREE ENERGY PREDICTED BY IDOCK:   -3.21 KCAL/MOL
REMARK 923 INTER-LIGAND FREE ENERGY PREDICTED BY IDOCK:   -3.04 KCAL/MOL
REMARK 924 INTRA-LIGAND FREE ENERGY PREDICTED BY IDOCK:   -0.18 KCAL/MOL
REMARK 927      BINDING AFFINITY PREDICTED BY RF-SCORE:    0.00 PKD
ROOT
HETATM    1  C   UNL     1      -7.740   8.360  62.977  1.00  0.00    -0.132 C  
HETATM    2  N   UNL     1      -8.650   9.312  63.615  1.00  0.00    -0.207 N  
HETATM    3  C   UNL     1      -9.360  10.223  62.718  1.00  0.00    -0.314 C  
ENDROOT
BRANCH   2   4
HETATM    4  C   UNL     1      -8.772   9.370  65.019  1.00  0.00    -0.186 C  
HETATM    5  S   UNL     1      -7.665   8.688  66.099  1.00  0.00    -0.099 S  
BRANCH   4   6
HETATM    6  S   UNL     1     -10.149  10.306  65.651  1.00  0.00    -0.243 SA 
BRANCH   6   7
HETATM    7  S   UNL     1      -9.219  11.934  66.522  1.00  0.00    -0.214 SA 
BRANCH   7   8
HETATM    8  C   UNL     1     -10.441  13.202  66.288  1.00  0.00    -0.285 C  
HETATM    9  S   UNL     1     -10.661  13.775  64.715  1.00  0.00    -0.424 S  
BRANCH   8  10
HETATM   10  N   UNL     1     -11.180  13.610  67.415  1.00  0.00    -0.292 N  
HETATM   11  C   UNL     1     -11.670  12.713  68.464  1.00  0.00    -0.330 C  
HETATM   12  C   UNL     1     -11.542  15.011  67.652  1.00  0.00    -0.312 C  
ENDBRANCH   8  10
ENDBRANCH   7   8
ENDBRANCH   6   7
ENDBRANCH   4   6
ENDBRANCH   2   4
TORSDOF 5
ENDMDL
MODEL      226
REMARK 921   NORMALIZED FREE ENERGY PREDICTED BY IDOCK:   -2.42 KCAL/MOL
REMARK 922        TOTAL FREE ENERGY PREDICTED BY IDOCK:   -3.21 KCAL/MOL
REMARK 923 INTER-LIGAND FREE ENERGY PREDICTED BY IDOCK:   -2.95 KCAL/MOL
REMARK 924 INTRA-LIGAND FREE ENERGY PREDICTED BY IDOCK:   -0.27 KCAL/MOL
REMARK 927      BINDING AFFINITY PREDICTED BY RF-SCORE:    0.00 PKD
ROOT
HETATM    1  C   UNL     1      -7.820  11.325  68.918  1.00  0.00    -0.114 C  
HETATM    2  N   UNL     1      -8.793  10.261  68.669  1.00  0.00    -0.130 N  
HETATM    3  C   UNL     1      -9.173   9.453  69.827  1.00  0.00    -0.196 C  
ENDROOT
BRANCH   2   4
HETATM    4  C   UNL     1      -9.276  10.010  67.368  1.00  0.00    -0.137 C  
HETATM    5  S   UNL     1     -10.072   8.592  66.907  1.00  0.00    -0.310 S  
BRANCH   4   6
HETATM    6  S   UNL     1      -9.093  11.334  66.191  1.00  0.00    -0.206 SA 
BRANCH   6   7
HETATM    7  S   UNL     1     -10.994  11.493  65.397  1.00  0.00    -0.178 SA 
BRANCH   7   8
HETATM    8  C   UNL     1     -11.622  12.906  66.270  1.00  0.00    -0.372 C  
HETATM    9  S   UNL     1     -12.620  13.960  65.407  1.00  0.00    -0.470 S  
BRANCH   8  10
HETATM   10  N   UNL     1     -11.290  13.030  67.632  1.00  0.00    -0.283 N  
HETATM   11  C   UNL     1     -10.355  14.016  68.180  1.00  0.00    -0.241 C  
HETATM   12  C   UNL     1     -11.864  12.159  68.663  1.00  0.00    -0.306 C  
ENDBRANCH   8  10
ENDBRANCH   7   8
ENDBRANCH   6   7
ENDBRANCH   4   6
ENDBRANCH   2   4
TORSDOF 5
ENDMDL
MODEL      227
REMARK 921   NORMALIZED FREE ENERGY PREDICTED BY IDOCK:   -2.41 KCAL/MOL
REMARK 922        TOTAL FREE ENERGY PREDICTED BY IDOCK:   -3.21 KCAL/MOL
REMARK 923 INTER-LIGAND FREE ENERGY PREDICTED BY IDOCK:   -3.05 KCAL/MOL
REMARK 924 INTRA-LIGAND FREE ENERGY PREDICTED BY IDOCK:   -0.16 KCAL/MOL
REMARK 927      BINDING AFFINITY PREDICTED BY RF-SCORE:    0.00 PKD
ROOT
HETATM    1  C   UNL     1      -7.960   3.857  71.452  1.00  0.00    -0.068 C  
HETATM    2  N   UNL     1      -9.350   3.537  71.780  1.00  0.00    -0.120 N  
HETATM    3  C   UNL     1      -9.769   2.159  71.527  1.00  0.00    -0.150 C  
ENDROOT
BRANCH   2   4
HETATM    4  C   UNL     1     -10.231   4.531  72.254  1.00  0.00    -0.192 C  
HETATM    5  S   UNL     1     -11.153   4.390  73.664  1.00  0.00    -0.243 S  
BRANCH   4   6
HETATM    6  S   UNL     1     -10.279   6.049  71.325  1.00  0.00    -0.212 SA 
BRANCH   6   7
HETATM    7  S   UNL     1     -11.037   7.392  72.701  1.00  0.00    -0.348 SA 
BRANCH   7   8
HETATM    8  C   UNL     1     -12.284   8.213  71.739  1.00  0.00    -0.319 C  
HETATM    9  S   UNL     1     -13.753   7.406  71.537  1.00  0.00    -0.300 S  
BRANCH   8  10
HETATM   10  N   UNL     1     -11.987   9.500  71.250  1.00  0.00    -0.338 N  
HETATM   11  C   UNL     1     -12.908  10.639  71.278  1.00  0.00    -0.434 C  
HETATM   12  C   UNL     1     -10.691   9.833  70.649  1.00  0.00    -0.326 C  
ENDBRANCH   8  10
ENDBRANCH   7   8
ENDBRANCH   6   7
ENDBRANCH   4   6
ENDBRANCH   2   4
TORSDOF 5
ENDMDL
MODEL      228
REMARK 921   NORMALIZED FREE ENERGY PREDICTED BY IDOCK:   -2.41 KCAL/MOL
REMARK 922        TOTAL FREE ENERGY PREDICTED BY IDOCK:   -3.20 KCAL/MOL
REMARK 923 INTER-LIGAND FREE ENERGY PREDICTED BY IDOCK:   -3.04 KCAL/MOL
REMARK 924 INTRA-LIGAND FREE ENERGY PREDICTED BY IDOCK:   -0.17 KCAL/MOL
REMARK 927      BINDING AFFINITY PREDICTED BY RF-SCORE:    0.00 PKD
ROOT
HETATM    1  C   UNL     1      -9.603   9.740  66.218  1.00  0.00    -0.213 C  
HETATM    2  N   UNL     1      -9.470  10.799  67.220  1.00  0.00    -0.158 N  
HETATM    3  C   UNL     1      -8.607  10.500  68.361  1.00  0.00    -0.132 C  
ENDROOT
BRANCH   2   4
HETATM    4  C   UNL     1     -10.191  12.006  67.100  1.00  0.00    -0.202 C  
HETATM    5  S   UNL     1     -11.747  12.124  66.452  1.00  0.00    -0.238 S  
BRANCH   4   6
HETATM    6  S   UNL     1      -9.408  13.459  67.768  1.00  0.00    -0.221 SA 
BRANCH   6   7
HETATM    7  S   UNL     1     -10.982  14.791  67.907  1.00  0.00    -0.288 SA 
BRANCH   7   8
HETATM    8  C   UNL     1     -10.546  15.979  66.660  1.00  0.00    -0.297 C  
HETATM    9  S   UNL     1     -10.962  15.606  65.067  1.00  0.00    -0.395 S  
BRANCH   8  10
HETATM   10  N   UNL     1      -9.931  17.172  67.084  1.00  0.00    -0.275 N  
HETATM   11  C   UNL     1      -8.697  17.724  66.521  1.00  0.00    -0.257 C  
HETATM   12  C   UNL     1     -10.482  18.001  68.161  1.00  0.00    -0.361 C  
ENDBRANCH   8  10
ENDBRANCH   7   8
ENDBRANCH   6   7
ENDBRANCH   4   6
ENDBRANCH   2   4
TORSDOF 5
ENDMDL
MODEL      229
REMARK 921   NORMALIZED FREE ENERGY PREDICTED BY IDOCK:   -2.41 KCAL/MOL
REMARK 922        TOTAL FREE ENERGY PREDICTED BY IDOCK:   -3.20 KCAL/MOL
REMARK 923 INTER-LIGAND FREE ENERGY PREDICTED BY IDOCK:   -3.53 KCAL/MOL
REMARK 924 INTRA-LIGAND FREE ENERGY PREDICTED BY IDOCK:    0.32 KCAL/MOL
REMARK 927      BINDING AFFINITY PREDICTED BY RF-SCORE:    0.00 PKD
ROOT
HETATM    1  C   UNL     1      -8.303  16.449  66.224  1.00  0.00    -0.327 C  
HETATM    2  N   UNL     1      -9.724  16.734  66.426  1.00  0.00    -0.275 N  
HETATM    3  C   UNL     1     -10.626  16.296  65.362  1.00  0.00    -0.352 C  
ENDROOT
BRANCH   2   4
HETATM    4  C   UNL     1     -10.168  17.446  67.561  1.00  0.00    -0.332 C  
HETATM    5  S   UNL     1     -10.766  19.026  67.518  1.00  0.00    -0.392 S  
BRANCH   4   6
HETATM    6  S   UNL     1     -10.162  16.553  69.102  1.00  0.00    -0.302 SA 
BRANCH   6   7
HETATM    7  S   UNL     1      -9.387  14.718  68.552  1.00  0.00    -0.202 SA 
BRANCH   7   8
HETATM    8  C   UNL     1     -10.831  13.687  68.642  1.00  0.00    -0.263 C  
HETATM    9  S   UNL     1     -12.046  14.161  69.713  1.00  0.00    -0.359 S  
BRANCH   8  10
HETATM   10  N   UNL     1     -10.890  12.573  67.782  1.00  0.00    -0.218 N  
HETATM   11  C   UNL     1     -11.066  11.187  68.219  1.00  0.00    -0.251 C  
HETATM   12  C   UNL     1     -10.778  12.699  66.325  1.00  0.00    -0.256 C  
ENDBRANCH   8  10
ENDBRANCH   7   8
ENDBRANCH   6   7
ENDBRANCH   4   6
ENDBRANCH   2   4
TORSDOF 5
ENDMDL
MODEL      230
REMARK 921   NORMALIZED FREE ENERGY PREDICTED BY IDOCK:   -2.41 KCAL/MOL
REMARK 922        TOTAL FREE ENERGY PREDICTED BY IDOCK:   -3.20 KCAL/MOL
REMARK 923 INTER-LIGAND FREE ENERGY PREDICTED BY IDOCK:   -2.93 KCAL/MOL
REMARK 924 INTRA-LIGAND FREE ENERGY PREDICTED BY IDOCK:   -0.27 KCAL/MOL
REMARK 927      BINDING AFFINITY PREDICTED BY RF-SCORE:    0.00 PKD
ROOT
HETATM    1  C   UNL     1     -10.750   7.675  72.966  1.00  0.00    -0.391 C  
HETATM    2  N   UNL     1     -11.754   8.022  71.960  1.00  0.00    -0.303 N  
HETATM    3  C   UNL     1     -12.690   6.961  71.592  1.00  0.00    -0.352 C  
ENDROOT
BRANCH   2   4
HETATM    4  C   UNL     1     -11.760   9.294  71.350  1.00  0.00    -0.361 C  
HETATM    5  S   UNL     1     -12.984  10.442  71.556  1.00  0.00    -0.473 S  
BRANCH   4   6
HETATM    6  S   UNL     1     -10.326   9.709  70.380  1.00  0.00    -0.300 SA 
BRANCH   6   7
HETATM    7  S   UNL     1     -10.449   8.374  68.807  1.00  0.00    -0.134 SA 
BRANCH   7   8
HETATM    8  C   UNL     1      -8.834   7.635  68.847  1.00  0.00    -0.135 C  
HETATM    9  S   UNL     1      -7.512   8.673  68.694  1.00  0.00    -0.097 S  
BRANCH   8  10
HETATM   10  N   UNL     1      -8.759   6.245  69.053  1.00  0.00    -0.125 N  
HETATM   11  C   UNL     1      -8.033   5.308  68.193  1.00  0.00    -0.091 C  
HETATM   12  C   UNL     1      -9.421   5.581  70.182  1.00  0.00    -0.163 C  
ENDBRANCH   8  10
ENDBRANCH   7   8
ENDBRANCH   6   7
ENDBRANCH   4   6
ENDBRANCH   2   4
TORSDOF 5
ENDMDL
MODEL      231
REMARK 921   NORMALIZED FREE ENERGY PREDICTED BY IDOCK:   -2.39 KCAL/MOL
REMARK 922        TOTAL FREE ENERGY PREDICTED BY IDOCK:   -3.18 KCAL/MOL
REMARK 923 INTER-LIGAND FREE ENERGY PREDICTED BY IDOCK:   -2.83 KCAL/MOL
REMARK 924 INTRA-LIGAND FREE ENERGY PREDICTED BY IDOCK:   -0.35 KCAL/MOL
REMARK 927      BINDING AFFINITY PREDICTED BY RF-SCORE:    0.00 PKD
ROOT
HETATM    1  C   UNL     1     -11.356   6.244  70.535  1.00  0.00    -0.361 C  
HETATM    2  N   UNL     1     -10.304   5.534  69.808  1.00  0.00    -0.270 N  
HETATM    3  C   UNL     1      -9.883   4.253  70.373  1.00  0.00    -0.198 C  
ENDROOT
BRANCH   2   4
HETATM    4  C   UNL     1      -9.702   6.101  68.665  1.00  0.00    -0.128 C  
HETATM    5  S   UNL     1      -8.141   5.732  68.130  1.00  0.00    -0.104 S  
BRANCH   4   6
HETATM    6  S   UNL     1     -10.719   7.203  67.705  1.00  0.00    -0.228 SA 
BRANCH   6   7
HETATM    7  S   UNL     1      -9.643   8.967  67.761  1.00  0.00    -0.155 SA 
BRANCH   7   8
HETATM    8  C   UNL     1      -9.919   9.492  69.435  1.00  0.00    -0.191 C  
HETATM    9  S   UNL     1      -8.686   9.192  70.547  1.00  0.00    -0.236 S  
BRANCH   8  10
HETATM   10  N   UNL     1     -11.122  10.168  69.716  1.00  0.00    -0.262 N  
HETATM   11  C   UNL     1     -11.734  11.182  68.854  1.00  0.00    -0.337 C  
HETATM   12  C   UNL     1     -11.901   9.914  70.933  1.00  0.00    -0.356 C  
ENDBRANCH   8  10
ENDBRANCH   7   8
ENDBRANCH   6   7
ENDBRANCH   4   6
ENDBRANCH   2   4
TORSDOF 5
ENDMDL
MODEL      232
REMARK 921   NORMALIZED FREE ENERGY PREDICTED BY IDOCK:   -2.38 KCAL/MOL
REMARK 922        TOTAL FREE ENERGY PREDICTED BY IDOCK:   -3.17 KCAL/MOL
REMARK 923 INTER-LIGAND FREE ENERGY PREDICTED BY IDOCK:   -2.99 KCAL/MOL
REMARK 924 INTRA-LIGAND FREE ENERGY PREDICTED BY IDOCK:   -0.18 KCAL/MOL
REMARK 927      BINDING AFFINITY PREDICTED BY RF-SCORE:    0.00 PKD
ROOT
HETATM    1  C   UNL     1     -10.557  12.540  66.695  1.00  0.00    -0.237 C  
HETATM    2  N   UNL     1     -11.108  13.721  67.359  1.00  0.00    -0.290 N  
HETATM    3  C   UNL     1     -11.617  14.775  66.483  1.00  0.00    -0.301 C  
ENDROOT
BRANCH   2   4
HETATM    4  C   UNL     1     -11.085  13.840  68.765  1.00  0.00    -0.266 C  
HETATM    5  S   UNL     1     -12.134  13.021  69.807  1.00  0.00    -0.207 S  
BRANCH   4   6
HETATM    6  S   UNL     1      -9.794  14.860  69.447  1.00  0.00    -0.058 SA 
BRANCH   6   7
HETATM    7  S   UNL     1     -10.727  16.694  69.636  1.00  0.00    -0.198 SA 
BRANCH   7   8
HETATM    8  C   UNL     1      -9.679  17.725  68.639  1.00  0.00    -0.346 C  
HETATM    9  S   UNL     1      -8.235  17.046  68.087  1.00  0.00    -0.225 S  
BRANCH   8  10
HETATM   10  N   UNL     1     -10.140  19.020  68.333  1.00  0.00    -0.389 N  
HETATM   11  C   UNL     1     -10.198  20.134  69.282  1.00  0.00     0.006 C  
HETATM   12  C   UNL     1     -10.620  19.387  66.997  1.00  0.00    -0.478 C  
ENDBRANCH   8  10
ENDBRANCH   7   8
ENDBRANCH   6   7
ENDBRANCH   4   6
ENDBRANCH   2   4
TORSDOF 5
ENDMDL
MODEL      233
REMARK 921   NORMALIZED FREE ENERGY PREDICTED BY IDOCK:   -2.37 KCAL/MOL
REMARK 922        TOTAL FREE ENERGY PREDICTED BY IDOCK:   -3.15 KCAL/MOL
REMARK 923 INTER-LIGAND FREE ENERGY PREDICTED BY IDOCK:   -2.97 KCAL/MOL
REMARK 924 INTRA-LIGAND FREE ENERGY PREDICTED BY IDOCK:   -0.19 KCAL/MOL
REMARK 927      BINDING AFFINITY PREDICTED BY RF-SCORE:    0.00 PKD
ROOT
HETATM    1  C   UNL     1     -12.137  10.534  71.016  1.00  0.00    -0.387 C  
HETATM    2  N   UNL     1     -12.484   9.186  71.469  1.00  0.00    -0.329 N  
HETATM    3  C   UNL     1     -13.832   9.017  72.011  1.00  0.00    -0.444 C  
ENDROOT
BRANCH   2   4
HETATM    4  C   UNL     1     -11.537   8.141  71.431  1.00  0.00    -0.278 C  
HETATM    5  S   UNL     1     -11.752   6.693  70.586  1.00  0.00    -0.366 S  
BRANCH   4   6
HETATM    6  S   UNL     1      -9.995   8.446  72.269  1.00  0.00    -0.314 SA 
BRANCH   6   7
HETATM    7  S   UNL     1      -9.940   6.928  73.670  1.00  0.00    -0.322 SA 
BRANCH   7   8
HETATM    8  C   UNL     1      -8.398   6.142  73.275  1.00  0.00    -0.117 C  
HETATM    9  S   UNL     1      -8.399   5.059  71.980  1.00  0.00    -0.125 S  
BRANCH   8  10
HETATM   10  N   UNL     1      -7.268   6.507  74.031  1.00  0.00    -0.085 N  
HETATM   11  C   UNL     1      -6.953   7.872  74.459  1.00  0.00    -0.133 C  
HETATM   12  C   UNL     1      -6.268   5.529  74.473  1.00  0.00    -0.068 C  
ENDBRANCH   8  10
ENDBRANCH   7   8
ENDBRANCH   6   7
ENDBRANCH   4   6
ENDBRANCH   2   4
TORSDOF 5
ENDMDL
MODEL      234
REMARK 921   NORMALIZED FREE ENERGY PREDICTED BY IDOCK:   -2.36 KCAL/MOL
REMARK 922        TOTAL FREE ENERGY PREDICTED BY IDOCK:   -3.14 KCAL/MOL
REMARK 923 INTER-LIGAND FREE ENERGY PREDICTED BY IDOCK:   -2.96 KCAL/MOL
REMARK 924 INTRA-LIGAND FREE ENERGY PREDICTED BY IDOCK:   -0.18 KCAL/MOL
REMARK 927      BINDING AFFINITY PREDICTED BY RF-SCORE:    0.00 PKD
ROOT
HETATM    1  C   UNL     1     -14.176   7.675  71.667  1.00  0.00    -0.454 C  
HETATM    2  N   UNL     1     -13.088   8.641  71.508  1.00  0.00    -0.323 N  
HETATM    3  C   UNL     1     -13.362  10.001  71.970  1.00  0.00    -0.409 C  
ENDROOT
BRANCH   2   4
HETATM    4  C   UNL     1     -11.876   8.273  70.887  1.00  0.00    -0.216 C  
HETATM    5  S   UNL     1     -11.468   6.689  70.459  1.00  0.00    -0.394 S  
BRANCH   4   6
HETATM    6  S   UNL     1     -10.772   9.606  70.465  1.00  0.00    -0.333 SA 
BRANCH   6   7
HETATM    7  S   UNL     1      -9.045   8.604  69.930  1.00  0.00    -0.154 SA 
BRANCH   7   8
HETATM    8  C   UNL     1      -9.038   8.834  68.169  1.00  0.00    -0.140 C  
HETATM    9  S   UNL     1     -10.441   9.464  67.472  1.00  0.00    -0.274 S  
BRANCH   8  10
HETATM   10  N   UNL     1      -7.851   8.526  67.477  1.00  0.00    -0.098 N  
HETATM   11  C   UNL     1      -7.349   9.255  66.311  1.00  0.00    -0.092 C  
HETATM   12  C   UNL     1      -6.980   7.412  67.868  1.00  0.00    -0.072 C  
ENDBRANCH   8  10
ENDBRANCH   7   8
ENDBRANCH   6   7
ENDBRANCH   4   6
ENDBRANCH   2   4
TORSDOF 5
ENDMDL
MODEL      235
REMARK 921   NORMALIZED FREE ENERGY PREDICTED BY IDOCK:   -2.36 KCAL/MOL
REMARK 922        TOTAL FREE ENERGY PREDICTED BY IDOCK:   -3.14 KCAL/MOL
REMARK 923 INTER-LIGAND FREE ENERGY PREDICTED BY IDOCK:   -2.96 KCAL/MOL
REMARK 924 INTRA-LIGAND FREE ENERGY PREDICTED BY IDOCK:   -0.18 KCAL/MOL
REMARK 927      BINDING AFFINITY PREDICTED BY RF-SCORE:    0.00 PKD
ROOT
HETATM    1  C   UNL     1     -10.672   7.505  67.080  1.00  0.00    -0.297 C  
HETATM    2  N   UNL     1     -10.271   8.386  68.176  1.00  0.00    -0.201 N  
HETATM    3  C   UNL     1     -10.427   7.847  69.526  1.00  0.00    -0.226 C  
ENDROOT
BRANCH   2   4
HETATM    4  C   UNL     1      -9.820   9.699  67.924  1.00  0.00    -0.154 C  
HETATM    5  S   UNL     1      -8.242  10.234  68.211  1.00  0.00    -0.119 S  
BRANCH   4   6
HETATM    6  S   UNL     1     -10.997  10.805  67.175  1.00  0.00    -0.214 SA 
BRANCH   6   7
HETATM    7  S   UNL     1      -9.786  12.076  66.085  1.00  0.00    -0.239 SA 
BRANCH   7   8
HETATM    8  C   UNL     1     -10.166  11.583  64.422  1.00  0.00    -0.300 C  
HETATM    9  S   UNL     1     -11.524  12.285  63.705  1.00  0.00    -0.509 S  
BRANCH   8  10
HETATM   10  N   UNL     1      -9.288  10.680  63.793  1.00  0.00    -0.246 N  
HETATM   11  C   UNL     1      -9.078  10.586  62.347  1.00  0.00    -0.281 C  
HETATM   12  C   UNL     1      -8.477   9.719  64.547  1.00  0.00    -0.176 C  
ENDBRANCH   8  10
ENDBRANCH   7   8
ENDBRANCH   6   7
ENDBRANCH   4   6
ENDBRANCH   2   4
TORSDOF 5
ENDMDL
MODEL      236
REMARK 921   NORMALIZED FREE ENERGY PREDICTED BY IDOCK:   -2.36 KCAL/MOL
REMARK 922        TOTAL FREE ENERGY PREDICTED BY IDOCK:   -3.14 KCAL/MOL
REMARK 923 INTER-LIGAND FREE ENERGY PREDICTED BY IDOCK:   -3.23 KCAL/MOL
REMARK 924 INTRA-LIGAND FREE ENERGY PREDICTED BY IDOCK:    0.09 KCAL/MOL
REMARK 927      BINDING AFFINITY PREDICTED BY RF-SCORE:    0.00 PKD
ROOT
HETATM    1  C   UNL     1     -10.352  12.882  66.326  1.00  0.00    -0.268 C  
HETATM    2  N   UNL     1     -10.522  11.673  67.132  1.00  0.00    -0.213 N  
HETATM    3  C   UNL     1     -10.247  10.405  66.456  1.00  0.00    -0.229 C  
ENDROOT
BRANCH   2   4
HETATM    4  C   UNL     1     -10.984  11.746  68.463  1.00  0.00    -0.227 C  
HETATM    5  S   UNL     1     -11.853  13.049  69.097  1.00  0.00    -0.289 S  
BRANCH   4   6
HETATM    6  S   UNL     1     -10.686  10.313  69.479  1.00  0.00    -0.265 SA 
BRANCH   6   7
HETATM    7  S   UNL     1     -12.254  10.385  70.823  1.00  0.00    -0.392 SA 
BRANCH   7   8
HETATM    8  C   UNL     1     -12.508   8.660  71.158  1.00  0.00    -0.182 C  
HETATM    9  S   UNL     1     -14.057   8.191  71.640  1.00  0.00    -0.416 S  
BRANCH   8  10
HETATM   10  N   UNL     1     -11.421   7.789  70.951  1.00  0.00    -0.279 N  
HETATM   11  C   UNL     1     -11.259   6.913  69.789  1.00  0.00    -0.267 C  
HETATM   12  C   UNL     1     -10.315   7.673  71.908  1.00  0.00    -0.199 C  
ENDBRANCH   8  10
ENDBRANCH   7   8
ENDBRANCH   6   7
ENDBRANCH   4   6
ENDBRANCH   2   4
TORSDOF 5
ENDMDL
MODEL      237
REMARK 921   NORMALIZED FREE ENERGY PREDICTED BY IDOCK:   -2.35 KCAL/MOL
REMARK 922        TOTAL FREE ENERGY PREDICTED BY IDOCK:   -3.12 KCAL/MOL
REMARK 923 INTER-LIGAND FREE ENERGY PREDICTED BY IDOCK:   -2.92 KCAL/MOL
REMARK 924 INTRA-LIGAND FREE ENERGY PREDICTED BY IDOCK:   -0.20 KCAL/MOL
REMARK 927      BINDING AFFINITY PREDICTED BY RF-SCORE:    0.00 PKD
ROOT
HETATM    1  C   UNL     1     -10.731  16.008  69.602  1.00  0.00    -0.316 C  
HETATM    2  N   UNL     1      -9.676  15.294  68.884  1.00  0.00    -0.210 N  
HETATM    3  C   UNL     1      -8.304  15.587  69.297  1.00  0.00    -0.257 C  
ENDROOT
BRANCH   2   4
HETATM    4  C   UNL     1      -9.985  14.423  67.817  1.00  0.00    -0.226 C  
HETATM    5  S   UNL     1     -10.244  14.926  66.224  1.00  0.00    -0.311 S  
BRANCH   4   6
HETATM    6  S   UNL     1     -10.005  12.684  68.201  1.00  0.00    -0.226 SA 
BRANCH   6   7
HETATM    7  S   UNL     1      -8.666  11.908  66.832  1.00  0.00    -0.193 SA 
BRANCH   7   8
HETATM    8  C   UNL     1      -9.688  10.742  65.965  1.00  0.00    -0.217 C  
HETATM    9  S   UNL     1     -10.658  11.346  64.723  1.00  0.00    -0.310 S  
BRANCH   8  10
HETATM   10  N   UNL     1      -9.586   9.387  66.335  1.00  0.00    -0.204 N  
HETATM   11  C   UNL     1      -8.689   8.414  65.710  1.00  0.00    -0.169 C  
HETATM   12  C   UNL     1     -10.394   8.804  67.411  1.00  0.00    -0.280 C  
ENDBRANCH   8  10
ENDBRANCH   7   8
ENDBRANCH   6   7
ENDBRANCH   4   6
ENDBRANCH   2   4
TORSDOF 5
ENDMDL
MODEL      238
REMARK 921   NORMALIZED FREE ENERGY PREDICTED BY IDOCK:   -2.34 KCAL/MOL
REMARK 922        TOTAL FREE ENERGY PREDICTED BY IDOCK:   -3.12 KCAL/MOL
REMARK 923 INTER-LIGAND FREE ENERGY PREDICTED BY IDOCK:   -2.93 KCAL/MOL
REMARK 924 INTRA-LIGAND FREE ENERGY PREDICTED BY IDOCK:   -0.19 KCAL/MOL
REMARK 927      BINDING AFFINITY PREDICTED BY RF-SCORE:    0.00 PKD
ROOT
HETATM    1  C   UNL     1      -6.739   7.698  72.502  1.00  0.00    -0.063 C  
HETATM    2  N   UNL     1      -8.154   7.689  72.873  1.00  0.00    -0.106 N  
HETATM    3  C   UNL     1      -8.444   7.631  74.305  1.00  0.00    -0.235 C  
ENDROOT
BRANCH   2   4
HETATM    4  C   UNL     1      -9.163   7.677  71.886  1.00  0.00    -0.134 C  
HETATM    5  S   UNL     1     -10.235   6.394  71.639  1.00  0.00    -0.197 S  
BRANCH   4   6
HETATM    6  S   UNL     1      -9.338   9.164  70.922  1.00  0.00    -0.256 SA 
BRANCH   6   7
HETATM    7  S   UNL     1     -11.147   8.866  69.967  1.00  0.00    -0.111 SA 
BRANCH   7   8
HETATM    8  C   UNL     1     -12.256   9.752  71.034  1.00  0.00    -0.347 C  
HETATM    9  S   UNL     1     -13.017   8.868  72.254  1.00  0.00    -0.407 S  
BRANCH   8  10
HETATM   10  N   UNL     1     -12.391  11.138  70.827  1.00  0.00    -0.382 N  
HETATM   11  C   UNL     1     -11.864  11.868  69.672  1.00  0.00    -0.337 C  
HETATM   12  C   UNL     1     -13.091  12.010  71.776  1.00  0.00    -0.355 C  
ENDBRANCH   8  10
ENDBRANCH   7   8
ENDBRANCH   6   7
ENDBRANCH   4   6
ENDBRANCH   2   4
TORSDOF 5
ENDMDL
MODEL      239
REMARK 921   NORMALIZED FREE ENERGY PREDICTED BY IDOCK:   -2.34 KCAL/MOL
REMARK 922        TOTAL FREE ENERGY PREDICTED BY IDOCK:   -3.11 KCAL/MOL
REMARK 923 INTER-LIGAND FREE ENERGY PREDICTED BY IDOCK:   -2.90 KCAL/MOL
REMARK 924 INTRA-LIGAND FREE ENERGY PREDICTED BY IDOCK:   -0.21 KCAL/MOL
REMARK 927      BINDING AFFINITY PREDICTED BY RF-SCORE:    0.00 PKD
ROOT
HETATM    1  C   UNL     1     -12.033  14.019  66.839  1.00  0.00    -0.447 C  
HETATM    2  N   UNL     1     -11.541  12.643  66.900  1.00  0.00    -0.353 N  
HETATM    3  C   UNL     1     -11.736  11.946  68.170  1.00  0.00    -0.320 C  
ENDROOT
BRANCH   2   4
HETATM    4  C   UNL     1     -10.865  12.064  65.805  1.00  0.00    -0.287 C  
HETATM    5  S   UNL     1     -11.379  12.184  64.199  1.00  0.00    -0.413 S  
BRANCH   4   6
HETATM    6  S   UNL     1      -9.332  11.237  66.175  1.00  0.00    -0.216 SA 
BRANCH   6   7
HETATM    7  S   UNL     1      -9.872   9.243  66.109  1.00  0.00    -0.276 SA 
BRANCH   7   8
HETATM    8  C   UNL     1      -9.235   8.656  67.659  1.00  0.00    -0.134 C  
HETATM    9  S   UNL     1     -10.336   8.487  68.928  1.00  0.00    -0.191 S  
BRANCH   8  10
HETATM   10  N   UNL     1      -7.868   8.322  67.717  1.00  0.00    -0.112 N  
HETATM   11  C   UNL     1      -6.901   8.911  68.646  1.00  0.00    -0.063 C  
HETATM   12  C   UNL     1      -7.264   7.326  66.826  1.00  0.00    -0.083 C  
ENDBRANCH   8  10
ENDBRANCH   7   8
ENDBRANCH   6   7
ENDBRANCH   4   6
ENDBRANCH   2   4
TORSDOF 5
ENDMDL
MODEL      240
REMARK 921   NORMALIZED FREE ENERGY PREDICTED BY IDOCK:   -2.33 KCAL/MOL
REMARK 922        TOTAL FREE ENERGY PREDICTED BY IDOCK:   -3.10 KCAL/MOL
REMARK 923 INTER-LIGAND FREE ENERGY PREDICTED BY IDOCK:   -2.96 KCAL/MOL
REMARK 924 INTRA-LIGAND FREE ENERGY PREDICTED BY IDOCK:   -0.14 KCAL/MOL
REMARK 927      BINDING AFFINITY PREDICTED BY RF-SCORE:    0.00 PKD
ROOT
HETATM    1  C   UNL     1     -10.313  11.224  65.467  1.00  0.00    -0.266 C  
HETATM    2  N   UNL     1     -10.074  10.172  66.455  1.00  0.00    -0.231 N  
HETATM    3  C   UNL     1      -9.556   8.907  65.936  1.00  0.00    -0.223 C  
ENDROOT
BRANCH   2   4
HETATM    4  C   UNL     1     -10.390  10.369  67.816  1.00  0.00    -0.206 C  
HETATM    5  S   UNL     1     -11.546  11.468  68.374  1.00  0.00    -0.306 S  
BRANCH   4   6
HETATM    6  S   UNL     1      -9.556   9.308  68.978  1.00  0.00    -0.163 SA 
BRANCH   6   7
HETATM    7  S   UNL     1     -11.044   8.896  70.353  1.00  0.00    -0.220 SA 
BRANCH   7   8
HETATM    8  C   UNL     1     -10.972   7.123  70.425  1.00  0.00    -0.265 C  
HETATM    9  S   UNL     1     -11.082   6.290  68.960  1.00  0.00    -0.327 S  
BRANCH   8  10
HETATM   10  N   UNL     1     -10.780   6.529  71.687  1.00  0.00    -0.225 N  
HETATM   11  C   UNL     1     -11.017   7.194  72.970  1.00  0.00    -0.317 C  
HETATM   12  C   UNL     1     -10.309   5.149  71.842  1.00  0.00    -0.212 C  
ENDBRANCH   8  10
ENDBRANCH   7   8
ENDBRANCH   6   7
ENDBRANCH   4   6
ENDBRANCH   2   4
TORSDOF 5
ENDMDL
MODEL      241
REMARK 921   NORMALIZED FREE ENERGY PREDICTED BY IDOCK:   -2.32 KCAL/MOL
REMARK 922        TOTAL FREE ENERGY PREDICTED BY IDOCK:   -3.09 KCAL/MOL
REMARK 923 INTER-LIGAND FREE ENERGY PREDICTED BY IDOCK:   -2.94 KCAL/MOL
REMARK 924 INTRA-LIGAND FREE ENERGY PREDICTED BY IDOCK:   -0.15 KCAL/MOL
REMARK 927      BINDING AFFINITY PREDICTED BY RF-SCORE:    0.00 PKD
ROOT
HETATM    1  C   UNL     1      -9.995   6.695  67.983  1.00  0.00    -0.142 C  
HETATM    2  N   UNL     1     -10.315   7.594  69.092  1.00  0.00    -0.211 N  
HETATM    3  C   UNL     1     -11.086   7.013  70.190  1.00  0.00    -0.285 C  
ENDROOT
BRANCH   2   4
HETATM    4  C   UNL     1      -9.944   8.955  69.053  1.00  0.00    -0.190 C  
HETATM    5  S   UNL     1      -8.765   9.647  70.048  1.00  0.00    -0.227 S  
BRANCH   4   6
HETATM    6  S   UNL     1     -10.730   9.950  67.803  1.00  0.00    -0.263 SA 
BRANCH   6   7
HETATM    7  S   UNL     1      -9.120  10.654  66.715  1.00  0.00    -0.154 SA 
BRANCH   7   8
HETATM    8  C   UNL     1      -9.909  11.829  65.642  1.00  0.00    -0.237 C  
HETATM    9  S   UNL     1     -10.500  11.249  64.171  1.00  0.00    -0.392 S  
BRANCH   8  10
HETATM   10  N   UNL     1     -10.035  13.152  66.107  1.00  0.00    -0.287 N  
HETATM   11  C   UNL     1     -11.013  14.124  65.612  1.00  0.00    -0.308 C  
HETATM   12  C   UNL     1      -9.174  13.701  67.160  1.00  0.00    -0.244 C  
ENDBRANCH   8  10
ENDBRANCH   7   8
ENDBRANCH   6   7
ENDBRANCH   4   6
ENDBRANCH   2   4
TORSDOF 5
ENDMDL
MODEL      242
REMARK 921   NORMALIZED FREE ENERGY PREDICTED BY IDOCK:   -2.32 KCAL/MOL
REMARK 922        TOTAL FREE ENERGY PREDICTED BY IDOCK:   -3.09 KCAL/MOL
REMARK 923 INTER-LIGAND FREE ENERGY PREDICTED BY IDOCK:   -2.93 KCAL/MOL
REMARK 924 INTRA-LIGAND FREE ENERGY PREDICTED BY IDOCK:   -0.16 KCAL/MOL
REMARK 927      BINDING AFFINITY PREDICTED BY RF-SCORE:    0.00 PKD
ROOT
HETATM    1  C   UNL     1      -8.840  11.663  67.503  1.00  0.00    -0.158 C  
HETATM    2  N   UNL     1      -8.019  10.496  67.830  1.00  0.00    -0.105 N  
HETATM    3  C   UNL     1      -6.669  10.482  67.270  1.00  0.00    -0.077 C  
ENDROOT
BRANCH   2   4
HETATM    4  C   UNL     1      -8.543   9.431  68.592  1.00  0.00    -0.123 C  
HETATM    5  S   UNL     1      -7.602   8.345  69.482  1.00  0.00    -0.092 S  
BRANCH   4   6
HETATM    6  S   UNL     1     -10.319   9.313  68.663  1.00  0.00    -0.204 SA 
BRANCH   6   7
HETATM    7  S   UNL     1     -10.690   9.378  70.695  1.00  0.00    -0.316 SA 
BRANCH   7   8
HETATM    8  C   UNL     1     -11.886   8.077  70.875  1.00  0.00    -0.224 C  
HETATM    9  S   UNL     1     -11.425   6.535  70.366  1.00  0.00    -0.401 S  
BRANCH   8  10
HETATM   10  N   UNL     1     -13.118   8.404  71.473  1.00  0.00    -0.319 N  
HETATM   11  C   UNL     1     -14.239   7.477  71.640  1.00  0.00    -0.458 C  
HETATM   12  C   UNL     1     -13.405   9.741  72.002  1.00  0.00    -0.451 C  
ENDBRANCH   8  10
ENDBRANCH   7   8
ENDBRANCH   6   7
ENDBRANCH   4   6
ENDBRANCH   2   4
TORSDOF 5
ENDMDL
MODEL      243
REMARK 921   NORMALIZED FREE ENERGY PREDICTED BY IDOCK:   -2.31 KCAL/MOL
REMARK 922        TOTAL FREE ENERGY PREDICTED BY IDOCK:   -3.08 KCAL/MOL
REMARK 923 INTER-LIGAND FREE ENERGY PREDICTED BY IDOCK:   -2.91 KCAL/MOL
REMARK 924 INTRA-LIGAND FREE ENERGY PREDICTED BY IDOCK:   -0.16 KCAL/MOL
REMARK 927      BINDING AFFINITY PREDICTED BY RF-SCORE:    0.00 PKD
ROOT
HETATM    1  C   UNL     1     -12.362  14.136  66.056  1.00  0.00    -0.445 C  
HETATM    2  N   UNL     1     -11.099  13.718  65.447  1.00  0.00    -0.296 N  
HETATM    3  C   UNL     1      -9.953  14.597  65.673  1.00  0.00    -0.351 C  
ENDROOT
BRANCH   2   4
HETATM    4  C   UNL     1     -11.029  12.561  64.642  1.00  0.00    -0.310 C  
HETATM    5  S   UNL     1     -12.063  12.243  63.343  1.00  0.00    -0.465 S  
BRANCH   4   6
HETATM    6  S   UNL     1      -9.697  11.434  64.998  1.00  0.00    -0.241 SA 
BRANCH   6   7
HETATM    7  S   UNL     1     -10.382  10.451  66.683  1.00  0.00    -0.212 SA 
BRANCH   7   8
HETATM    8  C   UNL     1      -8.946   9.515  67.149  1.00  0.00    -0.134 C  
HETATM    9  S   UNL     1      -8.886   7.903  66.652  1.00  0.00    -0.154 S  
BRANCH   8  10
HETATM   10  N   UNL     1      -7.932  10.188  67.857  1.00  0.00    -0.101 N  
HETATM   11  C   UNL     1      -8.032  11.559  68.364  1.00  0.00    -0.143 C  
HETATM   12  C   UNL     1      -6.641   9.563  68.164  1.00  0.00    -0.062 C  
ENDBRANCH   8  10
ENDBRANCH   7   8
ENDBRANCH   6   7
ENDBRANCH   4   6
ENDBRANCH   2   4
TORSDOF 5
ENDMDL
MODEL      244
REMARK 921   NORMALIZED FREE ENERGY PREDICTED BY IDOCK:   -2.31 KCAL/MOL
REMARK 922        TOTAL FREE ENERGY PREDICTED BY IDOCK:   -3.08 KCAL/MOL
REMARK 923 INTER-LIGAND FREE ENERGY PREDICTED BY IDOCK:   -3.21 KCAL/MOL
REMARK 924 INTRA-LIGAND FREE ENERGY PREDICTED BY IDOCK:    0.13 KCAL/MOL
REMARK 927      BINDING AFFINITY PREDICTED BY RF-SCORE:    0.00 PKD
ROOT
HETATM    1  C   UNL     1     -10.133  10.407  64.847  1.00  0.00    -0.312 C  
HETATM    2  N   UNL     1     -10.443  11.750  65.337  1.00  0.00    -0.262 N  
HETATM    3  C   UNL     1     -11.189  12.613  64.422  1.00  0.00    -0.346 C  
ENDROOT
BRANCH   2   4
HETATM    4  C   UNL     1      -9.986  12.186  66.599  1.00  0.00    -0.206 C  
HETATM    5  S   UNL     1      -8.362  12.200  67.069  1.00  0.00    -0.151 S  
BRANCH   4   6
HETATM    6  S   UNL     1     -11.223  12.837  67.702  1.00  0.00    -0.299 SA 
BRANCH   6   7
HETATM    7  S   UNL     1     -11.598  14.705  66.900  1.00  0.00    -0.335 SA 
BRANCH   7   8
HETATM    8  C   UNL     1     -10.169  15.611  67.440  1.00  0.00    -0.264 C  
HETATM    9  S   UNL     1      -9.408  16.595  66.299  1.00  0.00    -0.286 S  
BRANCH   8  10
HETATM   10  N   UNL     1      -9.793  15.490  68.792  1.00  0.00    -0.208 N  
HETATM   11  C   UNL     1     -10.703  15.639  69.930  1.00  0.00    -0.322 C  
HETATM   12  C   UNL     1      -8.416  15.196  69.202  1.00  0.00    -0.220 C  
ENDBRANCH   8  10
ENDBRANCH   7   8
ENDBRANCH   6   7
ENDBRANCH   4   6
ENDBRANCH   2   4
TORSDOF 5
ENDMDL
MODEL      245
REMARK 921   NORMALIZED FREE ENERGY PREDICTED BY IDOCK:   -2.31 KCAL/MOL
REMARK 922        TOTAL FREE ENERGY PREDICTED BY IDOCK:   -3.07 KCAL/MOL
REMARK 923 INTER-LIGAND FREE ENERGY PREDICTED BY IDOCK:   -2.87 KCAL/MOL
REMARK 924 INTRA-LIGAND FREE ENERGY PREDICTED BY IDOCK:   -0.20 KCAL/MOL
REMARK 927      BINDING AFFINITY PREDICTED BY RF-SCORE:    0.00 PKD
ROOT
HETATM    1  C   UNL     1      -6.893  10.656  69.238  1.00  0.00    -0.086 C  
HETATM    2  N   UNL     1      -7.035   9.937  67.972  1.00  0.00    -0.076 N  
HETATM    3  C   UNL     1      -6.623   8.534  67.978  1.00  0.00    -0.058 C  
ENDROOT
BRANCH   2   4
HETATM    4  C   UNL     1      -7.489  10.596  66.810  1.00  0.00    -0.120 C  
HETATM    5  S   UNL     1      -7.208  10.049  65.235  1.00  0.00    -0.141 S  
BRANCH   4   6
HETATM    6  S   UNL     1      -8.493  12.044  67.068  1.00  0.00    -0.177 SA 
BRANCH   6   7
HETATM    7  S   UNL     1     -10.393  11.354  66.636  1.00  0.00    -0.242 SA 
BRANCH   7   8
HETATM    8  C   UNL     1     -10.841  12.396  65.269  1.00  0.00    -0.289 C  
HETATM    9  S   UNL     1     -10.329  11.913  63.735  1.00  0.00    -0.458 S  
BRANCH   8  10
HETATM   10  N   UNL     1     -11.635  13.526  65.545  1.00  0.00    -0.313 N  
HETATM   11  C   UNL     1     -12.253  14.383  64.531  1.00  0.00    -0.463 C  
HETATM   12  C   UNL     1     -11.925  13.968  66.914  1.00  0.00    -0.447 C  
ENDBRANCH   8  10
ENDBRANCH   7   8
ENDBRANCH   6   7
ENDBRANCH   4   6
ENDBRANCH   2   4
TORSDOF 5
ENDMDL
MODEL      246
REMARK 921   NORMALIZED FREE ENERGY PREDICTED BY IDOCK:   -2.31 KCAL/MOL
REMARK 922        TOTAL FREE ENERGY PREDICTED BY IDOCK:   -3.07 KCAL/MOL
REMARK 923 INTER-LIGAND FREE ENERGY PREDICTED BY IDOCK:   -2.99 KCAL/MOL
REMARK 924 INTRA-LIGAND FREE ENERGY PREDICTED BY IDOCK:   -0.08 KCAL/MOL
REMARK 927      BINDING AFFINITY PREDICTED BY RF-SCORE:    0.00 PKD
ROOT
HETATM    1  C   UNL     1     -11.019   6.245  67.958  1.00  0.00    -0.327 C  
HETATM    2  N   UNL     1     -10.866   6.991  69.207  1.00  0.00    -0.231 N  
HETATM    3  C   UNL     1     -11.575   6.455  70.368  1.00  0.00    -0.373 C  
ENDROOT
BRANCH   2   4
HETATM    4  C   UNL     1     -10.122   8.189  69.251  1.00  0.00    -0.202 C  
HETATM    5  S   UNL     1      -8.748   8.421  70.208  1.00  0.00    -0.145 S  
BRANCH   4   6
HETATM    6  S   UNL     1     -10.647   9.482  68.145  1.00  0.00    -0.196 SA 
BRANCH   6   7
HETATM    7  S   UNL     1     -11.204  10.986  69.448  1.00  0.00    -0.291 SA 
BRANCH   7   8
HETATM    8  C   UNL     1     -10.841  12.435  68.488  1.00  0.00    -0.242 C  
HETATM    9  S   UNL     1     -11.868  13.761  68.680  1.00  0.00    -0.381 S  
BRANCH   8  10
HETATM   10  N   UNL     1      -9.696  12.403  67.669  1.00  0.00    -0.191 N  
HETATM   11  C   UNL     1      -9.713  12.402  66.204  1.00  0.00    -0.246 C  
HETATM   12  C   UNL     1      -8.337  12.366  68.220  1.00  0.00    -0.169 C  
ENDBRANCH   8  10
ENDBRANCH   7   8
ENDBRANCH   6   7
ENDBRANCH   4   6
ENDBRANCH   2   4
TORSDOF 5
ENDMDL
MODEL      247
REMARK 921   NORMALIZED FREE ENERGY PREDICTED BY IDOCK:   -2.30 KCAL/MOL
REMARK 922        TOTAL FREE ENERGY PREDICTED BY IDOCK:   -3.07 KCAL/MOL
REMARK 923 INTER-LIGAND FREE ENERGY PREDICTED BY IDOCK:   -2.85 KCAL/MOL
REMARK 924 INTRA-LIGAND FREE ENERGY PREDICTED BY IDOCK:   -0.22 KCAL/MOL
REMARK 927      BINDING AFFINITY PREDICTED BY RF-SCORE:    0.00 PKD
ROOT
HETATM    1  C   UNL     1      -9.503   3.245  70.214  1.00  0.00    -0.164 C  
HETATM    2  N   UNL     1      -9.827   3.595  71.597  1.00  0.00    -0.172 N  
HETATM    3  C   UNL     1     -10.007   2.475  72.519  1.00  0.00    -0.151 C  
ENDROOT
BRANCH   2   4
HETATM    4  C   UNL     1     -10.011   4.940  71.981  1.00  0.00    -0.187 C  
HETATM    5  S   UNL     1     -10.790   5.426  73.401  1.00  0.00    -0.296 S  
BRANCH   4   6
HETATM    6  S   UNL     1      -9.283   6.169  70.917  1.00  0.00    -0.154 SA 
BRANCH   6   7
HETATM    7  S   UNL     1     -10.899   6.801  69.794  1.00  0.00    -0.294 SA 
BRANCH   7   8
HETATM    8  C   UNL     1     -11.192   8.413  70.478  1.00  0.00    -0.238 C  
HETATM    9  S   UNL     1     -10.018   9.593  70.195  1.00  0.00    -0.270 S  
BRANCH   8  10
HETATM   10  N   UNL     1     -12.403   8.618  71.167  1.00  0.00    -0.259 N  
HETATM   11  C   UNL     1     -12.766   9.847  71.876  1.00  0.00    -0.409 C  
HETATM   12  C   UNL     1     -13.446   7.589  71.246  1.00  0.00    -0.253 C  
ENDBRANCH   8  10
ENDBRANCH   7   8
ENDBRANCH   6   7
ENDBRANCH   4   6
ENDBRANCH   2   4
TORSDOF 5
ENDMDL
MODEL      248
REMARK 921   NORMALIZED FREE ENERGY PREDICTED BY IDOCK:   -2.30 KCAL/MOL
REMARK 922        TOTAL FREE ENERGY PREDICTED BY IDOCK:   -3.06 KCAL/MOL
REMARK 923 INTER-LIGAND FREE ENERGY PREDICTED BY IDOCK:   -2.98 KCAL/MOL
REMARK 924 INTRA-LIGAND FREE ENERGY PREDICTED BY IDOCK:   -0.08 KCAL/MOL
REMARK 927      BINDING AFFINITY PREDICTED BY RF-SCORE:    0.00 PKD
ROOT
HETATM    1  C   UNL     1     -10.397  15.222  66.719  1.00  0.00    -0.279 C  
HETATM    2  N   UNL     1     -11.237  14.040  66.917  1.00  0.00    -0.304 N  
HETATM    3  C   UNL     1     -12.462  13.981  66.120  1.00  0.00    -0.430 C  
ENDROOT
BRANCH   2   4
HETATM    4  C   UNL     1     -10.897  13.059  67.871  1.00  0.00    -0.242 C  
HETATM    5  S   UNL     1     -11.699  12.845  69.343  1.00  0.00    -0.305 S  
BRANCH   4   6
HETATM    6  S   UNL     1      -9.588  11.939  67.415  1.00  0.00    -0.176 SA 
BRANCH   6   7
HETATM    7  S   UNL     1     -10.181  11.298  65.542  1.00  0.00    -0.271 SA 
BRANCH   7   8
HETATM    8  C   UNL     1      -9.275   9.779  65.389  1.00  0.00    -0.227 C  
HETATM    9  S   UNL     1      -9.697   8.524  66.437  1.00  0.00    -0.241 S  
BRANCH   8  10
HETATM   10  N   UNL     1      -8.301   9.700  64.375  1.00  0.00    -0.155 N  
HETATM   11  C   UNL     1      -8.582   9.429  62.964  1.00  0.00    -0.221 C  
HETATM   12  C   UNL     1      -6.871   9.888  64.643  1.00  0.00    -0.126 C  
ENDBRANCH   8  10
ENDBRANCH   7   8
ENDBRANCH   6   7
ENDBRANCH   4   6
ENDBRANCH   2   4
TORSDOF 5
ENDMDL
MODEL      249
REMARK 921   NORMALIZED FREE ENERGY PREDICTED BY IDOCK:   -2.30 KCAL/MOL
REMARK 922        TOTAL FREE ENERGY PREDICTED BY IDOCK:   -3.06 KCAL/MOL
REMARK 923 INTER-LIGAND FREE ENERGY PREDICTED BY IDOCK:   -2.88 KCAL/MOL
REMARK 924 INTRA-LIGAND FREE ENERGY PREDICTED BY IDOCK:   -0.18 KCAL/MOL
REMARK 927      BINDING AFFINITY PREDICTED BY RF-SCORE:    0.00 PKD
ROOT
HETATM    1  C   UNL     1      -8.852  10.154  69.217  1.00  0.00    -0.183 C  
HETATM    2  N   UNL     1      -9.949  10.375  68.275  1.00  0.00    -0.148 N  
HETATM    3  C   UNL     1     -11.283  10.506  68.859  1.00  0.00    -0.266 C  
ENDROOT
BRANCH   2   4
HETATM    4  C   UNL     1      -9.718  10.395  66.883  1.00  0.00    -0.181 C  
HETATM    5  S   UNL     1      -9.236   9.051  65.979  1.00  0.00    -0.242 S  
BRANCH   4   6
HETATM    6  S   UNL     1     -10.053  11.935  66.053  1.00  0.00    -0.239 SA 
BRANCH   6   7
HETATM    7  S   UNL     1      -8.876  13.273  67.099  1.00  0.00    -0.212 SA 
BRANCH   7   8
HETATM    8  C   UNL     1      -9.971  14.663  67.245  1.00  0.00    -0.235 C  
HETATM    9  S   UNL     1     -10.513  15.367  65.810  1.00  0.00    -0.381 S  
BRANCH   8  10
HETATM   10  N   UNL     1     -10.356  15.056  68.542  1.00  0.00    -0.224 N  
HETATM   11  C   UNL     1      -9.574  15.931  69.418  1.00  0.00    -0.265 C  
HETATM   12  C   UNL     1     -11.611  14.612  69.157  1.00  0.00    -0.301 C  
ENDBRANCH   8  10
ENDBRANCH   7   8
ENDBRANCH   6   7
ENDBRANCH   4   6
ENDBRANCH   2   4
TORSDOF 5
ENDMDL
MODEL      250
REMARK 921   NORMALIZED FREE ENERGY PREDICTED BY IDOCK:   -2.28 KCAL/MOL
REMARK 922        TOTAL FREE ENERGY PREDICTED BY IDOCK:   -3.04 KCAL/MOL
REMARK 923 INTER-LIGAND FREE ENERGY PREDICTED BY IDOCK:   -2.88 KCAL/MOL
REMARK 924 INTRA-LIGAND FREE ENERGY PREDICTED BY IDOCK:   -0.16 KCAL/MOL
REMARK 927      BINDING AFFINITY PREDICTED BY RF-SCORE:    0.00 PKD
ROOT
HETATM    1  C   UNL     1      -9.935  10.577  64.868  1.00  0.00    -0.334 C  
HETATM    2  N   UNL     1     -10.400  11.537  65.869  1.00  0.00    -0.239 N  
HETATM    3  C   UNL     1     -11.638  12.248  65.552  1.00  0.00    -0.371 C  
ENDROOT
BRANCH   2   4
HETATM    4  C   UNL     1      -9.650  11.790  67.036  1.00  0.00    -0.187 C  
HETATM    5  S   UNL     1      -9.383  13.330  67.680  1.00  0.00    -0.222 S  
BRANCH   4   6
HETATM    6  S   UNL     1      -9.037  10.360  67.903  1.00  0.00    -0.132 SA 
BRANCH   6   7
HETATM    7  S   UNL     1     -10.753   9.247  68.198  1.00  0.00    -0.096 SA 
BRANCH   7   8
HETATM    8  C   UNL     1     -10.905   9.298  69.967  1.00  0.00    -0.238 C  
HETATM    9  S   UNL     1     -12.053  10.356  70.608  1.00  0.00    -0.376 S  
BRANCH   8  10
HETATM   10  N   UNL     1     -10.097   8.422  70.715  1.00  0.00    -0.190 N  
HETATM   11  C   UNL     1      -9.578   8.700  72.057  1.00  0.00    -0.314 C  
HETATM   12  C   UNL     1      -9.684   7.108  70.209  1.00  0.00    -0.175 C  
ENDBRANCH   8  10
ENDBRANCH   7   8
ENDBRANCH   6   7
ENDBRANCH   4   6
ENDBRANCH   2   4
TORSDOF 5
ENDMDL
MODEL      251
REMARK 921   NORMALIZED FREE ENERGY PREDICTED BY IDOCK:   -2.28 KCAL/MOL
REMARK 922        TOTAL FREE ENERGY PREDICTED BY IDOCK:   -3.04 KCAL/MOL
REMARK 923 INTER-LIGAND FREE ENERGY PREDICTED BY IDOCK:   -2.84 KCAL/MOL
REMARK 924 INTRA-LIGAND FREE ENERGY PREDICTED BY IDOCK:   -0.19 KCAL/MOL
REMARK 927      BINDING AFFINITY PREDICTED BY RF-SCORE:    0.00 PKD
ROOT
HETATM    1  C   UNL     1      -7.095   9.313  67.173  1.00  0.00    -0.086 C  
HETATM    2  N   UNL     1      -8.536   9.062  67.151  1.00  0.00    -0.116 N  
HETATM    3  C   UNL     1      -9.021   8.188  66.084  1.00  0.00    -0.178 C  
ENDROOT
BRANCH   2   4
HETATM    4  C   UNL     1      -9.396   9.686  68.080  1.00  0.00    -0.132 C  
HETATM    5  S   UNL     1      -9.132   9.717  69.749  1.00  0.00    -0.225 S  
BRANCH   4   6
HETATM    6  S   UNL     1     -10.790  10.559  67.397  1.00  0.00    -0.276 SA 
BRANCH   6   7
HETATM    7  S   UNL     1      -9.896  11.837  66.041  1.00  0.00    -0.238 SA 
BRANCH   7   8
HETATM    8  C   UNL     1     -10.195  13.416  66.798  1.00  0.00    -0.259 C  
HETATM    9  S   UNL     1      -8.852  14.401  67.072  1.00  0.00    -0.226 S  
BRANCH   8  10
HETATM   10  N   UNL     1     -11.531  13.764  67.073  1.00  0.00    -0.329 N  
HETATM   11  C   UNL     1     -12.570  13.964  66.061  1.00  0.00    -0.423 C  
HETATM   12  C   UNL     1     -12.024  13.967  68.440  1.00  0.00    -0.356 C  
ENDBRANCH   8  10
ENDBRANCH   7   8
ENDBRANCH   6   7
ENDBRANCH   4   6
ENDBRANCH   2   4
TORSDOF 5
ENDMDL
MODEL      252
REMARK 921   NORMALIZED FREE ENERGY PREDICTED BY IDOCK:   -2.28 KCAL/MOL
REMARK 922        TOTAL FREE ENERGY PREDICTED BY IDOCK:   -3.04 KCAL/MOL
REMARK 923 INTER-LIGAND FREE ENERGY PREDICTED BY IDOCK:   -2.90 KCAL/MOL
REMARK 924 INTRA-LIGAND FREE ENERGY PREDICTED BY IDOCK:   -0.14 KCAL/MOL
REMARK 927      BINDING AFFINITY PREDICTED BY RF-SCORE:    0.00 PKD
ROOT
HETATM    1  C   UNL     1      -9.930  11.549  67.754  1.00  0.00    -0.183 C  
HETATM    2  N   UNL     1      -9.592  10.774  68.948  1.00  0.00    -0.196 N  
HETATM    3  C   UNL     1      -8.167  10.562  69.196  1.00  0.00    -0.150 C  
ENDROOT
BRANCH   2   4
HETATM    4  C   UNL     1     -10.602  10.221  69.764  1.00  0.00    -0.271 C  
HETATM    5  S   UNL     1     -12.082  10.971  70.085  1.00  0.00    -0.373 S  
BRANCH   4   6
HETATM    6  S   UNL     1     -10.290   8.589  70.404  1.00  0.00    -0.208 SA 
BRANCH   6   7
HETATM    7  S   UNL     1     -11.240   8.640  72.239  1.00  0.00    -0.263 SA 
BRANCH   7   8
HETATM    8  C   UNL     1     -10.214   7.550  73.195  1.00  0.00    -0.327 C  
HETATM    9  S   UNL     1      -8.774   8.188  73.803  1.00  0.00    -0.147 S  
BRANCH   8  10
HETATM   10  N   UNL     1     -10.688   6.244  73.426  1.00  0.00    -0.265 N  
HETATM   11  C   UNL     1     -10.284   5.392  74.546  1.00  0.00    -0.269 C  
HETATM   12  C   UNL     1     -11.660   5.594  72.541  1.00  0.00    -0.246 C  
ENDBRANCH   8  10
ENDBRANCH   7   8
ENDBRANCH   6   7
ENDBRANCH   4   6
ENDBRANCH   2   4
TORSDOF 5
ENDMDL
MODEL      253
REMARK 921   NORMALIZED FREE ENERGY PREDICTED BY IDOCK:   -2.27 KCAL/MOL
REMARK 922        TOTAL FREE ENERGY PREDICTED BY IDOCK:   -3.03 KCAL/MOL
REMARK 923 INTER-LIGAND FREE ENERGY PREDICTED BY IDOCK:   -2.82 KCAL/MOL
REMARK 924 INTRA-LIGAND FREE ENERGY PREDICTED BY IDOCK:   -0.21 KCAL/MOL
REMARK 927      BINDING AFFINITY PREDICTED BY RF-SCORE:    0.00 PKD
ROOT
HETATM    1  C   UNL     1      -7.645   8.502  63.808  1.00  0.00    -0.130 C  
HETATM    2  N   UNL     1      -8.598   9.383  64.484  1.00  0.00    -0.187 N  
HETATM    3  C   UNL     1      -9.529  10.109  63.620  1.00  0.00    -0.267 C  
ENDROOT
BRANCH   2   4
HETATM    4  C   UNL     1      -8.562   9.554  65.884  1.00  0.00    -0.132 C  
HETATM    5  S   UNL     1      -7.238  10.171  66.733  1.00  0.00    -0.096 S  
BRANCH   4   6
HETATM    6  S   UNL     1     -10.061   9.163  66.763  1.00  0.00    -0.272 SA 
BRANCH   6   7
HETATM    7  S   UNL     1     -10.820  11.034  67.206  1.00  0.00    -0.292 SA 
BRANCH   7   8
HETATM    8  C   UNL     1     -10.911  10.964  68.978  1.00  0.00    -0.230 C  
HETATM    9  S   UNL     1      -9.946   9.815  69.752  1.00  0.00    -0.249 S  
BRANCH   8  10
HETATM   10  N   UNL     1     -11.740  11.900  69.625  1.00  0.00    -0.326 N  
HETATM   11  C   UNL     1     -12.015  13.254  69.137  1.00  0.00    -0.296 C  
HETATM   12  C   UNL     1     -12.427  11.602  70.886  1.00  0.00    -0.341 C  
ENDBRANCH   8  10
ENDBRANCH   7   8
ENDBRANCH   6   7
ENDBRANCH   4   6
ENDBRANCH   2   4
TORSDOF 5
ENDMDL
MODEL      254
REMARK 921   NORMALIZED FREE ENERGY PREDICTED BY IDOCK:   -2.27 KCAL/MOL
REMARK 922        TOTAL FREE ENERGY PREDICTED BY IDOCK:   -3.02 KCAL/MOL
REMARK 923 INTER-LIGAND FREE ENERGY PREDICTED BY IDOCK:   -2.83 KCAL/MOL
REMARK 924 INTRA-LIGAND FREE ENERGY PREDICTED BY IDOCK:   -0.20 KCAL/MOL
REMARK 927      BINDING AFFINITY PREDICTED BY RF-SCORE:    0.00 PKD
ROOT
HETATM    1  C   UNL     1      -6.834  10.037  67.701  1.00  0.00    -0.084 C  
HETATM    2  N   UNL     1      -6.747  11.495  67.616  1.00  0.00    -0.073 N  
HETATM    3  C   UNL     1      -5.446  12.042  67.235  1.00  0.00    -0.128 C  
ENDROOT
BRANCH   2   4
HETATM    4  C   UNL     1      -7.852  12.309  67.946  1.00  0.00    -0.146 C  
HETATM    5  S   UNL     1      -7.736  13.934  68.393  1.00  0.00    -0.146 S  
BRANCH   4   6
HETATM    6  S   UNL     1      -9.459  11.558  67.781  1.00  0.00    -0.173 SA 
BRANCH   6   7
HETATM    7  S   UNL     1     -10.725  13.075  68.388  1.00  0.00    -0.261 SA 
BRANCH   7   8
HETATM    8  C   UNL     1     -11.178  13.797  66.831  1.00  0.00    -0.313 C  
HETATM    9  S   UNL     1     -11.966  12.797  65.721  1.00  0.00    -0.444 S  
BRANCH   8  10
HETATM   10  N   UNL     1     -10.898  15.164  66.640  1.00  0.00    -0.316 N  
HETATM   11  C   UNL     1     -10.831  16.161  67.710  1.00  0.00    -0.318 C  
HETATM   12  C   UNL     1     -10.641  15.736  65.315  1.00  0.00    -0.423 C  
ENDBRANCH   8  10
ENDBRANCH   7   8
ENDBRANCH   6   7
ENDBRANCH   4   6
ENDBRANCH   2   4
TORSDOF 5
ENDMDL
MODEL      255
REMARK 921   NORMALIZED FREE ENERGY PREDICTED BY IDOCK:   -2.27 KCAL/MOL
REMARK 922        TOTAL FREE ENERGY PREDICTED BY IDOCK:   -3.02 KCAL/MOL
REMARK 923 INTER-LIGAND FREE ENERGY PREDICTED BY IDOCK:   -2.80 KCAL/MOL
REMARK 924 INTRA-LIGAND FREE ENERGY PREDICTED BY IDOCK:   -0.22 KCAL/MOL
REMARK 927      BINDING AFFINITY PREDICTED BY RF-SCORE:    0.00 PKD
ROOT
HETATM    1  C   UNL     1     -11.917  12.754  63.432  1.00  0.00    -0.535 C  
HETATM    2  N   UNL     1     -10.835  11.968  64.025  1.00  0.00    -0.340 N  
HETATM    3  C   UNL     1      -9.802  11.496  63.105  1.00  0.00    -0.390 C  
ENDROOT
BRANCH   2   4
HETATM    4  C   UNL     1     -10.842  11.644  65.399  1.00  0.00    -0.280 C  
HETATM    5  S   UNL     1     -11.628  12.555  66.586  1.00  0.00    -0.379 S  
BRANCH   4   6
HETATM    6  S   UNL     1     -10.033  10.124  65.853  1.00  0.00    -0.260 SA 
BRANCH   6   7
HETATM    7  S   UNL     1      -8.188  10.780  66.514  1.00  0.00    -0.153 SA 
BRANCH   7   8
HETATM    8  C   UNL     1      -7.106   9.576  65.784  1.00  0.00    -0.096 C  
HETATM    9  S   UNL     1      -6.013  10.129  64.622  1.00  0.00    -0.128 S  
BRANCH   8  10
HETATM   10  N   UNL     1      -7.193   8.252  66.256  1.00  0.00    -0.073 N  
HETATM   11  C   UNL     1      -7.299   7.870  67.665  1.00  0.00    -0.096 C  
HETATM   12  C   UNL     1      -7.185   7.095  65.354  1.00  0.00    -0.070 C  
ENDBRANCH   8  10
ENDBRANCH   7   8
ENDBRANCH   6   7
ENDBRANCH   4   6
ENDBRANCH   2   4
TORSDOF 5
ENDMDL
MODEL      256
REMARK 921   NORMALIZED FREE ENERGY PREDICTED BY IDOCK:   -2.26 KCAL/MOL
REMARK 922        TOTAL FREE ENERGY PREDICTED BY IDOCK:   -3.02 KCAL/MOL
REMARK 923 INTER-LIGAND FREE ENERGY PREDICTED BY IDOCK:   -2.61 KCAL/MOL
REMARK 924 INTRA-LIGAND FREE ENERGY PREDICTED BY IDOCK:   -0.40 KCAL/MOL
REMARK 927      BINDING AFFINITY PREDICTED BY RF-SCORE:    0.00 PKD
ROOT
HETATM    1  C   UNL     1     -10.722   9.284  71.404  1.00  0.00    -0.362 C  
HETATM    2  N   UNL     1     -10.038   8.358  72.307  1.00  0.00    -0.292 N  
HETATM    3  C   UNL     1     -10.897   7.545  73.166  1.00  0.00    -0.395 C  
ENDROOT
BRANCH   2   4
HETATM    4  C   UNL     1      -8.630   8.315  72.372  1.00  0.00    -0.206 C  
HETATM    5  S   UNL     1      -7.757   7.649  73.657  1.00  0.00    -0.145 S  
BRANCH   4   6
HETATM    6  S   UNL     1      -7.757   8.932  70.947  1.00  0.00    -0.130 SA 
BRANCH   6   7
HETATM    7  S   UNL     1      -7.348   7.203  69.890  1.00  0.00    -0.086 SA 
BRANCH   7   8
HETATM    8  C   UNL     1      -8.901   6.913  69.079  1.00  0.00    -0.130 C  
HETATM    9  S   UNL     1      -9.081   7.535  67.520  1.00  0.00    -0.125 S  
BRANCH   8  10
HETATM   10  N   UNL     1      -9.860   6.143  69.765  1.00  0.00    -0.159 N  
HETATM   11  C   UNL     1      -9.556   5.163  70.810  1.00  0.00    -0.179 C  
HETATM   12  C   UNL     1     -11.297   6.251  69.490  1.00  0.00    -0.404 C  
ENDBRANCH   8  10
ENDBRANCH   7   8
ENDBRANCH   6   7
ENDBRANCH   4   6
ENDBRANCH   2   4
TORSDOF 5
ENDMDL
MODEL      257
REMARK 921   NORMALIZED FREE ENERGY PREDICTED BY IDOCK:   -2.25 KCAL/MOL
REMARK 922        TOTAL FREE ENERGY PREDICTED BY IDOCK:   -3.00 KCAL/MOL
REMARK 923 INTER-LIGAND FREE ENERGY PREDICTED BY IDOCK:   -2.83 KCAL/MOL
REMARK 924 INTRA-LIGAND FREE ENERGY PREDICTED BY IDOCK:   -0.16 KCAL/MOL
REMARK 927      BINDING AFFINITY PREDICTED BY RF-SCORE:    0.00 PKD
ROOT
HETATM    1  C   UNL     1     -10.232  11.488  65.657  1.00  0.00    -0.248 C  
HETATM    2  N   UNL     1     -10.262  10.446  66.684  1.00  0.00    -0.227 N  
HETATM    3  C   UNL     1     -10.120   9.070  66.209  1.00  0.00    -0.241 C  
ENDROOT
BRANCH   2   4
HETATM    4  C   UNL     1     -10.477  10.769  68.040  1.00  0.00    -0.194 C  
HETATM    5  S   UNL     1     -11.724  11.767  68.594  1.00  0.00    -0.323 S  
BRANCH   4   6
HETATM    6  S   UNL     1      -9.396   9.983  69.218  1.00  0.00    -0.224 SA 
BRANCH   6   7
HETATM    7  S   UNL     1     -10.695   9.462  70.738  1.00  0.00    -0.332 SA 
BRANCH   7   8
HETATM    8  C   UNL     1      -9.913   8.005  71.384  1.00  0.00    -0.178 C  
HETATM    9  S   UNL     1      -9.502   8.015  73.022  1.00  0.00    -0.268 S  
BRANCH   8  10
HETATM   10  N   UNL     1      -9.730   6.920  70.505  1.00  0.00    -0.173 N  
HETATM   11  C   UNL     1     -10.727   6.445  69.543  1.00  0.00    -0.289 C  
HETATM   12  C   UNL     1      -8.490   6.138  70.469  1.00  0.00    -0.137 C  
ENDBRANCH   8  10
ENDBRANCH   7   8
ENDBRANCH   6   7
ENDBRANCH   4   6
ENDBRANCH   2   4
TORSDOF 5
ENDMDL
MODEL      258
REMARK 921   NORMALIZED FREE ENERGY PREDICTED BY IDOCK:   -2.25 KCAL/MOL
REMARK 922        TOTAL FREE ENERGY PREDICTED BY IDOCK:   -3.00 KCAL/MOL
REMARK 923 INTER-LIGAND FREE ENERGY PREDICTED BY IDOCK:   -2.66 KCAL/MOL
REMARK 924 INTRA-LIGAND FREE ENERGY PREDICTED BY IDOCK:   -0.33 KCAL/MOL
REMARK 927      BINDING AFFINITY PREDICTED BY RF-SCORE:    0.00 PKD
ROOT
HETATM    1  C   UNL     1     -10.832   6.979  67.018  1.00  0.00    -0.343 C  
HETATM    2  N   UNL     1      -9.691   6.491  67.793  1.00  0.00    -0.121 N  
HETATM    3  C   UNL     1      -9.676   5.058  68.084  1.00  0.00    -0.148 C  
ENDROOT
BRANCH   2   4
HETATM    4  C   UNL     1      -8.707   7.380  68.274  1.00  0.00    -0.122 C  
HETATM    5  S   UNL     1      -8.009   8.614  67.353  1.00  0.00    -0.102 S  
BRANCH   4   6
HETATM    6  S   UNL     1      -8.265   7.212  69.991  1.00  0.00    -0.138 SA 
BRANCH   6   7
HETATM    7  S   UNL     1      -8.840   9.033  70.781  1.00  0.00    -0.247 SA 
BRANCH   7   8
HETATM    8  C   UNL     1     -10.580   9.034  70.427  1.00  0.00    -0.218 C  
HETATM    9  S   UNL     1     -11.126  10.130  69.264  1.00  0.00    -0.205 S  
BRANCH   8  10
HETATM   10  N   UNL     1     -11.382   8.092  71.098  1.00  0.00    -0.261 N  
HETATM   11  C   UNL     1     -11.791   6.797  70.549  1.00  0.00    -0.362 C  
HETATM   12  C   UNL     1     -11.902   8.323  72.450  1.00  0.00    -0.396 C  
ENDBRANCH   8  10
ENDBRANCH   7   8
ENDBRANCH   6   7
ENDBRANCH   4   6
ENDBRANCH   2   4
TORSDOF 5
ENDMDL
MODEL      259
REMARK 921   NORMALIZED FREE ENERGY PREDICTED BY IDOCK:   -2.24 KCAL/MOL
REMARK 922        TOTAL FREE ENERGY PREDICTED BY IDOCK:   -2.99 KCAL/MOL
REMARK 923 INTER-LIGAND FREE ENERGY PREDICTED BY IDOCK:   -2.77 KCAL/MOL
REMARK 924 INTRA-LIGAND FREE ENERGY PREDICTED BY IDOCK:   -0.22 KCAL/MOL
REMARK 927      BINDING AFFINITY PREDICTED BY RF-SCORE:    0.00 PKD
ROOT
HETATM    1  C   UNL     1      -7.138   9.485  66.914  1.00  0.00    -0.086 C  
HETATM    2  N   UNL     1      -8.537   9.059  66.877  1.00  0.00    -0.122 N  
HETATM    3  C   UNL     1      -8.806   7.787  66.208  1.00  0.00    -0.160 C  
ENDROOT
BRANCH   2   4
HETATM    4  C   UNL     1      -9.558   9.875  67.410  1.00  0.00    -0.155 C  
HETATM    5  S   UNL     1      -9.575  10.466  68.993  1.00  0.00    -0.209 S  
BRANCH   4   6
HETATM    6  S   UNL     1     -10.847  10.360  66.281  1.00  0.00     0.144 SA 
BRANCH   6   7
HETATM    7  S   UNL     1      -9.815  11.465  64.872  1.00  0.00    -0.263 SA 
BRANCH   7   8
HETATM    8  C   UNL     1     -10.891  12.862  64.666  1.00  0.00    -0.342 C  
HETATM    9  S   UNL     1     -12.276  12.632  63.728  1.00  0.00    -0.525 S  
BRANCH   8  10
HETATM   10  N   UNL     1     -10.549  14.053  65.336  1.00  0.00    -0.322 N  
HETATM   11  C   UNL     1      -9.771  14.123  66.575  1.00  0.00    -0.295 C  
HETATM   12  C   UNL     1     -10.951  15.375  64.843  1.00  0.00    -0.437 C  
ENDBRANCH   8  10
ENDBRANCH   7   8
ENDBRANCH   6   7
ENDBRANCH   4   6
ENDBRANCH   2   4
TORSDOF 5
ENDMDL
MODEL      260
REMARK 921   NORMALIZED FREE ENERGY PREDICTED BY IDOCK:   -2.23 KCAL/MOL
REMARK 922        TOTAL FREE ENERGY PREDICTED BY IDOCK:   -2.97 KCAL/MOL
REMARK 923 INTER-LIGAND FREE ENERGY PREDICTED BY IDOCK:   -2.82 KCAL/MOL
REMARK 924 INTRA-LIGAND FREE ENERGY PREDICTED BY IDOCK:   -0.15 KCAL/MOL
REMARK 927      BINDING AFFINITY PREDICTED BY RF-SCORE:    0.00 PKD
ROOT
HETATM    1  C   UNL     1     -11.175   6.502  67.969  1.00  0.00    -0.148 C  
HETATM    2  N   UNL     1     -10.106   7.406  68.392  1.00  0.00    -0.172 N  
HETATM    3  C   UNL     1      -8.754   7.048  67.968  1.00  0.00    -0.126 C  
ENDROOT
BRANCH   2   4
HETATM    4  C   UNL     1     -10.380   8.520  69.214  1.00  0.00    -0.221 C  
HETATM    5  S   UNL     1     -11.322   8.458  70.616  1.00  0.00    -0.208 S  
BRANCH   4   6
HETATM    6  S   UNL     1      -9.592  10.049  68.755  1.00  0.00    -0.176 SA 
BRANCH   6   7
HETATM    7  S   UNL     1     -10.721  10.666  67.137  1.00  0.00    -0.259 SA 
BRANCH   7   8
HETATM    8  C   UNL     1     -10.176  12.345  66.949  1.00  0.00    -0.225 C  
HETATM    9  S   UNL     1      -8.805  12.809  67.819  1.00  0.00    -0.199 S  
BRANCH   8  10
HETATM   10  N   UNL     1     -10.887  13.165  66.052  1.00  0.00    -0.271 N  
HETATM   11  C   UNL     1     -10.298  14.242  65.254  1.00  0.00    -0.395 C  
HETATM   12  C   UNL     1     -12.329  13.014  65.825  1.00  0.00    -0.416 C  
ENDBRANCH   8  10
ENDBRANCH   7   8
ENDBRANCH   6   7
ENDBRANCH   4   6
ENDBRANCH   2   4
TORSDOF 5
ENDMDL
MODEL      261
REMARK 921   NORMALIZED FREE ENERGY PREDICTED BY IDOCK:   -2.23 KCAL/MOL
REMARK 922        TOTAL FREE ENERGY PREDICTED BY IDOCK:   -2.97 KCAL/MOL
REMARK 923 INTER-LIGAND FREE ENERGY PREDICTED BY IDOCK:   -2.71 KCAL/MOL
REMARK 924 INTRA-LIGAND FREE ENERGY PREDICTED BY IDOCK:   -0.25 KCAL/MOL
REMARK 927      BINDING AFFINITY PREDICTED BY RF-SCORE:    0.00 PKD
ROOT
HETATM    1  C   UNL     1      -6.309  13.310  68.133  1.00  0.00    -0.110 C  
HETATM    2  N   UNL     1      -7.073  14.443  67.611  1.00  0.00    -0.175 N  
HETATM    3  C   UNL     1      -6.328  15.686  67.416  1.00  0.00    -0.109 C  
ENDROOT
BRANCH   2   4
HETATM    4  C   UNL     1      -8.460  14.336  67.374  1.00  0.00    -0.203 C  
HETATM    5  S   UNL     1      -9.450  13.144  68.048  1.00  0.00    -0.223 S  
BRANCH   4   6
HETATM    6  S   UNL     1      -9.186  15.612  66.366  1.00  0.00    -0.336 SA 
BRANCH   6   7
HETATM    7  S   UNL     1     -10.200  16.757  67.755  1.00  0.00    -0.314 SA 
BRANCH   7   8
HETATM    8  C   UNL     1      -9.180  18.209  67.824  1.00  0.00    -0.263 C  
HETATM    9  S   UNL     1      -8.213  18.403  69.194  1.00  0.00     0.172 S  
BRANCH   8  10
HETATM   10  N   UNL     1      -9.205  19.076  66.715  1.00  0.00    -0.307 N  
HETATM   11  C   UNL     1      -8.018  19.595  66.031  1.00  0.00    -0.328 C  
HETATM   12  C   UNL     1     -10.457  19.556  66.121  1.00  0.00    -0.518 C  
ENDBRANCH   8  10
ENDBRANCH   7   8
ENDBRANCH   6   7
ENDBRANCH   4   6
ENDBRANCH   2   4
TORSDOF 5
ENDMDL
MODEL      262
REMARK 921   NORMALIZED FREE ENERGY PREDICTED BY IDOCK:   -2.22 KCAL/MOL
REMARK 922        TOTAL FREE ENERGY PREDICTED BY IDOCK:   -2.97 KCAL/MOL
REMARK 923 INTER-LIGAND FREE ENERGY PREDICTED BY IDOCK:   -3.05 KCAL/MOL
REMARK 924 INTRA-LIGAND FREE ENERGY PREDICTED BY IDOCK:    0.09 KCAL/MOL
REMARK 927      BINDING AFFINITY PREDICTED BY RF-SCORE:    0.00 PKD
ROOT
HETATM    1  C   UNL     1      -7.323  12.114  67.305  1.00  0.00    -0.149 C  
HETATM    2  N   UNL     1      -8.647  12.214  67.919  1.00  0.00    -0.158 N  
HETATM    3  C   UNL     1      -9.026  13.534  68.421  1.00  0.00    -0.146 C  
ENDROOT
BRANCH   2   4
HETATM    4  C   UNL     1      -9.468  11.075  68.062  1.00  0.00    -0.166 C  
HETATM    5  S   UNL     1      -9.388  10.002  69.365  1.00  0.00    -0.228 S  
BRANCH   4   6
HETATM    6  S   UNL     1     -10.714  10.842  66.811  1.00  0.00    -0.225 SA 
BRANCH   6   7
HETATM    7  S   UNL     1      -9.973  11.949  65.231  1.00  0.00    -0.238 SA 
BRANCH   7   8
HETATM    8  C   UNL     1     -11.442  12.768  64.658  1.00  0.00    -0.324 C  
HETATM    9  S   UNL     1     -12.402  11.934  63.548  1.00  0.00    -0.377 S  
BRANCH   8  10
HETATM   10  N   UNL     1     -11.736  14.033  65.202  1.00  0.00    -0.335 N  
HETATM   11  C   UNL     1     -12.136  14.275  66.589  1.00  0.00    -0.420 C  
HETATM   12  C   UNL     1     -11.670  15.264  64.407  1.00  0.00    -0.285 C  
ENDBRANCH   8  10
ENDBRANCH   7   8
ENDBRANCH   6   7
ENDBRANCH   4   6
ENDBRANCH   2   4
TORSDOF 5
ENDMDL
MODEL      263
REMARK 921   NORMALIZED FREE ENERGY PREDICTED BY IDOCK:   -2.21 KCAL/MOL
REMARK 922        TOTAL FREE ENERGY PREDICTED BY IDOCK:   -2.95 KCAL/MOL
REMARK 923 INTER-LIGAND FREE ENERGY PREDICTED BY IDOCK:   -2.73 KCAL/MOL
REMARK 924 INTRA-LIGAND FREE ENERGY PREDICTED BY IDOCK:   -0.22 KCAL/MOL
REMARK 927      BINDING AFFINITY PREDICTED BY RF-SCORE:    0.00 PKD
ROOT
HETATM    1  C   UNL     1     -11.858  12.481  66.392  1.00  0.00    -0.381 C  
HETATM    2  N   UNL     1     -10.587  12.692  65.700  1.00  0.00    -0.268 N  
HETATM    3  C   UNL     1     -10.337  14.048  65.212  1.00  0.00    -0.383 C  
ENDROOT
BRANCH   2   4
HETATM    4  C   UNL     1      -9.696  11.622  65.474  1.00  0.00    -0.232 C  
HETATM    5  S   UNL     1      -9.735  10.624  64.110  1.00  0.00    -0.343 S  
BRANCH   4   6
HETATM    6  S   UNL     1      -8.410  11.399  66.685  1.00  0.00    -0.162 SA 
BRANCH   6   7
HETATM    7  S   UNL     1      -7.887   9.417  66.422  1.00  0.00    -0.100 SA 
BRANCH   7   8
HETATM    8  C   UNL     1      -8.976   8.612  67.571  1.00  0.00    -0.134 C  
HETATM    9  S   UNL     1     -10.238   7.697  66.920  1.00  0.00    -0.284 S  
BRANCH   8  10
HETATM   10  N   UNL     1      -8.690   8.745  68.943  1.00  0.00    -0.133 N  
HETATM   11  C   UNL     1      -9.487   9.524  69.893  1.00  0.00    -0.222 C  
HETATM   12  C   UNL     1      -7.532   8.099  69.570  1.00  0.00    -0.087 C  
ENDBRANCH   8  10
ENDBRANCH   7   8
ENDBRANCH   6   7
ENDBRANCH   4   6
ENDBRANCH   2   4
TORSDOF 5
ENDMDL
MODEL      264
REMARK 921   NORMALIZED FREE ENERGY PREDICTED BY IDOCK:   -2.21 KCAL/MOL
REMARK 922        TOTAL FREE ENERGY PREDICTED BY IDOCK:   -2.94 KCAL/MOL
REMARK 923 INTER-LIGAND FREE ENERGY PREDICTED BY IDOCK:   -2.83 KCAL/MOL
REMARK 924 INTRA-LIGAND FREE ENERGY PREDICTED BY IDOCK:   -0.12 KCAL/MOL
REMARK 927      BINDING AFFINITY PREDICTED BY RF-SCORE:    0.00 PKD
ROOT
HETATM    1  C   UNL     1      -7.708  13.583  68.347  1.00  0.00    -0.135 C  
HETATM    2  N   UNL     1      -8.991  14.219  68.645  1.00  0.00    -0.181 N  
HETATM    3  C   UNL     1      -8.966  15.279  69.652  1.00  0.00    -0.115 C  
ENDROOT
BRANCH   2   4
HETATM    4  C   UNL     1     -10.181  13.778  68.028  1.00  0.00    -0.248 C  
HETATM    5  S   UNL     1     -11.360  14.807  67.391  1.00  0.00    -0.357 S  
BRANCH   4   6
HETATM    6  S   UNL     1     -10.369  12.015  67.854  1.00  0.00    -0.203 SA 
BRANCH   6   7
HETATM    7  S   UNL     1     -10.851  11.813  65.855  1.00  0.00    -0.289 SA 
BRANCH   7   8
HETATM    8  C   UNL     1      -9.874  10.401  65.400  1.00  0.00    -0.283 C  
HETATM    9  S   UNL     1      -9.919   9.070  66.438  1.00  0.00    -0.276 S  
BRANCH   8  10
HETATM   10  N   UNL     1      -9.168  10.462  64.183  1.00  0.00    -0.235 N  
HETATM   11  C   UNL     1      -7.824   9.922  63.967  1.00  0.00    -0.145 C  
HETATM   12  C   UNL     1      -9.727  11.092  62.982  1.00  0.00    -0.359 C  
ENDBRANCH   8  10
ENDBRANCH   7   8
ENDBRANCH   6   7
ENDBRANCH   4   6
ENDBRANCH   2   4
TORSDOF 5
ENDMDL
MODEL      265
REMARK 921   NORMALIZED FREE ENERGY PREDICTED BY IDOCK:   -2.21 KCAL/MOL
REMARK 922        TOTAL FREE ENERGY PREDICTED BY IDOCK:   -2.94 KCAL/MOL
REMARK 923 INTER-LIGAND FREE ENERGY PREDICTED BY IDOCK:   -2.78 KCAL/MOL
REMARK 924 INTRA-LIGAND FREE ENERGY PREDICTED BY IDOCK:   -0.17 KCAL/MOL
REMARK 927      BINDING AFFINITY PREDICTED BY RF-SCORE:    0.00 PKD
ROOT
HETATM    1  C   UNL     1     -11.063   6.128  69.742  1.00  0.00    -0.416 C  
HETATM    2  N   UNL     1     -11.262   6.912  70.961  1.00  0.00    -0.267 N  
HETATM    3  C   UNL     1     -11.905   6.217  72.075  1.00  0.00    -0.318 C  
ENDROOT
BRANCH   2   4
HETATM    4  C   UNL     1     -10.902   8.275  71.014  1.00  0.00    -0.233 C  
HETATM    5  S   UNL     1     -12.008   9.552  70.991  1.00  0.00    -0.336 S  
BRANCH   4   6
HETATM    6  S   UNL     1      -9.166   8.623  71.206  1.00  0.00    -0.243 SA 
BRANCH   6   7
HETATM    7  S   UNL     1      -8.422   8.244  69.315  1.00  0.00    -0.127 SA 
BRANCH   7   8
HETATM    8  C   UNL     1      -9.216   9.517  68.365  1.00  0.00    -0.130 C  
HETATM    9  S   UNL     1     -10.436   9.035  67.302  1.00  0.00    -0.239 S  
BRANCH   8  10
HETATM   10  N   UNL     1      -8.813  10.847  68.593  1.00  0.00    -0.153 N  
HETATM   11  C   UNL     1      -7.467  11.256  69.001  1.00  0.00    -0.116 C  
HETATM   12  C   UNL     1      -9.729  11.982  68.442  1.00  0.00    -0.199 C  
ENDBRANCH   8  10
ENDBRANCH   7   8
ENDBRANCH   6   7
ENDBRANCH   4   6
ENDBRANCH   2   4
TORSDOF 5
ENDMDL
MODEL      266
REMARK 921   NORMALIZED FREE ENERGY PREDICTED BY IDOCK:   -2.21 KCAL/MOL
REMARK 922        TOTAL FREE ENERGY PREDICTED BY IDOCK:   -2.94 KCAL/MOL
REMARK 923 INTER-LIGAND FREE ENERGY PREDICTED BY IDOCK:   -2.81 KCAL/MOL
REMARK 924 INTRA-LIGAND FREE ENERGY PREDICTED BY IDOCK:   -0.14 KCAL/MOL
REMARK 927      BINDING AFFINITY PREDICTED BY RF-SCORE:    0.00 PKD
ROOT
HETATM    1  C   UNL     1      -9.173  12.179  67.731  1.00  0.00    -0.189 C  
HETATM    2  N   UNL     1      -9.407  13.524  67.204  1.00  0.00    -0.231 N  
HETATM    3  C   UNL     1     -10.684  13.736  66.525  1.00  0.00    -0.284 C  
ENDROOT
BRANCH   2   4
HETATM    4  C   UNL     1      -8.417  14.525  67.304  1.00  0.00    -0.215 C  
HETATM    5  S   UNL     1      -6.976  14.354  68.170  1.00  0.00    -0.142 S  
BRANCH   4   6
HETATM    6  S   UNL     1      -8.707  16.013  66.369  1.00  0.00    -0.341 SA 
BRANCH   6   7
HETATM    7  S   UNL     1      -7.738  17.446  67.499  1.00  0.00    -0.195 SA 
BRANCH   7   8
HETATM    8  C   UNL     1      -8.052  18.913  66.549  1.00  0.00    -0.287 C  
HETATM    9  S   UNL     1      -9.576  19.620  66.709  1.00  0.00    -0.402 S  
BRANCH   8  10
HETATM   10  N   UNL     1      -6.997  19.419  65.765  1.00  0.00    -0.273 N  
HETATM   11  C   UNL     1      -6.264  18.655  64.754  1.00  0.00    -0.031 C  
HETATM   12  C   UNL     1      -6.517  20.800  65.890  1.00  0.00    -0.214 C  
ENDBRANCH   8  10
ENDBRANCH   7   8
ENDBRANCH   6   7
ENDBRANCH   4   6
ENDBRANCH   2   4
TORSDOF 5
ENDMDL
MODEL      267
REMARK 921   NORMALIZED FREE ENERGY PREDICTED BY IDOCK:   -2.20 KCAL/MOL
REMARK 922        TOTAL FREE ENERGY PREDICTED BY IDOCK:   -2.93 KCAL/MOL
REMARK 923 INTER-LIGAND FREE ENERGY PREDICTED BY IDOCK:   -2.73 KCAL/MOL
REMARK 924 INTRA-LIGAND FREE ENERGY PREDICTED BY IDOCK:   -0.20 KCAL/MOL
REMARK 927      BINDING AFFINITY PREDICTED BY RF-SCORE:    0.00 PKD
ROOT
HETATM    1  C   UNL     1     -12.510  14.085  65.992  1.00  0.00    -0.455 C  
HETATM    2  N   UNL     1     -11.319  13.766  65.204  1.00  0.00    -0.303 N  
HETATM    3  C   UNL     1     -10.182  14.672  65.359  1.00  0.00    -0.387 C  
ENDROOT
BRANCH   2   4
HETATM    4  C   UNL     1     -11.312  12.676  64.308  1.00  0.00    -0.363 C  
HETATM    5  S   UNL     1     -12.632  12.219  63.357  1.00  0.00    -0.280 S  
BRANCH   4   6
HETATM    6  S   UNL     1      -9.766  11.809  64.136  1.00  0.00    -0.101 SA 
BRANCH   6   7
HETATM    7  S   UNL     1      -9.548  10.912  65.986  1.00  0.00    -0.220 SA 
BRANCH   7   8
HETATM    8  C   UNL     1      -7.807  10.565  66.004  1.00  0.00    -0.147 C  
HETATM    9  S   UNL     1      -6.878  11.360  67.168  1.00  0.00    -0.135 S  
BRANCH   8  10
HETATM   10  N   UNL     1      -7.322   9.616  65.084  1.00  0.00    -0.109 N  
HETATM   11  C   UNL     1      -7.651   8.189  65.101  1.00  0.00    -0.097 C  
HETATM   12  C   UNL     1      -6.414   9.975  63.989  1.00  0.00    -0.132 C  
ENDBRANCH   8  10
ENDBRANCH   7   8
ENDBRANCH   6   7
ENDBRANCH   4   6
ENDBRANCH   2   4
TORSDOF 5
ENDMDL
MODEL      268
REMARK 921   NORMALIZED FREE ENERGY PREDICTED BY IDOCK:   -2.19 KCAL/MOL
REMARK 922        TOTAL FREE ENERGY PREDICTED BY IDOCK:   -2.93 KCAL/MOL
REMARK 923 INTER-LIGAND FREE ENERGY PREDICTED BY IDOCK:   -2.63 KCAL/MOL
REMARK 924 INTRA-LIGAND FREE ENERGY PREDICTED BY IDOCK:   -0.30 KCAL/MOL
REMARK 927      BINDING AFFINITY PREDICTED BY RF-SCORE:    0.00 PKD
ROOT
HETATM    1  C   UNL     1     -10.158   4.827  70.495  1.00  0.00    -0.220 C  
HETATM    2  N   UNL     1     -10.858   6.011  70.995  1.00  0.00    -0.270 N  
HETATM    3  C   UNL     1     -11.908   6.550  70.132  1.00  0.00    -0.264 C  
ENDROOT
BRANCH   2   4
HETATM    4  C   UNL     1     -10.483   6.615  72.213  1.00  0.00    -0.205 C  
HETATM    5  S   UNL     1     -10.083   5.760  73.615  1.00  0.00    -0.223 S  
BRANCH   4   6
HETATM    6  S   UNL     1     -10.351   8.391  72.203  1.00  0.00    -0.342 SA 
BRANCH   6   7
HETATM    7  S   UNL     1      -8.818   8.717  70.855  1.00  0.00    -0.219 SA 
BRANCH   7   8
HETATM    8  C   UNL     1      -9.710   9.356  69.458  1.00  0.00    -0.183 C  
HETATM    9  S   UNL     1     -11.063  10.312  69.784  1.00  0.00    -0.305 S  
BRANCH   8  10
HETATM   10  N   UNL     1      -9.206   9.068  68.176  1.00  0.00    -0.136 N  
HETATM   11  C   UNL     1      -9.060   7.722  67.616  1.00  0.00    -0.133 C  
HETATM   12  C   UNL     1      -8.764  10.117  67.251  1.00  0.00    -0.129 C  
ENDBRANCH   8  10
ENDBRANCH   7   8
ENDBRANCH   6   7
ENDBRANCH   4   6
ENDBRANCH   2   4
TORSDOF 5
ENDMDL
MODEL      269
REMARK 921   NORMALIZED FREE ENERGY PREDICTED BY IDOCK:   -2.19 KCAL/MOL
REMARK 922        TOTAL FREE ENERGY PREDICTED BY IDOCK:   -2.93 KCAL/MOL
REMARK 923 INTER-LIGAND FREE ENERGY PREDICTED BY IDOCK:   -2.81 KCAL/MOL
REMARK 924 INTRA-LIGAND FREE ENERGY PREDICTED BY IDOCK:   -0.11 KCAL/MOL
REMARK 927      BINDING AFFINITY PREDICTED BY RF-SCORE:    0.00 PKD
ROOT
HETATM    1  C   UNL     1     -11.346  12.214  64.806  1.00  0.00    -0.325 C  
HETATM    2  N   UNL     1     -11.439  12.838  66.126  1.00  0.00    -0.331 N  
HETATM    3  C   UNL     1     -12.351  13.976  66.238  1.00  0.00    -0.448 C  
ENDROOT
BRANCH   2   4
HETATM    4  C   UNL     1     -10.641  12.389  67.200  1.00  0.00    -0.224 C  
HETATM    5  S   UNL     1      -9.566  13.370  68.060  1.00  0.00    -0.222 S  
BRANCH   4   6
HETATM    6  S   UNL     1     -10.877  10.697  67.702  1.00  0.00    -0.310 SA 
BRANCH   6   7
HETATM    7  S   UNL     1      -8.949   9.953  67.687  1.00  0.00    -0.127 SA 
BRANCH   7   8
HETATM    8  C   UNL     1      -9.227   8.251  68.112  1.00  0.00    -0.134 C  
HETATM    9  S   UNL     1     -10.337   7.396  67.171  1.00  0.00    -0.333 S  
BRANCH   8  10
HETATM   10  N   UNL     1      -8.470   7.713  69.170  1.00  0.00    -0.137 N  
HETATM   11  C   UNL     1      -9.032   7.060  70.355  1.00  0.00    -0.155 C  
HETATM   12  C   UNL     1      -7.004   7.756  69.189  1.00  0.00    -0.065 C  
ENDBRANCH   8  10
ENDBRANCH   7   8
ENDBRANCH   6   7
ENDBRANCH   4   6
ENDBRANCH   2   4
TORSDOF 5
ENDMDL
MODEL      270
REMARK 921   NORMALIZED FREE ENERGY PREDICTED BY IDOCK:   -2.19 KCAL/MOL
REMARK 922        TOTAL FREE ENERGY PREDICTED BY IDOCK:   -2.92 KCAL/MOL
REMARK 923 INTER-LIGAND FREE ENERGY PREDICTED BY IDOCK:   -2.69 KCAL/MOL
REMARK 924 INTRA-LIGAND FREE ENERGY PREDICTED BY IDOCK:   -0.23 KCAL/MOL
REMARK 927      BINDING AFFINITY PREDICTED BY RF-SCORE:    0.00 PKD
ROOT
HETATM    1  C   UNL     1     -11.500  14.434  69.262  1.00  0.00    -0.285 C  
HETATM    2  N   UNL     1     -11.176  14.140  67.866  1.00  0.00    -0.268 N  
HETATM    3  C   UNL     1     -10.231  15.050  67.219  1.00  0.00    -0.242 C  
ENDROOT
BRANCH   2   4
HETATM    4  C   UNL     1     -11.798  13.072  67.185  1.00  0.00    -0.373 C  
HETATM    5  S   UNL     1     -12.358  13.156  65.593  1.00  0.00    -0.428 S  
BRANCH   4   6
HETATM    6  S   UNL     1     -11.899  11.529  68.069  1.00  0.00    -0.126 SA 
BRANCH   6   7
HETATM    7  S   UNL     1     -10.406  10.408  67.183  1.00  0.00    -0.252 SA 
BRANCH   7   8
HETATM    8  C   UNL     1      -9.314  10.131  68.556  1.00  0.00    -0.151 C  
HETATM    9  S   UNL     1      -9.737   8.906  69.638  1.00  0.00    -0.179 S  
BRANCH   8  10
HETATM   10  N   UNL     1      -8.146  10.913  68.626  1.00  0.00    -0.135 N  
HETATM   11  C   UNL     1      -6.975  10.597  69.447  1.00  0.00    -0.106 C  
HETATM   12  C   UNL     1      -7.984  12.155  67.863  1.00  0.00    -0.150 C  
ENDBRANCH   8  10
ENDBRANCH   7   8
ENDBRANCH   6   7
ENDBRANCH   4   6
ENDBRANCH   2   4
TORSDOF 5
ENDMDL
MODEL      271
REMARK 921   NORMALIZED FREE ENERGY PREDICTED BY IDOCK:   -2.18 KCAL/MOL
REMARK 922        TOTAL FREE ENERGY PREDICTED BY IDOCK:   -2.91 KCAL/MOL
REMARK 923 INTER-LIGAND FREE ENERGY PREDICTED BY IDOCK:   -2.77 KCAL/MOL
REMARK 924 INTRA-LIGAND FREE ENERGY PREDICTED BY IDOCK:   -0.14 KCAL/MOL
REMARK 927      BINDING AFFINITY PREDICTED BY RF-SCORE:    0.00 PKD
ROOT
HETATM    1  C   UNL     1     -11.288  11.490  67.688  1.00  0.00    -0.291 C  
HETATM    2  N   UNL     1     -11.062  10.176  68.290  1.00  0.00    -0.253 N  
HETATM    3  C   UNL     1     -10.684   9.103  67.371  1.00  0.00    -0.177 C  
ENDROOT
BRANCH   2   4
HETATM    4  C   UNL     1     -11.264   9.965  69.671  1.00  0.00    -0.208 C  
HETATM    5  S   UNL     1     -12.499  10.685  70.572  1.00  0.00    -0.352 S  
BRANCH   4   6
HETATM    6  S   UNL     1     -10.178   8.791  70.454  1.00  0.00    -0.207 SA 
BRANCH   6   7
HETATM    7  S   UNL     1     -11.459   7.236  70.914  1.00  0.00    -0.301 SA 
BRANCH   7   8
HETATM    8  C   UNL     1     -10.552   5.840  70.294  1.00  0.00    -0.299 C  
HETATM    9  S   UNL     1     -10.413   5.698  68.618  1.00  0.00    -0.188 S  
BRANCH   8  10
HETATM   10  N   UNL     1      -9.967   4.973  71.237  1.00  0.00    -0.188 N  
HETATM   11  C   UNL     1      -9.397   3.660  70.927  1.00  0.00    -0.148 C  
HETATM   12  C   UNL     1      -9.870   5.311  72.661  1.00  0.00    -0.160 C  
ENDBRANCH   8  10
ENDBRANCH   7   8
ENDBRANCH   6   7
ENDBRANCH   4   6
ENDBRANCH   2   4
TORSDOF 5
ENDMDL
MODEL      272
REMARK 921   NORMALIZED FREE ENERGY PREDICTED BY IDOCK:   -2.18 KCAL/MOL
REMARK 922        TOTAL FREE ENERGY PREDICTED BY IDOCK:   -2.91 KCAL/MOL
REMARK 923 INTER-LIGAND FREE ENERGY PREDICTED BY IDOCK:   -2.67 KCAL/MOL
REMARK 924 INTRA-LIGAND FREE ENERGY PREDICTED BY IDOCK:   -0.23 KCAL/MOL
REMARK 927      BINDING AFFINITY PREDICTED BY RF-SCORE:    0.00 PKD
ROOT
HETATM    1  C   UNL     1     -11.761  12.874  69.511  1.00  0.00    -0.323 C  
HETATM    2  N   UNL     1     -11.165  13.742  68.495  1.00  0.00    -0.260 N  
HETATM    3  C   UNL     1     -11.597  15.139  68.509  1.00  0.00    -0.335 C  
ENDROOT
BRANCH   2   4
HETATM    4  C   UNL     1     -10.274  13.226  67.530  1.00  0.00    -0.222 C  
HETATM    5  S   UNL     1      -8.590  13.296  67.657  1.00  0.00    -0.211 S  
BRANCH   4   6
HETATM    6  S   UNL     1     -11.014  12.379  66.150  1.00  0.00    -0.299 SA 
BRANCH   6   7
HETATM    7  S   UNL     1     -10.376  10.432  66.426  1.00  0.00    -0.183 SA 
BRANCH   7   8
HETATM    8  C   UNL     1      -9.072  10.318  65.227  1.00  0.00    -0.191 C  
HETATM    9  S   UNL     1      -9.499  10.522  63.607  1.00  0.00    -0.326 S  
BRANCH   8  10
HETATM   10  N   UNL     1      -7.763  10.115  65.705  1.00  0.00    -0.130 N  
HETATM   11  C   UNL     1      -6.546  10.272  64.907  1.00  0.00    -0.105 C  
HETATM   12  C   UNL     1      -7.486   9.713  67.089  1.00  0.00    -0.088 C  
ENDBRANCH   8  10
ENDBRANCH   7   8
ENDBRANCH   6   7
ENDBRANCH   4   6
ENDBRANCH   2   4
TORSDOF 5
ENDMDL
MODEL      273
REMARK 921   NORMALIZED FREE ENERGY PREDICTED BY IDOCK:   -2.18 KCAL/MOL
REMARK 922        TOTAL FREE ENERGY PREDICTED BY IDOCK:   -2.91 KCAL/MOL
REMARK 923 INTER-LIGAND FREE ENERGY PREDICTED BY IDOCK:   -2.73 KCAL/MOL
REMARK 924 INTRA-LIGAND FREE ENERGY PREDICTED BY IDOCK:   -0.17 KCAL/MOL
REMARK 927      BINDING AFFINITY PREDICTED BY RF-SCORE:    0.00 PKD
ROOT
HETATM    1  C   UNL     1     -14.062   7.652  71.628  1.00  0.00    -0.434 C  
HETATM    2  N   UNL     1     -12.933   8.567  71.790  1.00  0.00    -0.338 N  
HETATM    3  C   UNL     1     -13.266   9.986  71.912  1.00  0.00    -0.452 C  
ENDROOT
BRANCH   2   4
HETATM    4  C   UNL     1     -11.604   8.092  71.764  1.00  0.00    -0.291 C  
HETATM    5  S   UNL     1     -10.243   9.083  71.613  1.00  0.00    -0.304 S  
BRANCH   4   6
HETATM    6  S   UNL     1     -11.391   6.339  71.996  1.00  0.00    -0.312 SA 
BRANCH   6   7
HETATM    7  S   UNL     1      -9.532   6.001  71.159  1.00  0.00    -0.165 SA 
BRANCH   7   8
HETATM    8  C   UNL     1      -8.591   5.509  72.583  1.00  0.00    -0.124 C  
HETATM    9  S   UNL     1      -9.309   5.736  74.094  1.00  0.00    -0.144 S  
BRANCH   8  10
HETATM   10  N   UNL     1      -7.333   4.918  72.360  1.00  0.00    -0.085 N  
HETATM   11  C   UNL     1      -7.114   3.659  71.645  1.00  0.00    -0.035 C  
HETATM   12  C   UNL     1      -6.084   5.523  72.836  1.00  0.00    -0.046 C  
ENDBRANCH   8  10
ENDBRANCH   7   8
ENDBRANCH   6   7
ENDBRANCH   4   6
ENDBRANCH   2   4
TORSDOF 5
ENDMDL
MODEL      274
REMARK 921   NORMALIZED FREE ENERGY PREDICTED BY IDOCK:   -2.17 KCAL/MOL
REMARK 922        TOTAL FREE ENERGY PREDICTED BY IDOCK:   -2.90 KCAL/MOL
REMARK 923 INTER-LIGAND FREE ENERGY PREDICTED BY IDOCK:   -2.72 KCAL/MOL
REMARK 924 INTRA-LIGAND FREE ENERGY PREDICTED BY IDOCK:   -0.18 KCAL/MOL
REMARK 927      BINDING AFFINITY PREDICTED BY RF-SCORE:    0.00 PKD
ROOT
HETATM    1  C   UNL     1     -11.896  12.358  63.650  1.00  0.00    -0.526 C  
HETATM    2  N   UNL     1     -11.581  13.163  64.830  1.00  0.00    -0.320 N  
HETATM    3  C   UNL     1     -12.278  14.444  64.939  1.00  0.00    -0.433 C  
ENDROOT
BRANCH   2   4
HETATM    4  C   UNL     1     -10.613  12.736  65.763  1.00  0.00    -0.273 C  
HETATM    5  S   UNL     1      -9.557  13.773  66.580  1.00  0.00    -0.270 S  
BRANCH   4   6
HETATM    6  S   UNL     1     -10.597  10.996  66.139  1.00  0.00    -0.192 SA 
BRANCH   6   7
HETATM    7  S   UNL     1      -8.612  10.495  65.856  1.00  0.00    -0.168 SA 
BRANCH   7   8
HETATM    8  C   UNL     1      -8.184   9.843  67.451  1.00  0.00    -0.118 C  
HETATM    9  S   UNL     1      -8.631  10.756  68.799  1.00  0.00    -0.150 S  
BRANCH   8  10
HETATM   10  N   UNL     1      -7.547   8.588  67.492  1.00  0.00    -0.097 N  
HETATM   11  C   UNL     1      -6.576   8.109  66.506  1.00  0.00    -0.055 C  
HETATM   12  C   UNL     1      -7.804   7.611  68.555  1.00  0.00    -0.121 C  
ENDBRANCH   8  10
ENDBRANCH   7   8
ENDBRANCH   6   7
ENDBRANCH   4   6
ENDBRANCH   2   4
TORSDOF 5
ENDMDL
MODEL      275
REMARK 921   NORMALIZED FREE ENERGY PREDICTED BY IDOCK:   -2.17 KCAL/MOL
REMARK 922        TOTAL FREE ENERGY PREDICTED BY IDOCK:   -2.89 KCAL/MOL
REMARK 923 INTER-LIGAND FREE ENERGY PREDICTED BY IDOCK:   -2.63 KCAL/MOL
REMARK 924 INTRA-LIGAND FREE ENERGY PREDICTED BY IDOCK:   -0.26 KCAL/MOL
REMARK 927      BINDING AFFINITY PREDICTED BY RF-SCORE:    0.00 PKD
ROOT
HETATM    1  C   UNL     1     -11.386   6.579  70.140  1.00  0.00    -0.402 C  
HETATM    2  N   UNL     1     -10.493   5.533  69.639  1.00  0.00    -0.290 N  
HETATM    3  C   UNL     1      -9.858   4.690  70.651  1.00  0.00    -0.226 C  
ENDROOT
BRANCH   2   4
HETATM    4  C   UNL     1     -10.228   5.404  68.259  1.00  0.00    -0.160 C  
HETATM    5  S   UNL     1      -9.401   4.103  67.567  1.00  0.00    -0.182 S  
BRANCH   4   6
HETATM    6  S   UNL     1     -10.904   6.672  67.207  1.00  0.00    -0.395 SA 
BRANCH   6   7
HETATM    7  S   UNL     1      -9.207   7.592  66.469  1.00  0.00    -0.174 SA 
BRANCH   7   8
HETATM    8  C   UNL     1      -8.967   8.890  67.657  1.00  0.00    -0.134 C  
HETATM    9  S   UNL     1      -8.142   8.490  69.075  1.00  0.00    -0.116 S  
BRANCH   8  10
HETATM   10  N   UNL     1      -9.434  10.175  67.321  1.00  0.00    -0.152 N  
HETATM   11  C   UNL     1      -9.728  10.630  65.961  1.00  0.00    -0.208 C  
HETATM   12  C   UNL     1      -9.677  11.211  68.331  1.00  0.00    -0.191 C  
ENDBRANCH   8  10
ENDBRANCH   7   8
ENDBRANCH   6   7
ENDBRANCH   4   6
ENDBRANCH   2   4
TORSDOF 5
ENDMDL
MODEL      276
REMARK 921   NORMALIZED FREE ENERGY PREDICTED BY IDOCK:   -2.16 KCAL/MOL
REMARK 922        TOTAL FREE ENERGY PREDICTED BY IDOCK:   -2.88 KCAL/MOL
REMARK 923 INTER-LIGAND FREE ENERGY PREDICTED BY IDOCK:   -2.53 KCAL/MOL
REMARK 924 INTRA-LIGAND FREE ENERGY PREDICTED BY IDOCK:   -0.35 KCAL/MOL
REMARK 927      BINDING AFFINITY PREDICTED BY RF-SCORE:    0.00 PKD
ROOT
HETATM    1  C   UNL     1     -11.094  14.402  69.102  1.00  0.00    -0.265 C  
HETATM    2  N   UNL     1     -10.629  13.665  67.927  1.00  0.00    -0.245 N  
HETATM    3  C   UNL     1      -9.787  14.410  66.992  1.00  0.00    -0.252 C  
ENDROOT
BRANCH   2   4
HETATM    4  C   UNL     1     -11.033  12.333  67.698  1.00  0.00    -0.244 C  
HETATM    5  S   UNL     1     -11.747  11.341  68.866  1.00  0.00    -0.350 S  
BRANCH   4   6
HETATM    6  S   UNL     1     -10.841  11.726  66.034  1.00  0.00    -0.299 SA 
BRANCH   6   7
HETATM    7  S   UNL     1     -10.161   9.798  66.337  1.00  0.00    -0.225 SA 
BRANCH   7   8
HETATM    8  C   UNL     1      -8.469  10.091  66.790  1.00  0.00    -0.125 C  
HETATM    9  S   UNL     1      -7.345  10.194  65.534  1.00  0.00    -0.146 S  
BRANCH   8  10
HETATM   10  N   UNL     1      -8.182  10.267  68.157  1.00  0.00    -0.113 N  
HETATM   11  C   UNL     1      -8.429   9.269  69.200  1.00  0.00    -0.133 C  
HETATM   12  C   UNL     1      -7.591  11.502  68.683  1.00  0.00    -0.134 C  
ENDBRANCH   8  10
ENDBRANCH   7   8
ENDBRANCH   6   7
ENDBRANCH   4   6
ENDBRANCH   2   4
TORSDOF 5
ENDMDL
MODEL      277
REMARK 921   NORMALIZED FREE ENERGY PREDICTED BY IDOCK:   -2.16 KCAL/MOL
REMARK 922        TOTAL FREE ENERGY PREDICTED BY IDOCK:   -2.88 KCAL/MOL
REMARK 923 INTER-LIGAND FREE ENERGY PREDICTED BY IDOCK:   -2.68 KCAL/MOL
REMARK 924 INTRA-LIGAND FREE ENERGY PREDICTED BY IDOCK:   -0.20 KCAL/MOL
REMARK 927      BINDING AFFINITY PREDICTED BY RF-SCORE:    0.00 PKD
ROOT
HETATM    1  C   UNL     1     -10.800   8.975  71.715  1.00  0.00    -0.367 C  
HETATM    2  N   UNL     1     -11.299   7.841  70.937  1.00  0.00    -0.273 N  
HETATM    3  C   UNL     1     -12.590   7.295  71.353  1.00  0.00    -0.388 C  
ENDROOT
BRANCH   2   4
HETATM    4  C   UNL     1     -10.534   7.286  69.890  1.00  0.00    -0.225 C  
HETATM    5  S   UNL     1      -9.717   8.196  68.723  1.00  0.00    -0.156 S  
BRANCH   4   6
HETATM    6  S   UNL     1     -10.374   5.512  69.888  1.00  0.00    -0.317 SA 
BRANCH   6   7
HETATM    7  S   UNL     1      -8.905   5.194  71.307  1.00  0.00    -0.137 SA 
BRANCH   7   8
HETATM    8  C   UNL     1      -9.819   4.353  72.575  1.00  0.00    -0.159 C  
HETATM    9  S   UNL     1     -10.711   5.310  73.642  1.00  0.00    -0.291 S  
BRANCH   8  10
HETATM   10  N   UNL     1      -9.783   2.945  72.579  1.00  0.00    -0.128 N  
HETATM   11  C   UNL     1      -8.747   2.132  71.938  1.00  0.00    -0.068 C  
HETATM   12  C   UNL     1     -10.809   2.135  73.244  1.00  0.00    -0.172 C  
ENDBRANCH   8  10
ENDBRANCH   7   8
ENDBRANCH   6   7
ENDBRANCH   4   6
ENDBRANCH   2   4
TORSDOF 5
ENDMDL
MODEL      278
REMARK 921   NORMALIZED FREE ENERGY PREDICTED BY IDOCK:   -2.15 KCAL/MOL
REMARK 922        TOTAL FREE ENERGY PREDICTED BY IDOCK:   -2.87 KCAL/MOL
REMARK 923 INTER-LIGAND FREE ENERGY PREDICTED BY IDOCK:   -2.77 KCAL/MOL
REMARK 924 INTRA-LIGAND FREE ENERGY PREDICTED BY IDOCK:   -0.10 KCAL/MOL
REMARK 927      BINDING AFFINITY PREDICTED BY RF-SCORE:    0.00 PKD
ROOT
HETATM    1  C   UNL     1     -12.656  12.940  71.115  1.00  0.00    -0.281 C  
HETATM    2  N   UNL     1     -12.281  14.053  70.243  1.00  0.00    -0.341 N  
HETATM    3  C   UNL     1     -12.703  15.383  70.680  1.00  0.00    -0.437 C  
ENDROOT
BRANCH   2   4
HETATM    4  C   UNL     1     -11.604  13.826  69.026  1.00  0.00    -0.313 C  
HETATM    5  S   UNL     1     -11.308  15.019  67.866  1.00  0.00    -0.339 S  
BRANCH   4   6
HETATM    6  S   UNL     1     -10.963  12.183  68.777  1.00  0.00    -0.233 SA 
BRANCH   6   7
HETATM    7  S   UNL     1      -9.165  12.545  67.825  1.00  0.00    -0.206 SA 
BRANCH   7   8
HETATM    8  C   UNL     1      -8.915  11.017  66.955  1.00  0.00    -0.148 C  
HETATM    9  S   UNL     1     -10.281  10.280  66.290  1.00  0.00    -0.195 S  
BRANCH   8  10
HETATM   10  N   UNL     1      -7.594  10.545  66.833  1.00  0.00    -0.106 N  
HETATM   11  C   UNL     1      -6.771  10.063  67.945  1.00  0.00    -0.067 C  
HETATM   12  C   UNL     1      -6.895  10.491  65.545  1.00  0.00    -0.100 C  
ENDBRANCH   8  10
ENDBRANCH   7   8
ENDBRANCH   6   7
ENDBRANCH   4   6
ENDBRANCH   2   4
TORSDOF 5
ENDMDL
MODEL      279
REMARK 921   NORMALIZED FREE ENERGY PREDICTED BY IDOCK:   -2.13 KCAL/MOL
REMARK 922        TOTAL FREE ENERGY PREDICTED BY IDOCK:   -2.84 KCAL/MOL
REMARK 923 INTER-LIGAND FREE ENERGY PREDICTED BY IDOCK:   -2.66 KCAL/MOL
REMARK 924 INTRA-LIGAND FREE ENERGY PREDICTED BY IDOCK:   -0.18 KCAL/MOL
REMARK 927      BINDING AFFINITY PREDICTED BY RF-SCORE:    0.00 PKD
ROOT
HETATM    1  C   UNL     1     -10.458  13.921  68.586  1.00  0.00    -0.246 C  
HETATM    2  N   UNL     1     -10.171  14.528  67.286  1.00  0.00    -0.254 N  
HETATM    3  C   UNL     1     -10.004  15.980  67.276  1.00  0.00    -0.242 C  
ENDROOT
BRANCH   2   4
HETATM    4  C   UNL     1     -10.125  13.744  66.113  1.00  0.00    -0.307 C  
HETATM    5  S   UNL     1     -10.715  14.245  64.611  1.00  0.00    -0.275 S  
BRANCH   4   6
HETATM    6  S   UNL     1      -9.304  12.170  66.252  1.00  0.00    -0.187 SA 
BRANCH   6   7
HETATM    7  S   UNL     1     -10.226  11.054  64.776  1.00  0.00    -0.333 SA 
BRANCH   7   8
HETATM    8  C   UNL     1      -8.834  10.243  64.029  1.00  0.00    -0.221 C  
HETATM    9  S   UNL     1      -8.626  10.450  62.367  1.00  0.00    -0.244 S  
BRANCH   8  10
HETATM   10  N   UNL     1      -7.969   9.523  64.876  1.00  0.00    -0.115 N  
HETATM   11  C   UNL     1      -8.394   8.494  65.828  1.00  0.00    -0.140 C  
HETATM   12  C   UNL     1      -6.519   9.740  64.885  1.00  0.00    -0.100 C  
ENDBRANCH   8  10
ENDBRANCH   7   8
ENDBRANCH   6   7
ENDBRANCH   4   6
ENDBRANCH   2   4
TORSDOF 5
ENDMDL
MODEL      280
REMARK 921   NORMALIZED FREE ENERGY PREDICTED BY IDOCK:   -2.13 KCAL/MOL
REMARK 922        TOTAL FREE ENERGY PREDICTED BY IDOCK:   -2.84 KCAL/MOL
REMARK 923 INTER-LIGAND FREE ENERGY PREDICTED BY IDOCK:   -2.66 KCAL/MOL
REMARK 924 INTRA-LIGAND FREE ENERGY PREDICTED BY IDOCK:   -0.18 KCAL/MOL
REMARK 927      BINDING AFFINITY PREDICTED BY RF-SCORE:    0.00 PKD
ROOT
HETATM    1  C   UNL     1      -6.483  12.290  69.116  1.00  0.00    -0.100 C  
HETATM    2  N   UNL     1      -7.222  13.213  68.254  1.00  0.00    -0.096 N  
HETATM    3  C   UNL     1      -6.713  14.582  68.190  1.00  0.00    -0.125 C  
ENDROOT
BRANCH   2   4
HETATM    4  C   UNL     1      -8.391  12.798  67.581  1.00  0.00    -0.175 C  
HETATM    5  S   UNL     1      -8.444  11.540  66.454  1.00  0.00    -0.093 S  
BRANCH   4   6
HETATM    6  S   UNL     1      -9.900  13.623  68.045  1.00  0.00    -0.250 SA 
BRANCH   6   7
HETATM    7  S   UNL     1     -10.095  15.059  66.572  1.00  0.00    -0.289 SA 
BRANCH   7   8
HETATM    8  C   UNL     1     -10.214  16.542  67.542  1.00  0.00    -0.283 C  
HETATM    9  S   UNL     1     -10.968  16.416  69.047  1.00  0.00    -0.313 S  
BRANCH   8  10
HETATM   10  N   UNL     1      -9.631  17.712  67.018  1.00  0.00    -0.267 N  
HETATM   11  C   UNL     1      -8.280  18.184  67.326  1.00  0.00    -0.229 C  
HETATM   12  C   UNL     1     -10.342  18.595  66.087  1.00  0.00    -0.443 C  
ENDBRANCH   8  10
ENDBRANCH   7   8
ENDBRANCH   6   7
ENDBRANCH   4   6
ENDBRANCH   2   4
TORSDOF 5
ENDMDL
MODEL      281
REMARK 921   NORMALIZED FREE ENERGY PREDICTED BY IDOCK:   -2.11 KCAL/MOL
REMARK 922        TOTAL FREE ENERGY PREDICTED BY IDOCK:   -2.82 KCAL/MOL
REMARK 923 INTER-LIGAND FREE ENERGY PREDICTED BY IDOCK:   -2.71 KCAL/MOL
REMARK 924 INTRA-LIGAND FREE ENERGY PREDICTED BY IDOCK:   -0.11 KCAL/MOL
REMARK 927      BINDING AFFINITY PREDICTED BY RF-SCORE:    0.00 PKD
ROOT
HETATM    1  C   UNL     1     -10.100   9.517  66.179  1.00  0.00    -0.256 C  
HETATM    2  N   UNL     1      -8.785  10.098  65.908  1.00  0.00    -0.141 N  
HETATM    3  C   UNL     1      -7.895   9.308  65.058  1.00  0.00    -0.111 C  
ENDROOT
BRANCH   2   4
HETATM    4  C   UNL     1      -8.397  11.322  66.493  1.00  0.00    -0.168 C  
HETATM    5  S   UNL     1      -6.909  11.585  67.250  1.00  0.00    -0.129 S  
BRANCH   4   6
HETATM    6  S   UNL     1      -9.544  12.674  66.323  1.00  0.00    -0.214 SA 
BRANCH   6   7
HETATM    7  S   UNL     1      -9.460  13.568  68.184  1.00  0.00    -0.214 SA 
BRANCH   7   8
HETATM    8  C   UNL     1     -11.158  14.024  68.431  1.00  0.00    -0.253 C  
HETATM    9  S   UNL     1     -12.211  13.797  67.131  1.00  0.00    -0.219 S  
BRANCH   8  10
HETATM   10  N   UNL     1     -11.527  14.496  69.706  1.00  0.00    -0.269 N  
HETATM   11  C   UNL     1     -12.370  13.768  70.657  1.00  0.00    -0.375 C  
HETATM   12  C   UNL     1     -11.092  15.800  70.217  1.00  0.00    -0.361 C  
ENDBRANCH   8  10
ENDBRANCH   7   8
ENDBRANCH   6   7
ENDBRANCH   4   6
ENDBRANCH   2   4
TORSDOF 5
ENDMDL
MODEL      282
REMARK 921   NORMALIZED FREE ENERGY PREDICTED BY IDOCK:   -2.11 KCAL/MOL
REMARK 922        TOTAL FREE ENERGY PREDICTED BY IDOCK:   -2.82 KCAL/MOL
REMARK 923 INTER-LIGAND FREE ENERGY PREDICTED BY IDOCK:   -2.55 KCAL/MOL
REMARK 924 INTRA-LIGAND FREE ENERGY PREDICTED BY IDOCK:   -0.27 KCAL/MOL
REMARK 927      BINDING AFFINITY PREDICTED BY RF-SCORE:    0.00 PKD
ROOT
HETATM    1  C   UNL     1      -5.642  11.413  67.011  1.00  0.00    -0.101 C  
HETATM    2  N   UNL     1      -6.964  12.008  67.203  1.00  0.00    -0.146 N  
HETATM    3  C   UNL     1      -6.988  13.354  67.773  1.00  0.00    -0.156 C  
ENDROOT
BRANCH   2   4
HETATM    4  C   UNL     1      -8.137  11.283  66.904  1.00  0.00    -0.155 C  
HETATM    5  S   UNL     1      -8.210  10.007  65.798  1.00  0.00    -0.136 S  
BRANCH   4   6
HETATM    6  S   UNL     1      -9.590  11.716  67.839  1.00  0.00    -0.186 SA 
BRANCH   6   7
HETATM    7  S   UNL     1     -10.666  12.855  66.491  1.00  0.00    -0.272 SA 
BRANCH   7   8
HETATM    8  C   UNL     1     -10.301  14.500  67.052  1.00  0.00    -0.263 C  
HETATM    9  S   UNL     1      -9.594  15.552  65.937  1.00  0.00    -0.335 S  
BRANCH   8  10
HETATM   10  N   UNL     1     -10.668  14.835  68.370  1.00  0.00    -0.237 N  
HETATM   11  C   UNL     1     -11.936  14.470  69.004  1.00  0.00    -0.299 C  
HETATM   12  C   UNL     1      -9.791  15.606  69.258  1.00  0.00    -0.269 C  
ENDBRANCH   8  10
ENDBRANCH   7   8
ENDBRANCH   6   7
ENDBRANCH   4   6
ENDBRANCH   2   4
TORSDOF 5
ENDMDL
MODEL      283
REMARK 921   NORMALIZED FREE ENERGY PREDICTED BY IDOCK:   -2.11 KCAL/MOL
REMARK 922        TOTAL FREE ENERGY PREDICTED BY IDOCK:   -2.82 KCAL/MOL
REMARK 923 INTER-LIGAND FREE ENERGY PREDICTED BY IDOCK:   -2.73 KCAL/MOL
REMARK 924 INTRA-LIGAND FREE ENERGY PREDICTED BY IDOCK:   -0.09 KCAL/MOL
REMARK 927      BINDING AFFINITY PREDICTED BY RF-SCORE:    0.00 PKD
ROOT
HETATM    1  C   UNL     1      -9.663  15.508  65.898  1.00  0.00    -0.357 C  
HETATM    2  N   UNL     1     -10.656  14.633  66.522  1.00  0.00    -0.294 N  
HETATM    3  C   UNL     1     -11.958  14.563  65.859  1.00  0.00    -0.309 C  
ENDROOT
BRANCH   2   4
HETATM    4  C   UNL     1     -10.373  13.955  67.726  1.00  0.00    -0.240 C  
HETATM    5  S   UNL     1     -11.248  14.153  69.158  1.00  0.00    -0.279 S  
BRANCH   4   6
HETATM    6  S   UNL     1      -9.055  12.758  67.663  1.00  0.00    -0.204 SA 
BRANCH   6   7
HETATM    7  S   UNL     1      -9.922  11.194  66.625  1.00  0.00    -0.214 SA 
BRANCH   7   8
HETATM    8  C   UNL     1     -10.416  10.124  67.953  1.00  0.00    -0.222 C  
HETATM    9  S   UNL     1     -11.744  10.608  68.875  1.00  0.00    -0.135 S  
BRANCH   8  10
HETATM   10  N   UNL     1      -9.703   8.921  68.119  1.00  0.00    -0.156 N  
HETATM   11  C   UNL     1     -10.263   7.582  67.926  1.00  0.00    -0.194 C  
HETATM   12  C   UNL     1      -8.291   8.893  68.514  1.00  0.00    -0.125 C  
ENDBRANCH   8  10
ENDBRANCH   7   8
ENDBRANCH   6   7
ENDBRANCH   4   6
ENDBRANCH   2   4
TORSDOF 5
ENDMDL
MODEL      284
REMARK 921   NORMALIZED FREE ENERGY PREDICTED BY IDOCK:   -2.11 KCAL/MOL
REMARK 922        TOTAL FREE ENERGY PREDICTED BY IDOCK:   -2.81 KCAL/MOL
REMARK 923 INTER-LIGAND FREE ENERGY PREDICTED BY IDOCK:   -2.63 KCAL/MOL
REMARK 924 INTRA-LIGAND FREE ENERGY PREDICTED BY IDOCK:   -0.18 KCAL/MOL
REMARK 927      BINDING AFFINITY PREDICTED BY RF-SCORE:    0.00 PKD
ROOT
HETATM    1  C   UNL     1     -11.065  14.154  64.945  1.00  0.00    -0.385 C  
HETATM    2  N   UNL     1     -11.144  13.520  66.261  1.00  0.00    -0.299 N  
HETATM    3  C   UNL     1     -12.157  14.051  67.171  1.00  0.00    -0.401 C  
ENDROOT
BRANCH   2   4
HETATM    4  C   UNL     1     -10.243  12.499  66.630  1.00  0.00    -0.230 C  
HETATM    5  S   UNL     1      -9.265  12.546  68.008  1.00  0.00    -0.207 S  
BRANCH   4   6
HETATM    6  S   UNL     1     -10.233  11.048  65.597  1.00  0.00    -0.262 SA 
BRANCH   6   7
HETATM    7  S   UNL     1     -10.237   9.514  66.982  1.00  0.00    -0.257 SA 
BRANCH   7   8
HETATM    8  C   UNL     1      -8.654   8.766  66.681  1.00  0.00    -0.112 C  
HETATM    9  S   UNL     1      -7.529   9.676  65.812  1.00  0.00    -0.104 S  
BRANCH   8  10
HETATM   10  N   UNL     1      -8.423   7.489  67.227  1.00  0.00    -0.118 N  
HETATM   11  C   UNL     1      -7.855   7.235  68.553  1.00  0.00    -0.122 C  
HETATM   12  C   UNL     1      -8.738   6.255  66.499  1.00  0.00    -0.131 C  
ENDBRANCH   8  10
ENDBRANCH   7   8
ENDBRANCH   6   7
ENDBRANCH   4   6
ENDBRANCH   2   4
TORSDOF 5
ENDMDL
MODEL      285
REMARK 921   NORMALIZED FREE ENERGY PREDICTED BY IDOCK:   -2.10 KCAL/MOL
REMARK 922        TOTAL FREE ENERGY PREDICTED BY IDOCK:   -2.81 KCAL/MOL
REMARK 923 INTER-LIGAND FREE ENERGY PREDICTED BY IDOCK:   -2.68 KCAL/MOL
REMARK 924 INTRA-LIGAND FREE ENERGY PREDICTED BY IDOCK:   -0.13 KCAL/MOL
REMARK 927      BINDING AFFINITY PREDICTED BY RF-SCORE:    0.00 PKD
ROOT
HETATM    1  C   UNL     1      -8.255   6.758  69.923  1.00  0.00    -0.127 C  
HETATM    2  N   UNL     1      -8.623   8.164  69.756  1.00  0.00    -0.132 N  
HETATM    3  C   UNL     1      -8.326   9.046  70.884  1.00  0.00    -0.197 C  
ENDROOT
BRANCH   2   4
HETATM    4  C   UNL     1      -9.283   8.608  68.590  1.00  0.00    -0.138 C  
HETATM    5  S   UNL     1     -10.234   7.622  67.601  1.00  0.00    -0.234 S  
BRANCH   4   6
HETATM    6  S   UNL     1      -9.148  10.346  68.225  1.00  0.00    -0.150 SA 
BRANCH   6   7
HETATM    7  S   UNL     1     -11.101  10.862  67.785  1.00  0.00    -0.318 SA 
BRANCH   7   8
HETATM    8  C   UNL     1     -11.022  12.635  67.867  1.00  0.00    -0.230 C  
HETATM    9  S   UNL     1     -10.494  13.444  66.483  1.00  0.00    -0.287 S  
BRANCH   8  10
HETATM   10  N   UNL     1     -11.449  13.251  69.059  1.00  0.00    -0.283 N  
HETATM   11  C   UNL     1     -12.081  12.555  70.182  1.00  0.00    -0.292 C  
HETATM   12  C   UNL     1     -11.299  14.691  69.296  1.00  0.00    -0.286 C  
ENDBRANCH   8  10
ENDBRANCH   7   8
ENDBRANCH   6   7
ENDBRANCH   4   6
ENDBRANCH   2   4
TORSDOF 5
ENDMDL
MODEL      286
REMARK 921   NORMALIZED FREE ENERGY PREDICTED BY IDOCK:   -2.10 KCAL/MOL
REMARK 922        TOTAL FREE ENERGY PREDICTED BY IDOCK:   -2.81 KCAL/MOL
REMARK 923 INTER-LIGAND FREE ENERGY PREDICTED BY IDOCK:   -2.62 KCAL/MOL
REMARK 924 INTRA-LIGAND FREE ENERGY PREDICTED BY IDOCK:   -0.18 KCAL/MOL
REMARK 927      BINDING AFFINITY PREDICTED BY RF-SCORE:    0.00 PKD
ROOT
HETATM    1  C   UNL     1     -11.813   6.995  70.823  1.00  0.00    -0.355 C  
HETATM    2  N   UNL     1     -10.826   7.093  69.748  1.00  0.00    -0.239 N  
HETATM    3  C   UNL     1     -10.988   6.157  68.637  1.00  0.00    -0.336 C  
ENDROOT
BRANCH   2   4
HETATM    4  C   UNL     1      -9.752   8.005  69.830  1.00  0.00    -0.176 C  
HETATM    5  S   UNL     1      -9.134   8.619  71.278  1.00  0.00    -0.233 S  
BRANCH   4   6
HETATM    6  S   UNL     1      -8.971   8.441  68.289  1.00  0.00    -0.139 SA 
BRANCH   6   7
HETATM    7  S   UNL     1     -10.288   9.821  67.496  1.00  0.00    -0.253 SA 
BRANCH   7   8
HETATM    8  C   UNL     1      -9.170  11.013  66.801  1.00  0.00    -0.161 C  
HETATM    9  S   UNL     1      -8.904  12.424  67.689  1.00  0.00    -0.188 S  
BRANCH   8  10
HETATM   10  N   UNL     1      -8.542  10.685  65.585  1.00  0.00    -0.178 N  
HETATM   11  C   UNL     1      -9.215  10.619  64.286  1.00  0.00    -0.233 C  
HETATM   12  C   UNL     1      -7.112  10.369  65.499  1.00  0.00    -0.133 C  
ENDBRANCH   8  10
ENDBRANCH   7   8
ENDBRANCH   6   7
ENDBRANCH   4   6
ENDBRANCH   2   4
TORSDOF 5
ENDMDL
MODEL      287
REMARK 921   NORMALIZED FREE ENERGY PREDICTED BY IDOCK:   -2.10 KCAL/MOL
REMARK 922        TOTAL FREE ENERGY PREDICTED BY IDOCK:   -2.81 KCAL/MOL
REMARK 923 INTER-LIGAND FREE ENERGY PREDICTED BY IDOCK:   -2.62 KCAL/MOL
REMARK 924 INTRA-LIGAND FREE ENERGY PREDICTED BY IDOCK:   -0.19 KCAL/MOL
REMARK 927      BINDING AFFINITY PREDICTED BY RF-SCORE:    0.00 PKD
ROOT
HETATM    1  C   UNL     1      -8.239   8.080  66.843  1.00  0.00    -0.115 C  
HETATM    2  N   UNL     1      -9.554   8.197  67.472  1.00  0.00    -0.151 N  
HETATM    3  C   UNL     1     -10.548   7.199  67.077  1.00  0.00    -0.343 C  
ENDROOT
BRANCH   2   4
HETATM    4  C   UNL     1      -9.844   9.256  68.358  1.00  0.00    -0.155 C  
HETATM    5  S   UNL     1     -11.092  10.372  68.131  1.00  0.00    -0.263 S  
BRANCH   4   6
HETATM    6  S   UNL     1      -8.861   9.330  69.842  1.00  0.00    -0.204 SA 
BRANCH   6   7
HETATM    7  S   UNL     1      -8.782   7.349  70.425  1.00  0.00    -0.146 SA 
BRANCH   7   8
HETATM    8  C   UNL     1      -9.696   7.395  71.947  1.00  0.00    -0.155 C  
HETATM    9  S   UNL     1      -8.952   8.139  73.267  1.00  0.00    -0.232 S  
BRANCH   8  10
HETATM   10  N   UNL     1     -10.997   6.855  71.942  1.00  0.00    -0.230 N  
HETATM   11  C   UNL     1     -11.390   5.613  72.610  1.00  0.00    -0.305 C  
HETATM   12  C   UNL     1     -12.113   7.503  71.246  1.00  0.00    -0.323 C  
ENDBRANCH   8  10
ENDBRANCH   7   8
ENDBRANCH   6   7
ENDBRANCH   4   6
ENDBRANCH   2   4
TORSDOF 5
ENDMDL
MODEL      288
REMARK 921   NORMALIZED FREE ENERGY PREDICTED BY IDOCK:   -2.10 KCAL/MOL
REMARK 922        TOTAL FREE ENERGY PREDICTED BY IDOCK:   -2.81 KCAL/MOL
REMARK 923 INTER-LIGAND FREE ENERGY PREDICTED BY IDOCK:   -2.61 KCAL/MOL
REMARK 924 INTRA-LIGAND FREE ENERGY PREDICTED BY IDOCK:   -0.19 KCAL/MOL
REMARK 927      BINDING AFFINITY PREDICTED BY RF-SCORE:    0.00 PKD
ROOT
HETATM    1  C   UNL     1     -11.278  12.240  63.519  1.00  0.00    -0.460 C  
HETATM    2  N   UNL     1     -10.725  12.418  64.862  1.00  0.00    -0.283 N  
HETATM    3  C   UNL     1     -10.225  11.210  65.517  1.00  0.00    -0.263 C  
ENDROOT
BRANCH   2   4
HETATM    4  C   UNL     1     -10.739  13.680  65.492  1.00  0.00    -0.296 C  
HETATM    5  S   UNL     1     -11.163  15.123  64.721  1.00  0.00    -0.353 S  
BRANCH   4   6
HETATM    6  S   UNL     1     -10.365  13.694  67.233  1.00  0.00    -0.250 SA 
BRANCH   6   7
HETATM    7  S   UNL     1      -8.471  14.519  67.276  1.00  0.00    -0.218 SA 
BRANCH   7   8
HETATM    8  C   UNL     1      -7.633  13.415  68.387  1.00  0.00    -0.133 C  
HETATM    9  S   UNL     1      -6.902  14.101  69.745  1.00  0.00     0.048 S  
BRANCH   8  10
HETATM   10  N   UNL     1      -7.675  12.039  68.091  1.00  0.00    -0.125 N  
HETATM   11  C   UNL     1      -8.465  11.048  68.825  1.00  0.00    -0.144 C  
HETATM   12  C   UNL     1      -6.908  11.449  66.988  1.00  0.00    -0.137 C  
ENDBRANCH   8  10
ENDBRANCH   7   8
ENDBRANCH   6   7
ENDBRANCH   4   6
ENDBRANCH   2   4
TORSDOF 5
ENDMDL
MODEL      289
REMARK 921   NORMALIZED FREE ENERGY PREDICTED BY IDOCK:   -2.10 KCAL/MOL
REMARK 922        TOTAL FREE ENERGY PREDICTED BY IDOCK:   -2.80 KCAL/MOL
REMARK 923 INTER-LIGAND FREE ENERGY PREDICTED BY IDOCK:   -2.69 KCAL/MOL
REMARK 924 INTRA-LIGAND FREE ENERGY PREDICTED BY IDOCK:   -0.11 KCAL/MOL
REMARK 927      BINDING AFFINITY PREDICTED BY RF-SCORE:    0.00 PKD
ROOT
HETATM    1  C   UNL     1     -10.691   8.873  69.657  1.00  0.00    -0.217 C  
HETATM    2  N   UNL     1      -9.966   8.509  68.440  1.00  0.00    -0.181 N  
HETATM    3  C   UNL     1     -10.485   7.358  67.701  1.00  0.00    -0.241 C  
ENDROOT
BRANCH   2   4
HETATM    4  C   UNL     1      -8.801   9.204  68.053  1.00  0.00    -0.129 C  
HETATM    5  S   UNL     1      -7.571   8.543  67.101  1.00  0.00    -0.097 S  
BRANCH   4   6
HETATM    6  S   UNL     1      -8.703  10.912  68.548  1.00  0.00    -0.158 SA 
BRANCH   6   7
HETATM    7  S   UNL     1      -9.057  11.913  66.775  1.00  0.00    -0.200 SA 
BRANCH   7   8
HETATM    8  C   UNL     1      -9.720  13.451  67.366  1.00  0.00    -0.221 C  
HETATM    9  S   UNL     1      -8.640  14.737  67.538  1.00  0.00    -0.200 S  
BRANCH   8  10
HETATM   10  N   UNL     1     -11.106  13.513  67.605  1.00  0.00    -0.262 N  
HETATM   11  C   UNL     1     -12.094  14.051  66.668  1.00  0.00    -0.456 C  
HETATM   12  C   UNL     1     -11.711  13.033  68.853  1.00  0.00    -0.328 C  
ENDBRANCH   8  10
ENDBRANCH   7   8
ENDBRANCH   6   7
ENDBRANCH   4   6
ENDBRANCH   2   4
TORSDOF 5
ENDMDL
MODEL      290
REMARK 921   NORMALIZED FREE ENERGY PREDICTED BY IDOCK:   -2.09 KCAL/MOL
REMARK 922        TOTAL FREE ENERGY PREDICTED BY IDOCK:   -2.80 KCAL/MOL
REMARK 923 INTER-LIGAND FREE ENERGY PREDICTED BY IDOCK:   -2.69 KCAL/MOL
REMARK 924 INTRA-LIGAND FREE ENERGY PREDICTED BY IDOCK:   -0.11 KCAL/MOL
REMARK 927      BINDING AFFINITY PREDICTED BY RF-SCORE:    0.00 PKD
ROOT
HETATM    1  C   UNL     1      -6.279  12.172  69.738  1.00  0.00    -0.132 C  
HETATM    2  N   UNL     1      -6.852  12.376  68.408  1.00  0.00    -0.073 N  
HETATM    3  C   UNL     1      -6.051  13.169  67.477  1.00  0.00    -0.105 C  
ENDROOT
BRANCH   2   4
HETATM    4  C   UNL     1      -8.132  11.878  68.084  1.00  0.00    -0.155 C  
HETATM    5  S   UNL     1      -8.838  10.526  68.813  1.00  0.00    -0.164 S  
BRANCH   4   6
HETATM    6  S   UNL     1      -9.062  12.817  66.891  1.00  0.00    -0.209 SA 
BRANCH   6   7
HETATM    7  S   UNL     1      -9.434  14.581  67.901  1.00  0.00    -0.218 SA 
BRANCH   7   8
HETATM    8  C   UNL     1     -11.188  14.476  68.156  1.00  0.00    -0.284 C  
HETATM    9  S   UNL     1     -12.137  14.084  66.816  1.00  0.00    -0.414 S  
BRANCH   8  10
HETATM   10  N   UNL     1     -11.670  14.675  69.464  1.00  0.00    -0.305 N  
HETATM   11  C   UNL     1     -12.420  13.686  70.241  1.00  0.00    -0.265 C  
HETATM   12  C   UNL     1     -11.460  15.929  70.196  1.00  0.00    -0.361 C  
ENDBRANCH   8  10
ENDBRANCH   7   8
ENDBRANCH   6   7
ENDBRANCH   4   6
ENDBRANCH   2   4
TORSDOF 5
ENDMDL
MODEL      291
REMARK 921   NORMALIZED FREE ENERGY PREDICTED BY IDOCK:   -2.09 KCAL/MOL
REMARK 922        TOTAL FREE ENERGY PREDICTED BY IDOCK:   -2.79 KCAL/MOL
REMARK 923 INTER-LIGAND FREE ENERGY PREDICTED BY IDOCK:   -2.58 KCAL/MOL
REMARK 924 INTRA-LIGAND FREE ENERGY PREDICTED BY IDOCK:   -0.21 KCAL/MOL
REMARK 927      BINDING AFFINITY PREDICTED BY RF-SCORE:    0.00 PKD
ROOT
HETATM    1  C   UNL     1      -8.343  12.287  67.152  1.00  0.00    -0.183 C  
HETATM    2  N   UNL     1      -8.279  11.294  68.224  1.00  0.00    -0.136 N  
HETATM    3  C   UNL     1      -7.140  11.402  69.134  1.00  0.00    -0.115 C  
ENDROOT
BRANCH   2   4
HETATM    4  C   UNL     1      -9.238  10.264  68.317  1.00  0.00    -0.139 C  
HETATM    5  S   UNL     1     -10.882  10.462  67.979  1.00  0.00    -0.287 S  
BRANCH   4   6
HETATM    6  S   UNL     1      -8.619   8.647  68.736  1.00  0.00    -0.131 SA 
BRANCH   6   7
HETATM    7  S   UNL     1     -10.323   7.481  68.656  1.00  0.00    -0.188 SA 
BRANCH   7   8
HETATM    8  C   UNL     1     -10.481   6.975  70.351  1.00  0.00    -0.206 C  
HETATM    9  S   UNL     1      -9.451   5.749  70.885  1.00  0.00    -0.168 S  
BRANCH   8  10
HETATM   10  N   UNL     1     -11.416   7.660  71.150  1.00  0.00    -0.270 N  
HETATM   11  C   UNL     1     -12.793   7.223  71.389  1.00  0.00    -0.382 C  
HETATM   12  C   UNL     1     -11.091   8.913  71.840  1.00  0.00    -0.372 C  
ENDBRANCH   8  10
ENDBRANCH   7   8
ENDBRANCH   6   7
ENDBRANCH   4   6
ENDBRANCH   2   4
TORSDOF 5
ENDMDL
MODEL      292
REMARK 921   NORMALIZED FREE ENERGY PREDICTED BY IDOCK:   -2.07 KCAL/MOL
REMARK 922        TOTAL FREE ENERGY PREDICTED BY IDOCK:   -2.76 KCAL/MOL
REMARK 923 INTER-LIGAND FREE ENERGY PREDICTED BY IDOCK:   -2.48 KCAL/MOL
REMARK 924 INTRA-LIGAND FREE ENERGY PREDICTED BY IDOCK:   -0.29 KCAL/MOL
REMARK 927      BINDING AFFINITY PREDICTED BY RF-SCORE:    0.00 PKD
ROOT
HETATM    1  C   UNL     1     -11.989   6.161  72.045  1.00  0.00    -0.253 C  
HETATM    2  N   UNL     1     -11.042   7.194  72.465  1.00  0.00    -0.265 N  
HETATM    3  C   UNL     1     -10.418   7.002  73.773  1.00  0.00    -0.354 C  
ENDROOT
BRANCH   2   4
HETATM    4  C   UNL     1     -10.807   8.332  71.665  1.00  0.00    -0.256 C  
HETATM    5  S   UNL     1     -12.008   9.421  71.185  1.00  0.00    -0.354 S  
BRANCH   4   6
HETATM    6  S   UNL     1      -9.110   8.652  71.230  1.00  0.00    -0.233 SA 
BRANCH   6   7
HETATM    7  S   UNL     1      -8.591   6.950  70.178  1.00  0.00    -0.141 SA 
BRANCH   7   8
HETATM    8  C   UNL     1      -9.008   7.425  68.518  1.00  0.00    -0.128 C  
HETATM    9  S   UNL     1     -10.571   7.069  67.987  1.00  0.00    -0.198 S  
BRANCH   8  10
HETATM   10  N   UNL     1      -8.029   8.109  67.771  1.00  0.00    -0.124 N  
HETATM   11  C   UNL     1      -8.289   8.864  66.544  1.00  0.00    -0.115 C  
HETATM   12  C   UNL     1      -6.615   8.129  68.160  1.00  0.00    -0.057 C  
ENDBRANCH   8  10
ENDBRANCH   7   8
ENDBRANCH   6   7
ENDBRANCH   4   6
ENDBRANCH   2   4
TORSDOF 5
ENDMDL
MODEL      293
REMARK 921   NORMALIZED FREE ENERGY PREDICTED BY IDOCK:   -2.04 KCAL/MOL
REMARK 922        TOTAL FREE ENERGY PREDICTED BY IDOCK:   -2.72 KCAL/MOL
REMARK 923 INTER-LIGAND FREE ENERGY PREDICTED BY IDOCK:   -2.52 KCAL/MOL
REMARK 924 INTRA-LIGAND FREE ENERGY PREDICTED BY IDOCK:   -0.21 KCAL/MOL
REMARK 927      BINDING AFFINITY PREDICTED BY RF-SCORE:    0.00 PKD
ROOT
HETATM    1  C   UNL     1     -11.035  14.283  65.950  1.00  0.00    -0.304 C  
HETATM    2  N   UNL     1     -10.080  13.709  66.898  1.00  0.00    -0.255 N  
HETATM    3  C   UNL     1      -8.847  14.466  67.107  1.00  0.00    -0.229 C  
ENDROOT
BRANCH   2   4
HETATM    4  C   UNL     1     -10.329  12.465  67.516  1.00  0.00    -0.215 C  
HETATM    5  S   UNL     1     -11.532  12.203  68.674  1.00  0.00    -0.321 S  
BRANCH   4   6
HETATM    6  S   UNL     1      -9.348  11.093  66.945  1.00  0.00    -0.178 SA 
BRANCH   6   7
HETATM    7  S   UNL     1     -10.400   9.464  67.662  1.00  0.00    -0.261 SA 
BRANCH   7   8
HETATM    8  C   UNL     1      -9.281   8.838  68.891  1.00  0.00    -0.141 C  
HETATM    9  S   UNL     1      -9.429   9.463  70.452  1.00  0.00    -0.271 S  
BRANCH   8  10
HETATM   10  N   UNL     1      -8.380   7.829  68.499  1.00  0.00    -0.128 N  
HETATM   11  C   UNL     1      -8.236   7.320  67.133  1.00  0.00    -0.118 C  
HETATM   12  C   UNL     1      -7.475   7.172  69.448  1.00  0.00    -0.096 C  
ENDBRANCH   8  10
ENDBRANCH   7   8
ENDBRANCH   6   7
ENDBRANCH   4   6
ENDBRANCH   2   4
TORSDOF 5
ENDMDL
MODEL      294
REMARK 921   NORMALIZED FREE ENERGY PREDICTED BY IDOCK:   -2.03 KCAL/MOL
REMARK 922        TOTAL FREE ENERGY PREDICTED BY IDOCK:   -2.72 KCAL/MOL
REMARK 923 INTER-LIGAND FREE ENERGY PREDICTED BY IDOCK:   -2.33 KCAL/MOL
REMARK 924 INTRA-LIGAND FREE ENERGY PREDICTED BY IDOCK:   -0.39 KCAL/MOL
REMARK 927      BINDING AFFINITY PREDICTED BY RF-SCORE:    0.00 PKD
ROOT
HETATM    1  C   UNL     1     -12.063   6.701  71.036  1.00  0.00    -0.327 C  
HETATM    2  N   UNL     1     -10.654   6.318  70.938  1.00  0.00    -0.230 N  
HETATM    3  C   UNL     1     -10.374   4.883  70.955  1.00  0.00    -0.155 C  
ENDROOT
BRANCH   2   4
HETATM    4  C   UNL     1      -9.638   7.296  70.893  1.00  0.00    -0.170 C  
HETATM    5  S   UNL     1      -9.778   8.845  71.555  1.00  0.00    -0.292 S  
BRANCH   4   6
HETATM    6  S   UNL     1      -8.095   6.793  70.159  1.00  0.00    -0.130 SA 
BRANCH   6   7
HETATM    7  S   UNL     1      -8.280   7.477  68.217  1.00  0.00    -0.125 SA 
BRANCH   7   8
HETATM    8  C   UNL     1      -9.292   6.209  67.495  1.00  0.00    -0.113 C  
HETATM    9  S   UNL     1     -10.898   6.608  67.157  1.00  0.00    -0.398 S  
BRANCH   8  10
HETATM   10  N   UNL     1      -8.682   4.974  67.205  1.00  0.00    -0.104 N  
HETATM   11  C   UNL     1      -9.296   3.663  67.426  1.00  0.00    -0.203 C  
HETATM   12  C   UNL     1      -7.332   4.879  66.638  1.00  0.00    -0.082 C  
ENDBRANCH   8  10
ENDBRANCH   7   8
ENDBRANCH   6   7
ENDBRANCH   4   6
ENDBRANCH   2   4
TORSDOF 5
ENDMDL
MODEL      295
REMARK 921   NORMALIZED FREE ENERGY PREDICTED BY IDOCK:   -2.02 KCAL/MOL
REMARK 922        TOTAL FREE ENERGY PREDICTED BY IDOCK:   -2.70 KCAL/MOL
REMARK 923 INTER-LIGAND FREE ENERGY PREDICTED BY IDOCK:   -2.50 KCAL/MOL
REMARK 924 INTRA-LIGAND FREE ENERGY PREDICTED BY IDOCK:   -0.21 KCAL/MOL
REMARK 927      BINDING AFFINITY PREDICTED BY RF-SCORE:    0.00 PKD
ROOT
HETATM    1  C   UNL     1      -7.554  11.703  68.240  1.00  0.00    -0.120 C  
HETATM    2  N   UNL     1      -7.541  10.431  67.517  1.00  0.00    -0.093 N  
HETATM    3  C   UNL     1      -6.989  10.466  66.164  1.00  0.00    -0.126 C  
ENDROOT
BRANCH   2   4
HETATM    4  C   UNL     1      -8.090   9.264  68.090  1.00  0.00    -0.107 C  
HETATM    5  S   UNL     1      -7.967   7.722  67.410  1.00  0.00    -0.120 S  
BRANCH   4   6
HETATM    6  S   UNL     1      -8.877   9.462  69.675  1.00  0.00    -0.188 SA 
BRANCH   6   7
HETATM    7  S   UNL     1     -10.876   9.597  69.168  1.00  0.00    -0.151 SA 
BRANCH   7   8
HETATM    8  C   UNL     1     -11.650   8.880  70.596  1.00  0.00    -0.215 C  
HETATM    9  S   UNL     1     -12.652   9.884  71.512  1.00  0.00    -0.449 S  
BRANCH   8  10
HETATM   10  N   UNL     1     -11.419   7.513  70.845  1.00  0.00    -0.278 N  
HETATM   11  C   UNL     1     -11.200   6.928  72.170  1.00  0.00    -0.258 C  
HETATM   12  C   UNL     1     -11.375   6.516  69.771  1.00  0.00    -0.393 C  
ENDBRANCH   8  10
ENDBRANCH   7   8
ENDBRANCH   6   7
ENDBRANCH   4   6
ENDBRANCH   2   4
TORSDOF 5
ENDMDL
MODEL      296
REMARK 921   NORMALIZED FREE ENERGY PREDICTED BY IDOCK:   -2.02 KCAL/MOL
REMARK 922        TOTAL FREE ENERGY PREDICTED BY IDOCK:   -2.70 KCAL/MOL
REMARK 923 INTER-LIGAND FREE ENERGY PREDICTED BY IDOCK:   -2.44 KCAL/MOL
REMARK 924 INTRA-LIGAND FREE ENERGY PREDICTED BY IDOCK:   -0.27 KCAL/MOL
REMARK 927      BINDING AFFINITY PREDICTED BY RF-SCORE:    0.00 PKD
ROOT
HETATM    1  C   UNL     1     -11.812  11.983  69.436  1.00  0.00    -0.324 C  
HETATM    2  N   UNL     1     -11.271  12.700  68.280  1.00  0.00    -0.252 N  
HETATM    3  C   UNL     1     -12.000  13.898  67.867  1.00  0.00    -0.358 C  
ENDROOT
BRANCH   2   4
HETATM    4  C   UNL     1     -10.147  12.209  67.583  1.00  0.00    -0.199 C  
HETATM    5  S   UNL     1      -8.552  12.660  67.915  1.00  0.00    -0.191 S  
BRANCH   4   6
HETATM    6  S   UNL     1     -10.468  10.972  66.343  1.00  0.00    -0.247 SA 
BRANCH   6   7
HETATM    7  S   UNL     1     -10.499   9.227  67.449  1.00  0.00    -0.253 SA 
BRANCH   7   8
HETATM    8  C   UNL     1      -8.770   8.828  67.521  1.00  0.00    -0.134 C  
HETATM    9  S   UNL     1      -8.071   8.186  66.124  1.00  0.00    -0.114 S  
BRANCH   8  10
HETATM   10  N   UNL     1      -8.084   9.117  68.716  1.00  0.00    -0.100 N  
HETATM   11  C   UNL     1      -6.629   9.083  68.876  1.00  0.00    -0.052 C  
HETATM   12  C   UNL     1      -8.781   9.489  69.952  1.00  0.00    -0.210 C  
ENDBRANCH   8  10
ENDBRANCH   7   8
ENDBRANCH   6   7
ENDBRANCH   4   6
ENDBRANCH   2   4
TORSDOF 5
ENDMDL
MODEL      297
REMARK 921   NORMALIZED FREE ENERGY PREDICTED BY IDOCK:   -2.02 KCAL/MOL
REMARK 922        TOTAL FREE ENERGY PREDICTED BY IDOCK:   -2.70 KCAL/MOL
REMARK 923 INTER-LIGAND FREE ENERGY PREDICTED BY IDOCK:   -2.59 KCAL/MOL
REMARK 924 INTRA-LIGAND FREE ENERGY PREDICTED BY IDOCK:   -0.11 KCAL/MOL
REMARK 927      BINDING AFFINITY PREDICTED BY RF-SCORE:    0.00 PKD
ROOT
HETATM    1  C   UNL     1     -10.565   7.214  66.885  1.00  0.00    -0.301 C  
HETATM    2  N   UNL     1     -10.230   8.367  67.722  1.00  0.00    -0.211 N  
HETATM    3  C   UNL     1     -10.341   8.169  69.166  1.00  0.00    -0.220 C  
ENDROOT
BRANCH   2   4
HETATM    4  C   UNL     1      -9.881   9.606  67.144  1.00  0.00    -0.186 C  
HETATM    5  S   UNL     1      -9.942   9.933  65.487  1.00  0.00    -0.226 S  
BRANCH   4   6
HETATM    6  S   UNL     1      -9.438  10.906  68.278  1.00  0.00    -0.174 SA 
BRANCH   6   7
HETATM    7  S   UNL     1      -8.929  12.454  67.006  1.00  0.00    -0.213 SA 
BRANCH   7   8
HETATM    8  C   UNL     1      -9.612  13.851  67.864  1.00  0.00    -0.227 C  
HETATM    9  S   UNL     1     -11.166  13.676  68.499  1.00  0.00    -0.300 S  
BRANCH   8  10
HETATM   10  N   UNL     1      -8.798  14.991  68.003  1.00  0.00    -0.162 N  
HETATM   11  C   UNL     1      -9.284  16.330  68.346  1.00  0.00    -0.203 C  
HETATM   12  C   UNL     1      -7.345  14.948  67.810  1.00  0.00    -0.166 C  
ENDBRANCH   8  10
ENDBRANCH   7   8
ENDBRANCH   6   7
ENDBRANCH   4   6
ENDBRANCH   2   4
TORSDOF 5
ENDMDL
MODEL      298
REMARK 921   NORMALIZED FREE ENERGY PREDICTED BY IDOCK:   -2.01 KCAL/MOL
REMARK 922        TOTAL FREE ENERGY PREDICTED BY IDOCK:   -2.69 KCAL/MOL
REMARK 923 INTER-LIGAND FREE ENERGY PREDICTED BY IDOCK:   -2.47 KCAL/MOL
REMARK 924 INTRA-LIGAND FREE ENERGY PREDICTED BY IDOCK:   -0.22 KCAL/MOL
REMARK 927      BINDING AFFINITY PREDICTED BY RF-SCORE:    0.00 PKD
ROOT
HETATM    1  C   UNL     1     -10.014  12.552  68.246  1.00  0.00    -0.229 C  
HETATM    2  N   UNL     1      -9.846  11.122  68.509  1.00  0.00    -0.192 N  
HETATM    3  C   UNL     1      -9.025  10.384  67.551  1.00  0.00    -0.135 C  
ENDROOT
BRANCH   2   4
HETATM    4  C   UNL     1     -10.498  10.502  69.596  1.00  0.00    -0.219 C  
HETATM    5  S   UNL     1     -12.083  10.843  70.073  1.00  0.00    -0.367 S  
BRANCH   4   6
HETATM    6  S   UNL     1      -9.586   9.224  70.435  1.00  0.00    -0.261 SA 
BRANCH   6   7
HETATM    7  S   UNL     1     -10.723   7.540  70.055  1.00  0.00    -0.239 SA 
BRANCH   7   8
HETATM    8  C   UNL     1      -9.599   6.571  69.080  1.00  0.00    -0.134 C  
HETATM    9  S   UNL     1      -8.454   5.653  69.916  1.00  0.00    -0.123 S  
BRANCH   8  10
HETATM   10  N   UNL     1      -9.766   6.589  67.682  1.00  0.00    -0.121 N  
HETATM   11  C   UNL     1      -8.677   6.489  66.708  1.00  0.00    -0.123 C  
HETATM   12  C   UNL     1     -11.083   6.716  67.050  1.00  0.00    -0.325 C  
ENDBRANCH   8  10
ENDBRANCH   7   8
ENDBRANCH   6   7
ENDBRANCH   4   6
ENDBRANCH   2   4
TORSDOF 5
ENDMDL
MODEL      299
REMARK 921   NORMALIZED FREE ENERGY PREDICTED BY IDOCK:   -2.00 KCAL/MOL
REMARK 922        TOTAL FREE ENERGY PREDICTED BY IDOCK:   -2.68 KCAL/MOL
REMARK 923 INTER-LIGAND FREE ENERGY PREDICTED BY IDOCK:   -2.58 KCAL/MOL
REMARK 924 INTRA-LIGAND FREE ENERGY PREDICTED BY IDOCK:   -0.09 KCAL/MOL
REMARK 927      BINDING AFFINITY PREDICTED BY RF-SCORE:    0.00 PKD
ROOT
HETATM    1  C   UNL     1     -10.146   4.797  70.918  1.00  0.00    -0.205 C  
HETATM    2  N   UNL     1     -10.673   5.955  70.195  1.00  0.00    -0.292 N  
HETATM    3  C   UNL     1     -11.878   6.568  70.751  1.00  0.00    -0.332 C  
ENDROOT
BRANCH   2   4
HETATM    4  C   UNL     1     -10.071   6.398  68.998  1.00  0.00    -0.165 C  
HETATM    5  S   UNL     1      -9.535   5.372  67.766  1.00  0.00    -0.124 S  
BRANCH   4   6
HETATM    6  S   UNL     1      -9.970   8.162  68.775  1.00  0.00    -0.194 SA 
BRANCH   6   7
HETATM    7  S   UNL     1     -10.277   8.374  66.742  1.00  0.00    -0.271 SA 
BRANCH   7   8
HETATM    8  C   UNL     1      -9.637  10.006  66.459  1.00  0.00    -0.187 C  
HETATM    9  S   UNL     1      -9.653  11.074  67.766  1.00  0.00    -0.172 S  
BRANCH   8  10
HETATM   10  N   UNL     1      -9.113  10.288  65.183  1.00  0.00    -0.181 N  
HETATM   11  C   UNL     1      -9.875  10.866  64.074  1.00  0.00    -0.322 C  
HETATM   12  C   UNL     1      -7.714  10.021  64.831  1.00  0.00    -0.138 C  
ENDBRANCH   8  10
ENDBRANCH   7   8
ENDBRANCH   6   7
ENDBRANCH   4   6
ENDBRANCH   2   4
TORSDOF 5
ENDMDL
MODEL      300
REMARK 921   NORMALIZED FREE ENERGY PREDICTED BY IDOCK:   -1.99 KCAL/MOL
REMARK 922        TOTAL FREE ENERGY PREDICTED BY IDOCK:   -2.66 KCAL/MOL
REMARK 923 INTER-LIGAND FREE ENERGY PREDICTED BY IDOCK:   -2.52 KCAL/MOL
REMARK 924 INTRA-LIGAND FREE ENERGY PREDICTED BY IDOCK:   -0.14 KCAL/MOL
REMARK 927      BINDING AFFINITY PREDICTED BY RF-SCORE:    0.00 PKD
ROOT
HETATM    1  C   UNL     1     -10.359  10.653  66.457  1.00  0.00    -0.241 C  
HETATM    2  N   UNL     1      -9.876  11.320  67.667  1.00  0.00    -0.173 N  
HETATM    3  C   UNL     1     -10.683  12.439  68.151  1.00  0.00    -0.221 C  
ENDROOT
BRANCH   2   4
HETATM    4  C   UNL     1      -8.667  10.927  68.279  1.00  0.00    -0.140 C  
HETATM    5  S   UNL     1      -7.352  11.957  68.535  1.00  0.00    -0.115 S  
BRANCH   4   6
HETATM    6  S   UNL     1      -8.600   9.253  68.884  1.00  0.00    -0.133 SA 
BRANCH   6   7
HETATM    7  S   UNL     1      -9.619   9.385  70.677  1.00  0.00    -0.240 SA 
BRANCH   7   8
HETATM    8  C   UNL     1      -9.936   7.673  71.027  1.00  0.00    -0.182 C  
HETATM    9  S   UNL     1      -8.834   6.548  70.417  1.00  0.00    -0.152 S  
BRANCH   8  10
HETATM   10  N   UNL     1     -11.052   7.367  71.828  1.00  0.00    -0.234 N  
HETATM   11  C   UNL     1     -11.502   6.013  72.158  1.00  0.00    -0.302 C  
HETATM   12  C   UNL     1     -11.897   8.406  72.427  1.00  0.00    -0.384 C  
ENDBRANCH   8  10
ENDBRANCH   7   8
ENDBRANCH   6   7
ENDBRANCH   4   6
ENDBRANCH   2   4
TORSDOF 5
ENDMDL
MODEL      301
REMARK 921   NORMALIZED FREE ENERGY PREDICTED BY IDOCK:   -1.99 KCAL/MOL
REMARK 922        TOTAL FREE ENERGY PREDICTED BY IDOCK:   -2.66 KCAL/MOL
REMARK 923 INTER-LIGAND FREE ENERGY PREDICTED BY IDOCK:   -2.53 KCAL/MOL
REMARK 924 INTRA-LIGAND FREE ENERGY PREDICTED BY IDOCK:   -0.13 KCAL/MOL
REMARK 927      BINDING AFFINITY PREDICTED BY RF-SCORE:    0.00 PKD
ROOT
HETATM    1  C   UNL     1      -7.291   7.336  65.559  1.00  0.00    -0.075 C  
HETATM    2  N   UNL     1      -8.353   8.322  65.763  1.00  0.00    -0.129 N  
HETATM    3  C   UNL     1      -8.694   9.150  64.607  1.00  0.00    -0.166 C  
ENDROOT
BRANCH   2   4
HETATM    4  C   UNL     1      -8.957   8.488  67.028  1.00  0.00    -0.137 C  
HETATM    5  S   UNL     1      -9.930   9.803  67.451  1.00  0.00    -0.204 S  
BRANCH   4   6
HETATM    6  S   UNL     1      -8.723   7.160  68.191  1.00  0.00    -0.126 SA 
BRANCH   6   7
HETATM    7  S   UNL     1     -10.630   6.385  68.374  1.00  0.00    -0.287 SA 
BRANCH   7   8
HETATM    8  C   UNL     1     -10.486   5.450  69.877  1.00  0.00    -0.308 C  
HETATM    9  S   UNL     1      -9.564   4.037  69.815  1.00  0.00    -0.189 S  
BRANCH   8  10
HETATM   10  N   UNL     1     -11.105   5.970  71.030  1.00  0.00    -0.294 N  
HETATM   11  C   UNL     1     -10.884   5.480  72.392  1.00  0.00    -0.248 C  
HETATM   12  C   UNL     1     -12.058   7.084  70.975  1.00  0.00    -0.368 C  
ENDBRANCH   8  10
ENDBRANCH   7   8
ENDBRANCH   6   7
ENDBRANCH   4   6
ENDBRANCH   2   4
TORSDOF 5
ENDMDL
MODEL      302
REMARK 921   NORMALIZED FREE ENERGY PREDICTED BY IDOCK:   -1.97 KCAL/MOL
REMARK 922        TOTAL FREE ENERGY PREDICTED BY IDOCK:   -2.63 KCAL/MOL
REMARK 923 INTER-LIGAND FREE ENERGY PREDICTED BY IDOCK:   -2.49 KCAL/MOL
REMARK 924 INTRA-LIGAND FREE ENERGY PREDICTED BY IDOCK:   -0.14 KCAL/MOL
REMARK 927      BINDING AFFINITY PREDICTED BY RF-SCORE:    0.00 PKD
ROOT
HETATM    1  C   UNL     1      -9.462  15.890  66.075  1.00  0.00    -0.354 C  
HETATM    2  N   UNL     1      -9.941  15.465  67.390  1.00  0.00    -0.228 N  
HETATM    3  C   UNL     1     -11.124  16.157  67.899  1.00  0.00    -0.293 C  
ENDROOT
BRANCH   2   4
HETATM    4  C   UNL     1      -9.250  14.484  68.132  1.00  0.00    -0.195 C  
HETATM    5  S   UNL     1      -7.779  14.750  68.921  1.00  0.00    -0.152 S  
BRANCH   4   6
HETATM    6  S   UNL     1     -10.058  12.905  68.294  1.00  0.00    -0.235 SA 
BRANCH   6   7
HETATM    7  S   UNL     1      -8.473  11.581  68.213  1.00  0.00    -0.163 SA 
BRANCH   7   8
HETATM    8  C   UNL     1      -9.320  10.031  68.029  1.00  0.00    -0.130 C  
HETATM    9  S   UNL     1      -9.956   9.680  66.505  1.00  0.00    -0.251 S  
BRANCH   8  10
HETATM   10  N   UNL     1      -9.363   9.176  69.147  1.00  0.00    -0.150 N  
HETATM   11  C   UNL     1      -9.213   7.721  69.094  1.00  0.00    -0.144 C  
HETATM   12  C   UNL     1      -9.569   9.676  70.511  1.00  0.00    -0.199 C  
ENDBRANCH   8  10
ENDBRANCH   7   8
ENDBRANCH   6   7
ENDBRANCH   4   6
ENDBRANCH   2   4
TORSDOF 5
ENDMDL
MODEL      303
REMARK 921   NORMALIZED FREE ENERGY PREDICTED BY IDOCK:   -1.95 KCAL/MOL
REMARK 922        TOTAL FREE ENERGY PREDICTED BY IDOCK:   -2.61 KCAL/MOL
REMARK 923 INTER-LIGAND FREE ENERGY PREDICTED BY IDOCK:   -2.49 KCAL/MOL
REMARK 924 INTRA-LIGAND FREE ENERGY PREDICTED BY IDOCK:   -0.12 KCAL/MOL
REMARK 927      BINDING AFFINITY PREDICTED BY RF-SCORE:    0.00 PKD
ROOT
HETATM    1  C   UNL     1      -7.499   7.597  65.449  1.00  0.00    -0.078 C  
HETATM    2  N   UNL     1      -8.389   8.732  65.205  1.00  0.00    -0.150 N  
HETATM    3  C   UNL     1      -8.581   9.112  63.806  1.00  0.00    -0.169 C  
ENDROOT
BRANCH   2   4
HETATM    4  C   UNL     1      -8.969   9.443  66.277  1.00  0.00    -0.156 C  
HETATM    5  S   UNL     1     -10.138  10.650  66.096  1.00  0.00    -0.252 S  
BRANCH   4   6
HETATM    6  S   UNL     1      -8.472   8.943  67.913  1.00  0.00    -0.125 SA 
BRANCH   6   7
HETATM    7  S   UNL     1     -10.244   8.260  68.729  1.00  0.00    -0.208 SA 
BRANCH   7   8
HETATM    8  C   UNL     1      -9.890   8.356  70.466  1.00  0.00    -0.184 C  
HETATM    9  S   UNL     1      -8.306   8.023  70.946  1.00  0.00    -0.124 S  
BRANCH   8  10
HETATM   10  N   UNL     1     -10.935   8.751  71.323  1.00  0.00    -0.254 N  
HETATM   11  C   UNL     1     -11.394   7.992  72.488  1.00  0.00    -0.406 C  
HETATM   12  C   UNL     1     -11.686   9.995  71.125  1.00  0.00    -0.387 C  
ENDBRANCH   8  10
ENDBRANCH   7   8
ENDBRANCH   6   7
ENDBRANCH   4   6
ENDBRANCH   2   4
TORSDOF 5
ENDMDL
MODEL      304
REMARK 921   NORMALIZED FREE ENERGY PREDICTED BY IDOCK:   -1.95 KCAL/MOL
REMARK 922        TOTAL FREE ENERGY PREDICTED BY IDOCK:   -2.61 KCAL/MOL
REMARK 923 INTER-LIGAND FREE ENERGY PREDICTED BY IDOCK:   -2.50 KCAL/MOL
REMARK 924 INTRA-LIGAND FREE ENERGY PREDICTED BY IDOCK:   -0.10 KCAL/MOL
REMARK 927      BINDING AFFINITY PREDICTED BY RF-SCORE:    0.00 PKD
ROOT
HETATM    1  C   UNL     1     -10.416   9.097  66.536  1.00  0.00    -0.127 C  
HETATM    2  N   UNL     1      -9.154   9.655  66.050  1.00  0.00    -0.160 N  
HETATM    3  C   UNL     1      -8.340   8.774  65.213  1.00  0.00    -0.160 C  
ENDROOT
BRANCH   2   4
HETATM    4  C   UNL     1      -8.737  10.948  66.430  1.00  0.00    -0.170 C  
HETATM    5  S   UNL     1      -7.161  11.341  66.898  1.00  0.00    -0.141 S  
BRANCH   4   6
HETATM    6  S   UNL     1      -9.962  12.236  66.311  1.00  0.00    -0.236 SA 
BRANCH   6   7
HETATM    7  S   UNL     1      -9.250  13.653  67.636  1.00  0.00    -0.224 SA 
BRANCH   7   8
HETATM    8  C   UNL     1      -9.503  15.151  66.716  1.00  0.00    -0.242 C  
HETATM    9  S   UNL     1     -10.593  15.086  65.429  1.00  0.00    -0.413 S  
BRANCH   8  10
HETATM   10  N   UNL     1      -8.819  16.304  67.148  1.00  0.00    -0.187 N  
HETATM   11  C   UNL     1      -7.364  16.468  67.137  1.00  0.00    -0.185 C  
HETATM   12  C   UNL     1      -9.519  17.484  67.666  1.00  0.00    -0.256 C  
ENDBRANCH   8  10
ENDBRANCH   7   8
ENDBRANCH   6   7
ENDBRANCH   4   6
ENDBRANCH   2   4
TORSDOF 5
ENDMDL
MODEL      305
REMARK 921   NORMALIZED FREE ENERGY PREDICTED BY IDOCK:   -1.94 KCAL/MOL
REMARK 922        TOTAL FREE ENERGY PREDICTED BY IDOCK:   -2.59 KCAL/MOL
REMARK 923 INTER-LIGAND FREE ENERGY PREDICTED BY IDOCK:   -2.45 KCAL/MOL
REMARK 924 INTRA-LIGAND FREE ENERGY PREDICTED BY IDOCK:   -0.15 KCAL/MOL
REMARK 927      BINDING AFFINITY PREDICTED BY RF-SCORE:    0.00 PKD
ROOT
HETATM    1  C   UNL     1     -12.956  14.312  71.690  1.00  0.00    -0.346 C  
HETATM    2  N   UNL     1     -12.230  13.709  70.572  1.00  0.00    -0.358 N  
HETATM    3  C   UNL     1     -11.738  14.633  69.551  1.00  0.00    -0.324 C  
ENDROOT
BRANCH   2   4
HETATM    4  C   UNL     1     -12.079  12.310  70.475  1.00  0.00    -0.282 C  
HETATM    5  S   UNL     1     -13.142  11.189  71.159  1.00  0.00    -0.077 S  
BRANCH   4   6
HETATM    6  S   UNL     1     -10.715  11.733  69.485  1.00  0.00     0.228 SA 
BRANCH   6   7
HETATM    7  S   UNL     1     -11.639  11.216  67.710  1.00  0.00    -0.139 SA 
BRANCH   7   8
HETATM    8  C   UNL     1     -10.533   9.974  67.088  1.00  0.00    -0.244 C  
HETATM    9  S   UNL     1     -10.268   8.624  68.066  1.00  0.00    -0.213 S  
BRANCH   8  10
HETATM   10  N   UNL     1      -9.990  10.169  65.803  1.00  0.00    -0.264 N  
HETATM   11  C   UNL     1     -10.125  11.396  65.015  1.00  0.00    -0.274 C  
HETATM   12  C   UNL     1      -9.216   9.133  65.111  1.00  0.00    -0.153 C  
ENDBRANCH   8  10
ENDBRANCH   7   8
ENDBRANCH   6   7
ENDBRANCH   4   6
ENDBRANCH   2   4
TORSDOF 5
ENDMDL
MODEL      306
REMARK 921   NORMALIZED FREE ENERGY PREDICTED BY IDOCK:   -1.94 KCAL/MOL
REMARK 922        TOTAL FREE ENERGY PREDICTED BY IDOCK:   -2.59 KCAL/MOL
REMARK 923 INTER-LIGAND FREE ENERGY PREDICTED BY IDOCK:   -2.51 KCAL/MOL
REMARK 924 INTRA-LIGAND FREE ENERGY PREDICTED BY IDOCK:   -0.08 KCAL/MOL
REMARK 927      BINDING AFFINITY PREDICTED BY RF-SCORE:    0.00 PKD
ROOT
HETATM    1  C   UNL     1      -6.881   9.710  67.037  1.00  0.00    -0.084 C  
HETATM    2  N   UNL     1      -6.647  11.153  66.986  1.00  0.00    -0.097 N  
HETATM    3  C   UNL     1      -5.263  11.574  66.771  1.00  0.00    -0.122 C  
ENDROOT
BRANCH   2   4
HETATM    4  C   UNL     1      -7.701  12.067  67.196  1.00  0.00    -0.161 C  
HETATM    5  S   UNL     1      -7.646  13.343  68.303  1.00  0.00    -0.146 S  
BRANCH   4   6
HETATM    6  S   UNL     1      -9.126  11.880  66.144  1.00  0.00    -0.108 SA 
BRANCH   6   7
HETATM    7  S   UNL     1     -10.479  13.196  66.987  1.00  0.00    -0.248 SA 
BRANCH   7   8
HETATM    8  C   UNL     1     -10.492  14.503  65.784  1.00  0.00    -0.323 C  
HETATM    9  S   UNL     1      -9.345  15.728  65.969  1.00  0.00    -0.332 S  
BRANCH   8  10
HETATM   10  N   UNL     1     -11.420  14.408  64.729  1.00  0.00    -0.386 N  
HETATM   11  C   UNL     1     -11.704  13.187  63.971  1.00  0.00    -0.439 C  
HETATM   12  C   UNL     1     -12.214  15.555  64.275  1.00  0.00    -0.066 C  
ENDBRANCH   8  10
ENDBRANCH   7   8
ENDBRANCH   6   7
ENDBRANCH   4   6
ENDBRANCH   2   4
TORSDOF 5
ENDMDL
MODEL      307
REMARK 921   NORMALIZED FREE ENERGY PREDICTED BY IDOCK:   -1.93 KCAL/MOL
REMARK 922        TOTAL FREE ENERGY PREDICTED BY IDOCK:   -2.59 KCAL/MOL
REMARK 923 INTER-LIGAND FREE ENERGY PREDICTED BY IDOCK:   -2.46 KCAL/MOL
REMARK 924 INTRA-LIGAND FREE ENERGY PREDICTED BY IDOCK:   -0.12 KCAL/MOL
REMARK 927      BINDING AFFINITY PREDICTED BY RF-SCORE:    0.00 PKD
ROOT
HETATM    1  C   UNL     1      -9.724   8.783  71.838  1.00  0.00    -0.316 C  
HETATM    2  N   UNL     1     -10.759   8.632  70.816  1.00  0.00    -0.208 N  
HETATM    3  C   UNL     1     -11.313   7.289  70.652  1.00  0.00    -0.284 C  
ENDROOT
BRANCH   2   4
HETATM    4  C   UNL     1     -11.142   9.722  70.005  1.00  0.00    -0.267 C  
HETATM    5  S   UNL     1     -11.940  11.098  70.575  1.00  0.00    -0.370 S  
BRANCH   4   6
HETATM    6  S   UNL     1     -10.655   9.637  68.294  1.00  0.00    -0.211 SA 
BRANCH   6   7
HETATM    7  S   UNL     1      -8.750   8.844  68.409  1.00  0.00    -0.134 SA 
BRANCH   7   8
HETATM    8  C   UNL     1      -8.889   7.440  67.331  1.00  0.00    -0.123 C  
HETATM    9  S   UNL     1     -10.445   6.863  67.020  1.00  0.00    -0.313 S  
BRANCH   8  10
HETATM   10  N   UNL     1      -7.704   6.931  66.768  1.00  0.00    -0.100 N  
HETATM   11  C   UNL     1      -7.310   7.083  65.366  1.00  0.00    -0.080 C  
HETATM   12  C   UNL     1      -6.720   6.178  67.554  1.00  0.00    -0.058 C  
ENDBRANCH   8  10
ENDBRANCH   7   8
ENDBRANCH   6   7
ENDBRANCH   4   6
ENDBRANCH   2   4
TORSDOF 5
ENDMDL
MODEL      308
REMARK 921   NORMALIZED FREE ENERGY PREDICTED BY IDOCK:   -1.93 KCAL/MOL
REMARK 922        TOTAL FREE ENERGY PREDICTED BY IDOCK:   -2.59 KCAL/MOL
REMARK 923 INTER-LIGAND FREE ENERGY PREDICTED BY IDOCK:   -2.46 KCAL/MOL
REMARK 924 INTRA-LIGAND FREE ENERGY PREDICTED BY IDOCK:   -0.13 KCAL/MOL
REMARK 927      BINDING AFFINITY PREDICTED BY RF-SCORE:    0.00 PKD
ROOT
HETATM    1  C   UNL     1      -7.953   9.222  62.818  1.00  0.00    -0.135 C  
HETATM    2  N   UNL     1      -8.786  10.171  63.557  1.00  0.00    -0.196 N  
HETATM    3  C   UNL     1      -9.597  11.081  62.750  1.00  0.00    -0.306 C  
ENDROOT
BRANCH   2   4
HETATM    4  C   UNL     1      -8.746  10.228  64.966  1.00  0.00    -0.182 C  
HETATM    5  S   UNL     1      -7.323  10.329  65.874  1.00  0.00    -0.135 S  
BRANCH   4   6
HETATM    6  S   UNL     1     -10.320  10.282  65.797  1.00  0.00    -0.105 SA 
BRANCH   6   7
HETATM    7  S   UNL     1     -10.591  12.307  66.109  1.00  0.00    -0.257 SA 
BRANCH   7   8
HETATM    8  C   UNL     1     -10.146  12.460  67.822  1.00  0.00    -0.203 C  
HETATM    9  S   UNL     1      -9.291  13.844  68.272  1.00  0.00    -0.204 S  
BRANCH   8  10
HETATM   10  N   UNL     1     -10.576  11.446  68.699  1.00  0.00    -0.192 N  
HETATM   11  C   UNL     1     -11.960  11.246  69.132  1.00  0.00    -0.336 C  
HETATM   12  C   UNL     1      -9.652  10.467  69.281  1.00  0.00    -0.209 C  
ENDBRANCH   8  10
ENDBRANCH   7   8
ENDBRANCH   6   7
ENDBRANCH   4   6
ENDBRANCH   2   4
TORSDOF 5
ENDMDL
MODEL      309
REMARK 921   NORMALIZED FREE ENERGY PREDICTED BY IDOCK:   -1.91 KCAL/MOL
REMARK 922        TOTAL FREE ENERGY PREDICTED BY IDOCK:   -2.56 KCAL/MOL
REMARK 923 INTER-LIGAND FREE ENERGY PREDICTED BY IDOCK:   -2.41 KCAL/MOL
REMARK 924 INTRA-LIGAND FREE ENERGY PREDICTED BY IDOCK:   -0.15 KCAL/MOL
REMARK 927      BINDING AFFINITY PREDICTED BY RF-SCORE:    0.00 PKD
ROOT
HETATM    1  C   UNL     1     -10.359   5.154  66.570  1.00  0.00    -0.291 C  
HETATM    2  N   UNL     1      -9.184   6.012  66.724  1.00  0.00    -0.132 N  
HETATM    3  C   UNL     1      -7.982   5.367  67.251  1.00  0.00    -0.101 C  
ENDROOT
BRANCH   2   4
HETATM    4  C   UNL     1      -9.248   7.391  66.433  1.00  0.00    -0.159 C  
HETATM    5  S   UNL     1      -8.287   8.165  65.278  1.00  0.00    -0.134 S  
BRANCH   4   6
HETATM    6  S   UNL     1     -10.496   8.320  67.299  1.00  0.00    -0.269 SA 
BRANCH   6   7
HETATM    7  S   UNL     1      -9.372   9.508  68.563  1.00  0.00    -0.138 SA 
BRANCH   7   8
HETATM    8  C   UNL     1     -10.427  10.925  68.742  1.00  0.00    -0.200 C  
HETATM    9  S   UNL     1     -11.797  10.745  69.711  1.00  0.00    -0.344 S  
BRANCH   8  10
HETATM   10  N   UNL     1     -10.028  12.118  68.109  1.00  0.00    -0.197 N  
HETATM   11  C   UNL     1     -10.579  13.444  68.397  1.00  0.00    -0.248 C  
HETATM   12  C   UNL     1      -8.994  12.148  67.069  1.00  0.00    -0.201 C  
ENDBRANCH   8  10
ENDBRANCH   7   8
ENDBRANCH   6   7
ENDBRANCH   4   6
ENDBRANCH   2   4
TORSDOF 5
ENDMDL
MODEL      310
REMARK 921   NORMALIZED FREE ENERGY PREDICTED BY IDOCK:   -1.91 KCAL/MOL
REMARK 922        TOTAL FREE ENERGY PREDICTED BY IDOCK:   -2.56 KCAL/MOL
REMARK 923 INTER-LIGAND FREE ENERGY PREDICTED BY IDOCK:   -2.35 KCAL/MOL
REMARK 924 INTRA-LIGAND FREE ENERGY PREDICTED BY IDOCK:   -0.20 KCAL/MOL
REMARK 927      BINDING AFFINITY PREDICTED BY RF-SCORE:    0.00 PKD
ROOT
HETATM    1  C   UNL     1     -13.211   7.438  71.494  1.00  0.00    -0.372 C  
HETATM    2  N   UNL     1     -11.952   8.130  71.214  1.00  0.00    -0.291 N  
HETATM    3  C   UNL     1     -11.976   9.586  71.343  1.00  0.00    -0.386 C  
ENDROOT
BRANCH   2   4
HETATM    4  C   UNL     1     -10.812   7.418  70.787  1.00  0.00    -0.241 C  
HETATM    5  S   UNL     1     -10.684   6.630  69.297  1.00  0.00    -0.290 S  
BRANCH   4   6
HETATM    6  S   UNL     1      -9.408   7.451  71.883  1.00  0.00    -0.136 SA 
BRANCH   6   7
HETATM    7  S   UNL     1      -8.223   5.931  71.138  1.00  0.00    -0.124 SA 
BRANCH   7   8
HETATM    8  C   UNL     1      -8.923   4.513  71.946  1.00  0.00    -0.122 C  
HETATM    9  S   UNL     1      -9.745   4.784  73.395  1.00  0.00    -0.137 S  
BRANCH   8  10
HETATM   10  N   UNL     1      -8.793   3.267  71.303  1.00  0.00    -0.081 N  
HETATM   11  C   UNL     1      -9.518   2.868  70.095  1.00  0.00    -0.127 C  
HETATM   12  C   UNL     1      -7.894   2.219  71.797  1.00  0.00    -0.045 C  
ENDBRANCH   8  10
ENDBRANCH   7   8
ENDBRANCH   6   7
ENDBRANCH   4   6
ENDBRANCH   2   4
TORSDOF 5
ENDMDL
MODEL      311
REMARK 921   NORMALIZED FREE ENERGY PREDICTED BY IDOCK:   -1.91 KCAL/MOL
REMARK 922        TOTAL FREE ENERGY PREDICTED BY IDOCK:   -2.55 KCAL/MOL
REMARK 923 INTER-LIGAND FREE ENERGY PREDICTED BY IDOCK:   -2.32 KCAL/MOL
REMARK 924 INTRA-LIGAND FREE ENERGY PREDICTED BY IDOCK:   -0.24 KCAL/MOL
REMARK 927      BINDING AFFINITY PREDICTED BY RF-SCORE:    0.00 PKD
ROOT
HETATM    1  C   UNL     1      -7.986   7.227  69.242  1.00  0.00    -0.118 C  
HETATM    2  N   UNL     1      -9.341   7.668  68.907  1.00  0.00    -0.146 N  
HETATM    3  C   UNL     1     -10.147   8.170  70.018  1.00  0.00    -0.196 C  
ENDROOT
BRANCH   2   4
HETATM    4  C   UNL     1      -9.838   7.549  67.592  1.00  0.00    -0.161 C  
HETATM    5  S   UNL     1     -10.897   6.333  67.083  1.00  0.00    -0.379 S  
BRANCH   4   6
HETATM    6  S   UNL     1      -9.365   8.832  66.452  1.00  0.00    -0.222 SA 
BRANCH   6   7
HETATM    7  S   UNL     1     -10.485  10.443  67.103  1.00  0.00    -0.261 SA 
BRANCH   7   8
HETATM    8  C   UNL     1      -9.266  11.735  67.115  1.00  0.00    -0.179 C  
HETATM    9  S   UNL     1      -9.751  13.252  66.557  1.00  0.00    -0.272 S  
BRANCH   8  10
HETATM   10  N   UNL     1      -7.994  11.425  67.633  1.00  0.00    -0.119 N  
HETATM   11  C   UNL     1      -6.742  11.494  66.876  1.00  0.00    -0.139 C  
HETATM   12  C   UNL     1      -7.795  10.992  69.020  1.00  0.00    -0.126 C  
ENDBRANCH   8  10
ENDBRANCH   7   8
ENDBRANCH   6   7
ENDBRANCH   4   6
ENDBRANCH   2   4
TORSDOF 5
ENDMDL
MODEL      312
REMARK 921   NORMALIZED FREE ENERGY PREDICTED BY IDOCK:   -1.90 KCAL/MOL
REMARK 922        TOTAL FREE ENERGY PREDICTED BY IDOCK:   -2.55 KCAL/MOL
REMARK 923 INTER-LIGAND FREE ENERGY PREDICTED BY IDOCK:   -2.34 KCAL/MOL
REMARK 924 INTRA-LIGAND FREE ENERGY PREDICTED BY IDOCK:   -0.21 KCAL/MOL
REMARK 927      BINDING AFFINITY PREDICTED BY RF-SCORE:    0.00 PKD
ROOT
HETATM    1  C   UNL     1      -9.384  12.162  67.173  1.00  0.00    -0.193 C  
HETATM    2  N   UNL     1      -9.422  10.795  66.652  1.00  0.00    -0.172 N  
HETATM    3  C   UNL     1      -9.099  10.638  65.234  1.00  0.00    -0.195 C  
ENDROOT
BRANCH   2   4
HETATM    4  C   UNL     1      -9.810   9.716  67.473  1.00  0.00    -0.169 C  
HETATM    5  S   UNL     1     -10.222   8.182  66.896  1.00  0.00    -0.309 S  
BRANCH   4   6
HETATM    6  S   UNL     1      -9.763  10.007  69.230  1.00  0.00    -0.227 SA 
BRANCH   6   7
HETATM    7  S   UNL     1      -8.086   8.949  69.813  1.00  0.00    -0.116 SA 
BRANCH   7   8
HETATM    8  C   UNL     1      -8.760   7.321  70.037  1.00  0.00    -0.141 C  
HETATM    9  S   UNL     1      -7.942   6.043  69.296  1.00  0.00    -0.104 S  
BRANCH   8  10
HETATM   10  N   UNL     1      -9.898   7.194  70.856  1.00  0.00    -0.181 N  
HETATM   11  C   UNL     1     -11.167   6.592  70.439  1.00  0.00    -0.344 C  
HETATM   12  C   UNL     1      -9.925   7.667  72.244  1.00  0.00    -0.190 C  
ENDBRANCH   8  10
ENDBRANCH   7   8
ENDBRANCH   6   7
ENDBRANCH   4   6
ENDBRANCH   2   4
TORSDOF 5
ENDMDL
MODEL      313
REMARK 921   NORMALIZED FREE ENERGY PREDICTED BY IDOCK:   -1.90 KCAL/MOL
REMARK 922        TOTAL FREE ENERGY PREDICTED BY IDOCK:   -2.55 KCAL/MOL
REMARK 923 INTER-LIGAND FREE ENERGY PREDICTED BY IDOCK:   -2.38 KCAL/MOL
REMARK 924 INTRA-LIGAND FREE ENERGY PREDICTED BY IDOCK:   -0.17 KCAL/MOL
REMARK 927      BINDING AFFINITY PREDICTED BY RF-SCORE:    0.00 PKD
ROOT
HETATM    1  C   UNL     1     -12.034  13.569  69.720  1.00  0.00    -0.340 C  
HETATM    2  N   UNL     1     -11.257  14.447  68.846  1.00  0.00    -0.249 N  
HETATM    3  C   UNL     1     -11.626  15.862  68.860  1.00  0.00    -0.388 C  
ENDROOT
BRANCH   2   4
HETATM    4  C   UNL     1     -10.254  13.927  68.000  1.00  0.00    -0.246 C  
HETATM    5  S   UNL     1      -9.330  14.860  66.936  1.00  0.00    -0.255 S  
BRANCH   4   6
HETATM    6  S   UNL     1      -9.913  12.187  68.162  1.00  0.00    -0.204 SA 
BRANCH   6   7
HETATM    7  S   UNL     1      -7.855  12.116  67.990  1.00  0.00    -0.156 SA 
BRANCH   7   8
HETATM    8  C   UNL     1      -7.576  10.369  67.835  1.00  0.00    -0.088 C  
HETATM    9  S   UNL     1      -6.776   9.605  69.110  1.00  0.00    -0.050 S  
BRANCH   8  10
HETATM   10  N   UNL     1      -8.081   9.728  66.688  1.00  0.00    -0.116 N  
HETATM   11  C   UNL     1      -7.833  10.158  65.311  1.00  0.00    -0.143 C  
HETATM   12  C   UNL     1      -8.929   8.534  66.766  1.00  0.00    -0.146 C  
ENDBRANCH   8  10
ENDBRANCH   7   8
ENDBRANCH   6   7
ENDBRANCH   4   6
ENDBRANCH   2   4
TORSDOF 5
ENDMDL
MODEL      314
REMARK 921   NORMALIZED FREE ENERGY PREDICTED BY IDOCK:   -1.89 KCAL/MOL
REMARK 922        TOTAL FREE ENERGY PREDICTED BY IDOCK:   -2.54 KCAL/MOL
REMARK 923 INTER-LIGAND FREE ENERGY PREDICTED BY IDOCK:   -2.40 KCAL/MOL
REMARK 924 INTRA-LIGAND FREE ENERGY PREDICTED BY IDOCK:   -0.13 KCAL/MOL
REMARK 927      BINDING AFFINITY PREDICTED BY RF-SCORE:    0.00 PKD
ROOT
HETATM    1  C   UNL     1      -9.436  15.914  66.057  1.00  0.00    -0.354 C  
HETATM    2  N   UNL     1      -9.894  15.418  67.355  1.00  0.00    -0.216 N  
HETATM    3  C   UNL     1     -11.168  15.951  67.835  1.00  0.00    -0.297 C  
ENDROOT
BRANCH   2   4
HETATM    4  C   UNL     1      -9.106  14.523  68.109  1.00  0.00    -0.191 C  
HETATM    5  S   UNL     1      -7.783  14.986  69.053  1.00  0.00    -0.182 S  
BRANCH   4   6
HETATM    6  S   UNL     1      -9.627  12.820  68.106  1.00  0.00    -0.216 SA 
BRANCH   6   7
HETATM    7  S   UNL     1      -7.829  11.802  68.131  1.00  0.00    -0.143 SA 
BRANCH   7   8
HETATM    8  C   UNL     1      -8.370  10.130  67.875  1.00  0.00    -0.117 C  
HETATM    9  S   UNL     1      -8.065   9.027  69.117  1.00  0.00    -0.111 S  
BRANCH   8  10
HETATM   10  N   UNL     1      -9.059   9.844  66.681  1.00  0.00    -0.145 N  
HETATM   11  C   UNL     1     -10.197   8.929  66.570  1.00  0.00    -0.249 C  
HETATM   12  C   UNL     1      -8.691  10.450  65.397  1.00  0.00    -0.180 C  
ENDBRANCH   8  10
ENDBRANCH   7   8
ENDBRANCH   6   7
ENDBRANCH   4   6
ENDBRANCH   2   4
TORSDOF 5
ENDMDL
MODEL      315
REMARK 921   NORMALIZED FREE ENERGY PREDICTED BY IDOCK:   -1.89 KCAL/MOL
REMARK 922        TOTAL FREE ENERGY PREDICTED BY IDOCK:   -2.54 KCAL/MOL
REMARK 923 INTER-LIGAND FREE ENERGY PREDICTED BY IDOCK:   -2.36 KCAL/MOL
REMARK 924 INTRA-LIGAND FREE ENERGY PREDICTED BY IDOCK:   -0.17 KCAL/MOL
REMARK 927      BINDING AFFINITY PREDICTED BY RF-SCORE:    0.00 PKD
ROOT
HETATM    1  C   UNL     1      -9.014  10.267  62.551  1.00  0.00    -0.266 C  
HETATM    2  N   UNL     1      -9.385  10.852  63.839  1.00  0.00    -0.229 N  
HETATM    3  C   UNL     1     -10.204  12.062  63.784  1.00  0.00    -0.422 C  
ENDROOT
BRANCH   2   4
HETATM    4  C   UNL     1      -8.917  10.299  65.050  1.00  0.00    -0.196 C  
HETATM    5  S   UNL     1      -7.288  10.013  65.397  1.00  0.00    -0.144 S  
BRANCH   4   6
HETATM    6  S   UNL     1     -10.148   9.978  66.296  1.00  0.00    -0.226 SA 
BRANCH   6   7
HETATM    7  S   UNL     1      -9.053  10.088  68.045  1.00  0.00    -0.131 SA 
BRANCH   7   8
HETATM    8  C   UNL     1      -9.107   8.401  68.599  1.00  0.00    -0.140 C  
HETATM    9  S   UNL     1      -9.011   7.201  67.415  1.00  0.00    -0.122 S  
BRANCH   8  10
HETATM   10  N   UNL     1      -9.176   8.173  69.986  1.00  0.00    -0.154 N  
HETATM   11  C   UNL     1      -8.117   8.505  70.943  1.00  0.00    -0.127 C  
HETATM   12  C   UNL     1     -10.346   7.563  70.625  1.00  0.00    -0.208 C  
ENDBRANCH   8  10
ENDBRANCH   7   8
ENDBRANCH   6   7
ENDBRANCH   4   6
ENDBRANCH   2   4
TORSDOF 5
ENDMDL
MODEL      316
REMARK 921   NORMALIZED FREE ENERGY PREDICTED BY IDOCK:   -1.88 KCAL/MOL
REMARK 922        TOTAL FREE ENERGY PREDICTED BY IDOCK:   -2.52 KCAL/MOL
REMARK 923 INTER-LIGAND FREE ENERGY PREDICTED BY IDOCK:   -2.40 KCAL/MOL
REMARK 924 INTRA-LIGAND FREE ENERGY PREDICTED BY IDOCK:   -0.13 KCAL/MOL
REMARK 927      BINDING AFFINITY PREDICTED BY RF-SCORE:    0.00 PKD
ROOT
HETATM    1  C   UNL     1      -7.362  11.146  68.836  1.00  0.00    -0.110 C  
HETATM    2  N   UNL     1      -8.051  10.053  69.523  1.00  0.00    -0.146 N  
HETATM    3  C   UNL     1      -7.349   9.465  70.662  1.00  0.00    -0.131 C  
ENDROOT
BRANCH   2   4
HETATM    4  C   UNL     1      -9.293   9.572  69.057  1.00  0.00    -0.155 C  
HETATM    5  S   UNL     1      -9.744   9.525  67.429  1.00  0.00    -0.166 S  
BRANCH   4   6
HETATM    6  S   UNL     1     -10.388   8.898  70.290  1.00  0.00    -0.218 SA 
BRANCH   6   7
HETATM    7  S   UNL     1     -10.041   6.867  70.134  1.00  0.00    -0.184 SA 
BRANCH   7   8
HETATM    8  C   UNL     1     -11.120   6.230  71.393  1.00  0.00    -0.284 C  
HETATM    9  S   UNL     1     -12.665   6.904  71.492  1.00  0.00    -0.299 S  
BRANCH   8  10
HETATM   10  N   UNL     1     -10.638   5.175  72.190  1.00  0.00    -0.220 N  
HETATM   11  C   UNL     1     -11.064   4.902  73.564  1.00  0.00    -0.332 C  
HETATM   12  C   UNL     1      -9.634   4.220  71.708  1.00  0.00    -0.154 C  
ENDBRANCH   8  10
ENDBRANCH   7   8
ENDBRANCH   6   7
ENDBRANCH   4   6
ENDBRANCH   2   4
TORSDOF 5
ENDMDL
MODEL      317
REMARK 921   NORMALIZED FREE ENERGY PREDICTED BY IDOCK:   -1.88 KCAL/MOL
REMARK 922        TOTAL FREE ENERGY PREDICTED BY IDOCK:   -2.52 KCAL/MOL
REMARK 923 INTER-LIGAND FREE ENERGY PREDICTED BY IDOCK:   -2.32 KCAL/MOL
REMARK 924 INTRA-LIGAND FREE ENERGY PREDICTED BY IDOCK:   -0.20 KCAL/MOL
REMARK 927      BINDING AFFINITY PREDICTED BY RF-SCORE:    0.00 PKD
ROOT
HETATM    1  C   UNL     1     -10.714   8.753  70.146  1.00  0.00    -0.224 C  
HETATM    2  N   UNL     1     -11.317   7.426  70.271  1.00  0.00    -0.255 N  
HETATM    3  C   UNL     1     -12.359   7.285  71.287  1.00  0.00    -0.366 C  
ENDROOT
BRANCH   2   4
HETATM    4  C   UNL     1     -10.860   6.345  69.488  1.00  0.00    -0.321 C  
HETATM    5  S   UNL     1     -10.867   6.324  67.798  1.00  0.00    -0.338 S  
BRANCH   4   6
HETATM    6  S   UNL     1     -10.157   4.971  70.377  1.00  0.00    -0.251 SA 
BRANCH   6   7
HETATM    7  S   UNL     1      -8.297   5.692  70.916  1.00  0.00    -0.126 SA 
BRANCH   7   8
HETATM    8  C   UNL     1      -8.239   5.260  72.638  1.00  0.00    -0.113 C  
HETATM    9  S   UNL     1      -9.700   4.843  73.374  1.00  0.00    -0.142 S  
BRANCH   8  10
HETATM   10  N   UNL     1      -6.978   5.244  73.263  1.00  0.00    -0.078 N  
HETATM   11  C   UNL     1      -6.055   6.380  73.316  1.00  0.00    -0.058 C  
HETATM   12  C   UNL     1      -6.452   4.054  73.941  1.00  0.00    -0.046 C  
ENDBRANCH   8  10
ENDBRANCH   7   8
ENDBRANCH   6   7
ENDBRANCH   4   6
ENDBRANCH   2   4
TORSDOF 5
ENDMDL
MODEL      318
REMARK 921   NORMALIZED FREE ENERGY PREDICTED BY IDOCK:   -1.87 KCAL/MOL
REMARK 922        TOTAL FREE ENERGY PREDICTED BY IDOCK:   -2.51 KCAL/MOL
REMARK 923 INTER-LIGAND FREE ENERGY PREDICTED BY IDOCK:   -2.25 KCAL/MOL
REMARK 924 INTRA-LIGAND FREE ENERGY PREDICTED BY IDOCK:   -0.26 KCAL/MOL
REMARK 927      BINDING AFFINITY PREDICTED BY RF-SCORE:    0.00 PKD
ROOT
HETATM    1  C   UNL     1     -10.420   7.968  68.034  1.00  0.00    -0.184 C  
HETATM    2  N   UNL     1     -10.694   6.572  68.375  1.00  0.00    -0.252 N  
HETATM    3  C   UNL     1     -10.776   5.639  67.252  1.00  0.00    -0.215 C  
ENDROOT
BRANCH   2   4
HETATM    4  C   UNL     1     -10.923   6.182  69.712  1.00  0.00    -0.390 C  
HETATM    5  S   UNL     1     -12.109   6.857  70.709  1.00  0.00    -0.284 S  
BRANCH   4   6
HETATM    6  S   UNL     1      -9.935   4.830  70.317  1.00  0.00    -0.238 SA 
BRANCH   6   7
HETATM    7  S   UNL     1      -8.031   5.634  70.323  1.00  0.00    -0.105 SA 
BRANCH   7   8
HETATM    8  C   UNL     1      -7.865   6.128  72.020  1.00  0.00    -0.105 C  
HETATM    9  S   UNL     1      -7.780   4.898  73.173  1.00  0.00    -0.094 S  
BRANCH   8  10
HETATM   10  N   UNL     1      -7.765   7.506  72.291  1.00  0.00    -0.087 N  
HETATM   11  C   UNL     1      -8.878   8.457  72.220  1.00  0.00    -0.220 C  
HETATM   12  C   UNL     1      -6.502   8.141  72.680  1.00  0.00    -0.081 C  
ENDBRANCH   8  10
ENDBRANCH   7   8
ENDBRANCH   6   7
ENDBRANCH   4   6
ENDBRANCH   2   4
TORSDOF 5
ENDMDL
MODEL      319
REMARK 921   NORMALIZED FREE ENERGY PREDICTED BY IDOCK:   -1.87 KCAL/MOL
REMARK 922        TOTAL FREE ENERGY PREDICTED BY IDOCK:   -2.51 KCAL/MOL
REMARK 923 INTER-LIGAND FREE ENERGY PREDICTED BY IDOCK:   -2.31 KCAL/MOL
REMARK 924 INTRA-LIGAND FREE ENERGY PREDICTED BY IDOCK:   -0.21 KCAL/MOL
REMARK 927      BINDING AFFINITY PREDICTED BY RF-SCORE:    0.00 PKD
ROOT
HETATM    1  C   UNL     1      -9.719   4.426  72.009  1.00  0.00    -0.166 C  
HETATM    2  N   UNL     1     -10.189   5.811  71.992  1.00  0.00    -0.196 N  
HETATM    3  C   UNL     1     -11.637   6.001  72.071  1.00  0.00    -0.276 C  
ENDROOT
BRANCH   2   4
HETATM    4  C   UNL     1      -9.283   6.883  71.847  1.00  0.00    -0.141 C  
HETATM    5  S   UNL     1      -8.757   7.863  73.119  1.00  0.00    -0.247 S  
BRANCH   4   6
HETATM    6  S   UNL     1      -8.610   7.128  70.216  1.00  0.00    -0.144 SA 
BRANCH   6   7
HETATM    7  S   UNL     1     -10.065   8.275  69.299  1.00  0.00    -0.202 SA 
BRANCH   7   8
HETATM    8  C   UNL     1      -9.153   9.747  68.905  1.00  0.00    -0.148 C  
HETATM    9  S   UNL     1      -7.733  10.026  69.774  1.00  0.00    -0.172 S  
BRANCH   8  10
HETATM   10  N   UNL     1      -9.644  10.558  67.864  1.00  0.00    -0.149 N  
HETATM   11  C   UNL     1     -11.053  10.908  67.668  1.00  0.00    -0.313 C  
HETATM   12  C   UNL     1      -8.767  11.145  66.845  1.00  0.00    -0.152 C  
ENDBRANCH   8  10
ENDBRANCH   7   8
ENDBRANCH   6   7
ENDBRANCH   4   6
ENDBRANCH   2   4
TORSDOF 5
ENDMDL
MODEL      320
REMARK 921   NORMALIZED FREE ENERGY PREDICTED BY IDOCK:   -1.87 KCAL/MOL
REMARK 922        TOTAL FREE ENERGY PREDICTED BY IDOCK:   -2.50 KCAL/MOL
REMARK 923 INTER-LIGAND FREE ENERGY PREDICTED BY IDOCK:   -2.24 KCAL/MOL
REMARK 924 INTRA-LIGAND FREE ENERGY PREDICTED BY IDOCK:   -0.26 KCAL/MOL
REMARK 927      BINDING AFFINITY PREDICTED BY RF-SCORE:    0.00 PKD
ROOT
HETATM    1  C   UNL     1     -10.793   7.113  67.052  1.00  0.00    -0.312 C  
HETATM    2  N   UNL     1      -9.567   6.689  67.728  1.00  0.00    -0.123 N  
HETATM    3  C   UNL     1      -9.487   5.275  68.090  1.00  0.00    -0.123 C  
ENDROOT
BRANCH   2   4
HETATM    4  C   UNL     1      -8.559   7.621  68.055  1.00  0.00    -0.123 C  
HETATM    5  S   UNL     1      -6.949   7.495  67.556  1.00  0.00    -0.082 S  
BRANCH   4   6
HETATM    6  S   UNL     1      -9.081   9.052  68.978  1.00  0.00    -0.144 SA 
BRANCH   6   7
HETATM    7  S   UNL     1      -8.122  10.594  67.992  1.00  0.00    -0.115 SA 
BRANCH   7   8
HETATM    8  C   UNL     1      -9.358  11.077  66.812  1.00  0.00    -0.181 C  
HETATM    9  S   UNL     1      -9.352  10.280  65.324  1.00  0.00    -0.239 S  
BRANCH   8  10
HETATM   10  N   UNL     1     -10.291  12.054  67.209  1.00  0.00    -0.210 N  
HETATM   11  C   UNL     1     -10.048  13.080  68.226  1.00  0.00    -0.239 C  
HETATM   12  C   UNL     1     -11.634  12.141  66.627  1.00  0.00    -0.350 C  
ENDBRANCH   8  10
ENDBRANCH   7   8
ENDBRANCH   6   7
ENDBRANCH   4   6
ENDBRANCH   2   4
TORSDOF 5
ENDMDL
MODEL      321
REMARK 921   NORMALIZED FREE ENERGY PREDICTED BY IDOCK:   -1.86 KCAL/MOL
REMARK 922        TOTAL FREE ENERGY PREDICTED BY IDOCK:   -2.49 KCAL/MOL
REMARK 923 INTER-LIGAND FREE ENERGY PREDICTED BY IDOCK:   -2.32 KCAL/MOL
REMARK 924 INTRA-LIGAND FREE ENERGY PREDICTED BY IDOCK:   -0.18 KCAL/MOL
REMARK 927      BINDING AFFINITY PREDICTED BY RF-SCORE:    0.00 PKD
ROOT
HETATM    1  C   UNL     1      -7.925   9.600  70.152  1.00  0.00    -0.176 C  
HETATM    2  N   UNL     1      -8.313   8.359  69.482  1.00  0.00    -0.118 N  
HETATM    3  C   UNL     1      -7.912   7.118  70.144  1.00  0.00    -0.113 C  
ENDROOT
BRANCH   2   4
HETATM    4  C   UNL     1      -8.981   8.383  68.240  1.00  0.00    -0.139 C  
HETATM    5  S   UNL     1      -8.951   7.117  67.120  1.00  0.00    -0.129 S  
BRANCH   4   6
HETATM    6  S   UNL     1      -9.978   9.821  67.910  1.00  0.00    -0.172 SA 
BRANCH   6   7
HETATM    7  S   UNL     1      -9.105  10.589  66.202  1.00  0.00    -0.168 SA 
BRANCH   7   8
HETATM    8  C   UNL     1     -10.072  12.055  65.942  1.00  0.00    -0.236 C  
HETATM    9  S   UNL     1     -11.148  12.043  64.641  1.00  0.00    -0.331 S  
BRANCH   8  10
HETATM   10  N   UNL     1      -9.918  13.109  66.862  1.00  0.00    -0.240 N  
HETATM   11  C   UNL     1     -11.009  13.941  67.373  1.00  0.00    -0.288 C  
HETATM   12  C   UNL     1      -8.612  13.486  67.413  1.00  0.00    -0.208 C  
ENDBRANCH   8  10
ENDBRANCH   7   8
ENDBRANCH   6   7
ENDBRANCH   4   6
ENDBRANCH   2   4
TORSDOF 5
ENDMDL
MODEL      322
REMARK 921   NORMALIZED FREE ENERGY PREDICTED BY IDOCK:   -1.84 KCAL/MOL
REMARK 922        TOTAL FREE ENERGY PREDICTED BY IDOCK:   -2.46 KCAL/MOL
REMARK 923 INTER-LIGAND FREE ENERGY PREDICTED BY IDOCK:   -2.25 KCAL/MOL
REMARK 924 INTRA-LIGAND FREE ENERGY PREDICTED BY IDOCK:   -0.21 KCAL/MOL
REMARK 927      BINDING AFFINITY PREDICTED BY RF-SCORE:    0.00 PKD
ROOT
HETATM    1  C   UNL     1     -10.869   7.444  69.892  1.00  0.00    -0.246 C  
HETATM    2  N   UNL     1     -11.471   6.608  70.931  1.00  0.00    -0.327 N  
HETATM    3  C   UNL     1     -12.725   7.097  71.504  1.00  0.00    -0.393 C  
ENDROOT
BRANCH   2   4
HETATM    4  C   UNL     1     -10.830   5.434  71.381  1.00  0.00    -0.140 C  
HETATM    5  S   UNL     1      -9.873   4.440  70.405  1.00  0.00    -0.187 S  
BRANCH   4   6
HETATM    6  S   UNL     1     -10.996   5.062  73.115  1.00  0.00    -0.331 SA 
BRANCH   6   7
HETATM    7  S   UNL     1      -9.059   4.591  73.658  1.00  0.00    -0.104 SA 
BRANCH   7   8
HETATM    8  C   UNL     1      -8.212   6.106  73.285  1.00  0.00    -0.113 C  
HETATM    9  S   UNL     1      -8.968   7.543  73.749  1.00  0.00    -0.266 S  
BRANCH   8  10
HETATM   10  N   UNL     1      -6.947   6.012  72.674  1.00  0.00    -0.078 N  
HETATM   11  C   UNL     1      -6.305   7.082  71.906  1.00  0.00    -0.041 C  
HETATM   12  C   UNL     1      -6.126   4.798  72.749  1.00  0.00    -0.025 C  
ENDBRANCH   8  10
ENDBRANCH   7   8
ENDBRANCH   6   7
ENDBRANCH   4   6
ENDBRANCH   2   4
TORSDOF 5
ENDMDL
MODEL      323
REMARK 921   NORMALIZED FREE ENERGY PREDICTED BY IDOCK:   -1.83 KCAL/MOL
REMARK 922        TOTAL FREE ENERGY PREDICTED BY IDOCK:   -2.45 KCAL/MOL
REMARK 923 INTER-LIGAND FREE ENERGY PREDICTED BY IDOCK:   -2.39 KCAL/MOL
REMARK 924 INTRA-LIGAND FREE ENERGY PREDICTED BY IDOCK:   -0.06 KCAL/MOL
REMARK 927      BINDING AFFINITY PREDICTED BY RF-SCORE:    0.00 PKD
ROOT
HETATM    1  C   UNL     1      -7.777  13.824  68.468  1.00  0.00    -0.138 C  
HETATM    2  N   UNL     1      -9.025  14.474  68.068  1.00  0.00    -0.174 N  
HETATM    3  C   UNL     1      -9.348  15.725  68.752  1.00  0.00    -0.218 C  
ENDROOT
BRANCH   2   4
HETATM    4  C   UNL     1      -9.882  13.877  67.119  1.00  0.00    -0.241 C  
HETATM    5  S   UNL     1     -10.368  14.618  65.679  1.00  0.00    -0.376 S  
BRANCH   4   6
HETATM    6  S   UNL     1     -10.389  12.204  67.458  1.00  0.00    -0.208 SA 
BRANCH   6   7
HETATM    7  S   UNL     1      -8.943  11.093  66.486  1.00  0.00    -0.183 SA 
BRANCH   7   8
HETATM    8  C   UNL     1      -9.132   9.511  67.269  1.00  0.00    -0.130 C  
HETATM    9  S   UNL     1      -9.004   8.146  66.284  1.00  0.00    -0.185 S  
BRANCH   8  10
HETATM   10  N   UNL     1      -9.324   9.493  68.664  1.00  0.00    -0.141 N  
HETATM   11  C   UNL     1     -10.529   9.002  69.337  1.00  0.00    -0.222 C  
HETATM   12  C   UNL     1      -8.308   9.979  69.604  1.00  0.00    -0.176 C  
ENDBRANCH   8  10
ENDBRANCH   7   8
ENDBRANCH   6   7
ENDBRANCH   4   6
ENDBRANCH   2   4
TORSDOF 5
ENDMDL
MODEL      324
REMARK 921   NORMALIZED FREE ENERGY PREDICTED BY IDOCK:   -1.80 KCAL/MOL
REMARK 922        TOTAL FREE ENERGY PREDICTED BY IDOCK:   -2.41 KCAL/MOL
REMARK 923 INTER-LIGAND FREE ENERGY PREDICTED BY IDOCK:   -2.00 KCAL/MOL
REMARK 924 INTRA-LIGAND FREE ENERGY PREDICTED BY IDOCK:   -0.41 KCAL/MOL
REMARK 927      BINDING AFFINITY PREDICTED BY RF-SCORE:    0.00 PKD
ROOT
HETATM    1  C   UNL     1      -9.968   6.464  67.167  1.00  0.00    -0.155 C  
HETATM    2  N   UNL     1      -9.004   5.867  68.092  1.00  0.00    -0.116 N  
HETATM    3  C   UNL     1      -9.323   4.525  68.576  1.00  0.00    -0.143 C  
ENDROOT
BRANCH   2   4
HETATM    4  C   UNL     1      -7.872   6.588  68.525  1.00  0.00    -0.106 C  
HETATM    5  S   UNL     1      -6.751   7.312  67.488  1.00  0.00    -0.067 S  
BRANCH   4   6
HETATM    6  S   UNL     1      -7.699   6.798  70.286  1.00  0.00    -0.102 SA 
BRANCH   6   7
HETATM    7  S   UNL     1      -9.264   8.070  70.739  1.00  0.00    -0.159 SA 
BRANCH   7   8
HETATM    8  C   UNL     1     -10.439   6.941  71.445  1.00  0.00    -0.209 C  
HETATM    9  S   UNL     1     -11.905   6.750  70.629  1.00  0.00    -0.345 S  
BRANCH   8  10
HETATM   10  N   UNL     1     -10.057   6.244  72.607  1.00  0.00    -0.176 N  
HETATM   11  C   UNL     1      -9.622   6.873  73.856  1.00  0.00    -0.248 C  
HETATM   12  C   UNL     1     -10.056   4.779  72.679  1.00  0.00    -0.176 C  
ENDBRANCH   8  10
ENDBRANCH   7   8
ENDBRANCH   6   7
ENDBRANCH   4   6
ENDBRANCH   2   4
TORSDOF 5
ENDMDL
MODEL      325
REMARK 921   NORMALIZED FREE ENERGY PREDICTED BY IDOCK:   -1.79 KCAL/MOL
REMARK 922        TOTAL FREE ENERGY PREDICTED BY IDOCK:   -2.40 KCAL/MOL
REMARK 923 INTER-LIGAND FREE ENERGY PREDICTED BY IDOCK:   -2.14 KCAL/MOL
REMARK 924 INTRA-LIGAND FREE ENERGY PREDICTED BY IDOCK:   -0.26 KCAL/MOL
REMARK 927      BINDING AFFINITY PREDICTED BY RF-SCORE:    0.00 PKD
ROOT
HETATM    1  C   UNL     1     -11.742  13.265  66.083  1.00  0.00    -0.374 C  
HETATM    2  N   UNL     1     -10.816  12.632  67.022  1.00  0.00    -0.249 N  
HETATM    3  C   UNL     1     -10.288  13.490  68.082  1.00  0.00    -0.247 C  
ENDROOT
BRANCH   2   4
HETATM    4  C   UNL     1     -10.422  11.288  66.857  1.00  0.00    -0.245 C  
HETATM    5  S   UNL     1     -10.956  10.014  67.832  1.00  0.00    -0.192 S  
BRANCH   4   6
HETATM    6  S   UNL     1      -9.362  10.942  65.468  1.00  0.00    -0.214 SA 
BRANCH   6   7
HETATM    7  S   UNL     1      -8.071   9.522  66.233  1.00  0.00    -0.112 SA 
BRANCH   7   8
HETATM    8  C   UNL     1      -7.280  10.433  67.536  1.00  0.00    -0.087 C  
HETATM    9  S   UNL     1      -6.561  11.902  67.118  1.00  0.00    -0.132 S  
BRANCH   8  10
HETATM   10  N   UNL     1      -7.347   9.899  68.837  1.00  0.00    -0.076 N  
HETATM   11  C   UNL     1      -7.030  10.636  70.062  1.00  0.00    -0.126 C  
HETATM   12  C   UNL     1      -7.750   8.513  69.098  1.00  0.00    -0.091 C  
ENDBRANCH   8  10
ENDBRANCH   7   8
ENDBRANCH   6   7
ENDBRANCH   4   6
ENDBRANCH   2   4
TORSDOF 5
ENDMDL
MODEL      326
REMARK 921   NORMALIZED FREE ENERGY PREDICTED BY IDOCK:   -1.78 KCAL/MOL
REMARK 922        TOTAL FREE ENERGY PREDICTED BY IDOCK:   -2.40 KCAL/MOL
REMARK 923 INTER-LIGAND FREE ENERGY PREDICTED BY IDOCK:   -2.21 KCAL/MOL
REMARK 924 INTRA-LIGAND FREE ENERGY PREDICTED BY IDOCK:   -0.19 KCAL/MOL
REMARK 927      BINDING AFFINITY PREDICTED BY RF-SCORE:    0.00 PKD
ROOT
HETATM    1  C   UNL     1     -10.828   8.600  70.050  1.00  0.00    -0.221 C  
HETATM    2  N   UNL     1     -11.254   7.204  70.163  1.00  0.00    -0.274 N  
HETATM    3  C   UNL     1     -12.125   6.887  71.293  1.00  0.00    -0.373 C  
ENDROOT
BRANCH   2   4
HETATM    4  C   UNL     1     -10.788   6.228  69.257  1.00  0.00    -0.342 C  
HETATM    5  S   UNL     1     -10.881   6.369  67.575  1.00  0.00    -0.367 S  
BRANCH   4   6
HETATM    6  S   UNL     1      -9.979   4.812  69.974  1.00  0.00    -0.232 SA 
BRANCH   6   7
HETATM    7  S   UNL     1      -8.891   4.066  68.383  1.00  0.00    -0.116 SA 
BRANCH   7   8
HETATM    8  C   UNL     1      -7.446   5.098  68.432  1.00  0.00    -0.075 C  
HETATM    9  S   UNL     1      -6.950   5.652  69.947  1.00  0.00    -0.064 S  
BRANCH   8  10
HETATM   10  N   UNL     1      -6.781   5.346  67.216  1.00  0.00    -0.057 N  
HETATM   11  C   UNL     1      -6.902   6.576  66.431  1.00  0.00    -0.061 C  
HETATM   12  C   UNL     1      -5.879   4.367  66.600  1.00  0.00    -0.026 C  
ENDBRANCH   8  10
ENDBRANCH   7   8
ENDBRANCH   6   7
ENDBRANCH   4   6
ENDBRANCH   2   4
TORSDOF 5
ENDMDL
MODEL      327
REMARK 921   NORMALIZED FREE ENERGY PREDICTED BY IDOCK:   -1.76 KCAL/MOL
REMARK 922        TOTAL FREE ENERGY PREDICTED BY IDOCK:   -2.37 KCAL/MOL
REMARK 923 INTER-LIGAND FREE ENERGY PREDICTED BY IDOCK:   -2.22 KCAL/MOL
REMARK 924 INTRA-LIGAND FREE ENERGY PREDICTED BY IDOCK:   -0.14 KCAL/MOL
REMARK 927      BINDING AFFINITY PREDICTED BY RF-SCORE:    0.00 PKD
ROOT
HETATM    1  C   UNL     1      -9.815  12.045  64.467  1.00  0.00    -0.153 C  
HETATM    2  N   UNL     1     -10.988  12.701  65.046  1.00  0.00    -0.281 N  
HETATM    3  C   UNL     1     -12.283  12.311  64.491  1.00  0.00    -0.388 C  
ENDROOT
BRANCH   2   4
HETATM    4  C   UNL     1     -10.848  13.694  66.039  1.00  0.00    -0.275 C  
HETATM    5  S   UNL     1     -12.132  14.331  66.934  1.00  0.00    -0.324 S  
BRANCH   4   6
HETATM    6  S   UNL     1      -9.184  14.217  66.399  1.00  0.00    -0.120 SA 
BRANCH   6   7
HETATM    7  S   UNL     1      -8.988  13.733  68.399  1.00  0.00    -0.130 SA 
BRANCH   7   8
HETATM    8  C   UNL     1      -7.264  13.313  68.490  1.00  0.00    -0.110 C  
HETATM    9  S   UNL     1      -6.766  11.932  67.658  1.00  0.00    -0.119 S  
BRANCH   8  10
HETATM   10  N   UNL     1      -6.419  14.183  69.206  1.00  0.00    -0.110 N  
HETATM   11  C   UNL     1      -5.603  15.240  68.606  1.00  0.00    -0.090 C  
HETATM   12  C   UNL     1      -6.271  14.111  70.664  1.00  0.00    -0.123 C  
ENDBRANCH   8  10
ENDBRANCH   7   8
ENDBRANCH   6   7
ENDBRANCH   4   6
ENDBRANCH   2   4
TORSDOF 5
ENDMDL
MODEL      328
REMARK 921   NORMALIZED FREE ENERGY PREDICTED BY IDOCK:   -1.75 KCAL/MOL
REMARK 922        TOTAL FREE ENERGY PREDICTED BY IDOCK:   -2.35 KCAL/MOL
REMARK 923 INTER-LIGAND FREE ENERGY PREDICTED BY IDOCK:   -2.14 KCAL/MOL
REMARK 924 INTRA-LIGAND FREE ENERGY PREDICTED BY IDOCK:   -0.22 KCAL/MOL
REMARK 927      BINDING AFFINITY PREDICTED BY RF-SCORE:    0.00 PKD
ROOT
HETATM    1  C   UNL     1      -6.662   7.978  69.719  1.00  0.00    -0.040 C  
HETATM    2  N   UNL     1      -8.046   8.193  69.294  1.00  0.00    -0.115 N  
HETATM    3  C   UNL     1      -8.658   7.112  68.523  1.00  0.00    -0.124 C  
ENDROOT
BRANCH   2   4
HETATM    4  C   UNL     1      -8.710   9.407  69.571  1.00  0.00    -0.161 C  
HETATM    5  S   UNL     1     -10.210   9.515  70.342  1.00  0.00    -0.295 S  
BRANCH   4   6
HETATM    6  S   UNL     1      -7.835  10.898  69.144  1.00  0.00    -0.082 SA 
BRANCH   6   7
HETATM    7  S   UNL     1      -8.669  11.398  67.320  1.00  0.00    -0.152 SA 
BRANCH   7   8
HETATM    8  C   UNL     1      -9.828  12.656  67.799  1.00  0.00    -0.212 C  
HETATM    9  S   UNL     1     -11.453  12.205  67.895  1.00  0.00    -0.345 S  
BRANCH   8  10
HETATM   10  N   UNL     1      -9.315  13.928  68.115  1.00  0.00    -0.198 N  
HETATM   11  C   UNL     1      -8.070  14.485  67.582  1.00  0.00    -0.179 C  
HETATM   12  C   UNL     1      -9.998  14.844  69.035  1.00  0.00    -0.235 C  
ENDBRANCH   8  10
ENDBRANCH   7   8
ENDBRANCH   6   7
ENDBRANCH   4   6
ENDBRANCH   2   4
TORSDOF 5
ENDMDL
MODEL      329
REMARK 921   NORMALIZED FREE ENERGY PREDICTED BY IDOCK:   -1.75 KCAL/MOL
REMARK 922        TOTAL FREE ENERGY PREDICTED BY IDOCK:   -2.35 KCAL/MOL
REMARK 923 INTER-LIGAND FREE ENERGY PREDICTED BY IDOCK:   -2.08 KCAL/MOL
REMARK 924 INTRA-LIGAND FREE ENERGY PREDICTED BY IDOCK:   -0.27 KCAL/MOL
REMARK 927      BINDING AFFINITY PREDICTED BY RF-SCORE:    0.00 PKD
ROOT
HETATM    1  C   UNL     1     -11.085   8.639  71.840  1.00  0.00    -0.346 C  
HETATM    2  N   UNL     1     -10.049   7.670  71.483  1.00  0.00    -0.178 N  
HETATM    3  C   UNL     1     -10.401   6.261  71.649  1.00  0.00    -0.212 C  
ENDROOT
BRANCH   2   4
HETATM    4  C   UNL     1      -8.771   8.095  71.064  1.00  0.00    -0.139 C  
HETATM    5  S   UNL     1      -7.333   7.281  71.420  1.00  0.00    -0.078 S  
BRANCH   4   6
HETATM    6  S   UNL     1      -8.725   9.538  70.020  1.00  0.00    -0.234 SA 
BRANCH   6   7
HETATM    7  S   UNL     1      -7.842   8.815  68.297  1.00  0.00    -0.102 SA 
BRANCH   7   8
HETATM    8  C   UNL     1      -9.204   7.969  67.533  1.00  0.00    -0.137 C  
HETATM    9  S   UNL     1     -10.339   8.919  66.721  1.00  0.00    -0.205 S  
BRANCH   8  10
HETATM   10  N   UNL     1      -9.224   6.564  67.611  1.00  0.00    -0.114 N  
HETATM   11  C   UNL     1      -8.035   5.710  67.650  1.00  0.00    -0.101 C  
HETATM   12  C   UNL     1     -10.474   5.797  67.660  1.00  0.00    -0.235 C  
ENDBRANCH   8  10
ENDBRANCH   7   8
ENDBRANCH   6   7
ENDBRANCH   4   6
ENDBRANCH   2   4
TORSDOF 5
ENDMDL
MODEL      330
REMARK 921   NORMALIZED FREE ENERGY PREDICTED BY IDOCK:   -1.74 KCAL/MOL
REMARK 922        TOTAL FREE ENERGY PREDICTED BY IDOCK:   -2.33 KCAL/MOL
REMARK 923 INTER-LIGAND FREE ENERGY PREDICTED BY IDOCK:   -2.00 KCAL/MOL
REMARK 924 INTRA-LIGAND FREE ENERGY PREDICTED BY IDOCK:   -0.34 KCAL/MOL
REMARK 927      BINDING AFFINITY PREDICTED BY RF-SCORE:    0.00 PKD
ROOT
HETATM    1  C   UNL     1     -10.775   5.641  66.724  1.00  0.00    -0.284 C  
HETATM    2  N   UNL     1      -9.327   5.463  66.835  1.00  0.00    -0.123 N  
HETATM    3  C   UNL     1      -8.537   5.880  65.678  1.00  0.00    -0.155 C  
ENDROOT
BRANCH   2   4
HETATM    4  C   UNL     1      -8.755   4.866  67.978  1.00  0.00    -0.103 C  
HETATM    5  S   UNL     1      -7.834   3.449  67.951  1.00  0.00    -0.072 S  
BRANCH   4   6
HETATM    6  S   UNL     1      -8.968   5.742  69.514  1.00  0.00    -0.124 SA 
BRANCH   6   7
HETATM    7  S   UNL     1      -8.295   7.639  69.044  1.00  0.00    -0.129 SA 
BRANCH   7   8
HETATM    8  C   UNL     1      -9.813   8.560  69.045  1.00  0.00    -0.183 C  
HETATM    9  S   UNL     1     -10.935   8.188  70.250  1.00  0.00    -0.212 S  
BRANCH   8  10
HETATM   10  N   UNL     1      -9.962   9.571  68.076  1.00  0.00    -0.159 N  
HETATM   11  C   UNL     1     -10.055  11.003  68.368  1.00  0.00    -0.184 C  
HETATM   12  C   UNL     1     -10.043   9.278  66.641  1.00  0.00    -0.271 C  
ENDBRANCH   8  10
ENDBRANCH   7   8
ENDBRANCH   6   7
ENDBRANCH   4   6
ENDBRANCH   2   4
TORSDOF 5
ENDMDL
MODEL      331
REMARK 921   NORMALIZED FREE ENERGY PREDICTED BY IDOCK:   -1.72 KCAL/MOL
REMARK 922        TOTAL FREE ENERGY PREDICTED BY IDOCK:   -2.32 KCAL/MOL
REMARK 923 INTER-LIGAND FREE ENERGY PREDICTED BY IDOCK:   -2.18 KCAL/MOL
REMARK 924 INTRA-LIGAND FREE ENERGY PREDICTED BY IDOCK:   -0.14 KCAL/MOL
REMARK 927      BINDING AFFINITY PREDICTED BY RF-SCORE:    0.00 PKD
ROOT
HETATM    1  C   UNL     1     -10.752   7.456  69.771  1.00  0.00    -0.241 C  
HETATM    2  N   UNL     1     -11.356   6.685  70.858  1.00  0.00    -0.304 N  
HETATM    3  C   UNL     1     -12.613   7.205  71.393  1.00  0.00    -0.394 C  
ENDROOT
BRANCH   2   4
HETATM    4  C   UNL     1     -10.713   5.544  71.384  1.00  0.00    -0.221 C  
HETATM    5  S   UNL     1      -9.636   4.574  70.514  1.00  0.00    -0.221 S  
BRANCH   4   6
HETATM    6  S   UNL     1     -11.018   5.192  73.103  1.00  0.00    -0.327 SA 
BRANCH   6   7
HETATM    7  S   UNL     1     -10.482   3.202  73.253  1.00  0.00    -0.177 SA 
BRANCH   7   8
HETATM    8  C   UNL     1      -8.785   3.333  73.760  1.00  0.00    -0.076 C  
HETATM    9  S   UNL     1      -8.321   4.766  74.523  1.00  0.00    -0.100 S  
BRANCH   8  10
HETATM   10  N   UNL     1      -7.951   2.221  73.539  1.00  0.00    -0.049 N  
HETATM   11  C   UNL     1      -7.034   1.652  74.529  1.00  0.00    -0.022 C  
HETATM   12  C   UNL     1      -7.920   1.504  72.260  1.00  0.00    -0.045 C  
ENDBRANCH   8  10
ENDBRANCH   7   8
ENDBRANCH   6   7
ENDBRANCH   4   6
ENDBRANCH   2   4
TORSDOF 5
ENDMDL
MODEL      332
REMARK 921   NORMALIZED FREE ENERGY PREDICTED BY IDOCK:   -1.71 KCAL/MOL
REMARK 922        TOTAL FREE ENERGY PREDICTED BY IDOCK:   -2.30 KCAL/MOL
REMARK 923 INTER-LIGAND FREE ENERGY PREDICTED BY IDOCK:   -2.08 KCAL/MOL
REMARK 924 INTRA-LIGAND FREE ENERGY PREDICTED BY IDOCK:   -0.23 KCAL/MOL
REMARK 927      BINDING AFFINITY PREDICTED BY RF-SCORE:    0.00 PKD
ROOT
HETATM    1  C   UNL     1     -10.550   9.454  71.033  1.00  0.00    -0.330 C  
HETATM    2  N   UNL     1     -11.253   8.220  70.680  1.00  0.00    -0.259 N  
HETATM    3  C   UNL     1     -12.531   7.992  71.353  1.00  0.00    -0.301 C  
ENDROOT
BRANCH   2   4
HETATM    4  C   UNL     1     -10.683   7.291  69.784  1.00  0.00    -0.239 C  
HETATM    5  S   UNL     1      -9.976   7.705  68.306  1.00  0.00    -0.181 S  
BRANCH   4   6
HETATM    6  S   UNL     1     -10.651   5.595  70.326  1.00  0.00    -0.290 SA 
BRANCH   6   7
HETATM    7  S   UNL     1      -9.326   4.727  68.998  1.00  0.00    -0.147 SA 
BRANCH   7   8
HETATM    8  C   UNL     1      -7.793   4.883  69.881  1.00  0.00    -0.066 C  
HETATM    9  S   UNL     1      -6.556   5.748  69.124  1.00  0.00    -0.053 S  
BRANCH   8  10
HETATM   10  N   UNL     1      -7.723   4.322  71.170  1.00  0.00    -0.065 N  
HETATM   11  C   UNL     1      -7.851   2.894  71.470  1.00  0.00    -0.052 C  
HETATM   12  C   UNL     1      -7.510   5.136  72.371  1.00  0.00    -0.095 C  
ENDBRANCH   8  10
ENDBRANCH   7   8
ENDBRANCH   6   7
ENDBRANCH   4   6
ENDBRANCH   2   4
TORSDOF 5
ENDMDL
MODEL      333
REMARK 921   NORMALIZED FREE ENERGY PREDICTED BY IDOCK:   -1.66 KCAL/MOL
REMARK 922        TOTAL FREE ENERGY PREDICTED BY IDOCK:   -2.24 KCAL/MOL
REMARK 923 INTER-LIGAND FREE ENERGY PREDICTED BY IDOCK:   -2.16 KCAL/MOL
REMARK 924 INTRA-LIGAND FREE ENERGY PREDICTED BY IDOCK:   -0.08 KCAL/MOL
REMARK 927      BINDING AFFINITY PREDICTED BY RF-SCORE:    0.00 PKD
ROOT
HETATM    1  C   UNL     1     -10.932   8.545  70.121  1.00  0.00    -0.216 C  
HETATM    2  N   UNL     1     -10.818   7.118  70.420  1.00  0.00    -0.239 N  
HETATM    3  C   UNL     1     -11.703   6.607  71.466  1.00  0.00    -0.321 C  
ENDROOT
BRANCH   2   4
HETATM    4  C   UNL     1      -9.860   6.313  69.767  1.00  0.00    -0.165 C  
HETATM    5  S   UNL     1      -9.787   4.629  69.893  1.00  0.00    -0.227 S  
BRANCH   4   6
HETATM    6  S   UNL     1      -8.731   7.160  68.681  1.00  0.00    -0.126 SA 
BRANCH   6   7
HETATM    7  S   UNL     1      -9.827   7.326  66.937  1.00  0.00    -0.221 SA 
BRANCH   7   8
HETATM    8  C   UNL     1      -9.162   5.989  65.976  1.00  0.00    -0.112 C  
HETATM    9  S   UNL     1      -9.882   4.474  66.167  1.00  0.00    -0.249 S  
BRANCH   8  10
HETATM   10  N   UNL     1      -8.114   6.287  65.083  1.00  0.00    -0.126 N  
HETATM   11  C   UNL     1      -7.680   5.423  63.984  1.00  0.00    -0.087 C  
HETATM   12  C   UNL     1      -7.335   7.527  65.172  1.00  0.00    -0.073 C  
ENDBRANCH   8  10
ENDBRANCH   7   8
ENDBRANCH   6   7
ENDBRANCH   4   6
ENDBRANCH   2   4
TORSDOF 5
ENDMDL
MODEL      334
REMARK 921   NORMALIZED FREE ENERGY PREDICTED BY IDOCK:   -1.66 KCAL/MOL
REMARK 922        TOTAL FREE ENERGY PREDICTED BY IDOCK:   -2.23 KCAL/MOL
REMARK 923 INTER-LIGAND FREE ENERGY PREDICTED BY IDOCK:   -2.14 KCAL/MOL
REMARK 924 INTRA-LIGAND FREE ENERGY PREDICTED BY IDOCK:   -0.09 KCAL/MOL
REMARK 927      BINDING AFFINITY PREDICTED BY RF-SCORE:    0.00 PKD
ROOT
HETATM    1  C   UNL     1      -7.763  10.530  69.560  1.00  0.00    -0.136 C  
HETATM    2  N   UNL     1      -8.662   9.524  70.124  1.00  0.00    -0.215 N  
HETATM    3  C   UNL     1      -8.113   8.700  71.200  1.00  0.00    -0.146 C  
ENDROOT
BRANCH   2   4
HETATM    4  C   UNL     1      -9.960   9.336  69.603  1.00  0.00    -0.191 C  
HETATM    5  S   UNL     1     -11.204  10.474  69.717  1.00  0.00    -0.318 S  
BRANCH   4   6
HETATM    6  S   UNL     1     -10.234   7.826  68.699  1.00  0.00    -0.200 SA 
BRANCH   6   7
HETATM    7  S   UNL     1      -8.673   7.827  67.344  1.00  0.00    -0.129 SA 
BRANCH   7   8
HETATM    8  C   UNL     1      -9.134   6.484  66.278  1.00  0.00    -0.148 C  
HETATM    9  S   UNL     1     -10.484   5.576  66.727  1.00  0.00    -0.294 S  
BRANCH   8  10
HETATM   10  N   UNL     1      -8.377   6.293  65.106  1.00  0.00    -0.140 N  
HETATM   11  C   UNL     1      -8.451   5.112  64.244  1.00  0.00    -0.131 C  
HETATM   12  C   UNL     1      -7.413   7.288  64.623  1.00  0.00    -0.091 C  
ENDBRANCH   8  10
ENDBRANCH   7   8
ENDBRANCH   6   7
ENDBRANCH   4   6
ENDBRANCH   2   4
TORSDOF 5
ENDMDL
MODEL      335
REMARK 921   NORMALIZED FREE ENERGY PREDICTED BY IDOCK:   -1.63 KCAL/MOL
REMARK 922        TOTAL FREE ENERGY PREDICTED BY IDOCK:   -2.19 KCAL/MOL
REMARK 923 INTER-LIGAND FREE ENERGY PREDICTED BY IDOCK:   -2.04 KCAL/MOL
REMARK 924 INTRA-LIGAND FREE ENERGY PREDICTED BY IDOCK:   -0.15 KCAL/MOL
REMARK 927      BINDING AFFINITY PREDICTED BY RF-SCORE:    0.00 PKD
ROOT
HETATM    1  C   UNL     1     -11.349  14.408  69.341  1.00  0.00    -0.281 C  
HETATM    2  N   UNL     1     -10.670  14.290  68.051  1.00  0.00    -0.235 N  
HETATM    3  C   UNL     1     -10.043  15.508  67.539  1.00  0.00    -0.241 C  
ENDROOT
BRANCH   2   4
HETATM    4  C   UNL     1     -10.684  13.076  67.332  1.00  0.00    -0.245 C  
HETATM    5  S   UNL     1     -11.272  12.911  65.756  1.00  0.00    -0.304 S  
BRANCH   4   6
HETATM    6  S   UNL     1      -9.944  11.673  68.142  1.00  0.00    -0.200 SA 
BRANCH   6   7
HETATM    7  S   UNL     1      -8.283  11.304  66.969  1.00  0.00    -0.157 SA 
BRANCH   7   8
HETATM    8  C   UNL     1      -7.006  11.186  68.197  1.00  0.00    -0.069 C  
HETATM    9  S   UNL     1      -6.036  12.549  68.429  1.00  0.00    -0.062 S  
BRANCH   8  10
HETATM   10  N   UNL     1      -6.916   9.988  68.931  1.00  0.00    -0.061 N  
HETATM   11  C   UNL     1      -6.448   9.887  70.315  1.00  0.00    -0.103 C  
HETATM   12  C   UNL     1      -7.294   8.689  68.364  1.00  0.00    -0.086 C  
ENDBRANCH   8  10
ENDBRANCH   7   8
ENDBRANCH   6   7
ENDBRANCH   4   6
ENDBRANCH   2   4
TORSDOF 5
ENDMDL
MODEL      336
REMARK 921   NORMALIZED FREE ENERGY PREDICTED BY IDOCK:   -1.61 KCAL/MOL
REMARK 922        TOTAL FREE ENERGY PREDICTED BY IDOCK:   -2.17 KCAL/MOL
REMARK 923 INTER-LIGAND FREE ENERGY PREDICTED BY IDOCK:   -2.29 KCAL/MOL
REMARK 924 INTRA-LIGAND FREE ENERGY PREDICTED BY IDOCK:    0.12 KCAL/MOL
REMARK 927      BINDING AFFINITY PREDICTED BY RF-SCORE:    0.00 PKD
ROOT
HETATM    1  C   UNL     1     -10.024   4.493  70.303  1.00  0.00    -0.218 C  
HETATM    2  N   UNL     1     -10.675   5.797  70.435  1.00  0.00    -0.295 N  
HETATM    3  C   UNL     1     -11.265   6.348  69.216  1.00  0.00    -0.375 C  
ENDROOT
BRANCH   2   4
HETATM    4  C   UNL     1     -10.668   6.490  71.664  1.00  0.00    -0.230 C  
HETATM    5  S   UNL     1     -10.914   5.762  73.169  1.00  0.00    -0.252 S  
BRANCH   4   6
HETATM    6  S   UNL     1     -10.285   8.228  71.584  1.00  0.00    -0.243 SA 
BRANCH   6   7
HETATM    7  S   UNL     1      -8.460   8.327  72.548  1.00  0.00    -0.174 SA 
BRANCH   7   8
HETATM    8  C   UNL     1      -7.413   8.947  71.254  1.00  0.00    -0.103 C  
HETATM    9  S   UNL     1      -5.857   9.435  71.693  1.00  0.00    -0.019 S  
BRANCH   8  10
HETATM   10  N   UNL     1      -7.927   8.944  69.944  1.00  0.00    -0.102 N  
HETATM   11  C   UNL     1      -8.456  10.120  69.249  1.00  0.00    -0.163 C  
HETATM   12  C   UNL     1      -7.985   7.729  69.125  1.00  0.00    -0.119 C  
ENDBRANCH   8  10
ENDBRANCH   7   8
ENDBRANCH   6   7
ENDBRANCH   4   6
ENDBRANCH   2   4
TORSDOF 5
ENDMDL
MODEL      337
REMARK 921   NORMALIZED FREE ENERGY PREDICTED BY IDOCK:   -1.60 KCAL/MOL
REMARK 922        TOTAL FREE ENERGY PREDICTED BY IDOCK:   -2.16 KCAL/MOL
REMARK 923 INTER-LIGAND FREE ENERGY PREDICTED BY IDOCK:   -1.94 KCAL/MOL
REMARK 924 INTRA-LIGAND FREE ENERGY PREDICTED BY IDOCK:   -0.23 KCAL/MOL
REMARK 927      BINDING AFFINITY PREDICTED BY RF-SCORE:    0.00 PKD
ROOT
HETATM    1  C   UNL     1     -10.309  10.592  66.277  1.00  0.00    -0.234 C  
HETATM    2  N   UNL     1      -9.559  11.390  67.248  1.00  0.00    -0.174 N  
HETATM    3  C   UNL     1     -10.228  12.589  67.750  1.00  0.00    -0.217 C  
ENDROOT
BRANCH   2   4
HETATM    4  C   UNL     1      -8.244  11.036  67.617  1.00  0.00    -0.117 C  
HETATM    5  S   UNL     1      -6.925  12.093  67.566  1.00  0.00    -0.151 S  
BRANCH   4   6
HETATM    6  S   UNL     1      -8.022   9.388  68.254  1.00  0.00    -0.094 SA 
BRANCH   6   7
HETATM    7  S   UNL     1      -9.026   9.467  70.058  1.00  0.00    -0.236 SA 
BRANCH   7   8
HETATM    8  C   UNL     1      -9.476   7.764  70.284  1.00  0.00    -0.160 C  
HETATM    9  S   UNL     1     -11.123   7.395  70.260  1.00  0.00    -0.237 S  
BRANCH   8  10
HETATM   10  N   UNL     1      -8.433   6.828  70.418  1.00  0.00    -0.133 N  
HETATM   11  C   UNL     1      -7.345   6.920  71.395  1.00  0.00    -0.081 C  
HETATM   12  C   UNL     1      -8.332   5.637  69.568  1.00  0.00    -0.103 C  
ENDBRANCH   8  10
ENDBRANCH   7   8
ENDBRANCH   6   7
ENDBRANCH   4   6
ENDBRANCH   2   4
TORSDOF 5
ENDMDL
MODEL      338
REMARK 921   NORMALIZED FREE ENERGY PREDICTED BY IDOCK:   -1.60 KCAL/MOL
REMARK 922        TOTAL FREE ENERGY PREDICTED BY IDOCK:   -2.15 KCAL/MOL
REMARK 923 INTER-LIGAND FREE ENERGY PREDICTED BY IDOCK:   -1.93 KCAL/MOL
REMARK 924 INTRA-LIGAND FREE ENERGY PREDICTED BY IDOCK:   -0.23 KCAL/MOL
REMARK 927      BINDING AFFINITY PREDICTED BY RF-SCORE:    0.00 PKD
ROOT
HETATM    1  C   UNL     1     -10.925   8.418  70.036  1.00  0.00    -0.194 C  
HETATM    2  N   UNL     1     -10.833   7.080  70.621  1.00  0.00    -0.238 N  
HETATM    3  C   UNL     1     -11.802   6.769  71.671  1.00  0.00    -0.326 C  
ENDROOT
BRANCH   2   4
HETATM    4  C   UNL     1      -9.820   6.182  70.223  1.00  0.00    -0.169 C  
HETATM    5  S   UNL     1      -9.794   4.540  70.625  1.00  0.00    -0.210 S  
BRANCH   4   6
HETATM    6  S   UNL     1      -8.556   6.843  69.158  1.00  0.00    -0.128 SA 
BRANCH   6   7
HETATM    7  S   UNL     1      -9.202   6.261  67.283  1.00  0.00    -0.120 SA 
BRANCH   7   8
HETATM    8  C   UNL     1      -8.246   4.787  67.025  1.00  0.00    -0.106 C  
HETATM    9  S   UNL     1      -6.890   4.570  68.008  1.00  0.00    -0.056 S  
BRANCH   8  10
HETATM   10  N   UNL     1      -8.705   3.874  66.056  1.00  0.00    -0.112 N  
HETATM   11  C   UNL     1      -8.377   2.447  66.029  1.00  0.00    -0.094 C  
HETATM   12  C   UNL     1      -9.580   4.276  64.950  1.00  0.00    -0.173 C  
ENDBRANCH   8  10
ENDBRANCH   7   8
ENDBRANCH   6   7
ENDBRANCH   4   6
ENDBRANCH   2   4
TORSDOF 5
ENDMDL
MODEL      339
REMARK 921   NORMALIZED FREE ENERGY PREDICTED BY IDOCK:   -1.54 KCAL/MOL
REMARK 922        TOTAL FREE ENERGY PREDICTED BY IDOCK:   -2.08 KCAL/MOL
REMARK 923 INTER-LIGAND FREE ENERGY PREDICTED BY IDOCK:   -1.94 KCAL/MOL
REMARK 924 INTRA-LIGAND FREE ENERGY PREDICTED BY IDOCK:   -0.13 KCAL/MOL
REMARK 927      BINDING AFFINITY PREDICTED BY RF-SCORE:    0.00 PKD
ROOT
HETATM    1  C   UNL     1      -5.616  13.447  70.501  1.00  0.00    -0.163 C  
HETATM    2  N   UNL     1      -5.749  13.586  69.051  1.00  0.00    -0.073 N  
HETATM    3  C   UNL     1      -5.456  14.909  68.501  1.00  0.00    -0.101 C  
ENDROOT
BRANCH   2   4
HETATM    4  C   UNL     1      -6.196  12.509  68.256  1.00  0.00    -0.065 C  
HETATM    5  S   UNL     1      -5.264  11.757  67.064  1.00  0.00    -0.104 S  
BRANCH   4   6
HETATM    6  S   UNL     1      -7.819  11.877  68.628  1.00  0.00    -0.063 SA 
BRANCH   6   7
HETATM    7  S   UNL     1      -8.877  12.324  66.910  1.00  0.00    -0.196 SA 
BRANCH   7   8
HETATM    8  C   UNL     1     -10.155  11.092  66.955  1.00  0.00    -0.210 C  
HETATM    9  S   UNL     1     -11.547  11.461  67.835  1.00  0.00    -0.227 S  
BRANCH   8  10
HETATM   10  N   UNL     1      -9.947   9.912  66.215  1.00  0.00    -0.243 N  
HETATM   11  C   UNL     1      -9.741   9.857  64.766  1.00  0.00    -0.235 C  
HETATM   12  C   UNL     1      -9.918   8.586  66.842  1.00  0.00    -0.265 C  
ENDBRANCH   8  10
ENDBRANCH   7   8
ENDBRANCH   6   7
ENDBRANCH   4   6
ENDBRANCH   2   4
TORSDOF 5
ENDMDL
MODEL      340
REMARK 921   NORMALIZED FREE ENERGY PREDICTED BY IDOCK:   -1.52 KCAL/MOL
REMARK 922        TOTAL FREE ENERGY PREDICTED BY IDOCK:   -2.06 KCAL/MOL
REMARK 923 INTER-LIGAND FREE ENERGY PREDICTED BY IDOCK:   -1.90 KCAL/MOL
REMARK 924 INTRA-LIGAND FREE ENERGY PREDICTED BY IDOCK:   -0.16 KCAL/MOL
REMARK 927      BINDING AFFINITY PREDICTED BY RF-SCORE:    0.00 PKD
ROOT
HETATM    1  C   UNL     1      -8.223   6.913  69.172  1.00  0.00    -0.121 C  
HETATM    2  N   UNL     1      -9.299   7.747  68.634  1.00  0.00    -0.148 N  
HETATM    3  C   UNL     1      -9.912   8.688  69.570  1.00  0.00    -0.196 C  
ENDROOT
BRANCH   2   4
HETATM    4  C   UNL     1      -9.742   7.592  67.304  1.00  0.00    -0.167 C  
HETATM    5  S   UNL     1     -10.633   6.268  66.747  1.00  0.00    -0.243 S  
BRANCH   4   6
HETATM    6  S   UNL     1      -9.395   8.942  66.196  1.00  0.00    -0.253 SA 
BRANCH   6   7
HETATM    7  S   UNL     1      -7.329   8.943  66.126  1.00  0.00    -0.091 SA 
BRANCH   7   8
HETATM    8  C   UNL     1      -7.038   9.120  64.383  1.00  0.00    -0.091 C  
HETATM    9  S   UNL     1      -5.819  10.189  63.914  1.00  0.00    -0.144 S  
BRANCH   8  10
HETATM   10  N   UNL     1      -7.804   8.323  63.510  1.00  0.00    -0.146 N  
HETATM   11  C   UNL     1      -8.573   8.830  62.371  1.00  0.00    -0.188 C  
HETATM   12  C   UNL     1      -7.910   6.868  63.663  1.00  0.00    -0.107 C  
ENDBRANCH   8  10
ENDBRANCH   7   8
ENDBRANCH   6   7
ENDBRANCH   4   6
ENDBRANCH   2   4
TORSDOF 5
ENDMDL
MODEL      341
REMARK 921   NORMALIZED FREE ENERGY PREDICTED BY IDOCK:   -1.52 KCAL/MOL
REMARK 922        TOTAL FREE ENERGY PREDICTED BY IDOCK:   -2.05 KCAL/MOL
REMARK 923 INTER-LIGAND FREE ENERGY PREDICTED BY IDOCK:   -1.89 KCAL/MOL
REMARK 924 INTRA-LIGAND FREE ENERGY PREDICTED BY IDOCK:   -0.16 KCAL/MOL
REMARK 927      BINDING AFFINITY PREDICTED BY RF-SCORE:    0.00 PKD
ROOT
HETATM    1  C   UNL     1     -10.773   8.331  70.016  1.00  0.00    -0.239 C  
HETATM    2  N   UNL     1     -10.670   6.978  70.564  1.00  0.00    -0.231 N  
HETATM    3  C   UNL     1     -11.730   6.575  71.486  1.00  0.00    -0.324 C  
ENDROOT
BRANCH   2   4
HETATM    4  C   UNL     1      -9.570   6.151  70.254  1.00  0.00    -0.163 C  
HETATM    5  S   UNL     1      -9.602   4.462  70.318  1.00  0.00    -0.207 S  
BRANCH   4   6
HETATM    6  S   UNL     1      -8.101   6.978  69.678  1.00  0.00    -0.131 SA 
BRANCH   6   7
HETATM    7  S   UNL     1      -8.319   6.898  67.625  1.00  0.00    -0.123 SA 
BRANCH   7   8
HETATM    8  C   UNL     1      -7.743   8.508  67.148  1.00  0.00    -0.097 C  
HETATM    9  S   UNL     1      -7.550   9.650  68.377  1.00  0.00    -0.081 S  
BRANCH   8  10
HETATM   10  N   UNL     1      -7.436   8.715  65.789  1.00  0.00    -0.084 N  
HETATM   11  C   UNL     1      -6.103   9.026  65.269  1.00  0.00    -0.059 C  
HETATM   12  C   UNL     1      -8.452   8.636  64.734  1.00  0.00    -0.149 C  
ENDBRANCH   8  10
ENDBRANCH   7   8
ENDBRANCH   6   7
ENDBRANCH   4   6
ENDBRANCH   2   4
TORSDOF 5
ENDMDL
MODEL      342
REMARK 921   NORMALIZED FREE ENERGY PREDICTED BY IDOCK:   -1.49 KCAL/MOL
REMARK 922        TOTAL FREE ENERGY PREDICTED BY IDOCK:   -2.02 KCAL/MOL
REMARK 923 INTER-LIGAND FREE ENERGY PREDICTED BY IDOCK:   -1.88 KCAL/MOL
REMARK 924 INTRA-LIGAND FREE ENERGY PREDICTED BY IDOCK:   -0.15 KCAL/MOL
REMARK 927      BINDING AFFINITY PREDICTED BY RF-SCORE:    0.00 PKD
ROOT
HETATM    1  C   UNL     1      -8.325  11.305  68.414  1.00  0.00    -0.152 C  
HETATM    2  N   UNL     1      -7.830  10.154  69.169  1.00  0.00    -0.108 N  
HETATM    3  C   UNL     1      -6.378   9.999  69.228  1.00  0.00    -0.045 C  
ENDROOT
BRANCH   2   4
HETATM    4  C   UNL     1      -8.723   9.226  69.746  1.00  0.00    -0.162 C  
HETATM    5  S   UNL     1     -10.066   9.652  70.680  1.00  0.00    -0.193 S  
BRANCH   4   6
HETATM    6  S   UNL     1      -8.429   7.511  69.367  1.00  0.00    -0.133 SA 
BRANCH   6   7
HETATM    7  S   UNL     1     -10.223   6.625  69.883  1.00  0.00    -0.193 SA 
BRANCH   7   8
HETATM    8  C   UNL     1      -9.677   5.349  70.992  1.00  0.00    -0.179 C  
HETATM    9  S   UNL     1      -8.827   4.057  70.315  1.00  0.00    -0.094 S  
BRANCH   8  10
HETATM   10  N   UNL     1      -9.944   5.520  72.364  1.00  0.00    -0.166 N  
HETATM   11  C   UNL     1     -11.219   5.212  73.014  1.00  0.00    -0.322 C  
HETATM   12  C   UNL     1      -8.941   6.040  73.300  1.00  0.00    -0.130 C  
ENDBRANCH   8  10
ENDBRANCH   7   8
ENDBRANCH   6   7
ENDBRANCH   4   6
ENDBRANCH   2   4
TORSDOF 5
ENDMDL
MODEL      343
REMARK 921   NORMALIZED FREE ENERGY PREDICTED BY IDOCK:   -1.47 KCAL/MOL
REMARK 922        TOTAL FREE ENERGY PREDICTED BY IDOCK:   -2.00 KCAL/MOL
REMARK 923 INTER-LIGAND FREE ENERGY PREDICTED BY IDOCK:   -1.81 KCAL/MOL
REMARK 924 INTRA-LIGAND FREE ENERGY PREDICTED BY IDOCK:   -0.18 KCAL/MOL
REMARK 927      BINDING AFFINITY PREDICTED BY RF-SCORE:    0.00 PKD
ROOT
HETATM    1  C   UNL     1      -5.967  13.389  70.465  1.00  0.00    -0.121 C  
HETATM    2  N   UNL     1      -6.393  13.272  69.070  1.00  0.00    -0.092 N  
HETATM    3  C   UNL     1      -6.146  14.437  68.222  1.00  0.00    -0.119 C  
ENDROOT
BRANCH   2   4
HETATM    4  C   UNL     1      -7.056  12.115  68.608  1.00  0.00    -0.103 C  
HETATM    5  S   UNL     1      -8.315  12.127  67.481  1.00  0.00    -0.177 S  
BRANCH   4   6
HETATM    6  S   UNL     1      -6.435  10.559  69.212  1.00  0.00    -0.063 SA 
BRANCH   6   7
HETATM    7  S   UNL     1      -8.144   9.644  69.929  1.00  0.00    -0.186 SA 
BRANCH   7   8
HETATM    8  C   UNL     1      -8.540   8.544  68.592  1.00  0.00    -0.135 C  
HETATM    9  S   UNL     1      -7.289   8.147  67.530  1.00  0.00    -0.094 S  
BRANCH   8  10
HETATM   10  N   UNL     1      -9.851   8.036  68.534  1.00  0.00    -0.169 N  
HETATM   11  C   UNL     1     -10.521   7.586  67.312  1.00  0.00    -0.321 C  
HETATM   12  C   UNL     1     -10.698   7.905  69.725  1.00  0.00    -0.233 C  
ENDBRANCH   8  10
ENDBRANCH   7   8
ENDBRANCH   6   7
ENDBRANCH   4   6
ENDBRANCH   2   4
TORSDOF 5
ENDMDL
MODEL      344
REMARK 921   NORMALIZED FREE ENERGY PREDICTED BY IDOCK:   -1.43 KCAL/MOL
REMARK 922        TOTAL FREE ENERGY PREDICTED BY IDOCK:   -1.94 KCAL/MOL
REMARK 923 INTER-LIGAND FREE ENERGY PREDICTED BY IDOCK:   -1.80 KCAL/MOL
REMARK 924 INTRA-LIGAND FREE ENERGY PREDICTED BY IDOCK:   -0.15 KCAL/MOL
REMARK 927      BINDING AFFINITY PREDICTED BY RF-SCORE:    0.00 PKD
ROOT
HETATM    1  C   UNL     1     -11.737  11.092  68.686  1.00  0.00    -0.320 C  
HETATM    2  N   UNL     1     -10.570  10.771  67.864  1.00  0.00    -0.204 N  
HETATM    3  C   UNL     1     -10.643   9.525  67.102  1.00  0.00    -0.225 C  
ENDROOT
BRANCH   2   4
HETATM    4  C   UNL     1      -9.428  11.599  67.870  1.00  0.00    -0.181 C  
HETATM    5  S   UNL     1      -9.455  13.259  67.551  1.00  0.00    -0.229 S  
BRANCH   4   6
HETATM    6  S   UNL     1      -7.895  10.822  68.335  1.00  0.00    -0.127 SA 
BRANCH   6   7
HETATM    7  S   UNL     1      -8.444   9.699  69.981  1.00  0.00    -0.205 SA 
BRANCH   7   8
HETATM    8  C   UNL     1      -6.987   8.716  70.236  1.00  0.00    -0.041 C  
HETATM    9  S   UNL     1      -5.828   9.325  71.303  1.00  0.00    -0.071 S  
BRANCH   8  10
HETATM   10  N   UNL     1      -6.914   7.475  69.576  1.00  0.00    -0.059 N  
HETATM   11  C   UNL     1      -7.908   6.972  68.626  1.00  0.00    -0.119 C  
HETATM   12  C   UNL     1      -5.804   6.539  69.783  1.00  0.00    -0.015 C  
ENDBRANCH   8  10
ENDBRANCH   7   8
ENDBRANCH   6   7
ENDBRANCH   4   6
ENDBRANCH   2   4
TORSDOF 5
ENDMDL
MODEL      345
REMARK 921   NORMALIZED FREE ENERGY PREDICTED BY IDOCK:   -1.37 KCAL/MOL
REMARK 922        TOTAL FREE ENERGY PREDICTED BY IDOCK:   -1.86 KCAL/MOL
REMARK 923 INTER-LIGAND FREE ENERGY PREDICTED BY IDOCK:   -1.76 KCAL/MOL
REMARK 924 INTRA-LIGAND FREE ENERGY PREDICTED BY IDOCK:   -0.10 KCAL/MOL
REMARK 927      BINDING AFFINITY PREDICTED BY RF-SCORE:    0.00 PKD
ROOT
HETATM    1  C   UNL     1      -5.824  12.792  71.022  1.00  0.00     0.118 C  
HETATM    2  N   UNL     1      -5.909  13.924  70.099  1.00  0.00    -0.132 N  
HETATM    3  C   UNL     1      -5.694  15.248  70.683  1.00  0.00    -0.080 C  
ENDROOT
BRANCH   2   4
HETATM    4  C   UNL     1      -6.239  13.731  68.741  1.00  0.00    -0.089 C  
HETATM    5  S   UNL     1      -5.155  13.930  67.461  1.00  0.00     0.333 S  
BRANCH   4   6
HETATM    6  S   UNL     1      -7.892  13.156  68.408  1.00  0.00    -0.116 SA 
BRANCH   6   7
HETATM    7  S   UNL     1      -8.683  14.698  67.283  1.00  0.00    -0.220 SA 
BRANCH   7   8
HETATM    8  C   UNL     1     -10.233  13.999  66.771  1.00  0.00    -0.264 C  
HETATM    9  S   UNL     1     -11.105  13.135  67.930  1.00  0.00    -0.276 S  
BRANCH   8  10
HETATM   10  N   UNL     1     -10.658  14.251  65.452  1.00  0.00    -0.331 N  
HETATM   11  C   UNL     1     -11.241  13.251  64.555  1.00  0.00    -0.362 C  
HETATM   12  C   UNL     1     -10.553  15.576  64.833  1.00  0.00    -0.342 C  
ENDBRANCH   8  10
ENDBRANCH   7   8
ENDBRANCH   6   7
ENDBRANCH   4   6
ENDBRANCH   2   4
TORSDOF 5
ENDMDL
MODEL      346
REMARK 921   NORMALIZED FREE ENERGY PREDICTED BY IDOCK:   -1.36 KCAL/MOL
REMARK 922        TOTAL FREE ENERGY PREDICTED BY IDOCK:   -1.85 KCAL/MOL
REMARK 923 INTER-LIGAND FREE ENERGY PREDICTED BY IDOCK:   -1.71 KCAL/MOL
REMARK 924 INTRA-LIGAND FREE ENERGY PREDICTED BY IDOCK:   -0.15 KCAL/MOL
REMARK 927      BINDING AFFINITY PREDICTED BY RF-SCORE:    0.00 PKD
ROOT
HETATM    1  C   UNL     1     -10.842   9.665  67.129  1.00  0.00    -0.114 C  
HETATM    2  N   UNL     1     -10.562  10.761  68.057  1.00  0.00    -0.192 N  
HETATM    3  C   UNL     1     -10.054  10.378  69.373  1.00  0.00    -0.229 C  
ENDROOT
BRANCH   2   4
HETATM    4  C   UNL     1     -10.833  12.100  67.701  1.00  0.00    -0.233 C  
HETATM    5  S   UNL     1     -12.116  12.579  66.710  1.00  0.00     0.071 S  
BRANCH   4   6
HETATM    6  S   UNL     1      -9.784  13.337  68.436  1.00  0.00    -0.157 SA 
BRANCH   6   7
HETATM    7  S   UNL     1      -8.333  13.610  66.990  1.00  0.00    -0.007 SA 
BRANCH   7   8
HETATM    8  C   UNL     1      -8.503  15.344  66.647  1.00  0.00    -0.260 C  
HETATM    9  S   UNL     1      -7.400  16.384  67.391  1.00  0.00    -0.173 S  
BRANCH   8  10
HETATM   10  N   UNL     1      -9.509  15.734  65.743  1.00  0.00    -0.330 N  
HETATM   11  C   UNL     1     -10.135  14.852  64.756  1.00  0.00    -0.005 C  
HETATM   12  C   UNL     1     -10.040  17.101  65.700  1.00  0.00    -0.079 C  
ENDBRANCH   8  10
ENDBRANCH   7   8
ENDBRANCH   6   7
ENDBRANCH   4   6
ENDBRANCH   2   4
TORSDOF 5
ENDMDL
MODEL      347
REMARK 921   NORMALIZED FREE ENERGY PREDICTED BY IDOCK:   -1.16 KCAL/MOL
REMARK 922        TOTAL FREE ENERGY PREDICTED BY IDOCK:   -1.59 KCAL/MOL
REMARK 923 INTER-LIGAND FREE ENERGY PREDICTED BY IDOCK:   -1.66 KCAL/MOL
REMARK 924 INTRA-LIGAND FREE ENERGY PREDICTED BY IDOCK:    0.08 KCAL/MOL
REMARK 927      BINDING AFFINITY PREDICTED BY RF-SCORE:    0.00 PKD
ROOT
HETATM    1  C   UNL     1     -12.491  15.734  72.997  1.00  0.00    -0.472 C  
HETATM    2  N   UNL     1     -12.021  14.917  71.877  1.00  0.00    -0.364 N  
HETATM    3  C   UNL     1     -10.724  15.285  71.312  1.00  0.00     0.137 C  
ENDROOT
BRANCH   2   4
HETATM    4  C   UNL     1     -12.820  13.880  71.350  1.00  0.00    -0.361 C  
HETATM    5  S   UNL     1     -14.404  13.556  71.842  1.00  0.00     0.260 S  
BRANCH   4   6
HETATM    6  S   UNL     1     -12.103  12.934  70.022  1.00  0.00    -0.221 SA 
BRANCH   6   7
HETATM    7  S   UNL     1     -12.192  14.254  68.434  1.00  0.00    -0.028 SA 
BRANCH   7   8
HETATM    8  C   UNL     1     -10.831  13.696  67.439  1.00  0.00    -0.273 C  
HETATM    9  S   UNL     1     -10.662  12.028  67.235  1.00  0.00    -0.242 S  
BRANCH   8  10
HETATM   10  N   UNL     1     -10.013  14.676  66.845  1.00  0.00    -0.249 N  
HETATM   11  C   UNL     1      -9.986  16.089  67.229  1.00  0.00    -0.242 C  
HETATM   12  C   UNL     1      -9.084  14.368  65.753  1.00  0.00     0.391 C  
ENDBRANCH   8  10
ENDBRANCH   7   8
ENDBRANCH   6   7
ENDBRANCH   4   6
ENDBRANCH   2   4
TORSDOF 5
ENDMDL
MODEL      348
REMARK 921   NORMALIZED FREE ENERGY PREDICTED BY IDOCK:   -1.11 KCAL/MOL
REMARK 922        TOTAL FREE ENERGY PREDICTED BY IDOCK:   -1.53 KCAL/MOL
REMARK 923 INTER-LIGAND FREE ENERGY PREDICTED BY IDOCK:   -1.37 KCAL/MOL
REMARK 924 INTRA-LIGAND FREE ENERGY PREDICTED BY IDOCK:   -0.15 KCAL/MOL
REMARK 927      BINDING AFFINITY PREDICTED BY RF-SCORE:    0.00 PKD
ROOT
HETATM    1  C   UNL     1     -10.198  11.505  65.755  1.00  0.00    -0.249 C  
HETATM    2  N   UNL     1     -10.185  10.290  66.570  1.00  0.00    -0.228 N  
HETATM    3  C   UNL     1      -9.968   9.036  65.851  1.00  0.00    -0.099 C  
ENDROOT
BRANCH   2   4
HETATM    4  C   UNL     1     -10.430  10.344  67.958  1.00  0.00    -0.196 C  
HETATM    5  S   UNL     1      -9.568   9.458  69.111  1.00  0.00    -0.169 S  
BRANCH   4   6
HETATM    6  S   UNL     1     -11.677  11.497  68.492  1.00  0.00    -0.296 SA 
BRANCH   6   7
HETATM    7  S   UNL     1     -10.679  12.603  69.925  1.00  0.00     1.160 SA 
BRANCH   7   8
HETATM    8  C   UNL     1     -11.270  14.242  69.577  1.00  0.00    -0.243 C  
HETATM    9  S   UNL     1     -12.523  14.827  70.545  1.00  0.00    -0.365 S  
BRANCH   8  10
HETATM   10  N   UNL     1     -10.624  14.963  68.555  1.00  0.00    -0.239 N  
HETATM   11  C   UNL     1     -11.283  15.489  67.357  1.00  0.00    -0.248 C  
HETATM   12  C   UNL     1      -9.190  15.266  68.593  1.00  0.00    -0.201 C  
ENDBRANCH   8  10
ENDBRANCH   7   8
ENDBRANCH   6   7
ENDBRANCH   4   6
ENDBRANCH   2   4
TORSDOF 5
ENDMDL
MODEL      349
REMARK 921   NORMALIZED FREE ENERGY PREDICTED BY IDOCK:   -0.83 KCAL/MOL
REMARK 922        TOTAL FREE ENERGY PREDICTED BY IDOCK:   -1.16 KCAL/MOL
REMARK 923 INTER-LIGAND FREE ENERGY PREDICTED BY IDOCK:   -1.09 KCAL/MOL
REMARK 924 INTRA-LIGAND FREE ENERGY PREDICTED BY IDOCK:   -0.07 KCAL/MOL
REMARK 927      BINDING AFFINITY PREDICTED BY RF-SCORE:    0.00 PKD
ROOT
HETATM    1  C   UNL     1      -9.008  10.758  65.947  1.00  0.00    -0.184 C  
HETATM    2  N   UNL     1      -8.094  10.109  66.886  1.00  0.00    -0.120 N  
HETATM    3  C   UNL     1      -8.285  10.433  68.299  1.00  0.00    -0.114 C  
ENDROOT
BRANCH   2   4
HETATM    4  C   UNL     1      -7.057   9.269  66.426  1.00  0.00    -0.088 C  
HETATM    5  S   UNL     1      -5.973   9.683  65.197  1.00  0.00    -0.080 S  
BRANCH   4   6
HETATM    6  S   UNL     1      -6.859   7.721  67.284  1.00  0.00    -0.071 SA 
BRANCH   6   7
HETATM    7  S   UNL     1      -8.230   6.504  66.331  1.00  0.00    -0.121 SA 
BRANCH   7   8
HETATM    8  C   UNL     1      -7.333   4.975  66.233  1.00  0.00    -0.082 C  
HETATM    9  S   UNL     1      -6.455   4.689  64.819  1.00  0.00    -0.040 S  
BRANCH   8  10
HETATM   10  N   UNL     1      -7.369   4.125  67.355  1.00  0.00    -0.068 N  
HETATM   11  C   UNL     1      -6.721   4.404  68.638  1.00  0.00    -0.047 C  
HETATM   12  C   UNL     1      -8.079   2.842  67.346  1.00  0.00    -0.077 C  
ENDBRANCH   8  10
ENDBRANCH   7   8
ENDBRANCH   6   7
ENDBRANCH   4   6
ENDBRANCH   2   4
TORSDOF 5
ENDMDL
MODEL      350
REMARK 921   NORMALIZED FREE ENERGY PREDICTED BY IDOCK:   -0.33 KCAL/MOL
REMARK 922        TOTAL FREE ENERGY PREDICTED BY IDOCK:   -0.51 KCAL/MOL
REMARK 923 INTER-LIGAND FREE ENERGY PREDICTED BY IDOCK:   -1.23 KCAL/MOL
REMARK 924 INTRA-LIGAND FREE ENERGY PREDICTED BY IDOCK:    0.72 KCAL/MOL
REMARK 927      BINDING AFFINITY PREDICTED BY RF-SCORE:    0.00 PKD
ROOT
HETATM    1  C   UNL     1     -12.096  14.665  71.100  1.00  0.00    -0.342 C  
HETATM    2  N   UNL     1     -11.560  15.600  70.111  1.00  0.00    -0.324 N  
HETATM    3  C   UNL     1     -11.127  16.899  70.622  1.00  0.00     0.459 C  
ENDROOT
BRANCH   2   4
HETATM    4  C   UNL     1     -11.530  15.267  68.740  1.00  0.00    -0.331 C  
HETATM    5  S   UNL     1     -11.950  13.753  68.119  1.00  0.00    -0.304 S  
BRANCH   4   6
HETATM    6  S   UNL     1     -11.099  16.584  67.620  1.00  0.00    -0.041 SA 
BRANCH   6   7
HETATM    7  S   UNL     1      -9.068  16.795  67.939  1.00  0.00    -0.227 SA 
BRANCH   7   8
HETATM    8  C   UNL     1      -8.515  15.113  67.804  1.00  0.00    -0.150 C  
HETATM    9  S   UNL     1      -7.685  14.470  69.125  1.00  0.00    -0.034 S  
BRANCH   8  10
HETATM   10  N   UNL     1      -8.847  14.411  66.629  1.00  0.00    -0.204 N  
HETATM   11  C   UNL     1      -9.682  14.937  65.547  1.00  0.00    -0.240 C  
HETATM   12  C   UNL     1      -8.376  13.047  66.370  1.00  0.00     0.507 C  
ENDBRANCH   8  10
ENDBRANCH   7   8
ENDBRANCH   6   7
ENDBRANCH   4   6
ENDBRANCH   2   4
TORSDOF 5
ENDMDL
