MODEL        1
REMARK 921   NORMALIZED FREE ENERGY PREDICTED BY IDOCK:   -5.80 KCAL/MOL
REMARK 922        TOTAL FREE ENERGY PREDICTED BY IDOCK:   -9.02 KCAL/MOL
REMARK 923 INTER-LIGAND FREE ENERGY PREDICTED BY IDOCK:   -8.18 KCAL/MOL
REMARK 924 INTRA-LIGAND FREE ENERGY PREDICTED BY IDOCK:   -0.84 KCAL/MOL
REMARK 927      BINDING AFFINITY PREDICTED BY RF-SCORE:    0.00 PKD
ROOT
HETATM    1  C   UNL     1     -13.060  14.880  73.138  1.00  0.00    -0.507 C  
HETATM    2  O   UNL     1     -13.308  14.003  72.048  1.00  0.00    -0.360 OA 
ENDROOT
BRANCH   2   3
HETATM    3  C   UNL     1     -12.577  14.218  70.911  1.00  0.00    -0.356 A  
HETATM    4  C   UNL     1     -12.078  13.234  70.061  1.00  0.00    -0.385 A  
HETATM    5  C   UNL     1     -11.260  13.587  68.980  1.00  0.00    -0.314 A  
HETATM    6  C   UNL     1     -10.932  14.930  68.722  1.00  0.00    -0.259 A  
HETATM    7  C   UNL     1     -11.513  15.911  69.536  1.00  0.00    -0.342 A  
HETATM    8  C   UNL     1     -12.328  15.559  70.617  1.00  0.00    -0.462 A  
BRANCH   6   9
HETATM    9  C   UNL     1      -9.826  15.336  67.755  1.00  0.00    -0.220 C  
BRANCH   9  10
HETATM   10  N   UNL     1     -10.230  16.148  66.624  1.00  0.00    -0.279 NA 
BRANCH  10  11
HETATM   11  C   UNL     1      -9.996  17.513  66.662  1.00  0.00    -0.314 A  
HETATM   12  N   UNL     1      -9.148  18.003  67.585  1.00  0.00    -0.253 NA 
HETATM   13  N   UNL     1     -10.656  18.319  65.813  1.00  0.00    -0.563 NA 
HETATM   14  C   UNL     1      -9.011  19.338  67.675  1.00  0.00    -0.298 A  
HETATM   15  C   UNL     1      -9.704  20.225  66.897  1.00  0.00    -0.584 A  
HETATM   16  C   UNL     1     -10.523  19.650  65.963  1.00  0.00    -0.523 A  
ENDBRANCH  10  11
BRANCH  10  17
HETATM   17  C   UNL     1     -10.896  15.642  65.419  1.00  0.00    -0.381 C  
BRANCH  17  18
HETATM   18  C   UNL     1     -10.435  14.266  64.886  1.00  0.00    -0.430 C  
BRANCH  18  19
HETATM   19  N   UNL     1     -11.498  13.227  64.889  1.00  0.00    -0.309 NA 
HETATM   20  C   UNL     1     -11.825  12.730  63.548  1.00  0.00    -0.546 C  
HETATM   21  C   UNL     1     -12.715  13.746  65.519  1.00  0.00    -0.488 C  
ENDBRANCH  18  19
ENDBRANCH  17  18
ENDBRANCH  10  17
ENDBRANCH   9  10
ENDBRANCH   6   9
ENDBRANCH   2   3
TORSDOF 7
ENDMDL
MODEL        2
REMARK 921   NORMALIZED FREE ENERGY PREDICTED BY IDOCK:   -5.73 KCAL/MOL
REMARK 922        TOTAL FREE ENERGY PREDICTED BY IDOCK:   -8.92 KCAL/MOL
REMARK 923 INTER-LIGAND FREE ENERGY PREDICTED BY IDOCK:   -8.35 KCAL/MOL
REMARK 924 INTRA-LIGAND FREE ENERGY PREDICTED BY IDOCK:   -0.57 KCAL/MOL
REMARK 927      BINDING AFFINITY PREDICTED BY RF-SCORE:    0.00 PKD
ROOT
HETATM    1  C   UNL     1     -12.439  11.970  63.273  1.00  0.00    -0.425 C  
HETATM    2  O   UNL     1     -12.609  13.375  63.400  1.00  0.00    -0.738 OA 
ENDROOT
BRANCH   2   3
HETATM    3  C   UNL     1     -12.058  13.959  64.508  1.00  0.00    -0.443 A  
HETATM    4  C   UNL     1     -11.254  15.097  64.518  1.00  0.00    -0.283 A  
HETATM    5  C   UNL     1     -10.673  15.537  65.714  1.00  0.00    -0.362 A  
HETATM    6  C   UNL     1     -10.890  14.855  66.925  1.00  0.00    -0.319 A  
HETATM    7  C   UNL     1     -11.770  13.765  66.910  1.00  0.00    -0.424 A  
HETATM    8  C   UNL     1     -12.348  13.323  65.716  1.00  0.00    -0.505 A  
BRANCH   6   9
HETATM    9  C   UNL     1     -10.058  15.113  68.176  1.00  0.00    -0.222 C  
BRANCH   9  10
HETATM   10  N   UNL     1     -10.400  16.298  68.938  1.00  0.00    -0.246 NA 
BRANCH  10  11
HETATM   11  C   UNL     1      -9.994  17.537  68.468  1.00  0.00    -0.344 A  
HETATM   12  N   UNL     1      -8.723  17.927  68.674  1.00  0.00    -0.292 NA 
HETATM   13  N   UNL     1     -10.888  18.340  67.865  1.00  0.00    -0.303 NA 
HETATM   14  C   UNL     1      -8.373  19.172  68.304  1.00  0.00    -0.335 A  
HETATM   15  C   UNL     1      -9.245  20.072  67.752  1.00  0.00    -0.435 A  
HETATM   16  C   UNL     1     -10.510  19.591  67.548  1.00  0.00    -0.472 A  
ENDBRANCH  10  11
BRANCH  10  17
HETATM   17  C   UNL     1     -11.143  16.302  70.202  1.00  0.00    -0.341 C  
BRANCH  17  18
HETATM   18  C   UNL     1     -12.421  15.434  70.269  1.00  0.00    -0.374 C  
BRANCH  18  19
HETATM   19  N   UNL     1     -13.284  15.714  71.445  1.00  0.00    -0.501 NA 
HETATM   20  C   UNL     1     -12.525  15.984  72.670  1.00  0.00    -0.481 C  
HETATM   21  C   UNL     1     -14.199  14.593  71.684  1.00  0.00    -0.506 C  
ENDBRANCH  18  19
ENDBRANCH  17  18
ENDBRANCH  10  17
ENDBRANCH   9  10
ENDBRANCH   6   9
ENDBRANCH   2   3
TORSDOF 7
ENDMDL
MODEL        3
REMARK 921   NORMALIZED FREE ENERGY PREDICTED BY IDOCK:   -5.68 KCAL/MOL
REMARK 922        TOTAL FREE ENERGY PREDICTED BY IDOCK:   -8.86 KCAL/MOL
REMARK 923 INTER-LIGAND FREE ENERGY PREDICTED BY IDOCK:   -8.07 KCAL/MOL
REMARK 924 INTRA-LIGAND FREE ENERGY PREDICTED BY IDOCK:   -0.79 KCAL/MOL
REMARK 927      BINDING AFFINITY PREDICTED BY RF-SCORE:    0.00 PKD
ROOT
HETATM    1  C   UNL     1     -12.659  11.988  63.312  1.00  0.00    -0.385 C  
HETATM    2  O   UNL     1     -12.091  13.290  63.349  1.00  0.00    -0.561 OA 
ENDROOT
BRANCH   2   3
HETATM    3  C   UNL     1     -11.663  13.735  64.570  1.00  0.00    -0.407 A  
HETATM    4  C   UNL     1     -10.389  14.217  64.865  1.00  0.00    -0.435 A  
HETATM    5  C   UNL     1     -10.051  14.552  66.182  1.00  0.00    -0.319 A  
HETATM    6  C   UNL     1     -10.980  14.421  67.230  1.00  0.00    -0.301 A  
HETATM    7  C   UNL     1     -12.281  14.017  66.900  1.00  0.00    -0.415 A  
HETATM    8  C   UNL     1     -12.618  13.680  65.586  1.00  0.00    -0.531 A  
BRANCH   6   9
HETATM    9  C   UNL     1     -10.579  14.488  68.699  1.00  0.00    -0.255 C  
BRANCH   9  10
HETATM   10  N   UNL     1     -11.098  15.612  69.453  1.00  0.00    -0.279 NA 
BRANCH  10  11
HETATM   11  C   UNL     1     -11.893  15.365  70.561  1.00  0.00    -0.339 A  
HETATM   12  N   UNL     1     -11.807  16.191  71.621  1.00  0.00    -0.491 NA 
HETATM   13  N   UNL     1     -12.690  14.283  70.574  1.00  0.00    -0.347 NA 
HETATM   14  C   UNL     1     -12.508  15.879  72.726  1.00  0.00    -0.466 A  
HETATM   15  C   UNL     1     -13.283  14.757  72.840  1.00  0.00    -0.597 A  
HETATM   16  C   UNL     1     -13.342  13.984  71.712  1.00  0.00    -0.386 A  
ENDBRANCH  10  11
BRANCH  10  17
HETATM   17  C   UNL     1     -10.863  17.023  69.131  1.00  0.00    -0.164 C  
BRANCH  17  18
HETATM   18  C   UNL     1      -9.457  17.401  68.613  1.00  0.00    -0.280 C  
BRANCH  18  19
HETATM   19  N   UNL     1      -9.457  18.478  67.588  1.00  0.00    -0.276 NA 
HETATM   20  C   UNL     1      -9.916  19.771  68.106  1.00  0.00    -0.440 C  
HETATM   21  C   UNL     1     -10.291  18.093  66.446  1.00  0.00    -0.394 C  
ENDBRANCH  18  19
ENDBRANCH  17  18
ENDBRANCH  10  17
ENDBRANCH   9  10
ENDBRANCH   6   9
ENDBRANCH   2   3
TORSDOF 7
ENDMDL
MODEL        4
REMARK 921   NORMALIZED FREE ENERGY PREDICTED BY IDOCK:   -5.62 KCAL/MOL
REMARK 922        TOTAL FREE ENERGY PREDICTED BY IDOCK:   -8.77 KCAL/MOL
REMARK 923 INTER-LIGAND FREE ENERGY PREDICTED BY IDOCK:   -8.06 KCAL/MOL
REMARK 924 INTRA-LIGAND FREE ENERGY PREDICTED BY IDOCK:   -0.71 KCAL/MOL
REMARK 927      BINDING AFFINITY PREDICTED BY RF-SCORE:    0.00 PKD
ROOT
HETATM    1  C   UNL     1     -12.490  15.512  74.197  1.00  0.00    -0.662 C  
HETATM    2  O   UNL     1     -13.246  14.856  73.189  1.00  0.00    -0.483 OA 
ENDROOT
BRANCH   2   3
HETATM    3  C   UNL     1     -12.667  14.764  71.953  1.00  0.00    -0.328 A  
HETATM    4  C   UNL     1     -12.746  13.672  71.092  1.00  0.00    -0.432 A  
HETATM    5  C   UNL     1     -12.024  13.669  69.891  1.00  0.00    -0.415 A  
HETATM    6  C   UNL     1     -11.216  14.760  69.523  1.00  0.00    -0.305 A  
HETATM    7  C   UNL     1     -11.217  15.883  70.360  1.00  0.00    -0.392 A  
HETATM    8  C   UNL     1     -11.936  15.886  71.560  1.00  0.00    -0.537 A  
BRANCH   6   9
HETATM    9  C   UNL     1     -10.196  14.684  68.393  1.00  0.00    -0.235 C  
BRANCH   9  10
HETATM   10  N   UNL     1     -10.624  15.202  67.109  1.00  0.00    -0.289 NA 
BRANCH  10  11
HETATM   11  C   UNL     1     -11.023  14.310  66.126  1.00  0.00    -0.313 A  
HETATM   12  N   UNL     1     -10.186  14.047  65.106  1.00  0.00    -0.378 NA 
HETATM   13  N   UNL     1     -12.252  13.768  66.186  1.00  0.00    -0.448 NA 
HETATM   14  C   UNL     1     -10.627  13.260  64.109  1.00  0.00    -0.309 A  
HETATM   15  C   UNL     1     -11.889  12.732  64.062  1.00  0.00    -0.506 A  
HETATM   16  C   UNL     1     -12.671  13.020  65.149  1.00  0.00    -0.397 A  
ENDBRANCH  10  11
BRANCH  10  17
HETATM   17  C   UNL     1     -10.660  16.621  66.742  1.00  0.00    -0.214 C  
BRANCH  17  18
HETATM   18  C   UNL     1      -9.312  17.377  66.723  1.00  0.00    -0.268 C  
BRANCH  18  19
HETATM   19  N   UNL     1      -9.409  18.802  67.131  1.00  0.00    -0.292 NA 
HETATM   20  C   UNL     1      -9.451  18.988  68.585  1.00  0.00    -0.405 C  
HETATM   21  C   UNL     1     -10.594  19.424  66.532  1.00  0.00    -0.458 C  
ENDBRANCH  18  19
ENDBRANCH  17  18
ENDBRANCH  10  17
ENDBRANCH   9  10
ENDBRANCH   6   9
ENDBRANCH   2   3
TORSDOF 7
ENDMDL
MODEL        5
REMARK 921   NORMALIZED FREE ENERGY PREDICTED BY IDOCK:   -5.54 KCAL/MOL
REMARK 922        TOTAL FREE ENERGY PREDICTED BY IDOCK:   -8.65 KCAL/MOL
REMARK 923 INTER-LIGAND FREE ENERGY PREDICTED BY IDOCK:   -7.76 KCAL/MOL
REMARK 924 INTRA-LIGAND FREE ENERGY PREDICTED BY IDOCK:   -0.89 KCAL/MOL
REMARK 927      BINDING AFFINITY PREDICTED BY RF-SCORE:    0.00 PKD
ROOT
HETATM    1  C   UNL     1     -12.837  10.483  71.804  1.00  0.00    -0.454 C  
HETATM    2  O   UNL     1     -13.268  11.801  71.490  1.00  0.00    -0.361 OA 
ENDROOT
BRANCH   2   3
HETATM    3  C   UNL     1     -12.557  12.462  70.525  1.00  0.00    -0.089 A  
HETATM    4  C   UNL     1     -11.808  11.870  69.512  1.00  0.00    -0.395 A  
HETATM    5  C   UNL     1     -11.047  12.665  68.644  1.00  0.00    -0.305 A  
HETATM    6  C   UNL     1     -11.027  14.066  68.766  1.00  0.00    -0.282 A  
HETATM    7  C   UNL     1     -11.854  14.647  69.736  1.00  0.00    -0.366 A  
HETATM    8  C   UNL     1     -12.612  13.854  70.604  1.00  0.00    -0.405 A  
BRANCH   6   9
HETATM    9  C   UNL     1     -10.003  14.939  68.052  1.00  0.00    -0.220 C  
BRANCH   9  10
HETATM   10  N   UNL     1     -10.508  15.762  66.970  1.00  0.00    -0.304 NA 
BRANCH  10  11
HETATM   11  C   UNL     1     -10.344  17.136  67.042  1.00  0.00    -0.308 A  
HETATM   12  N   UNL     1     -10.290  17.724  68.251  1.00  0.00    -0.375 NA 
HETATM   13  N   UNL     1     -10.294  17.855  65.907  1.00  0.00    -0.578 NA 
HETATM   14  C   UNL     1     -10.235  19.067  68.303  1.00  0.00    -0.386 A  
HETATM   15  C   UNL     1     -10.255  19.869  67.194  1.00  0.00    -0.579 A  
HETATM   16  C   UNL     1     -10.281  19.197  66.001  1.00  0.00    -0.424 A  
ENDBRANCH  10  11
BRANCH  10  17
HETATM   17  C   UNL     1     -11.207  15.258  65.784  1.00  0.00    -0.247 C  
BRANCH  17  18
HETATM   18  C   UNL     1     -10.426  14.292  64.864  1.00  0.00    -0.430 C  
BRANCH  18  19
HETATM   19  N   UNL     1     -10.950  12.902  64.860  1.00  0.00    -0.290 NA 
HETATM   20  C   UNL     1     -10.731  12.204  63.588  1.00  0.00    -0.467 C  
HETATM   21  C   UNL     1     -12.382  12.896  65.171  1.00  0.00    -0.493 C  
ENDBRANCH  18  19
ENDBRANCH  17  18
ENDBRANCH  10  17
ENDBRANCH   9  10
ENDBRANCH   6   9
ENDBRANCH   2   3
TORSDOF 7
ENDMDL
MODEL        6
REMARK 921   NORMALIZED FREE ENERGY PREDICTED BY IDOCK:   -5.52 KCAL/MOL
REMARK 922        TOTAL FREE ENERGY PREDICTED BY IDOCK:   -8.62 KCAL/MOL
REMARK 923 INTER-LIGAND FREE ENERGY PREDICTED BY IDOCK:   -7.87 KCAL/MOL
REMARK 924 INTRA-LIGAND FREE ENERGY PREDICTED BY IDOCK:   -0.75 KCAL/MOL
REMARK 927      BINDING AFFINITY PREDICTED BY RF-SCORE:    0.00 PKD
ROOT
HETATM    1  C   UNL     1     -12.611  11.814  63.357  1.00  0.00    -0.336 C  
HETATM    2  O   UNL     1     -13.117  12.487  64.501  1.00  0.00    -0.816 OA 
ENDROOT
BRANCH   2   3
HETATM    3  C   UNL     1     -12.190  12.995  65.371  1.00  0.00    -0.471 A  
HETATM    4  C   UNL     1     -11.766  12.396  66.555  1.00  0.00    -0.443 A  
HETATM    5  C   UNL     1     -10.879  13.070  67.405  1.00  0.00    -0.269 A  
HETATM    6  C   UNL     1     -10.394  14.351  67.086  1.00  0.00    -0.262 A  
HETATM    7  C   UNL     1     -10.765  14.900  65.851  1.00  0.00    -0.329 A  
HETATM    8  C   UNL     1     -11.651  14.228  65.003  1.00  0.00    -0.367 A  
BRANCH   6   9
HETATM    9  C   UNL     1      -9.676  15.235  68.099  1.00  0.00    -0.212 C  
BRANCH   9  10
HETATM   10  N   UNL     1     -10.444  16.338  68.644  1.00  0.00    -0.265 NA 
BRANCH  10  11
HETATM   11  C   UNL     1     -10.039  17.635  68.373  1.00  0.00    -0.368 A  
HETATM   12  N   UNL     1     -10.899  18.472  67.764  1.00  0.00    -0.337 NA 
HETATM   13  N   UNL     1      -8.785  18.011  68.676  1.00  0.00    -0.292 NA 
HETATM   14  C   UNL     1     -10.457  19.694  67.416  1.00  0.00    -0.467 A  
HETATM   15  C   UNL     1      -9.174  20.123  67.625  1.00  0.00    -0.461 A  
HETATM   16  C   UNL     1      -8.369  19.226  68.275  1.00  0.00    -0.338 A  
ENDBRANCH  10  11
BRANCH  10  17
HETATM   17  C   UNL     1     -11.634  16.199  69.490  1.00  0.00    -0.254 C  
BRANCH  17  18
HETATM   18  C   UNL     1     -11.404  15.804  70.967  1.00  0.00    -0.392 C  
BRANCH  18  19
HETATM   19  N   UNL     1     -12.396  14.833  71.498  1.00  0.00    -0.326 NA 
HETATM   20  C   UNL     1     -12.400  13.556  70.778  1.00  0.00    -0.363 C  
HETATM   21  C   UNL     1     -13.744  15.410  71.459  1.00  0.00    -0.508 C  
ENDBRANCH  18  19
ENDBRANCH  17  18
ENDBRANCH  10  17
ENDBRANCH   9  10
ENDBRANCH   6   9
ENDBRANCH   2   3
TORSDOF 7
ENDMDL
MODEL        7
REMARK 921   NORMALIZED FREE ENERGY PREDICTED BY IDOCK:   -5.47 KCAL/MOL
REMARK 922        TOTAL FREE ENERGY PREDICTED BY IDOCK:   -8.55 KCAL/MOL
REMARK 923 INTER-LIGAND FREE ENERGY PREDICTED BY IDOCK:   -7.85 KCAL/MOL
REMARK 924 INTRA-LIGAND FREE ENERGY PREDICTED BY IDOCK:   -0.70 KCAL/MOL
REMARK 927      BINDING AFFINITY PREDICTED BY RF-SCORE:    0.00 PKD
ROOT
HETATM    1  C   UNL     1     -12.974   9.478  71.211  1.00  0.00    -0.328 C  
HETATM    2  O   UNL     1     -12.536  10.758  71.647  1.00  0.00    -0.385 OA 
ENDROOT
BRANCH   2   3
HETATM    3  C   UNL     1     -12.324  11.696  70.673  1.00  0.00    -0.344 A  
HETATM    4  C   UNL     1     -12.413  13.077  70.835  1.00  0.00    -0.396 A  
HETATM    5  C   UNL     1     -12.266  13.925  69.729  1.00  0.00    -0.388 A  
HETATM    6  C   UNL     1     -12.020  13.412  68.443  1.00  0.00    -0.359 A  
HETATM    7  C   UNL     1     -11.850  12.027  68.316  1.00  0.00    -0.351 A  
HETATM    8  C   UNL     1     -11.998  11.179  69.419  1.00  0.00    -0.420 A  
BRANCH   6   9
HETATM    9  C   UNL     1     -12.147  14.257  67.182  1.00  0.00    -0.377 C  
BRANCH   9  10
HETATM   10  N   UNL     1     -10.910  14.778  66.634  1.00  0.00    -0.313 NA 
BRANCH  10  11
HETATM   11  C   UNL     1     -10.593  16.111  66.842  1.00  0.00    -0.283 A  
HETATM   12  N   UNL     1     -10.434  16.553  68.103  1.00  0.00    -0.298 NA 
HETATM   13  N   UNL     1     -10.503  16.940  65.788  1.00  0.00    -0.476 NA 
HETATM   14  C   UNL     1     -10.229  17.869  68.293  1.00  0.00    -0.388 A  
HETATM   15  C   UNL     1     -10.198  18.785  67.276  1.00  0.00    -0.438 A  
HETATM   16  C   UNL     1     -10.338  18.254  66.022  1.00  0.00    -0.363 A  
ENDBRANCH  10  11
BRANCH  10  17
HETATM   17  C   UNL     1      -9.945  14.003  65.846  1.00  0.00    -0.307 C  
BRANCH  17  18
HETATM   18  C   UNL     1     -10.425  13.467  64.478  1.00  0.00    -0.413 C  
BRANCH  18  19
HETATM   19  N   UNL     1     -11.171  12.184  64.557  1.00  0.00    -0.318 NA 
HETATM   20  C   UNL     1     -10.377  11.024  64.138  1.00  0.00    -0.369 C  
HETATM   21  C   UNL     1     -12.389  12.252  63.744  1.00  0.00    -0.538 C  
ENDBRANCH  18  19
ENDBRANCH  17  18
ENDBRANCH  10  17
ENDBRANCH   9  10
ENDBRANCH   6   9
ENDBRANCH   2   3
TORSDOF 7
ENDMDL
MODEL        8
REMARK 921   NORMALIZED FREE ENERGY PREDICTED BY IDOCK:   -5.47 KCAL/MOL
REMARK 922        TOTAL FREE ENERGY PREDICTED BY IDOCK:   -8.55 KCAL/MOL
REMARK 923 INTER-LIGAND FREE ENERGY PREDICTED BY IDOCK:   -7.93 KCAL/MOL
REMARK 924 INTRA-LIGAND FREE ENERGY PREDICTED BY IDOCK:   -0.62 KCAL/MOL
REMARK 927      BINDING AFFINITY PREDICTED BY RF-SCORE:    0.00 PKD
ROOT
HETATM    1  C   UNL     1     -14.156  15.291  72.485  1.00  0.00    -0.472 C  
HETATM    2  O   UNL     1     -13.942  13.898  72.668  1.00  0.00    -0.684 OA 
ENDROOT
BRANCH   2   3
HETATM    3  C   UNL     1     -13.196  13.263  71.712  1.00  0.00    -0.405 A  
HETATM    4  C   UNL     1     -12.511  13.880  70.668  1.00  0.00    -0.436 A  
HETATM    5  C   UNL     1     -11.862  13.104  69.698  1.00  0.00    -0.390 A  
HETATM    6  C   UNL     1     -11.879  11.699  69.756  1.00  0.00    -0.428 A  
HETATM    7  C   UNL     1     -12.500  11.100  70.860  1.00  0.00    -0.509 A  
HETATM    8  C   UNL     1     -13.149  11.873  71.827  1.00  0.00    -0.465 A  
BRANCH   6   9
HETATM    9  C   UNL     1     -11.450  10.822  68.586  1.00  0.00    -0.295 C  
BRANCH   9  10
HETATM   10  N   UNL     1     -10.555  11.432  67.623  1.00  0.00    -0.193 NA 
BRANCH  10  11
HETATM   11  C   UNL     1     -10.993  11.610  66.320  1.00  0.00    -0.289 A  
HETATM   12  N   UNL     1     -10.317  11.016  65.319  1.00  0.00    -0.275 NA 
HETATM   13  N   UNL     1     -12.047  12.409  66.081  1.00  0.00    -0.641 NA 
HETATM   14  C   UNL     1     -10.692  11.281  64.055  1.00  0.00    -0.377 A  
HETATM   15  C   UNL     1     -11.707  12.141  63.730  1.00  0.00    -0.576 A  
HETATM   16  C   UNL     1     -12.364  12.681  64.802  1.00  0.00    -0.489 A  
ENDBRANCH  10  11
BRANCH  10  17
HETATM   17  C   UNL     1      -9.187  11.877  67.908  1.00  0.00    -0.187 C  
BRANCH  17  18
HETATM   18  C   UNL     1      -8.697  13.152  67.185  1.00  0.00    -0.213 C  
BRANCH  18  19
HETATM   19  N   UNL     1      -9.259  14.414  67.734  1.00  0.00    -0.187 NA 
HETATM   20  C   UNL     1      -9.668  15.366  66.696  1.00  0.00    -0.253 C  
HETATM   21  C   UNL     1      -8.288  15.060  68.623  1.00  0.00    -0.166 C  
ENDBRANCH  18  19
ENDBRANCH  17  18
ENDBRANCH  10  17
ENDBRANCH   9  10
ENDBRANCH   6   9
ENDBRANCH   2   3
TORSDOF 7
ENDMDL
MODEL        9
REMARK 921   NORMALIZED FREE ENERGY PREDICTED BY IDOCK:   -5.45 KCAL/MOL
REMARK 922        TOTAL FREE ENERGY PREDICTED BY IDOCK:   -8.52 KCAL/MOL
REMARK 923 INTER-LIGAND FREE ENERGY PREDICTED BY IDOCK:   -7.75 KCAL/MOL
REMARK 924 INTRA-LIGAND FREE ENERGY PREDICTED BY IDOCK:   -0.77 KCAL/MOL
REMARK 927      BINDING AFFINITY PREDICTED BY RF-SCORE:    0.00 PKD
ROOT
HETATM    1  C   UNL     1      -9.754  11.238  62.886  1.00  0.00    -0.323 C  
HETATM    2  O   UNL     1     -11.007  11.738  63.332  1.00  0.00    -0.395 OA 
ENDROOT
BRANCH   2   3
HETATM    3  C   UNL     1     -11.138  11.944  64.679  1.00  0.00    -0.317 A  
HETATM    4  C   UNL     1     -12.070  12.779  65.291  1.00  0.00    -0.505 A  
HETATM    5  C   UNL     1     -12.035  12.975  66.678  1.00  0.00    -0.453 A  
HETATM    6  C   UNL     1     -11.073  12.336  67.481  1.00  0.00    -0.326 A  
HETATM    7  C   UNL     1     -10.199  11.434  66.858  1.00  0.00    -0.254 A  
HETATM    8  C   UNL     1     -10.233  11.240  65.473  1.00  0.00    -0.312 A  
BRANCH   6   9
HETATM    9  C   UNL     1     -10.808  12.739  68.926  1.00  0.00    -0.196 C  
BRANCH   9  10
HETATM   10  N   UNL     1     -11.798  12.321  69.899  1.00  0.00    -0.331 NA 
BRANCH  10  11
HETATM   11  C   UNL     1     -12.456  13.287  70.643  1.00  0.00    -0.298 A  
HETATM   12  N   UNL     1     -13.153  12.909  71.730  1.00  0.00    -0.394 NA 
HETATM   13  N   UNL     1     -12.426  14.568  70.235  1.00  0.00    -0.347 NA 
HETATM   14  C   UNL     1     -13.870  13.844  72.381  1.00  0.00    -0.566 A  
HETATM   15  C   UNL     1     -13.947  15.151  71.984  1.00  0.00    -0.629 A  
HETATM   16  C   UNL     1     -13.188  15.464  70.889  1.00  0.00    -0.455 A  
ENDBRANCH  10  11
BRANCH  10  17
HETATM   17  C   UNL     1     -12.165  10.930  70.184  1.00  0.00    -0.343 C  
BRANCH  17  18
HETATM   18  C   UNL     1     -11.042   9.998  70.694  1.00  0.00    -0.335 C  
BRANCH  18  19
HETATM   19  N   UNL     1     -11.487   9.014  71.715  1.00  0.00    -0.352 NA 
HETATM   20  C   UNL     1     -11.622   7.652  71.188  1.00  0.00    -0.280 C  
HETATM   21  C   UNL     1     -12.764   9.431  72.302  1.00  0.00    -0.341 C  
ENDBRANCH  18  19
ENDBRANCH  17  18
ENDBRANCH  10  17
ENDBRANCH   9  10
ENDBRANCH   6   9
ENDBRANCH   2   3
TORSDOF 7
ENDMDL
MODEL       10
REMARK 921   NORMALIZED FREE ENERGY PREDICTED BY IDOCK:   -5.41 KCAL/MOL
REMARK 922        TOTAL FREE ENERGY PREDICTED BY IDOCK:   -8.47 KCAL/MOL
REMARK 923 INTER-LIGAND FREE ENERGY PREDICTED BY IDOCK:   -7.86 KCAL/MOL
REMARK 924 INTRA-LIGAND FREE ENERGY PREDICTED BY IDOCK:   -0.62 KCAL/MOL
REMARK 927      BINDING AFFINITY PREDICTED BY RF-SCORE:    0.00 PKD
ROOT
HETATM    1  C   UNL     1      -7.097  20.882  67.349  1.00  0.00    -0.361 C  
HETATM    2  O   UNL     1      -6.845  19.845  68.288  1.00  0.00    -0.276 OA 
ENDROOT
BRANCH   2   3
HETATM    3  C   UNL     1      -7.846  18.930  68.471  1.00  0.00    -0.337 A  
HETATM    4  C   UNL     1      -7.677  17.558  68.646  1.00  0.00    -0.275 A  
HETATM    5  C   UNL     1      -8.794  16.717  68.727  1.00  0.00    -0.264 A  
HETATM    6  C   UNL     1     -10.101  17.229  68.642  1.00  0.00    -0.341 A  
HETATM    7  C   UNL     1     -10.251  18.619  68.551  1.00  0.00    -0.398 A  
HETATM    8  C   UNL     1      -9.137  19.459  68.469  1.00  0.00    -0.426 A  
BRANCH   6   9
HETATM    9  C   UNL     1     -11.321  16.340  68.428  1.00  0.00    -0.312 C  
BRANCH   9  10
HETATM   10  N   UNL     1     -11.430  15.184  69.297  1.00  0.00    -0.290 NA 
BRANCH  10  11
HETATM   11  C   UNL     1     -12.049  15.328  70.528  1.00  0.00    -0.354 A  
HETATM   12  N   UNL     1     -11.292  15.328  71.641  1.00  0.00    -0.401 NA 
HETATM   13  N   UNL     1     -13.389  15.411  70.587  1.00  0.00    -0.367 NA 
HETATM   14  C   UNL     1     -11.916  15.365  72.832  1.00  0.00    -0.448 A  
HETATM   15  C   UNL     1     -13.278  15.376  72.975  1.00  0.00    -0.638 A  
HETATM   16  C   UNL     1     -13.976  15.404  71.798  1.00  0.00    -0.525 A  
ENDBRANCH  10  11
BRANCH  10  17
HETATM   17  C   UNL     1     -10.917  13.846  68.986  1.00  0.00    -0.250 C  
BRANCH  17  18
HETATM   18  C   UNL     1     -11.905  12.665  69.125  1.00  0.00    -0.297 C  
BRANCH  18  19
HETATM   19  N   UNL     1     -12.032  11.833  67.900  1.00  0.00    -0.597 NA 
HETATM   20  C   UNL     1     -11.182  10.638  67.921  1.00  0.00    -0.308 C  
HETATM   21  C   UNL     1     -11.714  12.627  66.709  1.00  0.00    -0.392 C  
ENDBRANCH  18  19
ENDBRANCH  17  18
ENDBRANCH  10  17
ENDBRANCH   9  10
ENDBRANCH   6   9
ENDBRANCH   2   3
TORSDOF 7
ENDMDL
MODEL       11
REMARK 921   NORMALIZED FREE ENERGY PREDICTED BY IDOCK:   -5.41 KCAL/MOL
REMARK 922        TOTAL FREE ENERGY PREDICTED BY IDOCK:   -8.47 KCAL/MOL
REMARK 923 INTER-LIGAND FREE ENERGY PREDICTED BY IDOCK:   -7.82 KCAL/MOL
REMARK 924 INTRA-LIGAND FREE ENERGY PREDICTED BY IDOCK:   -0.66 KCAL/MOL
REMARK 927      BINDING AFFINITY PREDICTED BY RF-SCORE:    0.00 PKD
ROOT
HETATM    1  C   UNL     1     -11.179   6.631  72.565  1.00  0.00    -0.266 C  
HETATM    2  O   UNL     1     -11.057   8.002  72.918  1.00  0.00    -0.392 OA 
ENDROOT
BRANCH   2   3
HETATM    3  C   UNL     1     -11.367   8.914  71.945  1.00  0.00    -0.376 A  
HETATM    4  C   UNL     1     -12.622   9.473  71.719  1.00  0.00    -0.490 A  
HETATM    5  C   UNL     1     -12.826  10.324  70.625  1.00  0.00    -0.362 A  
HETATM    6  C   UNL     1     -11.779  10.639  69.741  1.00  0.00    -0.385 A  
HETATM    7  C   UNL     1     -10.505  10.136  70.034  1.00  0.00    -0.325 A  
HETATM    8  C   UNL     1     -10.301   9.285  71.125  1.00  0.00    -0.392 A  
BRANCH   6   9
HETATM    9  C   UNL     1     -12.015  11.308  68.392  1.00  0.00    -0.185 C  
BRANCH   9  10
HETATM   10  N   UNL     1     -11.717  12.725  68.320  1.00  0.00    -0.329 NA 
BRANCH  10  11
HETATM   11  C   UNL     1     -11.704  13.345  67.080  1.00  0.00    -0.379 A  
HETATM   12  N   UNL     1     -11.046  14.510  66.942  1.00  0.00    -0.317 NA 
HETATM   13  N   UNL     1     -12.390  12.797  66.062  1.00  0.00    -0.554 NA 
HETATM   14  C   UNL     1     -11.129  15.150  65.761  1.00  0.00    -0.330 A  
HETATM   15  C   UNL     1     -11.867  14.693  64.703  1.00  0.00    -0.459 A  
HETATM   16  C   UNL     1     -12.483  13.488  64.911  1.00  0.00    -0.384 A  
ENDBRANCH  10  11
BRANCH  10  17
HETATM   17  C   UNL     1     -11.404  13.580  69.470  1.00  0.00    -0.202 C  
BRANCH  17  18
HETATM   18  C   UNL     1     -12.597  14.227  70.210  1.00  0.00    -0.319 C  
BRANCH  18  19
HETATM   19  N   UNL     1     -12.420  14.320  71.682  1.00  0.00    -0.347 NA 
HETATM   20  C   UNL     1     -13.567  13.805  72.437  1.00  0.00    -0.588 C  
HETATM   21  C   UNL     1     -12.168  15.709  72.078  1.00  0.00    -0.436 C  
ENDBRANCH  18  19
ENDBRANCH  17  18
ENDBRANCH  10  17
ENDBRANCH   9  10
ENDBRANCH   6   9
ENDBRANCH   2   3
TORSDOF 7
ENDMDL
MODEL       12
REMARK 921   NORMALIZED FREE ENERGY PREDICTED BY IDOCK:   -5.41 KCAL/MOL
REMARK 922        TOTAL FREE ENERGY PREDICTED BY IDOCK:   -8.46 KCAL/MOL
REMARK 923 INTER-LIGAND FREE ENERGY PREDICTED BY IDOCK:   -7.78 KCAL/MOL
REMARK 924 INTRA-LIGAND FREE ENERGY PREDICTED BY IDOCK:   -0.69 KCAL/MOL
REMARK 927      BINDING AFFINITY PREDICTED BY RF-SCORE:    0.00 PKD
ROOT
HETATM    1  C   UNL     1     -11.353   6.552  71.301  1.00  0.00    -0.303 C  
HETATM    2  O   UNL     1     -11.401   7.630  72.226  1.00  0.00    -0.269 OA 
ENDROOT
BRANCH   2   3
HETATM    3  C   UNL     1     -11.629   8.874  71.703  1.00  0.00    -0.338 A  
HETATM    4  C   UNL     1     -12.689   9.716  72.030  1.00  0.00    -0.470 A  
HETATM    5  C   UNL     1     -12.861  10.928  71.349  1.00  0.00    -0.554 A  
HETATM    6  C   UNL     1     -11.972  11.327  70.334  1.00  0.00    -0.471 A  
HETATM    7  C   UNL     1     -10.864  10.508  70.080  1.00  0.00    -0.320 A  
HETATM    8  C   UNL     1     -10.693   9.297  70.758  1.00  0.00    -0.350 A  
BRANCH   6   9
HETATM    9  C   UNL     1     -12.277  12.472  69.376  1.00  0.00    -0.062 C  
BRANCH   9  10
HETATM   10  N   UNL     1     -11.796  13.781  69.770  1.00  0.00    -0.313 NA 
BRANCH  10  11
HETATM   11  C   UNL     1     -12.367  14.402  70.870  1.00  0.00    -0.349 A  
HETATM   12  N   UNL     1     -13.706  14.388  71.003  1.00  0.00    -0.243 NA 
HETATM   13  N   UNL     1     -11.578  15.044  71.748  1.00  0.00    -0.385 NA 
HETATM   14  C   UNL     1     -14.250  15.082  72.019  1.00  0.00    -0.555 A  
HETATM   15  C   UNL     1     -13.518  15.820  72.909  1.00  0.00    -0.666 A  
HETATM   16  C   UNL     1     -12.163  15.760  72.726  1.00  0.00    -0.473 A  
ENDBRANCH  10  11
BRANCH  10  17
HETATM   17  C   UNL     1     -10.741  14.534  69.082  1.00  0.00    -0.252 C  
BRANCH  17  18
HETATM   18  C   UNL     1     -11.169  15.395  67.872  1.00  0.00    -0.329 C  
BRANCH  18  19
HETATM   19  N   UNL     1     -11.061  14.699  66.563  1.00  0.00    -0.323 NA 
HETATM   20  C   UNL     1     -12.282  13.978  66.189  1.00  0.00    -0.465 C  
HETATM   21  C   UNL     1      -9.933  13.763  66.575  1.00  0.00    -0.288 C  
ENDBRANCH  18  19
ENDBRANCH  17  18
ENDBRANCH  10  17
ENDBRANCH   9  10
ENDBRANCH   6   9
ENDBRANCH   2   3
TORSDOF 7
ENDMDL
MODEL       13
REMARK 921   NORMALIZED FREE ENERGY PREDICTED BY IDOCK:   -5.40 KCAL/MOL
REMARK 922        TOTAL FREE ENERGY PREDICTED BY IDOCK:   -8.45 KCAL/MOL
REMARK 923 INTER-LIGAND FREE ENERGY PREDICTED BY IDOCK:   -7.71 KCAL/MOL
REMARK 924 INTRA-LIGAND FREE ENERGY PREDICTED BY IDOCK:   -0.73 KCAL/MOL
REMARK 927      BINDING AFFINITY PREDICTED BY RF-SCORE:    0.00 PKD
ROOT
HETATM    1  C   UNL     1      -9.895  11.295  63.204  1.00  0.00    -0.375 C  
HETATM    2  O   UNL     1     -10.749  12.394  63.491  1.00  0.00    -0.442 OA 
ENDROOT
BRANCH   2   3
HETATM    3  C   UNL     1     -10.880  12.738  64.809  1.00  0.00    -0.308 A  
HETATM    4  C   UNL     1     -10.002  12.394  65.835  1.00  0.00    -0.271 A  
HETATM    5  C   UNL     1     -10.304  12.729  67.161  1.00  0.00    -0.237 A  
HETATM    6  C   UNL     1     -11.485  13.420  67.488  1.00  0.00    -0.357 A  
HETATM    7  C   UNL     1     -12.312  13.831  66.435  1.00  0.00    -0.460 A  
HETATM    8  C   UNL     1     -12.012  13.495  65.111  1.00  0.00    -0.391 A  
BRANCH   6   9
HETATM    9  C   UNL     1     -11.997  13.543  68.918  1.00  0.00    -0.341 C  
BRANCH   9  10
HETATM   10  N   UNL     1     -11.529  14.692  69.668  1.00  0.00    -0.275 NA 
BRANCH  10  11
HETATM   11  C   UNL     1     -12.159  15.017  70.859  1.00  0.00    -0.324 A  
HETATM   12  N   UNL     1     -13.487  14.831  70.965  1.00  0.00    -0.377 NA 
HETATM   13  N   UNL     1     -11.441  15.556  71.859  1.00  0.00    -0.423 NA 
HETATM   14  C   UNL     1     -14.099  15.247  72.088  1.00  0.00    -0.560 A  
HETATM   15  C   UNL     1     -13.448  15.870  73.119  1.00  0.00    -0.650 A  
HETATM   16  C   UNL     1     -12.096  15.996  72.949  1.00  0.00    -0.520 A  
ENDBRANCH  10  11
BRANCH  10  17
HETATM   17  C   UNL     1     -10.429  15.573  69.261  1.00  0.00    -0.245 C  
BRANCH  17  18
HETATM   18  C   UNL     1     -10.800  16.822  68.429  1.00  0.00    -0.355 C  
BRANCH  18  19
HETATM   19  N   UNL     1      -9.726  17.279  67.509  1.00  0.00    -0.259 NA 
HETATM   20  C   UNL     1      -9.367  16.280  66.496  1.00  0.00    -0.271 C  
HETATM   21  C   UNL     1      -8.527  17.646  68.268  1.00  0.00    -0.271 C  
ENDBRANCH  18  19
ENDBRANCH  17  18
ENDBRANCH  10  17
ENDBRANCH   9  10
ENDBRANCH   6   9
ENDBRANCH   2   3
TORSDOF 7
ENDMDL
MODEL       14
REMARK 921   NORMALIZED FREE ENERGY PREDICTED BY IDOCK:   -5.37 KCAL/MOL
REMARK 922        TOTAL FREE ENERGY PREDICTED BY IDOCK:   -8.42 KCAL/MOL
REMARK 923 INTER-LIGAND FREE ENERGY PREDICTED BY IDOCK:   -7.70 KCAL/MOL
REMARK 924 INTRA-LIGAND FREE ENERGY PREDICTED BY IDOCK:   -0.72 KCAL/MOL
REMARK 927      BINDING AFFINITY PREDICTED BY RF-SCORE:    0.00 PKD
ROOT
HETATM    1  C   UNL     1     -12.604   8.994  71.973  1.00  0.00    -0.394 C  
HETATM    2  O   UNL     1     -13.401  10.149  72.193  1.00  0.00    -0.441 OA 
ENDROOT
BRANCH   2   3
HETATM    3  C   UNL     1     -12.984  11.304  71.590  1.00  0.00    -0.432 A  
HETATM    4  C   UNL     1     -13.233  12.598  72.041  1.00  0.00    -0.531 A  
HETATM    5  C   UNL     1     -12.830  13.700  71.274  1.00  0.00    -0.424 A  
HETATM    6  C   UNL     1     -12.164  13.531  70.047  1.00  0.00    -0.381 A  
HETATM    7  C   UNL     1     -11.847  12.224  69.653  1.00  0.00    -0.393 A  
HETATM    8  C   UNL     1     -12.250  11.124  70.416  1.00  0.00    -0.457 A  
BRANCH   6   9
HETATM    9  C   UNL     1     -11.973  14.668  69.051  1.00  0.00    -0.283 C  
BRANCH   9  10
HETATM   10  N   UNL     1     -10.871  14.524  68.120  1.00  0.00    -0.236 NA 
BRANCH  10  11
HETATM   11  C   UNL     1     -11.147  14.220  66.796  1.00  0.00    -0.314 A  
HETATM   12  N   UNL     1     -12.427  14.033  66.425  1.00  0.00    -0.429 NA 
HETATM   13  N   UNL     1     -10.132  14.068  65.928  1.00  0.00    -0.311 NA 
HETATM   14  C   UNL     1     -12.670  13.638  65.162  1.00  0.00    -0.395 A  
HETATM   15  C   UNL     1     -11.687  13.392  64.243  1.00  0.00    -0.455 A  
HETATM   16  C   UNL     1     -10.414  13.632  64.687  1.00  0.00    -0.423 A  
ENDBRANCH  10  11
BRANCH  10  17
HETATM   17  C   UNL     1      -9.452  14.662  68.465  1.00  0.00    -0.216 C  
BRANCH  17  18
HETATM   18  C   UNL     1      -9.027  15.961  69.187  1.00  0.00    -0.256 C  
BRANCH  18  19
HETATM   19  N   UNL     1      -8.979  17.157  68.306  1.00  0.00    -0.241 NA 
HETATM   20  C   UNL     1      -7.789  17.987  68.522  1.00  0.00    -0.303 C  
HETATM   21  C   UNL     1     -10.179  17.977  68.495  1.00  0.00    -0.385 C  
ENDBRANCH  18  19
ENDBRANCH  17  18
ENDBRANCH  10  17
ENDBRANCH   9  10
ENDBRANCH   6   9
ENDBRANCH   2   3
TORSDOF 7
ENDMDL
MODEL       15
REMARK 921   NORMALIZED FREE ENERGY PREDICTED BY IDOCK:   -5.36 KCAL/MOL
REMARK 922        TOTAL FREE ENERGY PREDICTED BY IDOCK:   -8.40 KCAL/MOL
REMARK 923 INTER-LIGAND FREE ENERGY PREDICTED BY IDOCK:   -7.73 KCAL/MOL
REMARK 924 INTRA-LIGAND FREE ENERGY PREDICTED BY IDOCK:   -0.67 KCAL/MOL
REMARK 927      BINDING AFFINITY PREDICTED BY RF-SCORE:    0.00 PKD
ROOT
HETATM    1  C   UNL     1     -13.354   9.032  72.170  1.00  0.00    -0.455 C  
HETATM    2  O   UNL     1     -13.410  10.452  72.205  1.00  0.00    -0.396 OA 
ENDROOT
BRANCH   2   3
HETATM    3  C   UNL     1     -12.774  11.114  71.190  1.00  0.00    -0.408 A  
HETATM    4  C   UNL     1     -12.024  10.526  70.175  1.00  0.00    -0.398 A  
HETATM    5  C   UNL     1     -11.343  11.327  69.249  1.00  0.00    -0.354 A  
HETATM    6  C   UNL     1     -11.404  12.731  69.315  1.00  0.00    -0.307 A  
HETATM    7  C   UNL     1     -12.232  13.301  70.291  1.00  0.00    -0.391 A  
HETATM    8  C   UNL     1     -12.910  12.502  71.216  1.00  0.00    -0.337 A  
BRANCH   6   9
HETATM    9  C   UNL     1     -10.460  13.634  68.530  1.00  0.00    -0.244 C  
BRANCH   9  10
HETATM   10  N   UNL     1     -11.076  14.503  67.547  1.00  0.00    -0.297 NA 
BRANCH  10  11
HETATM   11  C   UNL     1     -10.693  15.834  67.496  1.00  0.00    -0.317 A  
HETATM   12  N   UNL     1     -10.564  16.519  68.648  1.00  0.00    -0.295 NA 
HETATM   13  N   UNL     1     -10.510  16.423  66.302  1.00  0.00    -0.310 NA 
HETATM   14  C   UNL     1     -10.293  17.834  68.577  1.00  0.00    -0.364 A  
HETATM   15  C   UNL     1     -10.166  18.519  67.399  1.00  0.00    -0.401 A  
HETATM   16  C   UNL     1     -10.281  17.748  66.273  1.00  0.00    -0.364 A  
ENDBRANCH  10  11
BRANCH  10  17
HETATM   17  C   UNL     1     -12.105  14.092  66.586  1.00  0.00    -0.451 C  
BRANCH  17  18
HETATM   18  C   UNL     1     -11.883  12.752  65.848  1.00  0.00    -0.437 C  
BRANCH  18  19
HETATM   19  N   UNL     1     -12.458  12.711  64.479  1.00  0.00    -0.571 NA 
HETATM   20  C   UNL     1     -11.787  11.750  63.597  1.00  0.00    -0.393 C  
HETATM   21  C   UNL     1     -12.409  14.042  63.865  1.00  0.00    -0.234 C  
ENDBRANCH  18  19
ENDBRANCH  17  18
ENDBRANCH  10  17
ENDBRANCH   9  10
ENDBRANCH   6   9
ENDBRANCH   2   3
TORSDOF 7
ENDMDL
MODEL       16
REMARK 921   NORMALIZED FREE ENERGY PREDICTED BY IDOCK:   -5.36 KCAL/MOL
REMARK 922        TOTAL FREE ENERGY PREDICTED BY IDOCK:   -8.39 KCAL/MOL
REMARK 923 INTER-LIGAND FREE ENERGY PREDICTED BY IDOCK:   -7.73 KCAL/MOL
REMARK 924 INTRA-LIGAND FREE ENERGY PREDICTED BY IDOCK:   -0.66 KCAL/MOL
REMARK 927      BINDING AFFINITY PREDICTED BY RF-SCORE:    0.00 PKD
ROOT
HETATM    1  C   UNL     1     -13.187   9.592  71.968  1.00  0.00    -0.453 C  
HETATM    2  O   UNL     1     -13.174  11.013  71.949  1.00  0.00    -0.473 OA 
ENDROOT
BRANCH   2   3
HETATM    3  C   UNL     1     -12.522  11.604  70.900  1.00  0.00    -0.341 A  
HETATM    4  C   UNL     1     -11.869  10.939  69.865  1.00  0.00    -0.427 A  
HETATM    5  C   UNL     1     -11.156  11.666  68.902  1.00  0.00    -0.287 A  
HETATM    6  C   UNL     1     -11.089  13.070  68.950  1.00  0.00    -0.307 A  
HETATM    7  C   UNL     1     -11.823  13.724  69.948  1.00  0.00    -0.394 A  
HETATM    8  C   UNL     1     -12.533  12.999  70.911  1.00  0.00    -0.396 A  
BRANCH   6   9
HETATM    9  C   UNL     1     -10.100  13.875  68.115  1.00  0.00    -0.250 C  
BRANCH   9  10
HETATM   10  N   UNL     1     -10.657  14.609  66.996  1.00  0.00    -0.277 NA 
BRANCH  10  11
HETATM   11  C   UNL     1     -11.075  13.908  65.876  1.00  0.00    -0.291 A  
HETATM   12  N   UNL     1     -12.350  13.484  65.812  1.00  0.00    -0.456 NA 
HETATM   13  N   UNL     1     -10.188  13.623  64.907  1.00  0.00    -0.366 NA 
HETATM   14  C   UNL     1     -12.713  12.718  64.767  1.00  0.00    -0.393 A  
HETATM   15  C   UNL     1     -11.849  12.325  63.780  1.00  0.00    -0.587 A  
HETATM   16  C   UNL     1     -10.579  12.820  63.900  1.00  0.00    -0.395 A  
ENDBRANCH  10  11
BRANCH  10  17
HETATM   17  C   UNL     1     -10.807  16.067  66.935  1.00  0.00    -0.203 C  
BRANCH  17  18
HETATM   18  C   UNL     1     -10.762  16.835  68.276  1.00  0.00    -0.364 C  
BRANCH  18  19
HETATM   19  N   UNL     1     -10.096  18.161  68.194  1.00  0.00    -0.357 NA 
HETATM   20  C   UNL     1     -10.416  18.895  66.965  1.00  0.00    -0.428 C  
HETATM   21  C   UNL     1      -8.641  18.007  68.298  1.00  0.00    -0.287 C  
ENDBRANCH  18  19
ENDBRANCH  17  18
ENDBRANCH  10  17
ENDBRANCH   9  10
ENDBRANCH   6   9
ENDBRANCH   2   3
TORSDOF 7
ENDMDL
MODEL       17
REMARK 921   NORMALIZED FREE ENERGY PREDICTED BY IDOCK:   -5.35 KCAL/MOL
REMARK 922        TOTAL FREE ENERGY PREDICTED BY IDOCK:   -8.38 KCAL/MOL
REMARK 923 INTER-LIGAND FREE ENERGY PREDICTED BY IDOCK:   -7.57 KCAL/MOL
REMARK 924 INTRA-LIGAND FREE ENERGY PREDICTED BY IDOCK:   -0.81 KCAL/MOL
REMARK 927      BINDING AFFINITY PREDICTED BY RF-SCORE:    0.00 PKD
ROOT
HETATM    1  C   UNL     1      -8.647   9.570  64.337  1.00  0.00    -0.195 C  
HETATM    2  O   UNL     1      -9.535  10.265  63.473  1.00  0.00    -0.276 OA 
ENDROOT
BRANCH   2   3
HETATM    3  C   UNL     1     -10.359  11.189  64.058  1.00  0.00    -0.376 A  
HETATM    4  C   UNL     1     -11.051  12.201  63.398  1.00  0.00    -0.495 A  
HETATM    5  C   UNL     1     -11.786  13.143  64.130  1.00  0.00    -0.487 A  
HETATM    6  C   UNL     1     -11.851  13.087  65.533  1.00  0.00    -0.438 A  
HETATM    7  C   UNL     1     -11.219  12.013  66.173  1.00  0.00    -0.394 A  
HETATM    8  C   UNL     1     -10.483  11.073  65.443  1.00  0.00    -0.306 A  
BRANCH   6   9
HETATM    9  C   UNL     1     -12.382  14.239  66.379  1.00  0.00    -0.350 C  
BRANCH   9  10
HETATM   10  N   UNL     1     -11.435  14.855  67.288  1.00  0.00    -0.352 NA 
BRANCH  10  11
HETATM   11  C   UNL     1     -11.695  14.822  68.649  1.00  0.00    -0.325 A  
HETATM   12  N   UNL     1     -11.435  15.916  69.388  1.00  0.00    -0.340 NA 
HETATM   13  N   UNL     1     -12.150  13.687  69.206  1.00  0.00    -0.335 NA 
HETATM   14  C   UNL     1     -11.595  15.834  70.721  1.00  0.00    -0.398 A  
HETATM   15  C   UNL     1     -11.984  14.693  71.369  1.00  0.00    -0.405 A  
HETATM   16  C   UNL     1     -12.258  13.633  70.547  1.00  0.00    -0.368 A  
ENDBRANCH  10  11
BRANCH  10  17
HETATM   17  C   UNL     1     -10.202  15.540  66.885  1.00  0.00    -0.279 C  
BRANCH  17  18
HETATM   18  C   UNL     1     -10.357  16.825  66.040  1.00  0.00    -0.335 C  
BRANCH  18  19
HETATM   19  N   UNL     1     -10.335  18.080  66.835  1.00  0.00    -0.365 NA 
HETATM   20  C   UNL     1     -10.460  19.288  66.013  1.00  0.00    -0.487 C  
HETATM   21  C   UNL     1      -9.103  18.161  67.626  1.00  0.00    -0.259 C  
ENDBRANCH  18  19
ENDBRANCH  17  18
ENDBRANCH  10  17
ENDBRANCH   9  10
ENDBRANCH   6   9
ENDBRANCH   2   3
TORSDOF 7
ENDMDL
MODEL       18
REMARK 921   NORMALIZED FREE ENERGY PREDICTED BY IDOCK:   -5.34 KCAL/MOL
REMARK 922        TOTAL FREE ENERGY PREDICTED BY IDOCK:   -8.37 KCAL/MOL
REMARK 923 INTER-LIGAND FREE ENERGY PREDICTED BY IDOCK:   -7.75 KCAL/MOL
REMARK 924 INTRA-LIGAND FREE ENERGY PREDICTED BY IDOCK:   -0.62 KCAL/MOL
REMARK 927      BINDING AFFINITY PREDICTED BY RF-SCORE:    0.00 PKD
ROOT
HETATM    1  C   UNL     1     -10.390   6.612  73.954  1.00  0.00    -0.360 C  
HETATM    2  O   UNL     1      -9.667   7.710  73.414  1.00  0.00    -0.262 OA 
ENDROOT
BRANCH   2   3
HETATM    3  C   UNL     1     -10.286   8.422  72.423  1.00  0.00    -0.329 A  
HETATM    4  C   UNL     1      -9.652   9.088  71.376  1.00  0.00    -0.356 A  
HETATM    5  C   UNL     1     -10.401   9.862  70.480  1.00  0.00    -0.298 A  
HETATM    6  C   UNL     1     -11.796   9.980  70.606  1.00  0.00    -0.411 A  
HETATM    7  C   UNL     1     -12.425   9.234  71.612  1.00  0.00    -0.448 A  
HETATM    8  C   UNL     1     -11.678   8.463  72.509  1.00  0.00    -0.429 A  
BRANCH   6   9
HETATM    9  C   UNL     1     -12.605  11.029  69.852  1.00  0.00    -0.136 C  
BRANCH   9  10
HETATM   10  N   UNL     1     -12.033  12.360  69.796  1.00  0.00    -0.310 NA 
BRANCH  10  11
HETATM   11  C   UNL     1     -12.396  13.286  70.761  1.00  0.00    -0.344 A  
HETATM   12  N   UNL     1     -13.293  12.931  71.700  1.00  0.00    -0.335 NA 
HETATM   13  N   UNL     1     -11.886  14.528  70.709  1.00  0.00    -0.308 NA 
HETATM   14  C   UNL     1     -13.712  13.871  72.566  1.00  0.00    -0.560 A  
HETATM   15  C   UNL     1     -13.294  15.174  72.529  1.00  0.00    -0.540 A  
HETATM   16  C   UNL     1     -12.360  15.449  71.567  1.00  0.00    -0.377 A  
ENDBRANCH  10  11
BRANCH  10  17
HETATM   17  C   UNL     1     -11.092  12.830  68.775  1.00  0.00    -0.260 C  
BRANCH  17  18
HETATM   18  C   UNL     1     -11.696  13.366  67.457  1.00  0.00    -0.366 C  
BRANCH  18  19
HETATM   19  N   UNL     1     -12.022  12.309  66.465  1.00  0.00    -0.626 NA 
HETATM   20  C   UNL     1     -11.010  11.249  66.394  1.00  0.00    -0.227 C  
HETATM   21  C   UNL     1     -12.197  12.896  65.133  1.00  0.00    -0.470 C  
ENDBRANCH  18  19
ENDBRANCH  17  18
ENDBRANCH  10  17
ENDBRANCH   9  10
ENDBRANCH   6   9
ENDBRANCH   2   3
TORSDOF 7
ENDMDL
MODEL       19
REMARK 921   NORMALIZED FREE ENERGY PREDICTED BY IDOCK:   -5.34 KCAL/MOL
REMARK 922        TOTAL FREE ENERGY PREDICTED BY IDOCK:   -8.37 KCAL/MOL
REMARK 923 INTER-LIGAND FREE ENERGY PREDICTED BY IDOCK:   -7.93 KCAL/MOL
REMARK 924 INTRA-LIGAND FREE ENERGY PREDICTED BY IDOCK:   -0.44 KCAL/MOL
REMARK 927      BINDING AFFINITY PREDICTED BY RF-SCORE:    0.00 PKD
ROOT
HETATM    1  C   UNL     1     -14.300   8.339  72.169  1.00  0.00    -0.404 C  
HETATM    2  O   UNL     1     -13.000   8.860  72.410  1.00  0.00    -0.405 OA 
ENDROOT
BRANCH   2   3
HETATM    3  C   UNL     1     -12.493   9.703  71.458  1.00  0.00    -0.386 A  
HETATM    4  C   UNL     1     -11.587   9.356  70.458  1.00  0.00    -0.291 A  
HETATM    5  C   UNL     1     -11.072  10.340  69.604  1.00  0.00    -0.323 A  
HETATM    6  C   UNL     1     -11.457  11.688  69.727  1.00  0.00    -0.339 A  
HETATM    7  C   UNL     1     -12.433  12.001  70.682  1.00  0.00    -0.335 A  
HETATM    8  C   UNL     1     -12.946  11.020  71.536  1.00  0.00    -0.553 A  
BRANCH   6   9
HETATM    9  C   UNL     1     -10.716  12.822  69.031  1.00  0.00    -0.095 C  
BRANCH   9  10
HETATM   10  N   UNL     1     -11.539  13.801  68.348  1.00  0.00    -0.312 NA 
BRANCH  10  11
HETATM   11  C   UNL     1     -11.673  13.720  66.971  1.00  0.00    -0.390 A  
HETATM   12  N   UNL     1     -11.307  14.774  66.219  1.00  0.00    -0.345 NA 
HETATM   13  N   UNL     1     -12.211  12.617  66.424  1.00  0.00    -0.543 NA 
HETATM   14  C   UNL     1     -11.539  14.720  64.895  1.00  0.00    -0.401 A  
HETATM   15  C   UNL     1     -12.149  13.662  64.275  1.00  0.00    -0.480 A  
HETATM   16  C   UNL     1     -12.464  12.618  65.103  1.00  0.00    -0.463 A  
ENDBRANCH  10  11
BRANCH  10  17
HETATM   17  C   UNL     1     -12.249  14.906  69.000  1.00  0.00    -0.136 C  
BRANCH  17  18
HETATM   18  C   UNL     1     -11.592  15.519  70.258  1.00  0.00    -0.335 C  
BRANCH  18  19
HETATM   19  N   UNL     1     -12.326  15.246  71.521  1.00  0.00    -0.320 NA 
HETATM   20  C   UNL     1     -13.782  15.229  71.352  1.00  0.00    -0.518 C  
HETATM   21  C   UNL     1     -11.971  16.238  72.541  1.00  0.00    -0.554 C  
ENDBRANCH  18  19
ENDBRANCH  17  18
ENDBRANCH  10  17
ENDBRANCH   9  10
ENDBRANCH   6   9
ENDBRANCH   2   3
TORSDOF 7
ENDMDL
MODEL       20
REMARK 921   NORMALIZED FREE ENERGY PREDICTED BY IDOCK:   -5.33 KCAL/MOL
REMARK 922        TOTAL FREE ENERGY PREDICTED BY IDOCK:   -8.35 KCAL/MOL
REMARK 923 INTER-LIGAND FREE ENERGY PREDICTED BY IDOCK:   -7.70 KCAL/MOL
REMARK 924 INTRA-LIGAND FREE ENERGY PREDICTED BY IDOCK:   -0.65 KCAL/MOL
REMARK 927      BINDING AFFINITY PREDICTED BY RF-SCORE:    0.00 PKD
ROOT
HETATM    1  C   UNL     1      -7.234  19.718  65.775  1.00  0.00    -0.318 C  
HETATM    2  O   UNL     1      -8.644  19.592  65.890  1.00  0.00    -0.415 OA 
ENDROOT
BRANCH   2   3
HETATM    3  C   UNL     1      -9.103  18.620  66.737  1.00  0.00    -0.301 A  
HETATM    4  C   UNL     1      -9.981  18.811  67.801  1.00  0.00    -0.396 A  
HETATM    5  C   UNL     1     -10.297  17.744  68.653  1.00  0.00    -0.351 A  
HETATM    6  C   UNL     1      -9.749  16.465  68.453  1.00  0.00    -0.229 A  
HETATM    7  C   UNL     1      -8.937  16.272  67.328  1.00  0.00    -0.209 A  
HETATM    8  C   UNL     1      -8.620  17.337  66.479  1.00  0.00    -0.298 A  
BRANCH   6   9
HETATM    9  C   UNL     1      -9.825  15.364  69.505  1.00  0.00    -0.260 C  
BRANCH   9  10
HETATM   10  N   UNL     1     -11.105  14.699  69.644  1.00  0.00    -0.262 NA 
BRANCH  10  11
HETATM   11  C   UNL     1     -11.944  15.071  70.683  1.00  0.00    -0.318 A  
HETATM   12  N   UNL     1     -11.444  15.808  71.691  1.00  0.00    -0.419 NA 
HETATM   13  N   UNL     1     -13.219  14.646  70.685  1.00  0.00    -0.291 NA 
HETATM   14  C   UNL     1     -12.243  16.073  72.741  1.00  0.00    -0.516 A  
HETATM   15  C   UNL     1     -13.528  15.613  72.849  1.00  0.00    -0.657 A  
HETATM   16  C   UNL     1     -13.973  14.897  71.771  1.00  0.00    -0.489 A  
ENDBRANCH  10  11
BRANCH  10  17
HETATM   17  C   UNL     1     -11.599  13.629  68.770  1.00  0.00    -0.324 C  
BRANCH  17  18
HETATM   18  C   UNL     1     -12.029  14.033  67.341  1.00  0.00    -0.404 C  
BRANCH  18  19
HETATM   19  N   UNL     1     -12.245  12.882  66.425  1.00  0.00    -0.482 NA 
HETATM   20  C   UNL     1     -11.215  11.845  66.545  1.00  0.00    -0.327 C  
HETATM   21  C   UNL     1     -12.303  13.343  65.034  1.00  0.00    -0.436 C  
ENDBRANCH  18  19
ENDBRANCH  17  18
ENDBRANCH  10  17
ENDBRANCH   9  10
ENDBRANCH   6   9
ENDBRANCH   2   3
TORSDOF 7
ENDMDL
MODEL       21
REMARK 921   NORMALIZED FREE ENERGY PREDICTED BY IDOCK:   -5.32 KCAL/MOL
REMARK 922        TOTAL FREE ENERGY PREDICTED BY IDOCK:   -8.34 KCAL/MOL
REMARK 923 INTER-LIGAND FREE ENERGY PREDICTED BY IDOCK:   -7.68 KCAL/MOL
REMARK 924 INTRA-LIGAND FREE ENERGY PREDICTED BY IDOCK:   -0.66 KCAL/MOL
REMARK 927      BINDING AFFINITY PREDICTED BY RF-SCORE:    0.00 PKD
ROOT
HETATM    1  C   UNL     1     -12.565   9.510  71.628  1.00  0.00    -0.388 C  
HETATM    2  O   UNL     1     -12.936  10.842  71.954  1.00  0.00    -0.458 OA 
ENDROOT
BRANCH   2   3
HETATM    3  C   UNL     1     -12.563  11.815  71.067  1.00  0.00    -0.310 A  
HETATM    4  C   UNL     1     -12.681  13.189  71.263  1.00  0.00    -0.396 A  
HETATM    5  C   UNL     1     -12.349  14.077  70.232  1.00  0.00    -0.425 A  
HETATM    6  C   UNL     1     -11.886  13.612  68.988  1.00  0.00    -0.393 A  
HETATM    7  C   UNL     1     -11.693  12.232  68.840  1.00  0.00    -0.380 A  
HETATM    8  C   UNL     1     -12.026  11.344  69.868  1.00  0.00    -0.434 A  
BRANCH   6   9
HETATM    9  C   UNL     1     -11.797  14.505  67.756  1.00  0.00    -0.357 C  
BRANCH   9  10
HETATM   10  N   UNL     1     -10.772  14.162  66.790  1.00  0.00    -0.284 NA 
BRANCH  10  11
HETATM   11  C   UNL     1     -11.139  13.497  65.631  1.00  0.00    -0.289 A  
HETATM   12  N   UNL     1     -12.447  13.315  65.371  1.00  0.00    -0.479 NA 
HETATM   13  N   UNL     1     -10.185  13.006  64.822  1.00  0.00    -0.314 NA 
HETATM   14  C   UNL     1     -12.784  12.580  64.296  1.00  0.00    -0.341 A  
HETATM   15  C   UNL     1     -11.870  11.986  63.468  1.00  0.00    -0.587 A  
HETATM   16  C   UNL     1     -10.562  12.241  63.781  1.00  0.00    -0.451 A  
ENDBRANCH  10  11
BRANCH  10  17
HETATM   17  C   UNL     1      -9.341  14.450  66.941  1.00  0.00    -0.256 C  
BRANCH  17  18
HETATM   18  C   UNL     1      -8.837  15.808  66.400  1.00  0.00    -0.336 C  
BRANCH  18  19
HETATM   19  N   UNL     1      -9.224  16.975  67.235  1.00  0.00    -0.219 NA 
HETATM   20  C   UNL     1     -10.257  17.812  66.617  1.00  0.00    -0.361 C  
HETATM   21  C   UNL     1      -8.050  17.801  67.531  1.00  0.00    -0.223 C  
ENDBRANCH  18  19
ENDBRANCH  17  18
ENDBRANCH  10  17
ENDBRANCH   9  10
ENDBRANCH   6   9
ENDBRANCH   2   3
TORSDOF 7
ENDMDL
MODEL       22
REMARK 921   NORMALIZED FREE ENERGY PREDICTED BY IDOCK:   -5.31 KCAL/MOL
REMARK 922        TOTAL FREE ENERGY PREDICTED BY IDOCK:   -8.32 KCAL/MOL
REMARK 923 INTER-LIGAND FREE ENERGY PREDICTED BY IDOCK:   -7.61 KCAL/MOL
REMARK 924 INTRA-LIGAND FREE ENERGY PREDICTED BY IDOCK:   -0.71 KCAL/MOL
REMARK 927      BINDING AFFINITY PREDICTED BY RF-SCORE:    0.00 PKD
ROOT
HETATM    1  C   UNL     1     -11.761   7.979  72.344  1.00  0.00    -0.386 C  
HETATM    2  O   UNL     1     -10.681   8.604  71.663  1.00  0.00    -0.254 OA 
ENDROOT
BRANCH   2   3
HETATM    3  C   UNL     1     -10.999   9.658  70.850  1.00  0.00    -0.342 A  
HETATM    4  C   UNL     1     -10.281  10.071  69.729  1.00  0.00    -0.286 A  
HETATM    5  C   UNL     1     -10.663  11.228  69.038  1.00  0.00    -0.257 A  
HETATM    6  C   UNL     1     -11.772  11.990  69.447  1.00  0.00    -0.402 A  
HETATM    7  C   UNL     1     -12.530  11.511  70.523  1.00  0.00    -0.367 A  
HETATM    8  C   UNL     1     -12.149  10.358  71.215  1.00  0.00    -0.461 A  
BRANCH   6   9
HETATM    9  C   UNL     1     -12.045  13.394  68.919  1.00  0.00    -0.252 C  
BRANCH   9  10
HETATM   10  N   UNL     1     -11.451  14.485  69.665  1.00  0.00    -0.275 NA 
BRANCH  10  11
HETATM   11  C   UNL     1     -12.133  15.001  70.756  1.00  0.00    -0.322 A  
HETATM   12  N   UNL     1     -11.428  15.499  71.788  1.00  0.00    -0.418 NA 
HETATM   13  N   UNL     1     -13.476  14.945  70.781  1.00  0.00    -0.305 NA 
HETATM   14  C   UNL     1     -12.101  15.900  72.881  1.00  0.00    -0.506 A  
HETATM   15  C   UNL     1     -13.461  15.807  73.010  1.00  0.00    -0.672 A  
HETATM   16  C   UNL     1     -14.109  15.318  71.908  1.00  0.00    -0.557 A  
ENDBRANCH  10  11
BRANCH  10  17
HETATM   17  C   UNL     1     -10.166  15.119  69.351  1.00  0.00    -0.240 C  
BRANCH  17  18
HETATM   18  C   UNL     1      -9.983  15.664  67.916  1.00  0.00    -0.223 C  
BRANCH  18  19
HETATM   19  N   UNL     1     -10.569  17.012  67.700  1.00  0.00    -0.345 NA 
HETATM   20  C   UNL     1     -10.264  17.570  66.378  1.00  0.00    -0.354 C  
HETATM   21  C   UNL     1     -10.103  17.942  68.733  1.00  0.00    -0.384 C  
ENDBRANCH  18  19
ENDBRANCH  17  18
ENDBRANCH  10  17
ENDBRANCH   9  10
ENDBRANCH   6   9
ENDBRANCH   2   3
TORSDOF 7
ENDMDL
MODEL       23
REMARK 921   NORMALIZED FREE ENERGY PREDICTED BY IDOCK:   -5.30 KCAL/MOL
REMARK 922        TOTAL FREE ENERGY PREDICTED BY IDOCK:   -8.32 KCAL/MOL
REMARK 923 INTER-LIGAND FREE ENERGY PREDICTED BY IDOCK:   -7.70 KCAL/MOL
REMARK 924 INTRA-LIGAND FREE ENERGY PREDICTED BY IDOCK:   -0.62 KCAL/MOL
REMARK 927      BINDING AFFINITY PREDICTED BY RF-SCORE:    0.00 PKD
ROOT
HETATM    1  C   UNL     1     -10.130  11.226  63.127  1.00  0.00    -0.345 C  
HETATM    2  O   UNL     1     -11.397  11.594  63.656  1.00  0.00    -0.413 OA 
ENDROOT
BRANCH   2   3
HETATM    3  C   UNL     1     -11.405  12.103  64.926  1.00  0.00    -0.326 A  
HETATM    4  C   UNL     1     -12.291  13.059  65.417  1.00  0.00    -0.538 A  
HETATM    5  C   UNL     1     -12.130  13.567  66.713  1.00  0.00    -0.425 A  
HETATM    6  C   UNL     1     -11.086  13.125  67.545  1.00  0.00    -0.296 A  
HETATM    7  C   UNL     1     -10.258  12.102  67.064  1.00  0.00    -0.225 A  
HETATM    8  C   UNL     1     -10.417  11.595  65.771  1.00  0.00    -0.308 A  
BRANCH   6   9
HETATM    9  C   UNL     1     -10.694  13.847  68.829  1.00  0.00    -0.262 C  
BRANCH   9  10
HETATM   10  N   UNL     1     -11.607  14.875  69.288  1.00  0.00    -0.288 NA 
BRANCH  10  11
HETATM   11  C   UNL     1     -12.433  14.603  70.368  1.00  0.00    -0.352 A  
HETATM   12  N   UNL     1     -12.431  13.364  70.894  1.00  0.00    -0.371 NA 
HETATM   13  N   UNL     1     -13.252  15.563  70.830  1.00  0.00    -0.502 NA 
HETATM   14  C   UNL     1     -13.311  13.089  71.873  1.00  0.00    -0.446 A  
HETATM   15  C   UNL     1     -14.225  13.991  72.345  1.00  0.00    -0.500 A  
HETATM   16  C   UNL     1     -14.146  15.236  71.781  1.00  0.00    -0.555 A  
ENDBRANCH  10  11
BRANCH  10  17
HETATM   17  C   UNL     1     -11.750  16.206  68.689  1.00  0.00    -0.205 C  
BRANCH  17  18
HETATM   18  C   UNL     1     -10.448  16.968  68.353  1.00  0.00    -0.370 C  
BRANCH  18  19
HETATM   19  N   UNL     1     -10.381  17.470  66.956  1.00  0.00    -0.328 NA 
HETATM   20  C   UNL     1     -10.021  16.432  65.985  1.00  0.00    -0.345 C  
HETATM   21  C   UNL     1      -9.422  18.575  66.857  1.00  0.00    -0.298 C  
ENDBRANCH  18  19
ENDBRANCH  17  18
ENDBRANCH  10  17
ENDBRANCH   9  10
ENDBRANCH   6   9
ENDBRANCH   2   3
TORSDOF 7
ENDMDL
MODEL       24
REMARK 921   NORMALIZED FREE ENERGY PREDICTED BY IDOCK:   -5.29 KCAL/MOL
REMARK 922        TOTAL FREE ENERGY PREDICTED BY IDOCK:   -8.30 KCAL/MOL
REMARK 923 INTER-LIGAND FREE ENERGY PREDICTED BY IDOCK:   -7.32 KCAL/MOL
REMARK 924 INTRA-LIGAND FREE ENERGY PREDICTED BY IDOCK:   -0.98 KCAL/MOL
REMARK 927      BINDING AFFINITY PREDICTED BY RF-SCORE:    0.00 PKD
ROOT
HETATM    1  C   UNL     1     -11.654  11.096  68.927  1.00  0.00    -0.317 C  
HETATM    2  O   UNL     1     -11.789  10.999  67.516  1.00  0.00    -0.571 OA 
ENDROOT
BRANCH   2   3
HETATM    3  C   UNL     1     -11.594  12.152  66.803  1.00  0.00    -0.345 A  
HETATM    4  C   UNL     1     -11.020  12.243  65.538  1.00  0.00    -0.337 A  
HETATM    5  C   UNL     1     -10.791  13.498  64.958  1.00  0.00    -0.348 A  
HETATM    6  C   UNL     1     -11.138  14.685  65.628  1.00  0.00    -0.338 A  
HETATM    7  C   UNL     1     -11.792  14.570  66.862  1.00  0.00    -0.399 A  
HETATM    8  C   UNL     1     -12.019  13.318  67.442  1.00  0.00    -0.383 A  
BRANCH   6   9
HETATM    9  C   UNL     1     -10.647  16.056  65.179  1.00  0.00    -0.370 C  
BRANCH   9  10
HETATM   10  N   UNL     1      -9.551  16.624  65.940  1.00  0.00    -0.498 NA 
BRANCH  10  11
HETATM   11  C   UNL     1      -9.633  17.945  66.349  1.00  0.00    -0.286 A  
HETATM   12  N   UNL     1      -8.679  18.809  65.955  1.00  0.00    -0.478 NA 
HETATM   13  N   UNL     1     -10.630  18.321  67.169  1.00  0.00    -0.392 NA 
HETATM   14  C   UNL     1      -8.717  20.062  66.444  1.00  0.00    -0.302 A  
HETATM   15  C   UNL     1      -9.656  20.498  67.339  1.00  0.00    -0.578 A  
HETATM   16  C   UNL     1     -10.608  19.570  67.668  1.00  0.00    -0.440 A  
ENDBRANCH  10  11
BRANCH  10  17
HETATM   17  C   UNL     1      -8.324  15.910  66.311  1.00  0.00    -0.200 C  
BRANCH  17  18
HETATM   18  C   UNL     1      -7.771  16.156  67.733  1.00  0.00    -0.140 C  
BRANCH  18  19
HETATM   19  N   UNL     1      -8.159  15.118  68.723  1.00  0.00    -0.154 NA 
HETATM   20  C   UNL     1      -8.292  13.780  68.137  1.00  0.00    -0.165 C  
HETATM   21  C   UNL     1      -9.419  15.484  69.378  1.00  0.00    -0.278 C  
ENDBRANCH  18  19
ENDBRANCH  17  18
ENDBRANCH  10  17
ENDBRANCH   9  10
ENDBRANCH   6   9
ENDBRANCH   2   3
TORSDOF 7
ENDMDL
MODEL       25
REMARK 921   NORMALIZED FREE ENERGY PREDICTED BY IDOCK:   -5.29 KCAL/MOL
REMARK 922        TOTAL FREE ENERGY PREDICTED BY IDOCK:   -8.29 KCAL/MOL
REMARK 923 INTER-LIGAND FREE ENERGY PREDICTED BY IDOCK:   -7.61 KCAL/MOL
REMARK 924 INTRA-LIGAND FREE ENERGY PREDICTED BY IDOCK:   -0.68 KCAL/MOL
REMARK 927      BINDING AFFINITY PREDICTED BY RF-SCORE:    0.00 PKD
ROOT
HETATM    1  C   UNL     1     -14.093   8.612  72.186  1.00  0.00    -0.441 C  
HETATM    2  O   UNL     1     -13.008   9.493  72.442  1.00  0.00    -0.386 OA 
ENDROOT
BRANCH   2   3
HETATM    3  C   UNL     1     -12.476  10.137  71.358  1.00  0.00    -0.423 A  
HETATM    4  C   UNL     1     -11.651   9.566  70.391  1.00  0.00    -0.268 A  
HETATM    5  C   UNL     1     -11.094  10.364  69.383  1.00  0.00    -0.304 A  
HETATM    6  C   UNL     1     -11.355  11.744  69.316  1.00  0.00    -0.348 A  
HETATM    7  C   UNL     1     -12.254  12.283  70.246  1.00  0.00    -0.342 A  
HETATM    8  C   UNL     1     -12.809  11.488  71.254  1.00  0.00    -0.463 A  
BRANCH   6   9
HETATM    9  C   UNL     1     -10.551  12.692  68.434  1.00  0.00    -0.243 C  
BRANCH   9  10
HETATM   10  N   UNL     1     -11.283  13.350  67.370  1.00  0.00    -0.278 NA 
BRANCH  10  11
HETATM   11  C   UNL     1     -11.355  12.739  66.128  1.00  0.00    -0.328 A  
HETATM   12  N   UNL     1     -10.246  12.174  65.615  1.00  0.00    -0.250 NA 
HETATM   13  N   UNL     1     -12.512  12.769  65.444  1.00  0.00    -0.614 NA 
HETATM   14  C   UNL     1     -10.307  11.676  64.367  1.00  0.00    -0.313 A  
HETATM   15  C   UNL     1     -11.427  11.735  63.582  1.00  0.00    -0.524 A  
HETATM   16  C   UNL     1     -12.520  12.297  64.184  1.00  0.00    -0.434 A  
ENDBRANCH  10  11
BRANCH  10  17
HETATM   17  C   UNL     1     -11.959  14.647  67.489  1.00  0.00    -0.278 C  
BRANCH  17  18
HETATM   18  C   UNL     1     -11.311  15.694  68.423  1.00  0.00    -0.364 C  
BRANCH  18  19
HETATM   19  N   UNL     1     -10.856  16.927  67.730  1.00  0.00    -0.323 NA 
HETATM   20  C   UNL     1     -10.038  16.655  66.543  1.00  0.00    -0.305 C  
HETATM   21  C   UNL     1     -10.098  17.779  68.652  1.00  0.00    -0.384 C  
ENDBRANCH  18  19
ENDBRANCH  17  18
ENDBRANCH  10  17
ENDBRANCH   9  10
ENDBRANCH   6   9
ENDBRANCH   2   3
TORSDOF 7
ENDMDL
MODEL       26
REMARK 921   NORMALIZED FREE ENERGY PREDICTED BY IDOCK:   -5.28 KCAL/MOL
REMARK 922        TOTAL FREE ENERGY PREDICTED BY IDOCK:   -8.28 KCAL/MOL
REMARK 923 INTER-LIGAND FREE ENERGY PREDICTED BY IDOCK:   -7.56 KCAL/MOL
REMARK 924 INTRA-LIGAND FREE ENERGY PREDICTED BY IDOCK:   -0.73 KCAL/MOL
REMARK 927      BINDING AFFINITY PREDICTED BY RF-SCORE:    0.00 PKD
ROOT
HETATM    1  C   UNL     1     -14.123  15.409  72.487  1.00  0.00    -0.499 C  
HETATM    2  O   UNL     1     -13.920  14.007  72.596  1.00  0.00    -0.654 OA 
ENDROOT
BRANCH   2   3
HETATM    3  C   UNL     1     -13.202  13.413  71.593  1.00  0.00    -0.364 A  
HETATM    4  C   UNL     1     -12.888  12.059  71.504  1.00  0.00    -0.403 A  
HETATM    5  C   UNL     1     -12.061  11.595  70.472  1.00  0.00    -0.458 A  
HETATM    6  C   UNL     1     -11.539  12.473  69.506  1.00  0.00    -0.348 A  
HETATM    7  C   UNL     1     -11.935  13.816  69.563  1.00  0.00    -0.399 A  
HETATM    8  C   UNL     1     -12.759  14.280  70.594  1.00  0.00    -0.409 A  
BRANCH   6   9
HETATM    9  C   UNL     1     -10.415  12.076  68.556  1.00  0.00    -0.229 C  
BRANCH   9  10
HETATM   10  N   UNL     1     -10.751  11.096  67.542  1.00  0.00    -0.220 NA 
BRANCH  10  11
HETATM   11  C   UNL     1     -11.057  11.532  66.263  1.00  0.00    -0.263 A  
HETATM   12  N   UNL     1     -12.117  12.342  66.087  1.00  0.00    -0.627 NA 
HETATM   13  N   UNL     1     -10.322  11.098  65.225  1.00  0.00    -0.268 NA 
HETATM   14  C   UNL     1     -12.462  12.673  64.830  1.00  0.00    -0.494 A  
HETATM   15  C   UNL     1     -11.808  12.212  63.719  1.00  0.00    -0.592 A  
HETATM   16  C   UNL     1     -10.724  11.418  63.981  1.00  0.00    -0.387 A  
ENDBRANCH  10  11
BRANCH  10  17
HETATM   17  C   UNL     1     -10.812   9.646  67.759  1.00  0.00    -0.217 C  
BRANCH  17  18
HETATM   18  C   UNL     1      -9.516   8.953  68.238  1.00  0.00    -0.140 C  
BRANCH  18  19
HETATM   19  N   UNL     1      -9.619   8.339  69.587  1.00  0.00    -0.167 NA 
HETATM   20  C   UNL     1     -10.999   8.232  70.071  1.00  0.00    -0.197 C  
HETATM   21  C   UNL     1      -8.827   9.104  70.556  1.00  0.00    -0.224 C  
ENDBRANCH  18  19
ENDBRANCH  17  18
ENDBRANCH  10  17
ENDBRANCH   9  10
ENDBRANCH   6   9
ENDBRANCH   2   3
TORSDOF 7
ENDMDL
MODEL       27
REMARK 921   NORMALIZED FREE ENERGY PREDICTED BY IDOCK:   -5.22 KCAL/MOL
REMARK 922        TOTAL FREE ENERGY PREDICTED BY IDOCK:   -8.20 KCAL/MOL
REMARK 923 INTER-LIGAND FREE ENERGY PREDICTED BY IDOCK:   -7.38 KCAL/MOL
REMARK 924 INTRA-LIGAND FREE ENERGY PREDICTED BY IDOCK:   -0.82 KCAL/MOL
REMARK 927      BINDING AFFINITY PREDICTED BY RF-SCORE:    0.00 PKD
ROOT
HETATM    1  C   UNL     1     -12.959  10.459  71.788  1.00  0.00    -0.475 C  
HETATM    2  O   UNL     1     -13.389  11.781  72.082  1.00  0.00    -0.497 OA 
ENDROOT
BRANCH   2   3
HETATM    3  C   UNL     1     -12.873  12.780  71.301  1.00  0.00    -0.262 A  
HETATM    4  C   UNL     1     -13.087  14.145  71.473  1.00  0.00    -0.424 A  
HETATM    5  C   UNL     1     -12.576  15.060  70.542  1.00  0.00    -0.420 A  
HETATM    6  C   UNL     1     -11.836  14.629  69.426  1.00  0.00    -0.368 A  
HETATM    7  C   UNL     1     -11.559  13.260  69.318  1.00  0.00    -0.370 A  
HETATM    8  C   UNL     1     -12.070  12.346  70.245  1.00  0.00    -0.377 A  
BRANCH   6   9
HETATM    9  C   UNL     1     -11.519  15.541  68.247  1.00  0.00    -0.353 C  
BRANCH   9  10
HETATM   10  N   UNL     1     -10.333  16.365  68.376  1.00  0.00    -0.268 NA 
BRANCH  10  11
HETATM   11  C   UNL     1     -10.342  17.641  67.838  1.00  0.00    -0.371 A  
HETATM   12  N   UNL     1     -10.515  17.787  66.511  1.00  0.00    -0.330 NA 
HETATM   13  N   UNL     1     -10.128  18.698  68.641  1.00  0.00    -0.379 NA 
HETATM   14  C   UNL     1     -10.419  19.024  65.991  1.00  0.00    -0.458 A  
HETATM   15  C   UNL     1     -10.130  20.138  66.733  1.00  0.00    -0.591 A  
HETATM   16  C   UNL     1      -9.998  19.912  68.076  1.00  0.00    -0.429 A  
ENDBRANCH  10  11
BRANCH  10  17
HETATM   17  C   UNL     1      -9.087  15.951  69.030  1.00  0.00    -0.240 C  
BRANCH  17  18
HETATM   18  C   UNL     1      -7.957  15.423  68.117  1.00  0.00    -0.131 C  
BRANCH  18  19
HETATM   19  N   UNL     1      -6.871  16.407  67.864  1.00  0.00    -0.131 NA 
HETATM   20  C   UNL     1      -6.824  17.485  68.857  1.00  0.00    -0.246 C  
HETATM   21  C   UNL     1      -7.013  16.990  66.527  1.00  0.00    -0.256 C  
ENDBRANCH  18  19
ENDBRANCH  17  18
ENDBRANCH  10  17
ENDBRANCH   9  10
ENDBRANCH   6   9
ENDBRANCH   2   3
TORSDOF 7
ENDMDL
MODEL       28
REMARK 921   NORMALIZED FREE ENERGY PREDICTED BY IDOCK:   -5.17 KCAL/MOL
REMARK 922        TOTAL FREE ENERGY PREDICTED BY IDOCK:   -8.13 KCAL/MOL
REMARK 923 INTER-LIGAND FREE ENERGY PREDICTED BY IDOCK:   -7.34 KCAL/MOL
REMARK 924 INTRA-LIGAND FREE ENERGY PREDICTED BY IDOCK:   -0.79 KCAL/MOL
REMARK 927      BINDING AFFINITY PREDICTED BY RF-SCORE:    0.00 PKD
ROOT
HETATM    1  C   UNL     1     -10.534  19.977  65.706  1.00  0.00    -0.364 C  
HETATM    2  O   UNL     1     -10.624  18.613  65.319  1.00  0.00    -0.482 OA 
ENDROOT
BRANCH   2   3
HETATM    3  C   UNL     1     -10.338  17.683  66.282  1.00  0.00    -0.342 A  
HETATM    4  C   UNL     1      -9.933  16.370  66.056  1.00  0.00    -0.369 A  
HETATM    5  C   UNL     1      -9.764  15.491  67.133  1.00  0.00    -0.226 A  
HETATM    6  C   UNL     1      -9.990  15.908  68.457  1.00  0.00    -0.216 A  
HETATM    7  C   UNL     1     -10.313  17.254  68.670  1.00  0.00    -0.357 A  
HETATM    8  C   UNL     1     -10.483  18.132  67.595  1.00  0.00    -0.432 A  
BRANCH   6   9
HETATM    9  C   UNL     1     -10.108  14.929  69.620  1.00  0.00    -0.053 C  
BRANCH   9  10
HETATM   10  N   UNL     1     -11.436  14.414  69.890  1.00  0.00    -0.267 NA 
BRANCH  10  11
HETATM   11  C   UNL     1     -12.102  14.842  71.027  1.00  0.00    -0.321 A  
HETATM   12  N   UNL     1     -13.395  14.507  71.189  1.00  0.00    -0.363 NA 
HETATM   13  N   UNL     1     -11.460  15.622  71.913  1.00  0.00    -0.423 NA 
HETATM   14  C   UNL     1     -14.055  15.016  72.245  1.00  0.00    -0.513 A  
HETATM   15  C   UNL     1     -13.491  15.875  73.149  1.00  0.00    -0.650 A  
HETATM   16  C   UNL     1     -12.166  16.144  72.933  1.00  0.00    -0.541 A  
ENDBRANCH  10  11
BRANCH  10  17
HETATM   17  C   UNL     1     -12.150  13.443  69.053  1.00  0.00    -0.259 C  
BRANCH  17  18
HETATM   18  C   UNL     1     -11.366  12.187  68.609  1.00  0.00    -0.280 C  
BRANCH  18  19
HETATM   19  N   UNL     1     -11.876  10.917  69.187  1.00  0.00    -0.323 NA 
HETATM   20  C   UNL     1     -12.536  11.095  70.485  1.00  0.00    -0.327 C  
HETATM   21  C   UNL     1     -10.785   9.948  69.330  1.00  0.00    -0.232 C  
ENDBRANCH  18  19
ENDBRANCH  17  18
ENDBRANCH  10  17
ENDBRANCH   9  10
ENDBRANCH   6   9
ENDBRANCH   2   3
TORSDOF 7
ENDMDL
MODEL       29
REMARK 921   NORMALIZED FREE ENERGY PREDICTED BY IDOCK:   -5.17 KCAL/MOL
REMARK 922        TOTAL FREE ENERGY PREDICTED BY IDOCK:   -8.13 KCAL/MOL
REMARK 923 INTER-LIGAND FREE ENERGY PREDICTED BY IDOCK:   -7.35 KCAL/MOL
REMARK 924 INTRA-LIGAND FREE ENERGY PREDICTED BY IDOCK:   -0.78 KCAL/MOL
REMARK 927      BINDING AFFINITY PREDICTED BY RF-SCORE:    0.00 PKD
ROOT
HETATM    1  C   UNL     1     -10.442  20.127  66.174  1.00  0.00    -0.339 C  
HETATM    2  O   UNL     1     -10.090  18.869  65.615  1.00  0.00    -0.466 OA 
ENDROOT
BRANCH   2   3
HETATM    3  C   UNL     1      -9.890  17.843  66.498  1.00  0.00    -0.343 A  
HETATM    4  C   UNL     1      -9.066  16.738  66.295  1.00  0.00    -0.320 A  
HETATM    5  C   UNL     1      -9.026  15.707  67.243  1.00  0.00    -0.214 A  
HETATM    6  C   UNL     1      -9.800  15.763  68.416  1.00  0.00    -0.206 A  
HETATM    7  C   UNL     1     -10.556  16.921  68.642  1.00  0.00    -0.360 A  
HETATM    8  C   UNL     1     -10.599  17.949  67.696  1.00  0.00    -0.398 A  
BRANCH   6   9
HETATM    9  C   UNL     1     -10.015  14.554  69.319  1.00  0.00    -0.038 C  
BRANCH   9  10
HETATM   10  N   UNL     1     -11.314  13.916  69.235  1.00  0.00    -0.263 NA 
BRANCH  10  11
HETATM   11  C   UNL     1     -12.190  14.038  70.302  1.00  0.00    -0.361 A  
HETATM   12  N   UNL     1     -12.489  12.944  71.027  1.00  0.00    -0.348 NA 
HETATM   13  N   UNL     1     -12.758  15.229  70.557  1.00  0.00    -0.395 NA 
HETATM   14  C   UNL     1     -13.418  13.058  71.993  1.00  0.00    -0.492 A  
HETATM   15  C   UNL     1     -14.093  14.218  72.263  1.00  0.00    -0.621 A  
HETATM   16  C   UNL     1     -13.712  15.292  71.504  1.00  0.00    -0.520 A  
ENDBRANCH  10  11
BRANCH  10  17
HETATM   17  C   UNL     1     -11.791  13.121  68.099  1.00  0.00    -0.348 C  
BRANCH  17  18
HETATM   18  C   UNL     1     -12.309  13.896  66.866  1.00  0.00    -0.292 C  
BRANCH  18  19
HETATM   19  N   UNL     1     -11.624  13.542  65.596  1.00  0.00    -0.317 NA 
HETATM   20  C   UNL     1     -12.499  12.861  64.636  1.00  0.00    -0.434 C  
HETATM   21  C   UNL     1     -10.456  12.699  65.864  1.00  0.00    -0.274 C  
ENDBRANCH  18  19
ENDBRANCH  17  18
ENDBRANCH  10  17
ENDBRANCH   9  10
ENDBRANCH   6   9
ENDBRANCH   2   3
TORSDOF 7
ENDMDL
MODEL       30
REMARK 921   NORMALIZED FREE ENERGY PREDICTED BY IDOCK:   -5.17 KCAL/MOL
REMARK 922        TOTAL FREE ENERGY PREDICTED BY IDOCK:   -8.13 KCAL/MOL
REMARK 923 INTER-LIGAND FREE ENERGY PREDICTED BY IDOCK:   -7.35 KCAL/MOL
REMARK 924 INTRA-LIGAND FREE ENERGY PREDICTED BY IDOCK:   -0.78 KCAL/MOL
REMARK 927      BINDING AFFINITY PREDICTED BY RF-SCORE:    0.00 PKD
ROOT
HETATM    1  C   UNL     1     -13.048  10.762  71.681  1.00  0.00    -0.446 C  
HETATM    2  O   UNL     1     -13.172  12.107  72.121  1.00  0.00    -0.499 OA 
ENDROOT
BRANCH   2   3
HETATM    3  C   UNL     1     -12.710  13.074  71.270  1.00  0.00    -0.293 A  
HETATM    4  C   UNL     1     -12.785  14.450  71.477  1.00  0.00    -0.417 A  
HETATM    5  C   UNL     1     -12.360  15.335  70.478  1.00  0.00    -0.434 A  
HETATM    6  C   UNL     1     -11.844  14.865  69.257  1.00  0.00    -0.350 A  
HETATM    7  C   UNL     1     -11.696  13.480  69.103  1.00  0.00    -0.374 A  
HETATM    8  C   UNL     1     -12.123  12.595  70.098  1.00  0.00    -0.368 A  
BRANCH   6   9
HETATM    9  C   UNL     1     -11.648  15.766  68.044  1.00  0.00    -0.210 C  
BRANCH   9  10
HETATM   10  N   UNL     1     -10.286  15.914  67.569  1.00  0.00    -0.277 NA 
BRANCH  10  11
HETATM   11  C   UNL     1      -9.548  17.012  67.982  1.00  0.00    -0.260 A  
HETATM   12  N   UNL     1     -10.193  18.151  68.292  1.00  0.00    -0.376 NA 
HETATM   13  N   UNL     1      -8.207  16.931  68.013  1.00  0.00    -0.197 NA 
HETATM   14  C   UNL     1      -9.457  19.236  68.591  1.00  0.00    -0.405 A  
HETATM   15  C   UNL     1      -8.089  19.252  68.572  1.00  0.00    -0.401 A  
HETATM   16  C   UNL     1      -7.506  18.049  68.276  1.00  0.00    -0.266 A  
ENDBRANCH  10  11
BRANCH  10  17
HETATM   17  C   UNL     1      -9.607  14.988  66.656  1.00  0.00    -0.263 C  
BRANCH  17  18
HETATM   18  C   UNL     1     -10.334  14.645  65.336  1.00  0.00    -0.383 C  
BRANCH  18  19
HETATM   19  N   UNL     1     -10.987  13.310  65.332  1.00  0.00    -0.281 NA 
HETATM   20  C   UNL     1     -10.519  12.439  64.249  1.00  0.00    -0.363 C  
HETATM   21  C   UNL     1     -12.443  13.455  65.237  1.00  0.00    -0.483 C  
ENDBRANCH  18  19
ENDBRANCH  17  18
ENDBRANCH  10  17
ENDBRANCH   9  10
ENDBRANCH   6   9
ENDBRANCH   2   3
TORSDOF 7
ENDMDL
MODEL       31
REMARK 921   NORMALIZED FREE ENERGY PREDICTED BY IDOCK:   -5.15 KCAL/MOL
REMARK 922        TOTAL FREE ENERGY PREDICTED BY IDOCK:   -8.11 KCAL/MOL
REMARK 923 INTER-LIGAND FREE ENERGY PREDICTED BY IDOCK:   -7.33 KCAL/MOL
REMARK 924 INTRA-LIGAND FREE ENERGY PREDICTED BY IDOCK:   -0.78 KCAL/MOL
REMARK 927      BINDING AFFINITY PREDICTED BY RF-SCORE:    0.00 PKD
ROOT
HETATM    1  C   UNL     1     -10.458  19.233  66.360  1.00  0.00    -0.474 C  
HETATM    2  O   UNL     1     -10.622  18.600  67.622  1.00  0.00    -0.407 OA 
ENDROOT
BRANCH   2   3
HETATM    3  C   UNL     1     -10.554  17.233  67.634  1.00  0.00    -0.350 A  
HETATM    4  C   UNL     1     -11.250  16.388  68.495  1.00  0.00    -0.334 A  
HETATM    5  C   UNL     1     -11.016  15.007  68.465  1.00  0.00    -0.259 A  
HETATM    6  C   UNL     1     -10.088  14.443  67.570  1.00  0.00    -0.232 A  
HETATM    7  C   UNL     1      -9.463  15.299  66.655  1.00  0.00    -0.281 A  
HETATM    8  C   UNL     1      -9.694  16.678  66.686  1.00  0.00    -0.280 A  
BRANCH   6   9
HETATM    9  C   UNL     1      -9.588  13.009  67.699  1.00  0.00    -0.206 C  
BRANCH   9  10
HETATM   10  N   UNL     1     -10.502  11.971  67.266  1.00  0.00    -0.215 NA 
BRANCH  10  11
HETATM   11  C   UNL     1     -10.985  12.002  65.968  1.00  0.00    -0.304 A  
HETATM   12  N   UNL     1     -10.165  11.651  64.959  1.00  0.00    -0.263 NA 
HETATM   13  N   UNL     1     -12.238  12.430  65.740  1.00  0.00    -0.638 NA 
HETATM   14  C   UNL     1     -10.616  11.786  63.699  1.00  0.00    -0.439 A  
HETATM   15  C   UNL     1     -11.852  12.283  63.386  1.00  0.00    -0.563 A  
HETATM   16  C   UNL     1     -12.637  12.589  64.465  1.00  0.00    -0.421 A  
ENDBRANCH  10  11
BRANCH  10  17
HETATM   17  C   UNL     1     -10.985  10.869  68.106  1.00  0.00    -0.249 C  
BRANCH  17  18
HETATM   18  C   UNL     1     -11.974  11.230  69.238  1.00  0.00    -0.342 C  
BRANCH  18  19
HETATM   19  N   UNL     1     -11.562  10.745  70.581  1.00  0.00    -0.327 NA 
HETATM   20  C   UNL     1     -10.601   9.639  70.527  1.00  0.00    -0.306 C  
HETATM   21  C   UNL     1     -12.736  10.325  71.353  1.00  0.00    -0.442 C  
ENDBRANCH  18  19
ENDBRANCH  17  18
ENDBRANCH  10  17
ENDBRANCH   9  10
ENDBRANCH   6   9
ENDBRANCH   2   3
TORSDOF 7
ENDMDL
MODEL       32
REMARK 921   NORMALIZED FREE ENERGY PREDICTED BY IDOCK:   -5.14 KCAL/MOL
REMARK 922        TOTAL FREE ENERGY PREDICTED BY IDOCK:   -8.09 KCAL/MOL
REMARK 923 INTER-LIGAND FREE ENERGY PREDICTED BY IDOCK:   -7.51 KCAL/MOL
REMARK 924 INTRA-LIGAND FREE ENERGY PREDICTED BY IDOCK:   -0.58 KCAL/MOL
REMARK 927      BINDING AFFINITY PREDICTED BY RF-SCORE:    0.00 PKD
ROOT
HETATM    1  C   UNL     1     -13.765  15.444  72.895  1.00  0.00    -0.474 C  
HETATM    2  O   UNL     1     -13.755  14.030  72.758  1.00  0.00    -0.660 OA 
ENDROOT
BRANCH   2   3
HETATM    3  C   UNL     1     -13.108  13.527  71.662  1.00  0.00    -0.374 A  
HETATM    4  C   UNL     1     -12.756  12.195  71.460  1.00  0.00    -0.348 A  
HETATM    5  C   UNL     1     -12.008  11.827  70.334  1.00  0.00    -0.422 A  
HETATM    6  C   UNL     1     -11.604  12.782  69.384  1.00  0.00    -0.361 A  
HETATM    7  C   UNL     1     -12.040  14.102  69.559  1.00  0.00    -0.388 A  
HETATM    8  C   UNL     1     -12.785  14.469  70.684  1.00  0.00    -0.421 A  
BRANCH   6   9
HETATM    9  C   UNL     1     -10.555  12.489  68.317  1.00  0.00    -0.231 C  
BRANCH   9  10
HETATM   10  N   UNL     1     -10.931  11.529  67.298  1.00  0.00    -0.255 NA 
BRANCH  10  11
HETATM   11  C   UNL     1     -11.271  11.990  66.036  1.00  0.00    -0.335 A  
HETATM   12  N   UNL     1     -10.470  11.692  64.996  1.00  0.00    -0.273 NA 
HETATM   13  N   UNL     1     -12.359  12.764  65.887  1.00  0.00    -0.576 NA 
HETATM   14  C   UNL     1     -10.757  12.232  63.798  1.00  0.00    -0.449 A  
HETATM   15  C   UNL     1     -11.804  13.087  63.584  1.00  0.00    -0.580 A  
HETATM   16  C   UNL     1     -12.588  13.318  64.682  1.00  0.00    -0.293 A  
ENDBRANCH  10  11
BRANCH  10  17
HETATM   17  C   UNL     1     -11.001  10.077  67.492  1.00  0.00    -0.212 C  
BRANCH  17  18
HETATM   18  C   UNL     1      -9.695   9.360  67.907  1.00  0.00    -0.152 C  
BRANCH  18  19
HETATM   19  N   UNL     1      -9.893   7.966  68.383  1.00  0.00    -0.168 NA 
HETATM   20  C   UNL     1     -10.588   7.115  67.412  1.00  0.00    -0.302 C  
HETATM   21  C   UNL     1     -10.637   7.961  69.647  1.00  0.00    -0.234 C  
ENDBRANCH  18  19
ENDBRANCH  17  18
ENDBRANCH  10  17
ENDBRANCH   9  10
ENDBRANCH   6   9
ENDBRANCH   2   3
TORSDOF 7
ENDMDL
MODEL       33
REMARK 921   NORMALIZED FREE ENERGY PREDICTED BY IDOCK:   -5.13 KCAL/MOL
REMARK 922        TOTAL FREE ENERGY PREDICTED BY IDOCK:   -8.08 KCAL/MOL
REMARK 923 INTER-LIGAND FREE ENERGY PREDICTED BY IDOCK:   -7.35 KCAL/MOL
REMARK 924 INTRA-LIGAND FREE ENERGY PREDICTED BY IDOCK:   -0.73 KCAL/MOL
REMARK 927      BINDING AFFINITY PREDICTED BY RF-SCORE:    0.00 PKD
ROOT
HETATM    1  C   UNL     1      -9.241   9.538  65.600  1.00  0.00    -0.223 C  
HETATM    2  O   UNL     1     -10.324   9.450  66.516  1.00  0.00    -0.251 OA 
ENDROOT
BRANCH   2   3
HETATM    3  C   UNL     1     -10.731  10.622  67.094  1.00  0.00    -0.272 A  
HETATM    4  C   UNL     1     -11.292  10.756  68.362  1.00  0.00    -0.367 A  
HETATM    5  C   UNL     1     -11.756  12.005  68.797  1.00  0.00    -0.377 A  
HETATM    6  C   UNL     1     -11.663  13.144  67.978  1.00  0.00    -0.394 A  
HETATM    7  C   UNL     1     -11.019  13.006  66.741  1.00  0.00    -0.299 A  
HETATM    8  C   UNL     1     -10.557  11.760  66.306  1.00  0.00    -0.292 A  
BRANCH   6   9
HETATM    9  C   UNL     1     -12.409  14.438  68.280  1.00  0.00     0.020 C  
BRANCH   9  10
HETATM   10  N   UNL     1     -11.789  15.322  69.248  1.00  0.00    -0.328 NA 
BRANCH  10  11
HETATM   11  C   UNL     1     -12.292  15.360  70.539  1.00  0.00    -0.408 A  
HETATM   12  N   UNL     1     -11.710  16.173  71.440  1.00  0.00    -0.459 NA 
HETATM   13  N   UNL     1     -13.311  14.551  70.874  1.00  0.00    -0.330 NA 
HETATM   14  C   UNL     1     -12.143  16.122  72.713  1.00  0.00    -0.553 A  
HETATM   15  C   UNL     1     -13.125  15.271  73.145  1.00  0.00    -0.627 A  
HETATM   16  C   UNL     1     -13.687  14.499  72.165  1.00  0.00    -0.450 A  
ENDBRANCH  10  11
BRANCH  10  17
HETATM   17  C   UNL     1     -10.659  16.215  68.971  1.00  0.00    -0.273 C  
BRANCH  17  18
HETATM   18  C   UNL     1     -10.479  16.689  67.511  1.00  0.00    -0.317 C  
BRANCH  18  19
HETATM   19  N   UNL     1      -9.926  18.062  67.382  1.00  0.00    -0.313 NA 
HETATM   20  C   UNL     1     -10.135  18.885  68.578  1.00  0.00    -0.402 C  
HETATM   21  C   UNL     1     -10.513  18.741  66.223  1.00  0.00    -0.435 C  
ENDBRANCH  18  19
ENDBRANCH  17  18
ENDBRANCH  10  17
ENDBRANCH   9  10
ENDBRANCH   6   9
ENDBRANCH   2   3
TORSDOF 7
ENDMDL
MODEL       34
REMARK 921   NORMALIZED FREE ENERGY PREDICTED BY IDOCK:   -5.10 KCAL/MOL
REMARK 922        TOTAL FREE ENERGY PREDICTED BY IDOCK:   -8.03 KCAL/MOL
REMARK 923 INTER-LIGAND FREE ENERGY PREDICTED BY IDOCK:   -7.32 KCAL/MOL
REMARK 924 INTRA-LIGAND FREE ENERGY PREDICTED BY IDOCK:   -0.71 KCAL/MOL
REMARK 927      BINDING AFFINITY PREDICTED BY RF-SCORE:    0.00 PKD
ROOT
HETATM    1  C   UNL     1     -10.682  19.078  67.360  1.00  0.00    -0.473 C  
HETATM    2  O   UNL     1     -10.625  18.066  66.364  1.00  0.00    -0.339 OA 
ENDROOT
BRANCH   2   3
HETATM    3  C   UNL     1     -10.255  16.817  66.783  1.00  0.00    -0.304 A  
HETATM    4  C   UNL     1      -9.318  15.992  66.164  1.00  0.00    -0.377 A  
HETATM    5  C   UNL     1      -9.101  14.693  66.642  1.00  0.00    -0.285 A  
HETATM    6  C   UNL     1      -9.809  14.195  67.751  1.00  0.00    -0.231 A  
HETATM    7  C   UNL     1     -10.683  15.069  68.411  1.00  0.00    -0.245 A  
HETATM    8  C   UNL     1     -10.902  16.365  67.933  1.00  0.00    -0.328 A  
BRANCH   6   9
HETATM    9  C   UNL     1      -9.826  12.717  68.120  1.00  0.00    -0.226 C  
BRANCH   9  10
HETATM   10  N   UNL     1     -10.980  11.960  67.677  1.00  0.00    -0.222 NA 
BRANCH  10  11
HETATM   11  C   UNL     1     -11.241  11.869  66.319  1.00  0.00    -0.337 A  
HETATM   12  N   UNL     1     -10.365  11.219  65.530  1.00  0.00    -0.257 NA 
HETATM   13  N   UNL     1     -12.331  12.472  65.814  1.00  0.00    -0.626 NA 
HETATM   14  C   UNL     1     -10.579  11.228  64.202  1.00  0.00    -0.373 A  
HETATM   15  C   UNL     1     -11.625  11.882  63.608  1.00  0.00    -0.559 A  
HETATM   16  C   UNL     1     -12.487  12.493  64.478  1.00  0.00    -0.459 A  
ENDBRANCH  10  11
BRANCH  10  17
HETATM   17  C   UNL     1     -11.931  11.278  68.562  1.00  0.00    -0.218 C  
BRANCH  17  18
HETATM   18  C   UNL     1     -11.636  11.322  70.078  1.00  0.00    -0.321 C  
BRANCH  18  19
HETATM   19  N   UNL     1     -12.130  10.138  70.828  1.00  0.00    -0.318 NA 
HETATM   20  C   UNL     1     -13.157  10.470  71.822  1.00  0.00    -0.464 C  
HETATM   21  C   UNL     1     -11.017   9.456  71.495  1.00  0.00    -0.359 C  
ENDBRANCH  18  19
ENDBRANCH  17  18
ENDBRANCH  10  17
ENDBRANCH   9  10
ENDBRANCH   6   9
ENDBRANCH   2   3
TORSDOF 7
ENDMDL
MODEL       35
REMARK 921   NORMALIZED FREE ENERGY PREDICTED BY IDOCK:   -5.10 KCAL/MOL
REMARK 922        TOTAL FREE ENERGY PREDICTED BY IDOCK:   -8.03 KCAL/MOL
REMARK 923 INTER-LIGAND FREE ENERGY PREDICTED BY IDOCK:   -7.40 KCAL/MOL
REMARK 924 INTRA-LIGAND FREE ENERGY PREDICTED BY IDOCK:   -0.63 KCAL/MOL
REMARK 927      BINDING AFFINITY PREDICTED BY RF-SCORE:    0.00 PKD
ROOT
HETATM    1  C   UNL     1      -7.773  19.356  66.063  1.00  0.00    -0.296 C  
HETATM    2  O   UNL     1      -9.172  19.111  66.037  1.00  0.00    -0.440 OA 
ENDROOT
BRANCH   2   3
HETATM    3  C   UNL     1      -9.602  17.958  66.636  1.00  0.00    -0.309 A  
HETATM    4  C   UNL     1     -10.513  17.873  67.686  1.00  0.00    -0.406 A  
HETATM    5  C   UNL     1     -10.795  16.632  68.273  1.00  0.00    -0.356 A  
HETATM    6  C   UNL     1     -10.179  15.452  67.818  1.00  0.00    -0.241 A  
HETATM    7  C   UNL     1      -9.333  15.547  66.706  1.00  0.00    -0.267 A  
HETATM    8  C   UNL     1      -9.049  16.785  66.121  1.00  0.00    -0.288 A  
BRANCH   6   9
HETATM    9  C   UNL     1     -10.224  14.146  68.601  1.00  0.00    -0.238 C  
BRANCH   9  10
HETATM   10  N   UNL     1     -11.346  13.271  68.322  1.00  0.00    -0.280 NA 
BRANCH  10  11
HETATM   11  C   UNL     1     -11.590  12.203  69.170  1.00  0.00    -0.319 A  
HETATM   12  N   UNL     1     -12.404  12.383  70.226  1.00  0.00    -0.239 NA 
HETATM   13  N   UNL     1     -10.971  11.030  68.950  1.00  0.00    -0.208 NA 
HETATM   14  C   UNL     1     -12.549  11.367  71.097  1.00  0.00    -0.386 A  
HETATM   15  C   UNL     1     -11.895  10.171  70.980  1.00  0.00    -0.475 A  
HETATM   16  C   UNL     1     -11.109  10.054  69.865  1.00  0.00    -0.288 A  
ENDBRANCH  10  11
BRANCH  10  17
HETATM   17  C   UNL     1     -12.260  13.410  67.183  1.00  0.00    -0.256 C  
BRANCH  17  18
HETATM   18  C   UNL     1     -11.923  12.603  65.909  1.00  0.00    -0.438 C  
BRANCH  18  19
HETATM   19  N   UNL     1     -12.675  13.033  64.701  1.00  0.00    -0.709 NA 
HETATM   20  C   UNL     1     -12.453  12.165  63.541  1.00  0.00    -0.555 C  
HETATM   21  C   UNL     1     -12.323  14.411  64.346  1.00  0.00    -0.403 C  
ENDBRANCH  18  19
ENDBRANCH  17  18
ENDBRANCH  10  17
ENDBRANCH   9  10
ENDBRANCH   6   9
ENDBRANCH   2   3
TORSDOF 7
ENDMDL
MODEL       36
REMARK 921   NORMALIZED FREE ENERGY PREDICTED BY IDOCK:   -5.09 KCAL/MOL
REMARK 922        TOTAL FREE ENERGY PREDICTED BY IDOCK:   -8.02 KCAL/MOL
REMARK 923 INTER-LIGAND FREE ENERGY PREDICTED BY IDOCK:   -7.30 KCAL/MOL
REMARK 924 INTRA-LIGAND FREE ENERGY PREDICTED BY IDOCK:   -0.72 KCAL/MOL
REMARK 927      BINDING AFFINITY PREDICTED BY RF-SCORE:    0.00 PKD
ROOT
HETATM    1  C   UNL     1     -12.410  15.509  73.475  1.00  0.00    -0.547 C  
HETATM    2  O   UNL     1     -12.498  14.317  72.705  1.00  0.00    -0.238 OA 
ENDROOT
BRANCH   2   3
HETATM    3  C   UNL     1     -12.212  14.429  71.371  1.00  0.00    -0.352 A  
HETATM    4  C   UNL     1     -11.949  15.615  70.689  1.00  0.00    -0.438 A  
HETATM    5  C   UNL     1     -11.765  15.600  69.300  1.00  0.00    -0.388 A  
HETATM    6  C   UNL     1     -11.832  14.402  68.567  1.00  0.00    -0.369 A  
HETATM    7  C   UNL     1     -12.012  13.210  69.283  1.00  0.00    -0.344 A  
HETATM    8  C   UNL     1     -12.198  13.224  70.668  1.00  0.00    -0.417 A  
BRANCH   6   9
HETATM    9  C   UNL     1     -11.933  14.371  67.047  1.00  0.00    -0.395 C  
BRANCH   9  10
HETATM   10  N   UNL     1     -10.679  14.308  66.323  1.00  0.00    -0.293 NA 
BRANCH  10  11
HETATM   11  C   UNL     1     -10.366  13.154  65.623  1.00  0.00    -0.284 A  
HETATM   12  N   UNL     1      -9.781  12.134  66.277  1.00  0.00    -0.234 NA 
HETATM   13  N   UNL     1     -10.607  13.098  64.302  1.00  0.00    -0.421 NA 
HETATM   14  C   UNL     1      -9.391  11.062  65.563  1.00  0.00    -0.215 A  
HETATM   15  C   UNL     1      -9.535  10.964  64.205  1.00  0.00    -0.289 A  
HETATM   16  C   UNL     1     -10.165  12.027  63.617  1.00  0.00    -0.444 A  
ENDBRANCH  10  11
BRANCH  10  17
HETATM   17  C   UNL     1      -9.678  15.379  66.277  1.00  0.00    -0.299 C  
BRANCH  17  18
HETATM   18  C   UNL     1     -10.201  16.821  66.086  1.00  0.00    -0.351 C  
BRANCH  18  19
HETATM   19  N   UNL     1      -9.610  17.810  67.025  1.00  0.00    -0.275 NA 
HETATM   20  C   UNL     1     -10.418  19.025  67.171  1.00  0.00    -0.441 C  
HETATM   21  C   UNL     1      -8.259  18.181  66.591  1.00  0.00    -0.262 C  
ENDBRANCH  18  19
ENDBRANCH  17  18
ENDBRANCH  10  17
ENDBRANCH   9  10
ENDBRANCH   6   9
ENDBRANCH   2   3
TORSDOF 7
ENDMDL
MODEL       37
REMARK 921   NORMALIZED FREE ENERGY PREDICTED BY IDOCK:   -5.08 KCAL/MOL
REMARK 922        TOTAL FREE ENERGY PREDICTED BY IDOCK:   -8.01 KCAL/MOL
REMARK 923 INTER-LIGAND FREE ENERGY PREDICTED BY IDOCK:   -7.30 KCAL/MOL
REMARK 924 INTRA-LIGAND FREE ENERGY PREDICTED BY IDOCK:   -0.70 KCAL/MOL
REMARK 927      BINDING AFFINITY PREDICTED BY RF-SCORE:    0.00 PKD
ROOT
HETATM    1  C   UNL     1     -12.773   8.743  72.045  1.00  0.00    -0.387 C  
HETATM    2  O   UNL     1     -13.408   9.994  72.270  1.00  0.00    -0.429 OA 
ENDROOT
BRANCH   2   3
HETATM    3  C   UNL     1     -12.915  11.064  71.574  1.00  0.00    -0.448 A  
HETATM    4  C   UNL     1     -13.012  12.401  71.953  1.00  0.00    -0.407 A  
HETATM    5  C   UNL     1     -12.548  13.409  71.098  1.00  0.00    -0.430 A  
HETATM    6  C   UNL     1     -11.972  13.102  69.852  1.00  0.00    -0.387 A  
HETATM    7  C   UNL     1     -11.806  11.750  69.527  1.00  0.00    -0.402 A  
HETATM    8  C   UNL     1     -12.271  10.742  70.378  1.00  0.00    -0.437 A  
BRANCH   6   9
HETATM    9  C   UNL     1     -11.728  14.154  68.777  1.00  0.00    -0.345 C  
BRANCH   9  10
HETATM   10  N   UNL     1     -10.639  13.889  67.857  1.00  0.00    -0.242 NA 
BRANCH  10  11
HETATM   11  C   UNL     1      -9.339  13.897  68.337  1.00  0.00    -0.201 A  
HETATM   12  N   UNL     1      -8.893  14.987  68.989  1.00  0.00    -0.206 NA 
HETATM   13  N   UNL     1      -8.540  12.843  68.098  1.00  0.00    -0.184 NA 
HETATM   14  C   UNL     1      -7.600  15.021  69.358  1.00  0.00    -0.195 A  
HETATM   15  C   UNL     1      -6.708  14.019  69.085  1.00  0.00    -0.112 A  
HETATM   16  C   UNL     1      -7.244  12.933  68.447  1.00  0.00    -0.113 A  
ENDBRANCH  10  11
BRANCH  10  17
HETATM   17  C   UNL     1     -10.793  13.619  66.424  1.00  0.00    -0.290 C  
BRANCH  17  18
HETATM   18  C   UNL     1     -12.022  12.785  65.994  1.00  0.00    -0.432 C  
BRANCH  18  19
HETATM   19  N   UNL     1     -12.638  13.226  64.716  1.00  0.00    -0.641 NA 
HETATM   20  C   UNL     1     -12.275  12.379  63.575  1.00  0.00    -0.563 C  
HETATM   21  C   UNL     1     -12.265  14.613  64.423  1.00  0.00    -0.452 C  
ENDBRANCH  18  19
ENDBRANCH  17  18
ENDBRANCH  10  17
ENDBRANCH   9  10
ENDBRANCH   6   9
ENDBRANCH   2   3
TORSDOF 7
ENDMDL
MODEL       38
REMARK 921   NORMALIZED FREE ENERGY PREDICTED BY IDOCK:   -5.07 KCAL/MOL
REMARK 922        TOTAL FREE ENERGY PREDICTED BY IDOCK:   -7.99 KCAL/MOL
REMARK 923 INTER-LIGAND FREE ENERGY PREDICTED BY IDOCK:   -7.27 KCAL/MOL
REMARK 924 INTRA-LIGAND FREE ENERGY PREDICTED BY IDOCK:   -0.72 KCAL/MOL
REMARK 927      BINDING AFFINITY PREDICTED BY RF-SCORE:    0.00 PKD
ROOT
HETATM    1  C   UNL     1      -8.988  10.006  63.781  1.00  0.00    -0.247 C  
HETATM    2  O   UNL     1     -10.082  10.723  63.225  1.00  0.00    -0.325 OA 
ENDROOT
BRANCH   2   3
HETATM    3  C   UNL     1     -10.772  11.542  64.078  1.00  0.00    -0.384 A  
HETATM    4  C   UNL     1     -11.716  12.497  63.708  1.00  0.00    -0.564 A  
HETATM    5  C   UNL     1     -12.281  13.338  64.676  1.00  0.00    -0.460 A  
HETATM    6  C   UNL     1     -11.921  13.236  66.032  1.00  0.00    -0.473 A  
HETATM    7  C   UNL     1     -11.036  12.213  66.395  1.00  0.00    -0.327 A  
HETATM    8  C   UNL     1     -10.469  11.375  65.430  1.00  0.00    -0.336 A  
BRANCH   6   9
HETATM    9  C   UNL     1     -12.276  14.303  67.060  1.00  0.00    -0.303 C  
BRANCH   9  10
HETATM   10  N   UNL     1     -11.190  14.770  67.899  1.00  0.00    -0.293 NA 
BRANCH  10  11
HETATM   11  C   UNL     1     -10.188  15.540  67.331  1.00  0.00    -0.255 A  
HETATM   12  N   UNL     1      -8.958  15.011  67.195  1.00  0.00    -0.205 NA 
HETATM   13  N   UNL     1     -10.452  16.810  66.977  1.00  0.00    -0.308 NA 
HETATM   14  C   UNL     1      -7.973  15.805  66.737  1.00  0.00    -0.238 A  
HETATM   15  C   UNL     1      -8.147  17.126  66.426  1.00  0.00    -0.337 A  
HETATM   16  C   UNL     1      -9.431  17.582  66.562  1.00  0.00    -0.272 A  
ENDBRANCH  10  11
BRANCH  10  17
HETATM   17  C   UNL     1     -11.045  14.480  69.329  1.00  0.00    -0.270 C  
BRANCH  17  18
HETATM   18  C   UNL     1     -10.997  15.690  70.290  1.00  0.00    -0.348 C  
BRANCH  18  19
HETATM   19  N   UNL     1     -12.253  15.909  71.054  1.00  0.00    -0.408 NA 
HETATM   20  C   UNL     1     -12.023  16.267  72.457  1.00  0.00    -0.554 C  
HETATM   21  C   UNL     1     -13.100  14.714  70.995  1.00  0.00    -0.367 C  
ENDBRANCH  18  19
ENDBRANCH  17  18
ENDBRANCH  10  17
ENDBRANCH   9  10
ENDBRANCH   6   9
ENDBRANCH   2   3
TORSDOF 7
ENDMDL
MODEL       39
REMARK 921   NORMALIZED FREE ENERGY PREDICTED BY IDOCK:   -5.06 KCAL/MOL
REMARK 922        TOTAL FREE ENERGY PREDICTED BY IDOCK:   -7.98 KCAL/MOL
REMARK 923 INTER-LIGAND FREE ENERGY PREDICTED BY IDOCK:   -7.47 KCAL/MOL
REMARK 924 INTRA-LIGAND FREE ENERGY PREDICTED BY IDOCK:   -0.51 KCAL/MOL
REMARK 927      BINDING AFFINITY PREDICTED BY RF-SCORE:    0.00 PKD
ROOT
HETATM    1  C   UNL     1     -13.379  15.112  73.071  1.00  0.00    -0.484 C  
HETATM    2  O   UNL     1     -13.713  13.759  72.792  1.00  0.00    -0.699 OA 
ENDROOT
BRANCH   2   3
HETATM    3  C   UNL     1     -13.046  13.168  71.753  1.00  0.00    -0.383 A  
HETATM    4  C   UNL     1     -12.404  13.832  70.710  1.00  0.00    -0.451 A  
HETATM    5  C   UNL     1     -11.840  13.103  69.654  1.00  0.00    -0.390 A  
HETATM    6  C   UNL     1     -11.899  11.698  69.623  1.00  0.00    -0.419 A  
HETATM    7  C   UNL     1     -12.473  11.046  70.723  1.00  0.00    -0.491 A  
HETATM    8  C   UNL     1     -13.038  11.773  71.776  1.00  0.00    -0.480 A  
BRANCH   6   9
HETATM    9  C   UNL     1     -11.570  10.888  68.375  1.00  0.00    -0.276 C  
BRANCH   9  10
HETATM   10  N   UNL     1     -10.541  11.432  67.512  1.00  0.00    -0.204 NA 
BRANCH  10  11
HETATM   11  C   UNL     1     -10.911  12.282  66.482  1.00  0.00    -0.259 A  
HETATM   12  N   UNL     1     -10.021  13.187  66.033  1.00  0.00    -0.282 NA 
HETATM   13  N   UNL     1     -12.160  12.219  65.991  1.00  0.00    -0.630 NA 
HETATM   14  C   UNL     1     -10.429  14.071  65.105  1.00  0.00    -0.397 A  
HETATM   15  C   UNL     1     -11.704  14.117  64.611  1.00  0.00    -0.427 A  
HETATM   16  C   UNL     1     -12.541  13.147  65.094  1.00  0.00    -0.465 A  
ENDBRANCH  10  11
BRANCH  10  17
HETATM   17  C   UNL     1      -9.107  11.144  67.625  1.00  0.00    -0.147 C  
BRANCH  17  18
HETATM   18  C   UNL     1      -8.700   9.665  67.817  1.00  0.00    -0.122 C  
BRANCH  18  19
HETATM   19  N   UNL     1      -8.892   9.157  69.200  1.00  0.00    -0.143 NA 
HETATM   20  C   UNL     1      -7.984   9.772  70.174  1.00  0.00    -0.186 C  
HETATM   21  C   UNL     1      -8.722   7.702  69.236  1.00  0.00    -0.136 C  
ENDBRANCH  18  19
ENDBRANCH  17  18
ENDBRANCH  10  17
ENDBRANCH   9  10
ENDBRANCH   6   9
ENDBRANCH   2   3
TORSDOF 7
ENDMDL
MODEL       40
REMARK 921   NORMALIZED FREE ENERGY PREDICTED BY IDOCK:   -5.05 KCAL/MOL
REMARK 922        TOTAL FREE ENERGY PREDICTED BY IDOCK:   -7.97 KCAL/MOL
REMARK 923 INTER-LIGAND FREE ENERGY PREDICTED BY IDOCK:   -7.20 KCAL/MOL
REMARK 924 INTRA-LIGAND FREE ENERGY PREDICTED BY IDOCK:   -0.76 KCAL/MOL
REMARK 927      BINDING AFFINITY PREDICTED BY RF-SCORE:    0.00 PKD
ROOT
HETATM    1  C   UNL     1      -7.351  20.709  67.255  1.00  0.00    -0.344 C  
HETATM    2  O   UNL     1      -8.746  20.473  67.120  1.00  0.00    -0.336 OA 
ENDROOT
BRANCH   2   3
HETATM    3  C   UNL     1      -9.176  19.196  67.359  1.00  0.00    -0.298 A  
HETATM    4  C   UNL     1     -10.438  18.832  67.824  1.00  0.00    -0.479 A  
HETATM    5  C   UNL     1     -10.719  17.492  68.120  1.00  0.00    -0.330 A  
HETATM    6  C   UNL     1      -9.748  16.488  67.951  1.00  0.00    -0.236 A  
HETATM    7  C   UNL     1      -8.514  16.862  67.402  1.00  0.00    -0.204 A  
HETATM    8  C   UNL     1      -8.232  18.200  67.108  1.00  0.00    -0.237 A  
BRANCH   6   9
HETATM    9  C   UNL     1      -9.903  15.087  68.529  1.00  0.00    -0.217 C  
BRANCH   9  10
HETATM   10  N   UNL     1     -11.104  14.368  68.150  1.00  0.00    -0.255 NA 
BRANCH  10  11
HETATM   11  C   UNL     1     -11.191  13.837  66.873  1.00  0.00    -0.313 A  
HETATM   12  N   UNL     1     -12.376  13.867  66.236  1.00  0.00    -0.460 NA 
HETATM   13  N   UNL     1     -10.109  13.260  66.323  1.00  0.00    -0.288 NA 
HETATM   14  C   UNL     1     -12.469  13.256  65.041  1.00  0.00    -0.443 A  
HETATM   15  C   UNL     1     -11.432  12.585  64.450  1.00  0.00    -0.406 A  
HETATM   16  C   UNL     1     -10.254  12.625  65.146  1.00  0.00    -0.280 A  
ENDBRANCH  10  11
BRANCH  10  17
HETATM   17  C   UNL     1     -12.270  14.160  69.015  1.00  0.00    -0.239 C  
BRANCH  17  18
HETATM   18  C   UNL     1     -12.059  14.342  70.536  1.00  0.00    -0.334 C  
BRANCH  18  19
HETATM   19  N   UNL     1     -12.720  15.547  71.100  1.00  0.00    -0.435 NA 
HETATM   20  C   UNL     1     -12.019  16.102  72.263  1.00  0.00    -0.546 C  
HETATM   21  C   UNL     1     -14.104  15.240  71.476  1.00  0.00    -0.524 C  
ENDBRANCH  18  19
ENDBRANCH  17  18
ENDBRANCH  10  17
ENDBRANCH   9  10
ENDBRANCH   6   9
ENDBRANCH   2   3
TORSDOF 7
ENDMDL
MODEL       41
REMARK 921   NORMALIZED FREE ENERGY PREDICTED BY IDOCK:   -5.05 KCAL/MOL
REMARK 922        TOTAL FREE ENERGY PREDICTED BY IDOCK:   -7.96 KCAL/MOL
REMARK 923 INTER-LIGAND FREE ENERGY PREDICTED BY IDOCK:   -7.29 KCAL/MOL
REMARK 924 INTRA-LIGAND FREE ENERGY PREDICTED BY IDOCK:   -0.68 KCAL/MOL
REMARK 927      BINDING AFFINITY PREDICTED BY RF-SCORE:    0.00 PKD
ROOT
HETATM    1  C   UNL     1     -14.012  15.493  72.725  1.00  0.00    -0.459 C  
HETATM    2  O   UNL     1     -13.838  14.084  72.781  1.00  0.00    -0.674 OA 
ENDROOT
BRANCH   2   3
HETATM    3  C   UNL     1     -13.120  13.517  71.763  1.00  0.00    -0.387 A  
HETATM    4  C   UNL     1     -12.490  14.202  70.727  1.00  0.00    -0.436 A  
HETATM    5  C   UNL     1     -11.866  13.492  69.692  1.00  0.00    -0.398 A  
HETATM    6  C   UNL     1     -11.853  12.086  69.676  1.00  0.00    -0.401 A  
HETATM    7  C   UNL     1     -12.417  11.417  70.770  1.00  0.00    -0.460 A  
HETATM    8  C   UNL     1     -13.041  12.124  71.803  1.00  0.00    -0.457 A  
BRANCH   6   9
HETATM    9  C   UNL     1     -11.456  11.280  68.445  1.00  0.00    -0.307 C  
BRANCH   9  10
HETATM   10  N   UNL     1     -10.536  11.925  67.528  1.00  0.00    -0.213 NA 
BRANCH  10  11
HETATM   11  C   UNL     1     -10.980  12.259  66.258  1.00  0.00    -0.291 A  
HETATM   12  N   UNL     1     -12.301  12.396  66.046  1.00  0.00    -0.551 NA 
HETATM   13  N   UNL     1     -10.088  12.388  65.261  1.00  0.00    -0.277 NA 
HETATM   14  C   UNL     1     -12.722  12.619  64.787  1.00  0.00    -0.379 A  
HETATM   15  C   UNL     1     -11.882  12.689  63.709  1.00  0.00    -0.574 A  
HETATM   16  C   UNL     1     -10.552  12.570  64.011  1.00  0.00    -0.421 A  
ENDBRANCH  10  11
BRANCH  10  17
HETATM   17  C   UNL     1      -9.137  12.250  67.827  1.00  0.00    -0.191 C  
BRANCH  17  18
HETATM   18  C   UNL     1      -8.241  11.097  68.333  1.00  0.00    -0.144 C  
BRANCH  18  19
HETATM   19  N   UNL     1      -6.864  11.108  67.773  1.00  0.00    -0.071 NA 
HETATM   20  C   UNL     1      -6.148  12.364  68.023  1.00  0.00    -0.075 C  
HETATM   21  C   UNL     1      -6.898  10.853  66.330  1.00  0.00    -0.123 C  
ENDBRANCH  18  19
ENDBRANCH  17  18
ENDBRANCH  10  17
ENDBRANCH   9  10
ENDBRANCH   6   9
ENDBRANCH   2   3
TORSDOF 7
ENDMDL
MODEL       42
REMARK 921   NORMALIZED FREE ENERGY PREDICTED BY IDOCK:   -5.05 KCAL/MOL
REMARK 922        TOTAL FREE ENERGY PREDICTED BY IDOCK:   -7.96 KCAL/MOL
REMARK 923 INTER-LIGAND FREE ENERGY PREDICTED BY IDOCK:   -7.29 KCAL/MOL
REMARK 924 INTRA-LIGAND FREE ENERGY PREDICTED BY IDOCK:   -0.67 KCAL/MOL
REMARK 927      BINDING AFFINITY PREDICTED BY RF-SCORE:    0.00 PKD
ROOT
HETATM    1  C   UNL     1     -12.294  15.263  74.071  1.00  0.00    -0.634 C  
HETATM    2  O   UNL     1     -12.986  14.584  73.032  1.00  0.00    -0.481 OA 
ENDROOT
BRANCH   2   3
HETATM    3  C   UNL     1     -12.510  14.765  71.762  1.00  0.00    -0.343 A  
HETATM    4  C   UNL     1     -12.142  15.981  71.192  1.00  0.00    -0.406 A  
HETATM    5  C   UNL     1     -11.760  16.040  69.845  1.00  0.00    -0.276 A  
HETATM    6  C   UNL     1     -11.730  14.884  69.044  1.00  0.00    -0.347 A  
HETATM    7  C   UNL     1     -12.021  13.659  69.658  1.00  0.00    -0.402 A  
HETATM    8  C   UNL     1     -12.404  13.600  71.001  1.00  0.00    -0.436 A  
BRANCH   6   9
HETATM    9  C   UNL     1     -11.612  14.939  67.525  1.00  0.00    -0.339 C  
BRANCH   9  10
HETATM   10  N   UNL     1     -10.397  14.388  66.958  1.00  0.00    -0.262 NA 
BRANCH  10  11
HETATM   11  C   UNL     1      -9.249  15.164  66.953  1.00  0.00    -0.238 A  
HETATM   12  N   UNL     1      -9.270  16.355  66.326  1.00  0.00    -0.292 NA 
HETATM   13  N   UNL     1      -8.129  14.691  67.527  1.00  0.00    -0.170 NA 
HETATM   14  C   UNL     1      -8.121  17.048  66.241  1.00  0.00    -0.297 A  
HETATM   15  C   UNL     1      -6.926  16.599  66.736  1.00  0.00    -0.264 A  
HETATM   16  C   UNL     1      -6.992  15.395  67.385  1.00  0.00    -0.189 A  
ENDBRANCH  10  11
BRANCH  10  17
HETATM   17  C   UNL     1     -10.274  13.054  66.361  1.00  0.00    -0.280 C  
BRANCH  17  18
HETATM   18  C   UNL     1     -11.489  12.528  65.562  1.00  0.00    -0.350 C  
BRANCH  18  19
HETATM   19  N   UNL     1     -11.329  12.615  64.087  1.00  0.00    -0.354 NA 
HETATM   20  C   UNL     1     -12.478  12.082  63.348  1.00  0.00    -0.509 C  
HETATM   21  C   UNL     1     -10.115  11.910  63.664  1.00  0.00    -0.426 C  
ENDBRANCH  18  19
ENDBRANCH  17  18
ENDBRANCH  10  17
ENDBRANCH   9  10
ENDBRANCH   6   9
ENDBRANCH   2   3
TORSDOF 7
ENDMDL
MODEL       43
REMARK 921   NORMALIZED FREE ENERGY PREDICTED BY IDOCK:   -5.04 KCAL/MOL
REMARK 922        TOTAL FREE ENERGY PREDICTED BY IDOCK:   -7.94 KCAL/MOL
REMARK 923 INTER-LIGAND FREE ENERGY PREDICTED BY IDOCK:   -7.12 KCAL/MOL
REMARK 924 INTRA-LIGAND FREE ENERGY PREDICTED BY IDOCK:   -0.82 KCAL/MOL
REMARK 927      BINDING AFFINITY PREDICTED BY RF-SCORE:    0.00 PKD
ROOT
HETATM    1  C   UNL     1     -10.188  20.013  67.851  1.00  0.00    -0.405 C  
HETATM    2  O   UNL     1      -9.540  19.114  66.962  1.00  0.00    -0.305 OA 
ENDROOT
BRANCH   2   3
HETATM    3  C   UNL     1     -10.011  17.829  66.942  1.00  0.00    -0.332 A  
HETATM    4  C   UNL     1      -9.998  16.970  65.845  1.00  0.00    -0.239 A  
HETATM    5  C   UNL     1     -10.601  15.709  65.932  1.00  0.00    -0.354 A  
HETATM    6  C   UNL     1     -11.221  15.277  67.118  1.00  0.00    -0.291 A  
HETATM    7  C   UNL     1     -11.148  16.119  68.235  1.00  0.00    -0.348 A  
HETATM    8  C   UNL     1     -10.548  17.379  68.149  1.00  0.00    -0.376 A  
BRANCH   6   9
HETATM    9  C   UNL     1     -12.134  14.058  67.172  1.00  0.00    -0.401 C  
BRANCH   9  10
HETATM   10  N   UNL     1     -11.518  12.815  67.594  1.00  0.00    -0.313 NA 
BRANCH  10  11
HETATM   11  C   UNL     1     -11.849  12.289  68.833  1.00  0.00    -0.303 A  
HETATM   12  N   UNL     1     -12.022  10.960  68.950  1.00  0.00    -0.444 NA 
HETATM   13  N   UNL     1     -12.041  13.119  69.872  1.00  0.00    -0.309 NA 
HETATM   14  C   UNL     1     -12.444  10.477  70.133  1.00  0.00    -0.226 A  
HETATM   15  C   UNL     1     -12.730  11.265  71.214  1.00  0.00    -0.510 A  
HETATM   16  C   UNL     1     -12.502  12.602  71.025  1.00  0.00    -0.260 A  
ENDBRANCH  10  11
BRANCH  10  17
HETATM   17  C   UNL     1     -10.537  12.053  66.813  1.00  0.00    -0.227 C  
BRANCH  17  18
HETATM   18  C   UNL     1     -10.995  11.525  65.435  1.00  0.00    -0.226 C  
BRANCH  18  19
HETATM   19  N   UNL     1     -10.640  12.412  64.296  1.00  0.00    -0.336 NA 
HETATM   20  C   UNL     1     -11.808  13.018  63.649  1.00  0.00    -0.516 C  
HETATM   21  C   UNL     1      -9.866  11.671  63.296  1.00  0.00    -0.405 C  
ENDBRANCH  18  19
ENDBRANCH  17  18
ENDBRANCH  10  17
ENDBRANCH   9  10
ENDBRANCH   6   9
ENDBRANCH   2   3
TORSDOF 7
ENDMDL
MODEL       44
REMARK 921   NORMALIZED FREE ENERGY PREDICTED BY IDOCK:   -5.02 KCAL/MOL
REMARK 922        TOTAL FREE ENERGY PREDICTED BY IDOCK:   -7.92 KCAL/MOL
REMARK 923 INTER-LIGAND FREE ENERGY PREDICTED BY IDOCK:   -7.25 KCAL/MOL
REMARK 924 INTRA-LIGAND FREE ENERGY PREDICTED BY IDOCK:   -0.66 KCAL/MOL
REMARK 927      BINDING AFFINITY PREDICTED BY RF-SCORE:    0.00 PKD
ROOT
HETATM    1  C   UNL     1      -6.746  19.745  69.290  1.00  0.00    -0.348 C  
HETATM    2  O   UNL     1      -7.490  20.010  68.109  1.00  0.00    -0.295 OA 
ENDROOT
BRANCH   2   3
HETATM    3  C   UNL     1      -8.196  18.963  67.583  1.00  0.00    -0.267 A  
HETATM    4  C   UNL     1      -7.662  17.748  67.158  1.00  0.00    -0.224 A  
HETATM    5  C   UNL     1      -8.485  16.793  66.547  1.00  0.00    -0.318 A  
HETATM    6  C   UNL     1      -9.858  17.029  66.355  1.00  0.00    -0.312 A  
HETATM    7  C   UNL     1     -10.392  18.220  66.865  1.00  0.00    -0.404 A  
HETATM    8  C   UNL     1      -9.571  19.174  67.474  1.00  0.00    -0.373 A  
BRANCH   6   9
HETATM    9  C   UNL     1     -10.722  16.164  65.445  1.00  0.00    -0.358 C  
BRANCH   9  10
HETATM   10  N   UNL     1     -11.245  14.945  66.029  1.00  0.00    -0.338 NA 
BRANCH  10  11
HETATM   11  C   UNL     1     -11.485  13.856  65.206  1.00  0.00    -0.315 A  
HETATM   12  N   UNL     1     -10.454  13.300  64.544  1.00  0.00    -0.415 NA 
HETATM   13  N   UNL     1     -12.745  13.415  65.046  1.00  0.00    -0.685 NA 
HETATM   14  C   UNL     1     -10.718  12.312  63.671  1.00  0.00    -0.467 A  
HETATM   15  C   UNL     1     -11.981  11.859  63.400  1.00  0.00    -0.528 A  
HETATM   16  C   UNL     1     -12.973  12.453  64.133  1.00  0.00    -0.163 A  
ENDBRANCH  10  11
BRANCH  10  17
HETATM   17  C   UNL     1     -11.565  14.760  67.449  1.00  0.00    -0.360 C  
BRANCH  17  18
HETATM   18  C   UNL     1     -10.599  13.882  68.278  1.00  0.00    -0.257 C  
BRANCH  18  19
HETATM   19  N   UNL     1     -11.191  13.346  69.532  1.00  0.00    -0.173 NA 
HETATM   20  C   UNL     1     -11.540  11.924  69.447  1.00  0.00    -0.325 C  
HETATM   21  C   UNL     1     -12.386  14.113  69.899  1.00  0.00    -0.327 C  
ENDBRANCH  18  19
ENDBRANCH  17  18
ENDBRANCH  10  17
ENDBRANCH   9  10
ENDBRANCH   6   9
ENDBRANCH   2   3
TORSDOF 7
ENDMDL
MODEL       45
REMARK 921   NORMALIZED FREE ENERGY PREDICTED BY IDOCK:   -5.01 KCAL/MOL
REMARK 922        TOTAL FREE ENERGY PREDICTED BY IDOCK:   -7.90 KCAL/MOL
REMARK 923 INTER-LIGAND FREE ENERGY PREDICTED BY IDOCK:   -7.19 KCAL/MOL
REMARK 924 INTRA-LIGAND FREE ENERGY PREDICTED BY IDOCK:   -0.71 KCAL/MOL
REMARK 927      BINDING AFFINITY PREDICTED BY RF-SCORE:    0.00 PKD
ROOT
HETATM    1  C   UNL     1     -13.988  14.751  72.547  1.00  0.00    -0.426 C  
HETATM    2  O   UNL     1     -13.864  13.337  72.617  1.00  0.00    -0.712 OA 
ENDROOT
BRANCH   2   3
HETATM    3  C   UNL     1     -13.155  12.736  71.613  1.00  0.00    -0.331 A  
HETATM    4  C   UNL     1     -12.955  11.366  71.460  1.00  0.00    -0.505 A  
HETATM    5  C   UNL     1     -12.125  10.886  70.439  1.00  0.00    -0.453 A  
HETATM    6  C   UNL     1     -11.485  11.763  69.545  1.00  0.00    -0.363 A  
HETATM    7  C   UNL     1     -11.766  13.131  69.662  1.00  0.00    -0.370 A  
HETATM    8  C   UNL     1     -12.593  13.611  70.682  1.00  0.00    -0.366 A  
BRANCH   6   9
HETATM    9  C   UNL     1     -10.358  11.319  68.621  1.00  0.00    -0.201 C  
BRANCH   9  10
HETATM   10  N   UNL     1     -10.702  11.162  67.222  1.00  0.00    -0.243 NA 
BRANCH  10  11
HETATM   11  C   UNL     1     -11.044  12.285  66.486  1.00  0.00    -0.299 A  
HETATM   12  N   UNL     1     -12.275  12.362  65.948  1.00  0.00    -0.632 NA 
HETATM   13  N   UNL     1     -10.125  13.246  66.283  1.00  0.00    -0.288 NA 
HETATM   14  C   UNL     1     -12.556  13.409  65.152  1.00  0.00    -0.440 A  
HETATM   15  C   UNL     1     -11.651  14.388  64.840  1.00  0.00    -0.395 A  
HETATM   16  C   UNL     1     -10.432  14.255  65.448  1.00  0.00    -0.365 A  
ENDBRANCH  10  11
BRANCH  10  17
HETATM   17  C   UNL     1     -10.737   9.885  66.500  1.00  0.00    -0.012 C  
BRANCH  17  18
HETATM   18  C   UNL     1      -9.416   9.087  66.421  1.00  0.00    -0.226 C  
BRANCH  18  19
HETATM   19  N   UNL     1      -8.537   9.479  65.289  1.00  0.00    -0.146 NA 
HETATM   20  C   UNL     1      -7.544  10.496  65.651  1.00  0.00    -0.134 C  
HETATM   21  C   UNL     1      -9.341   9.971  64.166  1.00  0.00    -0.280 C  
ENDBRANCH  18  19
ENDBRANCH  17  18
ENDBRANCH  10  17
ENDBRANCH   9  10
ENDBRANCH   6   9
ENDBRANCH   2   3
TORSDOF 7
ENDMDL
MODEL       46
REMARK 921   NORMALIZED FREE ENERGY PREDICTED BY IDOCK:   -4.99 KCAL/MOL
REMARK 922        TOTAL FREE ENERGY PREDICTED BY IDOCK:   -7.87 KCAL/MOL
REMARK 923 INTER-LIGAND FREE ENERGY PREDICTED BY IDOCK:   -7.20 KCAL/MOL
REMARK 924 INTRA-LIGAND FREE ENERGY PREDICTED BY IDOCK:   -0.68 KCAL/MOL
REMARK 927      BINDING AFFINITY PREDICTED BY RF-SCORE:    0.00 PKD
ROOT
HETATM    1  C   UNL     1      -7.320  19.598  65.730  1.00  0.00    -0.304 C  
HETATM    2  O   UNL     1      -7.636  19.371  67.097  1.00  0.00    -0.231 OA 
ENDROOT
BRANCH   2   3
HETATM    3  C   UNL     1      -8.500  18.343  67.362  1.00  0.00    -0.253 A  
HETATM    4  C   UNL     1      -8.682  17.206  66.578  1.00  0.00    -0.293 A  
HETATM    5  C   UNL     1      -9.672  16.272  66.913  1.00  0.00    -0.247 A  
HETATM    6  C   UNL     1     -10.493  16.452  68.041  1.00  0.00    -0.303 A  
HETATM    7  C   UNL     1     -10.237  17.557  68.863  1.00  0.00    -0.353 A  
HETATM    8  C   UNL     1      -9.251  18.490  68.529  1.00  0.00    -0.360 A  
BRANCH   6   9
HETATM    9  C   UNL     1     -11.757  15.635  68.276  1.00  0.00    -0.242 C  
BRANCH   9  10
HETATM   10  N   UNL     1     -11.662  14.580  69.266  1.00  0.00    -0.292 NA 
BRANCH  10  11
HETATM   11  C   UNL     1     -12.151  14.813  70.542  1.00  0.00    -0.315 A  
HETATM   12  N   UNL     1     -13.463  14.635  70.779  1.00  0.00    -0.248 NA 
HETATM   13  N   UNL     1     -11.317  15.259  71.497  1.00  0.00    -0.388 NA 
HETATM   14  C   UNL     1     -13.939  14.963  71.994  1.00  0.00    -0.491 A  
HETATM   15  C   UNL     1     -13.167  15.491  72.993  1.00  0.00    -0.648 A  
HETATM   16  C   UNL     1     -11.839  15.615  72.685  1.00  0.00    -0.485 A  
ENDBRANCH  10  11
BRANCH  10  17
HETATM   17  C   UNL     1     -11.066  13.260  69.037  1.00  0.00    -0.244 C  
BRANCH  17  18
HETATM   18  C   UNL     1     -12.035  12.096  68.726  1.00  0.00    -0.239 C  
BRANCH  18  19
HETATM   19  N   UNL     1     -11.832  11.478  67.390  1.00  0.00    -0.620 NA 
HETATM   20  C   UNL     1     -10.581  10.720  67.287  1.00  0.00    -0.257 C  
HETATM   21  C   UNL     1     -11.859  12.505  66.344  1.00  0.00    -0.381 C  
ENDBRANCH  18  19
ENDBRANCH  17  18
ENDBRANCH  10  17
ENDBRANCH   9  10
ENDBRANCH   6   9
ENDBRANCH   2   3
TORSDOF 7
ENDMDL
MODEL       47
REMARK 921   NORMALIZED FREE ENERGY PREDICTED BY IDOCK:   -4.99 KCAL/MOL
REMARK 922        TOTAL FREE ENERGY PREDICTED BY IDOCK:   -7.87 KCAL/MOL
REMARK 923 INTER-LIGAND FREE ENERGY PREDICTED BY IDOCK:   -7.34 KCAL/MOL
REMARK 924 INTRA-LIGAND FREE ENERGY PREDICTED BY IDOCK:   -0.53 KCAL/MOL
REMARK 927      BINDING AFFINITY PREDICTED BY RF-SCORE:    0.00 PKD
ROOT
HETATM    1  C   UNL     1     -13.269   9.106  71.935  1.00  0.00    -0.416 C  
HETATM    2  O   UNL     1     -13.232  10.434  72.438  1.00  0.00    -0.307 OA 
ENDROOT
BRANCH   2   3
HETATM    3  C   UNL     1     -12.888  11.415  71.548  1.00  0.00    -0.403 A  
HETATM    4  C   UNL     1     -12.222  11.225  70.339  1.00  0.00    -0.453 A  
HETATM    5  C   UNL     1     -11.843  12.329  69.564  1.00  0.00    -0.380 A  
HETATM    6  C   UNL     1     -12.129  13.643  69.976  1.00  0.00    -0.417 A  
HETATM    7  C   UNL     1     -12.875  13.809  71.151  1.00  0.00    -0.409 A  
HETATM    8  C   UNL     1     -13.251  12.708  71.926  1.00  0.00    -0.504 A  
BRANCH   6   9
HETATM    9  C   UNL     1     -11.489  14.866  69.330  1.00  0.00    -0.303 C  
BRANCH   9  10
HETATM   10  N   UNL     1     -10.566  14.605  68.243  1.00  0.00    -0.231 NA 
BRANCH  10  11
HETATM   11  C   UNL     1     -11.041  14.622  66.941  1.00  0.00    -0.333 A  
HETATM   12  N   UNL     1     -10.613  15.584  66.104  1.00  0.00    -0.307 NA 
HETATM   13  N   UNL     1     -11.954  13.712  66.561  1.00  0.00    -0.405 NA 
HETATM   14  C   UNL     1     -11.161  15.648  64.877  1.00  0.00    -0.402 A  
HETATM   15  C   UNL     1     -12.147  14.804  64.443  1.00  0.00    -0.457 A  
HETATM   16  C   UNL     1     -12.508  13.835  65.340  1.00  0.00    -0.500 A  
ENDBRANCH  10  11
BRANCH  10  17
HETATM   17  C   UNL     1      -9.140  14.304  68.403  1.00  0.00    -0.194 C  
BRANCH  17  18
HETATM   18  C   UNL     1      -8.320  15.247  69.313  1.00  0.00    -0.243 C  
BRANCH  18  19
HETATM   19  N   UNL     1      -7.663  16.367  68.590  1.00  0.00    -0.192 NA 
HETATM   20  C   UNL     1      -8.551  17.514  68.370  1.00  0.00    -0.275 C  
HETATM   21  C   UNL     1      -7.145  15.906  67.298  1.00  0.00    -0.207 C  
ENDBRANCH  18  19
ENDBRANCH  17  18
ENDBRANCH  10  17
ENDBRANCH   9  10
ENDBRANCH   6   9
ENDBRANCH   2   3
TORSDOF 7
ENDMDL
MODEL       48
REMARK 921   NORMALIZED FREE ENERGY PREDICTED BY IDOCK:   -4.98 KCAL/MOL
REMARK 922        TOTAL FREE ENERGY PREDICTED BY IDOCK:   -7.86 KCAL/MOL
REMARK 923 INTER-LIGAND FREE ENERGY PREDICTED BY IDOCK:   -7.01 KCAL/MOL
REMARK 924 INTRA-LIGAND FREE ENERGY PREDICTED BY IDOCK:   -0.85 KCAL/MOL
REMARK 927      BINDING AFFINITY PREDICTED BY RF-SCORE:    0.00 PKD
ROOT
HETATM    1  C   UNL     1      -9.449   8.130  72.806  1.00  0.00    -0.279 C  
HETATM    2  O   UNL     1     -10.820   8.359  72.511  1.00  0.00    -0.344 OA 
ENDROOT
BRANCH   2   3
HETATM    3  C   UNL     1     -11.089   9.266  71.522  1.00  0.00    -0.373 A  
HETATM    4  C   UNL     1     -12.281   9.969  71.361  1.00  0.00    -0.510 A  
HETATM    5  C   UNL     1     -12.462  10.800  70.247  1.00  0.00    -0.395 A  
HETATM    6  C   UNL     1     -11.454  10.950  69.277  1.00  0.00    -0.372 A  
HETATM    7  C   UNL     1     -10.232  10.303  69.502  1.00  0.00    -0.261 A  
HETATM    8  C   UNL     1     -10.051   9.472  70.613  1.00  0.00    -0.353 A  
BRANCH   6   9
HETATM    9  C   UNL     1     -11.708  11.595  67.920  1.00  0.00    -0.259 C  
BRANCH   9  10
HETATM   10  N   UNL     1     -10.803  12.662  67.539  1.00  0.00    -0.234 NA 
BRANCH  10  11
HETATM   11  C   UNL     1     -10.752  13.807  68.318  1.00  0.00    -0.253 A  
HETATM   12  N   UNL     1     -11.899  14.448  68.608  1.00  0.00    -0.333 NA 
HETATM   13  N   UNL     1      -9.560  14.279  68.721  1.00  0.00    -0.191 NA 
HETATM   14  C   UNL     1     -11.824  15.613  69.276  1.00  0.00    -0.363 A  
HETATM   15  C   UNL     1     -10.643  16.194  69.656  1.00  0.00    -0.311 A  
HETATM   16  C   UNL     1      -9.524  15.467  69.351  1.00  0.00    -0.267 A  
ENDBRANCH  10  11
BRANCH  10  17
HETATM   17  C   UNL     1      -9.924  12.643  66.365  1.00  0.00    -0.255 C  
BRANCH  17  18
HETATM   18  C   UNL     1     -10.302  13.573  65.190  1.00  0.00    -0.353 C  
BRANCH  18  19
HETATM   19  N   UNL     1     -11.704  13.421  64.721  1.00  0.00    -0.346 NA 
HETATM   20  C   UNL     1     -11.841  12.486  63.599  1.00  0.00    -0.530 C  
HETATM   21  C   UNL     1     -12.255  14.722  64.333  1.00  0.00    -0.428 C  
ENDBRANCH  18  19
ENDBRANCH  17  18
ENDBRANCH  10  17
ENDBRANCH   9  10
ENDBRANCH   6   9
ENDBRANCH   2   3
TORSDOF 7
ENDMDL
MODEL       49
REMARK 921   NORMALIZED FREE ENERGY PREDICTED BY IDOCK:   -4.95 KCAL/MOL
REMARK 922        TOTAL FREE ENERGY PREDICTED BY IDOCK:   -7.82 KCAL/MOL
REMARK 923 INTER-LIGAND FREE ENERGY PREDICTED BY IDOCK:   -7.07 KCAL/MOL
REMARK 924 INTRA-LIGAND FREE ENERGY PREDICTED BY IDOCK:   -0.75 KCAL/MOL
REMARK 927      BINDING AFFINITY PREDICTED BY RF-SCORE:    0.00 PKD
ROOT
HETATM    1  C   UNL     1      -9.363  19.865  66.770  1.00  0.00    -0.384 C  
HETATM    2  O   UNL     1      -9.923  19.094  67.824  1.00  0.00    -0.322 OA 
ENDROOT
BRANCH   2   3
HETATM    3  C   UNL     1     -10.265  17.804  67.522  1.00  0.00    -0.356 A  
HETATM    4  C   UNL     1     -10.139  17.195  66.276  1.00  0.00    -0.329 A  
HETATM    5  C   UNL     1     -10.618  15.893  66.077  1.00  0.00    -0.331 A  
HETATM    6  C   UNL     1     -11.224  15.172  67.121  1.00  0.00    -0.320 A  
HETATM    7  C   UNL     1     -11.264  15.768  68.388  1.00  0.00    -0.362 A  
HETATM    8  C   UNL     1     -10.788  17.068  68.587  1.00  0.00    -0.284 A  
BRANCH   6   9
HETATM    9  C   UNL     1     -12.015  13.890  66.885  1.00  0.00    -0.433 C  
BRANCH   9  10
HETATM   10  N   UNL     1     -11.271  12.651  66.992  1.00  0.00    -0.284 NA 
BRANCH  10  11
HETATM   11  C   UNL     1     -10.904  11.987  65.833  1.00  0.00    -0.288 A  
HETATM   12  N   UNL     1     -10.127  10.893  65.927  1.00  0.00    -0.243 NA 
HETATM   13  N   UNL     1     -11.289  12.478  64.642  1.00  0.00    -0.306 NA 
HETATM   14  C   UNL     1      -9.695  10.321  64.788  1.00  0.00    -0.332 A  
HETATM   15  C   UNL     1      -9.984  10.805  63.541  1.00  0.00    -0.403 A  
HETATM   16  C   UNL     1     -10.803  11.902  63.527  1.00  0.00    -0.434 A  
ENDBRANCH  10  11
BRANCH  10  17
HETATM   17  C   UNL     1     -10.874  12.012  68.252  1.00  0.00    -0.229 C  
BRANCH  17  18
HETATM   18  C   UNL     1     -11.989  11.328  69.074  1.00  0.00    -0.325 C  
BRANCH  18  19
HETATM   19  N   UNL     1     -11.976  11.673  70.520  1.00  0.00    -0.359 NA 
HETATM   20  C   UNL     1     -12.862  10.826  71.326  1.00  0.00    -0.438 C  
HETATM   21  C   UNL     1     -12.349  13.078  70.711  1.00  0.00    -0.310 C  
ENDBRANCH  18  19
ENDBRANCH  17  18
ENDBRANCH  10  17
ENDBRANCH   9  10
ENDBRANCH   6   9
ENDBRANCH   2   3
TORSDOF 7
ENDMDL
MODEL       50
REMARK 921   NORMALIZED FREE ENERGY PREDICTED BY IDOCK:   -4.91 KCAL/MOL
REMARK 922        TOTAL FREE ENERGY PREDICTED BY IDOCK:   -7.76 KCAL/MOL
REMARK 923 INTER-LIGAND FREE ENERGY PREDICTED BY IDOCK:   -7.30 KCAL/MOL
REMARK 924 INTRA-LIGAND FREE ENERGY PREDICTED BY IDOCK:   -0.46 KCAL/MOL
REMARK 927      BINDING AFFINITY PREDICTED BY RF-SCORE:    0.00 PKD
ROOT
HETATM    1  C   UNL     1      -9.392  19.937  66.133  1.00  0.00    -0.358 C  
HETATM    2  O   UNL     1      -8.670  18.714  66.083  1.00  0.00    -0.451 OA 
ENDROOT
BRANCH   2   3
HETATM    3  C   UNL     1      -9.307  17.607  66.576  1.00  0.00    -0.272 A  
HETATM    4  C   UNL     1      -9.200  16.312  66.076  1.00  0.00    -0.351 A  
HETATM    5  C   UNL     1      -9.984  15.283  66.616  1.00  0.00    -0.264 A  
HETATM    6  C   UNL     1     -10.883  15.526  67.669  1.00  0.00    -0.306 A  
HETATM    7  C   UNL     1     -10.913  16.816  68.215  1.00  0.00    -0.327 A  
HETATM    8  C   UNL     1     -10.133  17.844  67.676  1.00  0.00    -0.350 A  
BRANCH   6   9
HETATM    9  C   UNL     1     -11.954  14.525  68.085  1.00  0.00    -0.261 C  
BRANCH   9  10
HETATM   10  N   UNL     1     -11.805  13.939  69.402  1.00  0.00    -0.313 NA 
BRANCH  10  11
HETATM   11  C   UNL     1     -11.665  12.564  69.512  1.00  0.00    -0.309 A  
HETATM   12  N   UNL     1     -12.067  11.957  70.644  1.00  0.00    -0.356 NA 
HETATM   13  N   UNL     1     -11.087  11.878  68.511  1.00  0.00    -0.224 NA 
HETATM   14  C   UNL     1     -11.830  10.640  70.776  1.00  0.00    -0.357 A  
HETATM   15  C   UNL     1     -11.182   9.888  69.833  1.00  0.00    -0.298 A  
HETATM   16  C   UNL     1     -10.832  10.570  68.699  1.00  0.00    -0.237 A  
ENDBRANCH  10  11
BRANCH  10  17
HETATM   17  C   UNL     1     -11.804  14.688  70.663  1.00  0.00    -0.305 C  
BRANCH  17  18
HETATM   18  C   UNL     1     -12.965  15.682  70.891  1.00  0.00    -0.414 C  
BRANCH  18  19
HETATM   19  N   UNL     1     -13.652  15.524  72.199  1.00  0.00    -0.470 NA 
HETATM   20  C   UNL     1     -12.860  16.013  73.332  1.00  0.00    -0.562 C  
HETATM   21  C   UNL     1     -13.998  14.117  72.426  1.00  0.00    -0.512 C  
ENDBRANCH  18  19
ENDBRANCH  17  18
ENDBRANCH  10  17
ENDBRANCH   9  10
ENDBRANCH   6   9
ENDBRANCH   2   3
TORSDOF 7
ENDMDL
MODEL       51
REMARK 921   NORMALIZED FREE ENERGY PREDICTED BY IDOCK:   -4.89 KCAL/MOL
REMARK 922        TOTAL FREE ENERGY PREDICTED BY IDOCK:   -7.74 KCAL/MOL
REMARK 923 INTER-LIGAND FREE ENERGY PREDICTED BY IDOCK:   -7.04 KCAL/MOL
REMARK 924 INTRA-LIGAND FREE ENERGY PREDICTED BY IDOCK:   -0.70 KCAL/MOL
REMARK 927      BINDING AFFINITY PREDICTED BY RF-SCORE:    0.00 PKD
ROOT
HETATM    1  C   UNL     1     -12.660   7.197  71.320  1.00  0.00    -0.380 C  
HETATM    2  O   UNL     1     -11.630   8.123  71.637  1.00  0.00    -0.258 OA 
ENDROOT
BRANCH   2   3
HETATM    3  C   UNL     1     -11.680   9.334  71.001  1.00  0.00    -0.311 A  
HETATM    4  C   UNL     1     -12.417  10.443  71.410  1.00  0.00    -0.521 A  
HETATM    5  C   UNL     1     -12.456  11.594  70.613  1.00  0.00    -0.386 A  
HETATM    6  C   UNL     1     -11.754  11.664  69.396  1.00  0.00    -0.405 A  
HETATM    7  C   UNL     1     -10.951  10.571  69.044  1.00  0.00    -0.289 A  
HETATM    8  C   UNL     1     -10.913   9.420  69.838  1.00  0.00    -0.251 A  
BRANCH   6   9
HETATM    9  C   UNL     1     -11.999  12.760  68.367  1.00  0.00    -0.231 C  
BRANCH   9  10
HETATM   10  N   UNL     1     -10.906  13.038  67.456  1.00  0.00    -0.243 NA 
BRANCH  10  11
HETATM   11  C   UNL     1     -11.085  12.803  66.102  1.00  0.00    -0.290 A  
HETATM   12  N   UNL     1     -12.320  12.521  65.649  1.00  0.00    -0.638 NA 
HETATM   13  N   UNL     1     -10.019  12.810  65.284  1.00  0.00    -0.231 NA 
HETATM   14  C   UNL     1     -12.461  12.194  64.352  1.00  0.00    -0.324 A  
HETATM   15  C   UNL     1     -11.414  12.108  63.474  1.00  0.00    -0.544 A  
HETATM   16  C   UNL     1     -10.195  12.438  64.003  1.00  0.00    -0.375 A  
ENDBRANCH  10  11
BRANCH  10  17
HETATM   17  C   UNL     1      -9.587  13.546  67.852  1.00  0.00    -0.218 C  
BRANCH  17  18
HETATM   18  C   UNL     1      -9.517  15.008  68.348  1.00  0.00    -0.201 C  
BRANCH  18  19
HETATM   19  N   UNL     1     -10.114  15.996  67.413  1.00  0.00    -0.253 NA 
HETATM   20  C   UNL     1      -9.311  16.207  66.204  1.00  0.00    -0.336 C  
HETATM   21  C   UNL     1     -10.313  17.282  68.088  1.00  0.00    -0.357 C  
ENDBRANCH  18  19
ENDBRANCH  17  18
ENDBRANCH  10  17
ENDBRANCH   9  10
ENDBRANCH   6   9
ENDBRANCH   2   3
TORSDOF 7
ENDMDL
MODEL       52
REMARK 921   NORMALIZED FREE ENERGY PREDICTED BY IDOCK:   -4.87 KCAL/MOL
REMARK 922        TOTAL FREE ENERGY PREDICTED BY IDOCK:   -7.71 KCAL/MOL
REMARK 923 INTER-LIGAND FREE ENERGY PREDICTED BY IDOCK:   -7.08 KCAL/MOL
REMARK 924 INTRA-LIGAND FREE ENERGY PREDICTED BY IDOCK:   -0.63 KCAL/MOL
REMARK 927      BINDING AFFINITY PREDICTED BY RF-SCORE:    0.00 PKD
ROOT
HETATM    1  C   UNL     1     -12.934  15.846  73.472  1.00  0.00    -0.594 C  
HETATM    2  O   UNL     1     -13.408  15.846  72.132  1.00  0.00    -0.443 OA 
ENDROOT
BRANCH   2   3
HETATM    3  C   UNL     1     -12.537  15.396  71.176  1.00  0.00    -0.422 A  
HETATM    4  C   UNL     1     -11.372  16.038  70.764  1.00  0.00    -0.427 A  
HETATM    5  C   UNL     1     -10.619  15.516  69.705  1.00  0.00    -0.285 A  
HETATM    6  C   UNL     1     -11.010  14.339  69.041  1.00  0.00    -0.282 A  
HETATM    7  C   UNL     1     -12.136  13.662  69.526  1.00  0.00    -0.368 A  
HETATM    8  C   UNL     1     -12.890  14.183  70.583  1.00  0.00    -0.356 A  
BRANCH   6   9
HETATM    9  C   UNL     1     -10.400  13.901  67.715  1.00  0.00    -0.240 C  
BRANCH   9  10
HETATM   10  N   UNL     1     -10.889  12.651  67.168  1.00  0.00    -0.248 NA 
BRANCH  10  11
HETATM   11  C   UNL     1     -10.360  11.460  67.641  1.00  0.00    -0.183 A  
HETATM   12  N   UNL     1      -9.074  11.431  68.036  1.00  0.00    -0.164 NA 
HETATM   13  N   UNL     1     -11.125  10.355  67.648  1.00  0.00    -0.319 NA 
HETATM   14  C   UNL     1      -8.547  10.246  68.394  1.00  0.00    -0.125 A  
HETATM   15  C   UNL     1      -9.241   9.066  68.357  1.00  0.00    -0.137 A  
HETATM   16  C   UNL     1     -10.550   9.183  67.974  1.00  0.00    -0.197 A  
ENDBRANCH  10  11
BRANCH  10  17
HETATM   17  C   UNL     1     -11.910  12.530  66.122  1.00  0.00    -0.397 C  
BRANCH  17  18
HETATM   18  C   UNL     1     -12.699  13.809  65.760  1.00  0.00    -0.446 C  
BRANCH  18  19
HETATM   19  N   UNL     1     -12.488  14.278  64.365  1.00  0.00    -0.674 NA 
HETATM   20  C   UNL     1     -12.039  13.216  63.459  1.00  0.00    -0.514 C  
HETATM   21  C   UNL     1     -11.517  15.376  64.338  1.00  0.00    -0.255 C  
ENDBRANCH  18  19
ENDBRANCH  17  18
ENDBRANCH  10  17
ENDBRANCH   9  10
ENDBRANCH   6   9
ENDBRANCH   2   3
TORSDOF 7
ENDMDL
MODEL       53
REMARK 921   NORMALIZED FREE ENERGY PREDICTED BY IDOCK:   -4.87 KCAL/MOL
REMARK 922        TOTAL FREE ENERGY PREDICTED BY IDOCK:   -7.70 KCAL/MOL
REMARK 923 INTER-LIGAND FREE ENERGY PREDICTED BY IDOCK:   -7.16 KCAL/MOL
REMARK 924 INTRA-LIGAND FREE ENERGY PREDICTED BY IDOCK:   -0.54 KCAL/MOL
REMARK 927      BINDING AFFINITY PREDICTED BY RF-SCORE:    0.00 PKD
ROOT
HETATM    1  C   UNL     1     -10.387  12.260  63.425  1.00  0.00    -0.357 C  
HETATM    2  O   UNL     1     -11.613  11.886  64.038  1.00  0.00    -0.378 OA 
ENDROOT
BRANCH   2   3
HETATM    3  C   UNL     1     -11.722  12.123  65.381  1.00  0.00    -0.321 A  
HETATM    4  C   UNL     1     -12.255  13.268  65.968  1.00  0.00    -0.483 A  
HETATM    5  C   UNL     1     -12.219  13.427  67.360  1.00  0.00    -0.262 A  
HETATM    6  C   UNL     1     -11.658  12.442  68.192  1.00  0.00    -0.395 A  
HETATM    7  C   UNL     1     -11.206  11.260  67.590  1.00  0.00    -0.357 A  
HETATM    8  C   UNL     1     -11.239  11.102  66.201  1.00  0.00    -0.059 A  
BRANCH   6   9
HETATM    9  C   UNL     1     -11.331  12.693  69.659  1.00  0.00    -0.104 C  
BRANCH   9  10
HETATM   10  N   UNL     1     -12.341  12.288  70.618  1.00  0.00    -0.337 NA 
BRANCH  10  11
HETATM   11  C   UNL     1     -12.343  10.981  71.077  1.00  0.00    -0.385 A  
HETATM   12  N   UNL     1     -13.464  10.487  71.633  1.00  0.00    -0.272 NA 
HETATM   13  N   UNL     1     -11.214  10.254  71.005  1.00  0.00    -0.256 NA 
HETATM   14  C   UNL     1     -13.419   9.253  72.166  1.00  0.00    -0.473 A  
HETATM   15  C   UNL     1     -12.288   8.482  72.196  1.00  0.00    -0.444 A  
HETATM   16  C   UNL     1     -11.198   9.041  71.586  1.00  0.00    -0.361 A  
ENDBRANCH  10  11
BRANCH  10  17
HETATM   17  C   UNL     1     -13.397  13.158  71.148  1.00  0.00     0.061 C  
BRANCH  17  18
HETATM   18  C   UNL     1     -13.235  13.653  72.603  1.00  0.00    -0.430 C  
BRANCH  18  19
HETATM   19  N   UNL     1     -13.168  15.132  72.736  1.00  0.00    -0.433 NA 
HETATM   20  C   UNL     1     -12.469  15.783  71.623  1.00  0.00    -0.463 C  
HETATM   21  C   UNL     1     -12.515  15.501  73.996  1.00  0.00    -0.653 C  
ENDBRANCH  18  19
ENDBRANCH  17  18
ENDBRANCH  10  17
ENDBRANCH   9  10
ENDBRANCH   6   9
ENDBRANCH   2   3
TORSDOF 7
ENDMDL
MODEL       54
REMARK 921   NORMALIZED FREE ENERGY PREDICTED BY IDOCK:   -4.86 KCAL/MOL
REMARK 922        TOTAL FREE ENERGY PREDICTED BY IDOCK:   -7.69 KCAL/MOL
REMARK 923 INTER-LIGAND FREE ENERGY PREDICTED BY IDOCK:   -7.03 KCAL/MOL
REMARK 924 INTRA-LIGAND FREE ENERGY PREDICTED BY IDOCK:   -0.66 KCAL/MOL
REMARK 927      BINDING AFFINITY PREDICTED BY RF-SCORE:    0.00 PKD
ROOT
HETATM    1  C   UNL     1     -12.477  15.450  74.092  1.00  0.00    -0.642 C  
HETATM    2  O   UNL     1     -13.222  14.560  73.271  1.00  0.00    -0.606 OA 
ENDROOT
BRANCH   2   3
HETATM    3  C   UNL     1     -12.827  14.461  71.964  1.00  0.00    -0.343 A  
HETATM    4  C   UNL     1     -12.628  13.276  71.259  1.00  0.00    -0.398 A  
HETATM    5  C   UNL     1     -12.129  13.313  69.950  1.00  0.00    -0.377 A  
HETATM    6  C   UNL     1     -11.827  14.532  69.318  1.00  0.00    -0.361 A  
HETATM    7  C   UNL     1     -12.115  15.714  70.013  1.00  0.00    -0.379 A  
HETATM    8  C   UNL     1     -12.611  15.679  71.319  1.00  0.00    -0.523 A  
BRANCH   6   9
HETATM    9  C   UNL     1     -11.017  14.613  68.030  1.00  0.00    -0.267 C  
BRANCH   9  10
HETATM   10  N   UNL     1     -10.510  13.357  67.513  1.00  0.00    -0.235 NA 
BRANCH  10  11
HETATM   11  C   UNL     1      -9.175  13.041  67.711  1.00  0.00    -0.200 A  
HETATM   12  N   UNL     1      -8.451  13.782  68.570  1.00  0.00    -0.148 NA 
HETATM   13  N   UNL     1      -8.623  12.038  67.007  1.00  0.00    -0.181 NA 
HETATM   14  C   UNL     1      -7.134  13.527  68.674  1.00  0.00    -0.106 A  
HETATM   15  C   UNL     1      -6.487  12.573  67.936  1.00  0.00    -0.105 A  
HETATM   16  C   UNL     1      -7.296  11.842  67.108  1.00  0.00    -0.142 A  
ENDBRANCH  10  11
BRANCH  10  17
HETATM   17  C   UNL     1     -11.301  12.372  66.767  1.00  0.00    -0.335 C  
BRANCH  17  18
HETATM   18  C   UNL     1     -12.323  12.920  65.745  1.00  0.00    -0.375 C  
BRANCH  18  19
HETATM   19  N   UNL     1     -11.707  13.519  64.532  1.00  0.00    -0.380 NA 
HETATM   20  C   UNL     1     -11.994  14.949  64.383  1.00  0.00    -0.394 C  
HETATM   21  C   UNL     1     -12.156  12.810  63.330  1.00  0.00    -0.534 C  
ENDBRANCH  18  19
ENDBRANCH  17  18
ENDBRANCH  10  17
ENDBRANCH   9  10
ENDBRANCH   6   9
ENDBRANCH   2   3
TORSDOF 7
ENDMDL
MODEL       55
REMARK 921   NORMALIZED FREE ENERGY PREDICTED BY IDOCK:   -4.84 KCAL/MOL
REMARK 922        TOTAL FREE ENERGY PREDICTED BY IDOCK:   -7.67 KCAL/MOL
REMARK 923 INTER-LIGAND FREE ENERGY PREDICTED BY IDOCK:   -7.15 KCAL/MOL
REMARK 924 INTRA-LIGAND FREE ENERGY PREDICTED BY IDOCK:   -0.52 KCAL/MOL
REMARK 927      BINDING AFFINITY PREDICTED BY RF-SCORE:    0.00 PKD
ROOT
HETATM    1  C   UNL     1     -10.693   5.831  69.588  1.00  0.00    -0.346 C  
HETATM    2  O   UNL     1     -10.924   6.932  70.456  1.00  0.00    -0.247 OA 
ENDROOT
BRANCH   2   3
HETATM    3  C   UNL     1     -10.849   8.178  69.896  1.00  0.00    -0.215 A  
HETATM    4  C   UNL     1     -10.364   8.475  68.624  1.00  0.00    -0.224 A  
HETATM    5  C   UNL     1     -10.252   9.808  68.208  1.00  0.00    -0.212 A  
HETATM    6  C   UNL     1     -10.629  10.870  69.050  1.00  0.00    -0.248 A  
HETATM    7  C   UNL     1     -11.193  10.548  70.291  1.00  0.00    -0.391 A  
HETATM    8  C   UNL     1     -11.304   9.218  70.709  1.00  0.00    -0.349 A  
BRANCH   6   9
HETATM    9  C   UNL     1     -10.255  12.319  68.764  1.00  0.00    -0.102 C  
BRANCH   9  10
HETATM   10  N   UNL     1     -11.308  13.158  68.228  1.00  0.00    -0.277 NA 
BRANCH  10  11
HETATM   11  C   UNL     1     -11.457  13.250  66.853  1.00  0.00    -0.338 A  
HETATM   12  N   UNL     1     -11.083  14.384  66.232  1.00  0.00    -0.325 NA 
HETATM   13  N   UNL     1     -12.016  12.229  66.180  1.00  0.00    -0.618 NA 
HETATM   14  C   UNL     1     -11.329  14.496  64.914  1.00  0.00    -0.394 A  
HETATM   15  C   UNL     1     -11.960  13.531  64.176  1.00  0.00    -0.498 A  
HETATM   16  C   UNL     1     -12.282  12.398  64.872  1.00  0.00    -0.418 A  
ENDBRANCH  10  11
BRANCH  10  17
HETATM   17  C   UNL     1     -12.246  13.950  69.031  1.00  0.00    -0.239 C  
BRANCH  17  18
HETATM   18  C   UNL     1     -12.036  13.947  70.562  1.00  0.00    -0.356 C  
BRANCH  18  19
HETATM   19  N   UNL     1     -12.922  14.887  71.298  1.00  0.00    -0.336 NA 
HETATM   20  C   UNL     1     -12.189  15.951  71.991  1.00  0.00    -0.490 C  
HETATM   21  C   UNL     1     -13.744  14.157  72.269  1.00  0.00    -0.526 C  
ENDBRANCH  18  19
ENDBRANCH  17  18
ENDBRANCH  10  17
ENDBRANCH   9  10
ENDBRANCH   6   9
ENDBRANCH   2   3
TORSDOF 7
ENDMDL
MODEL       56
REMARK 921   NORMALIZED FREE ENERGY PREDICTED BY IDOCK:   -4.83 KCAL/MOL
REMARK 922        TOTAL FREE ENERGY PREDICTED BY IDOCK:   -7.66 KCAL/MOL
REMARK 923 INTER-LIGAND FREE ENERGY PREDICTED BY IDOCK:   -7.21 KCAL/MOL
REMARK 924 INTRA-LIGAND FREE ENERGY PREDICTED BY IDOCK:   -0.44 KCAL/MOL
REMARK 927      BINDING AFFINITY PREDICTED BY RF-SCORE:    0.00 PKD
ROOT
HETATM    1  C   UNL     1     -12.238  16.211  73.203  1.00  0.00    -0.542 C  
HETATM    2  O   UNL     1     -12.552  15.861  71.862  1.00  0.00    -0.436 OA 
ENDROOT
BRANCH   2   3
HETATM    3  C   UNL     1     -12.704  14.527  71.598  1.00  0.00    -0.342 A  
HETATM    4  C   UNL     1     -13.341  13.599  72.418  1.00  0.00    -0.641 A  
HETATM    5  C   UNL     1     -13.343  12.241  72.074  1.00  0.00    -0.491 A  
HETATM    6  C   UNL     1     -12.717  11.785  70.900  1.00  0.00    -0.328 A  
HETATM    7  C   UNL     1     -12.157  12.743  70.046  1.00  0.00    -0.355 A  
HETATM    8  C   UNL     1     -12.152  14.099  70.390  1.00  0.00    -0.417 A  
BRANCH   6   9
HETATM    9  C   UNL     1     -12.438  10.310  70.637  1.00  0.00    -0.318 C  
BRANCH   9  10
HETATM   10  N   UNL     1     -11.043   9.917  70.611  1.00  0.00    -0.317 NA 
BRANCH  10  11
HETATM   11  C   UNL     1     -10.558   9.101  71.622  1.00  0.00    -0.357 A  
HETATM   12  N   UNL     1      -9.230   9.050  71.837  1.00  0.00    -0.365 NA 
HETATM   13  N   UNL     1     -11.416   8.344  72.327  1.00  0.00    -0.368 NA 
HETATM   14  C   UNL     1      -8.769   8.178  72.750  1.00  0.00    -0.217 A  
HETATM   15  C   UNL     1      -9.572   7.322  73.455  1.00  0.00    -0.272 A  
HETATM   16  C   UNL     1     -10.911   7.455  73.202  1.00  0.00    -0.386 A  
ENDBRANCH  10  11
BRANCH  10  17
HETATM   17  C   UNL     1     -10.069  10.328  69.594  1.00  0.00    -0.224 C  
BRANCH  17  18
HETATM   18  C   UNL     1     -10.213   9.700  68.189  1.00  0.00    -0.190 C  
BRANCH  18  19
HETATM   19  N   UNL     1      -9.935  10.640  67.072  1.00  0.00    -0.195 NA 
HETATM   20  C   UNL     1      -8.736  11.457  67.288  1.00  0.00    -0.148 C  
HETATM   21  C   UNL     1     -11.085  11.522  66.850  1.00  0.00    -0.307 C  
ENDBRANCH  18  19
ENDBRANCH  17  18
ENDBRANCH  10  17
ENDBRANCH   9  10
ENDBRANCH   6   9
ENDBRANCH   2   3
TORSDOF 7
ENDMDL
MODEL       57
REMARK 921   NORMALIZED FREE ENERGY PREDICTED BY IDOCK:   -4.83 KCAL/MOL
REMARK 922        TOTAL FREE ENERGY PREDICTED BY IDOCK:   -7.65 KCAL/MOL
REMARK 923 INTER-LIGAND FREE ENERGY PREDICTED BY IDOCK:   -6.76 KCAL/MOL
REMARK 924 INTRA-LIGAND FREE ENERGY PREDICTED BY IDOCK:   -0.89 KCAL/MOL
REMARK 927      BINDING AFFINITY PREDICTED BY RF-SCORE:    0.00 PKD
ROOT
HETATM    1  C   UNL     1      -9.232  10.412  64.537  1.00  0.00    -0.246 C  
HETATM    2  O   UNL     1     -10.573  10.855  64.376  1.00  0.00    -0.360 OA 
ENDROOT
BRANCH   2   3
HETATM    3  C   UNL     1     -10.928  11.988  65.055  1.00  0.00    -0.306 A  
HETATM    4  C   UNL     1     -10.898  13.287  64.551  1.00  0.00    -0.409 A  
HETATM    5  C   UNL     1     -11.197  14.372  65.385  1.00  0.00    -0.335 A  
HETATM    6  C   UNL     1     -11.539  14.181  66.736  1.00  0.00    -0.409 A  
HETATM    7  C   UNL     1     -11.648  12.864  67.201  1.00  0.00    -0.421 A  
HETATM    8  C   UNL     1     -11.348  11.780  66.369  1.00  0.00    -0.361 A  
BRANCH   6   9
HETATM    9  C   UNL     1     -11.582  15.324  67.743  1.00  0.00    -0.265 C  
BRANCH   9  10
HETATM   10  N   UNL     1     -10.342  16.047  67.943  1.00  0.00    -0.262 NA 
BRANCH  10  11
HETATM   11  C   UNL     1     -10.279  17.383  67.579  1.00  0.00    -0.332 A  
HETATM   12  N   UNL     1     -10.124  18.313  68.540  1.00  0.00    -0.388 NA 
HETATM   13  N   UNL     1     -10.424  17.722  66.287  1.00  0.00    -0.343 NA 
HETATM   14  C   UNL     1     -10.169  19.609  68.181  1.00  0.00    -0.461 A  
HETATM   15  C   UNL     1     -10.386  20.033  66.898  1.00  0.00    -0.567 A  
HETATM   16  C   UNL     1     -10.504  19.029  65.975  1.00  0.00    -0.458 A  
ENDBRANCH  10  11
BRANCH  10  17
HETATM   17  C   UNL     1      -9.111  15.473  68.497  1.00  0.00    -0.196 C  
BRANCH  17  18
HETATM   18  C   UNL     1      -7.934  15.256  67.518  1.00  0.00    -0.176 C  
BRANCH  18  19
HETATM   19  N   UNL     1      -6.712  16.031  67.857  1.00  0.00    -0.130 NA 
HETATM   20  C   UNL     1      -5.505  15.202  67.939  1.00  0.00    -0.112 C  
HETATM   21  C   UNL     1      -6.895  16.741  69.126  1.00  0.00    -0.227 C  
ENDBRANCH  18  19
ENDBRANCH  17  18
ENDBRANCH  10  17
ENDBRANCH   9  10
ENDBRANCH   6   9
ENDBRANCH   2   3
TORSDOF 7
ENDMDL
MODEL       58
REMARK 921   NORMALIZED FREE ENERGY PREDICTED BY IDOCK:   -4.82 KCAL/MOL
REMARK 922        TOTAL FREE ENERGY PREDICTED BY IDOCK:   -7.64 KCAL/MOL
REMARK 923 INTER-LIGAND FREE ENERGY PREDICTED BY IDOCK:   -6.79 KCAL/MOL
REMARK 924 INTRA-LIGAND FREE ENERGY PREDICTED BY IDOCK:   -0.85 KCAL/MOL
REMARK 927      BINDING AFFINITY PREDICTED BY RF-SCORE:    0.00 PKD
ROOT
HETATM    1  C   UNL     1      -5.142  14.180  68.286  1.00  0.00    -0.111 C  
HETATM    2  O   UNL     1      -5.963  14.846  67.336  1.00  0.00    -0.338 OA 
ENDROOT
BRANCH   2   3
HETATM    3  C   UNL     1      -7.166  15.315  67.789  1.00  0.00    -0.165 A  
HETATM    4  C   UNL     1      -7.566  15.386  69.122  1.00  0.00    -0.198 A  
HETATM    5  C   UNL     1      -8.865  15.799  69.445  1.00  0.00    -0.237 A  
HETATM    6  C   UNL     1      -9.788  16.155  68.444  1.00  0.00    -0.222 A  
HETATM    7  C   UNL     1      -9.340  16.159  67.117  1.00  0.00    -0.225 A  
HETATM    8  C   UNL     1      -8.044  15.745  66.793  1.00  0.00    -0.297 A  
BRANCH   6   9
HETATM    9  C   UNL     1     -11.277  16.321  68.720  1.00  0.00    -0.343 C  
BRANCH   9  10
HETATM   10  N   UNL     1     -11.924  15.228  69.420  1.00  0.00    -0.326 NA 
BRANCH  10  11
HETATM   11  C   UNL     1     -12.356  15.428  70.721  1.00  0.00    -0.396 A  
HETATM   12  N   UNL     1     -11.445  15.465  71.711  1.00  0.00    -0.412 NA 
HETATM   13  N   UNL     1     -13.672  15.530  70.972  1.00  0.00    -0.544 NA 
HETATM   14  C   UNL     1     -11.887  15.557  72.978  1.00  0.00    -0.445 A  
HETATM   15  C   UNL     1     -13.213  15.590  73.317  1.00  0.00    -0.635 A  
HETATM   16  C   UNL     1     -14.076  15.579  72.254  1.00  0.00    -0.544 A  
ENDBRANCH  10  11
BRANCH  10  17
HETATM   17  C   UNL     1     -12.155  13.891  68.864  1.00  0.00    -0.319 C  
BRANCH  17  18
HETATM   18  C   UNL     1     -11.396  12.716  69.521  1.00  0.00    -0.158 C  
BRANCH  18  19
HETATM   19  N   UNL     1     -12.279  11.679  70.115  1.00  0.00    -0.306 NA 
HETATM   20  C   UNL     1     -12.699  11.991  71.486  1.00  0.00    -0.255 C  
HETATM   21  C   UNL     1     -11.613  10.373  70.102  1.00  0.00    -0.312 C  
ENDBRANCH  18  19
ENDBRANCH  17  18
ENDBRANCH  10  17
ENDBRANCH   9  10
ENDBRANCH   6   9
ENDBRANCH   2   3
TORSDOF 7
ENDMDL
MODEL       59
REMARK 921   NORMALIZED FREE ENERGY PREDICTED BY IDOCK:   -4.81 KCAL/MOL
REMARK 922        TOTAL FREE ENERGY PREDICTED BY IDOCK:   -7.63 KCAL/MOL
REMARK 923 INTER-LIGAND FREE ENERGY PREDICTED BY IDOCK:   -6.77 KCAL/MOL
REMARK 924 INTRA-LIGAND FREE ENERGY PREDICTED BY IDOCK:   -0.86 KCAL/MOL
REMARK 927      BINDING AFFINITY PREDICTED BY RF-SCORE:    0.00 PKD
ROOT
HETATM    1  C   UNL     1      -6.419  19.164  69.318  1.00  0.00    -0.299 C  
HETATM    2  O   UNL     1      -7.716  19.676  69.047  1.00  0.00    -0.347 OA 
ENDROOT
BRANCH   2   3
HETATM    3  C   UNL     1      -8.641  18.782  68.578  1.00  0.00    -0.344 A  
HETATM    4  C   UNL     1      -9.942  19.084  68.183  1.00  0.00    -0.449 A  
HETATM    5  C   UNL     1     -10.820  18.057  67.813  1.00  0.00    -0.246 A  
HETATM    6  C   UNL     1     -10.414  16.711  67.821  1.00  0.00    -0.316 A  
HETATM    7  C   UNL     1      -9.077  16.436  68.138  1.00  0.00    -0.201 A  
HETATM    8  C   UNL     1      -8.200  17.460  68.510  1.00  0.00    -0.268 A  
BRANCH   6   9
HETATM    9  C   UNL     1     -11.399  15.553  67.716  1.00  0.00    -0.286 C  
BRANCH   9  10
HETATM   10  N   UNL     1     -11.708  14.861  68.952  1.00  0.00    -0.308 NA 
BRANCH  10  11
HETATM   11  C   UNL     1     -11.356  13.527  69.079  1.00  0.00    -0.288 A  
HETATM   12  N   UNL     1     -10.240  13.087  68.470  1.00  0.00    -0.237 NA 
HETATM   13  N   UNL     1     -12.161  12.695  69.763  1.00  0.00    -0.272 NA 
HETATM   14  C   UNL     1      -9.968  11.771  68.518  1.00  0.00    -0.199 A  
HETATM   15  C   UNL     1     -10.776  10.852  69.131  1.00  0.00    -0.265 A  
HETATM   16  C   UNL     1     -11.876  11.380  69.752  1.00  0.00    -0.364 A  
ENDBRANCH  10  11
BRANCH  10  17
HETATM   17  C   UNL     1     -12.392  15.459  70.103  1.00  0.00    -0.361 C  
BRANCH  17  18
HETATM   18  C   UNL     1     -11.521  15.816  71.330  1.00  0.00    -0.422 C  
BRANCH  18  19
HETATM   19  N   UNL     1     -12.053  15.307  72.620  1.00  0.00    -0.393 NA 
HETATM   20  C   UNL     1     -13.347  14.629  72.487  1.00  0.00    -0.448 C  
HETATM   21  C   UNL     1     -12.183  16.403  73.586  1.00  0.00    -0.453 C  
ENDBRANCH  18  19
ENDBRANCH  17  18
ENDBRANCH  10  17
ENDBRANCH   9  10
ENDBRANCH   6   9
ENDBRANCH   2   3
TORSDOF 7
ENDMDL
MODEL       60
REMARK 921   NORMALIZED FREE ENERGY PREDICTED BY IDOCK:   -4.80 KCAL/MOL
REMARK 922        TOTAL FREE ENERGY PREDICTED BY IDOCK:   -7.60 KCAL/MOL
REMARK 923 INTER-LIGAND FREE ENERGY PREDICTED BY IDOCK:   -7.24 KCAL/MOL
REMARK 924 INTRA-LIGAND FREE ENERGY PREDICTED BY IDOCK:   -0.36 KCAL/MOL
REMARK 927      BINDING AFFINITY PREDICTED BY RF-SCORE:    0.00 PKD
ROOT
HETATM    1  C   UNL     1      -5.425  13.777  67.976  1.00  0.00    -0.115 C  
HETATM    2  O   UNL     1      -5.978  14.961  67.418  1.00  0.00    -0.338 OA 
ENDROOT
BRANCH   2   3
HETATM    3  C   UNL     1      -7.226  15.317  67.854  1.00  0.00    -0.143 A  
HETATM    4  C   UNL     1      -7.718  15.153  69.147  1.00  0.00    -0.195 A  
HETATM    5  C   UNL     1      -9.051  15.472  69.438  1.00  0.00    -0.280 A  
HETATM    6  C   UNL     1      -9.916  15.968  68.446  1.00  0.00    -0.220 A  
HETATM    7  C   UNL     1      -9.379  16.206  67.173  1.00  0.00    -0.225 A  
HETATM    8  C   UNL     1      -8.049  15.886  66.882  1.00  0.00    -0.285 A  
BRANCH   6   9
HETATM    9  C   UNL     1     -11.426  16.048  68.635  1.00  0.00    -0.377 C  
BRANCH   9  10
HETATM   10  N   UNL     1     -12.033  14.973  69.395  1.00  0.00    -0.312 NA 
BRANCH  10  11
HETATM   11  C   UNL     1     -12.457  15.224  70.690  1.00  0.00    -0.406 A  
HETATM   12  N   UNL     1     -13.719  14.909  71.034  1.00  0.00    -0.358 NA 
HETATM   13  N   UNL     1     -11.619  15.821  71.555  1.00  0.00    -0.421 NA 
HETATM   14  C   UNL     1     -14.147  15.253  72.263  1.00  0.00    -0.554 A  
HETATM   15  C   UNL     1     -13.376  15.927  73.172  1.00  0.00    -0.681 A  
HETATM   16  C   UNL     1     -12.097  16.185  72.759  1.00  0.00    -0.553 A  
ENDBRANCH  10  11
BRANCH  10  17
HETATM   17  C   UNL     1     -12.229  13.603  68.908  1.00  0.00    -0.186 C  
BRANCH  17  18
HETATM   18  C   UNL     1     -11.263  13.103  67.810  1.00  0.00    -0.277 C  
BRANCH  18  19
HETATM   19  N   UNL     1     -11.942  12.625  66.577  1.00  0.00    -0.533 NA 
HETATM   20  C   UNL     1     -11.077  11.806  65.720  1.00  0.00    -0.297 C  
HETATM   21  C   UNL     1     -12.449  13.761  65.801  1.00  0.00    -0.485 C  
ENDBRANCH  18  19
ENDBRANCH  17  18
ENDBRANCH  10  17
ENDBRANCH   9  10
ENDBRANCH   6   9
ENDBRANCH   2   3
TORSDOF 7
ENDMDL
MODEL       61
REMARK 921   NORMALIZED FREE ENERGY PREDICTED BY IDOCK:   -4.77 KCAL/MOL
REMARK 922        TOTAL FREE ENERGY PREDICTED BY IDOCK:   -7.57 KCAL/MOL
REMARK 923 INTER-LIGAND FREE ENERGY PREDICTED BY IDOCK:   -6.78 KCAL/MOL
REMARK 924 INTRA-LIGAND FREE ENERGY PREDICTED BY IDOCK:   -0.78 KCAL/MOL
REMARK 927      BINDING AFFINITY PREDICTED BY RF-SCORE:    0.00 PKD
ROOT
HETATM    1  C   UNL     1      -5.166  14.335  67.887  1.00  0.00    -0.051 C  
HETATM    2  O   UNL     1      -5.789  15.483  67.327  1.00  0.00    -0.333 OA 
ENDROOT
BRANCH   2   3
HETATM    3  C   UNL     1      -7.062  15.756  67.752  1.00  0.00    -0.151 A  
HETATM    4  C   UNL     1      -7.543  15.593  69.049  1.00  0.00    -0.187 A  
HETATM    5  C   UNL     1      -8.897  15.819  69.330  1.00  0.00    -0.262 A  
HETATM    6  C   UNL     1      -9.794  16.218  68.323  1.00  0.00    -0.227 A  
HETATM    7  C   UNL     1      -9.274  16.459  67.045  1.00  0.00    -0.236 A  
HETATM    8  C   UNL     1      -7.923  16.233  66.763  1.00  0.00    -0.306 A  
BRANCH   6   9
HETATM    9  C   UNL     1     -11.307  16.189  68.510  1.00  0.00    -0.359 C  
BRANCH   9  10
HETATM   10  N   UNL     1     -11.885  14.903  68.847  1.00  0.00    -0.313 NA 
BRANCH  10  11
HETATM   11  C   UNL     1     -11.775  13.861  67.940  1.00  0.00    -0.361 A  
HETATM   12  N   UNL     1     -11.088  12.759  68.295  1.00  0.00    -0.242 NA 
HETATM   13  N   UNL     1     -12.310  13.993  66.715  1.00  0.00    -0.405 NA 
HETATM   14  C   UNL     1     -10.903  11.801  67.369  1.00  0.00    -0.251 A  
HETATM   15  C   UNL     1     -11.353  11.896  66.080  1.00  0.00    -0.383 A  
HETATM   16  C   UNL     1     -12.068  13.031  65.805  1.00  0.00    -0.454 A  
ENDBRANCH  10  11
BRANCH  10  17
HETATM   17  C   UNL     1     -12.608  14.603  70.087  1.00  0.00    -0.283 C  
BRANCH  17  18
HETATM   18  C   UNL     1     -12.525  15.652  71.220  1.00  0.00    -0.444 C  
BRANCH  18  19
HETATM   19  N   UNL     1     -13.425  15.376  72.369  1.00  0.00    -0.444 NA 
HETATM   20  C   UNL     1     -12.707  15.163  73.630  1.00  0.00    -0.546 C  
HETATM   21  C   UNL     1     -14.264  14.206  72.090  1.00  0.00    -0.546 C  
ENDBRANCH  18  19
ENDBRANCH  17  18
ENDBRANCH  10  17
ENDBRANCH   9  10
ENDBRANCH   6   9
ENDBRANCH   2   3
TORSDOF 7
ENDMDL
MODEL       62
REMARK 921   NORMALIZED FREE ENERGY PREDICTED BY IDOCK:   -4.77 KCAL/MOL
REMARK 922        TOTAL FREE ENERGY PREDICTED BY IDOCK:   -7.56 KCAL/MOL
REMARK 923 INTER-LIGAND FREE ENERGY PREDICTED BY IDOCK:   -6.64 KCAL/MOL
REMARK 924 INTRA-LIGAND FREE ENERGY PREDICTED BY IDOCK:   -0.92 KCAL/MOL
REMARK 927      BINDING AFFINITY PREDICTED BY RF-SCORE:    0.00 PKD
ROOT
HETATM    1  C   UNL     1     -11.529   9.533  70.395  1.00  0.00    -0.242 C  
HETATM    2  O   UNL     1     -12.492  10.573  70.295  1.00  0.00    -0.305 OA 
ENDROOT
BRANCH   2   3
HETATM    3  C   UNL     1     -12.133  11.669  69.559  1.00  0.00    -0.270 A  
HETATM    4  C   UNL     1     -12.068  12.980  70.025  1.00  0.00    -0.367 A  
HETATM    5  C   UNL     1     -11.779  14.027  69.140  1.00  0.00    -0.375 A  
HETATM    6  C   UNL     1     -11.541  13.784  67.775  1.00  0.00    -0.381 A  
HETATM    7  C   UNL     1     -11.526  12.452  67.343  1.00  0.00    -0.418 A  
HETATM    8  C   UNL     1     -11.817  11.406  68.226  1.00  0.00    -0.320 A  
BRANCH   6   9
HETATM    9  C   UNL     1     -11.516  14.897  66.733  1.00  0.00    -0.301 C  
BRANCH   9  10
HETATM   10  N   UNL     1     -10.275  15.637  66.617  1.00  0.00    -0.271 NA 
BRANCH  10  11
HETATM   11  C   UNL     1     -10.276  16.994  66.900  1.00  0.00    -0.305 A  
HETATM   12  N   UNL     1     -10.222  17.391  68.185  1.00  0.00    -0.329 NA 
HETATM   13  N   UNL     1     -10.382  17.878  65.893  1.00  0.00    -0.578 NA 
HETATM   14  C   UNL     1     -10.327  18.706  68.447  1.00  0.00    -0.311 A  
HETATM   15  C   UNL     1     -10.511  19.659  67.482  1.00  0.00    -0.589 A  
HETATM   16  C   UNL     1     -10.526  19.180  66.200  1.00  0.00    -0.477 A  
ENDBRANCH  10  11
BRANCH  10  17
HETATM   17  C   UNL     1      -8.989  15.067  66.202  1.00  0.00    -0.123 C  
BRANCH  17  18
HETATM   18  C   UNL     1      -7.816  15.179  67.203  1.00  0.00    -0.205 C  
BRANCH  18  19
HETATM   19  N   UNL     1      -8.046  14.473  68.490  1.00  0.00    -0.142 NA 
HETATM   20  C   UNL     1      -7.087  14.845  69.535  1.00  0.00    -0.184 C  
HETATM   21  C   UNL     1      -8.000  13.021  68.290  1.00  0.00    -0.151 C  
ENDBRANCH  18  19
ENDBRANCH  17  18
ENDBRANCH  10  17
ENDBRANCH   9  10
ENDBRANCH   6   9
ENDBRANCH   2   3
TORSDOF 7
ENDMDL
MODEL       63
REMARK 921   NORMALIZED FREE ENERGY PREDICTED BY IDOCK:   -4.77 KCAL/MOL
REMARK 922        TOTAL FREE ENERGY PREDICTED BY IDOCK:   -7.56 KCAL/MOL
REMARK 923 INTER-LIGAND FREE ENERGY PREDICTED BY IDOCK:   -6.91 KCAL/MOL
REMARK 924 INTRA-LIGAND FREE ENERGY PREDICTED BY IDOCK:   -0.65 KCAL/MOL
REMARK 927      BINDING AFFINITY PREDICTED BY RF-SCORE:    0.00 PKD
ROOT
HETATM    1  C   UNL     1      -8.542   7.608  72.917  1.00  0.00    -0.143 C  
HETATM    2  O   UNL     1      -8.068   8.365  71.812  1.00  0.00    -0.125 OA 
ENDROOT
BRANCH   2   3
HETATM    3  C   UNL     1      -9.011   9.030  71.077  1.00  0.00    -0.241 A  
HETATM    4  C   UNL     1      -8.801   9.653  69.849  1.00  0.00    -0.240 A  
HETATM    5  C   UNL     1      -9.832  10.383  69.245  1.00  0.00    -0.243 A  
HETATM    6  C   UNL     1     -11.096  10.500  69.851  1.00  0.00    -0.371 A  
HETATM    7  C   UNL     1     -11.314   9.795  71.043  1.00  0.00    -0.460 A  
HETATM    8  C   UNL     1     -10.284   9.067  71.647  1.00  0.00    -0.418 A  
BRANCH   6   9
HETATM    9  C   UNL     1     -12.140  11.510  69.391  1.00  0.00    -0.279 C  
BRANCH   9  10
HETATM   10  N   UNL     1     -11.775  12.908  69.515  1.00  0.00    -0.319 NA 
BRANCH  10  11
HETATM   11  C   UNL     1     -12.308  13.650  70.557  1.00  0.00    -0.355 A  
HETATM   12  N   UNL     1     -13.030  13.020  71.502  1.00  0.00    -0.352 NA 
HETATM   13  N   UNL     1     -12.136  14.983  70.574  1.00  0.00    -0.301 NA 
HETATM   14  C   UNL     1     -13.626  13.767  72.449  1.00  0.00    -0.588 A  
HETATM   15  C   UNL     1     -13.558  15.133  72.489  1.00  0.00    -0.592 A  
HETATM   16  C   UNL     1     -12.782  15.697  71.513  1.00  0.00    -0.457 A  
ENDBRANCH  10  11
BRANCH  10  17
HETATM   17  C   UNL     1     -10.881  13.630  68.603  1.00  0.00    -0.263 C  
BRANCH  17  18
HETATM   18  C   UNL     1     -11.385  13.859  67.160  1.00  0.00    -0.327 C  
BRANCH  18  19
HETATM   19  N   UNL     1     -10.300  14.006  66.155  1.00  0.00    -0.289 NA 
HETATM   20  C   UNL     1     -10.756  13.797  64.776  1.00  0.00    -0.416 C  
HETATM   21  C   UNL     1      -9.206  13.074  66.446  1.00  0.00    -0.132 C  
ENDBRANCH  18  19
ENDBRANCH  17  18
ENDBRANCH  10  17
ENDBRANCH   9  10
ENDBRANCH   6   9
ENDBRANCH   2   3
TORSDOF 7
ENDMDL
MODEL       64
REMARK 921   NORMALIZED FREE ENERGY PREDICTED BY IDOCK:   -4.75 KCAL/MOL
REMARK 922        TOTAL FREE ENERGY PREDICTED BY IDOCK:   -7.54 KCAL/MOL
REMARK 923 INTER-LIGAND FREE ENERGY PREDICTED BY IDOCK:   -6.56 KCAL/MOL
REMARK 924 INTRA-LIGAND FREE ENERGY PREDICTED BY IDOCK:   -0.97 KCAL/MOL
REMARK 927      BINDING AFFINITY PREDICTED BY RF-SCORE:    0.00 PKD
ROOT
HETATM    1  C   UNL     1     -12.446  12.016  63.531  1.00  0.00    -0.540 C  
HETATM    2  O   UNL     1     -12.443  13.433  63.423  1.00  0.00    -0.753 OA 
ENDROOT
BRANCH   2   3
HETATM    3  C   UNL     1     -12.106  14.130  64.551  1.00  0.00    -0.468 A  
HETATM    4  C   UNL     1     -11.317  15.277  64.598  1.00  0.00    -0.364 A  
HETATM    5  C   UNL     1     -10.968  15.840  65.833  1.00  0.00    -0.191 A  
HETATM    6  C   UNL     1     -11.407  15.275  67.043  1.00  0.00    -0.230 A  
HETATM    7  C   UNL     1     -12.270  14.173  66.972  1.00  0.00    -0.374 A  
HETATM    8  C   UNL     1     -12.617  13.609  65.741  1.00  0.00    -0.511 A  
BRANCH   6   9
HETATM    9  C   UNL     1     -10.821  15.667  68.395  1.00  0.00    -0.290 C  
BRANCH   9  10
HETATM   10  N   UNL     1      -9.379  15.583  68.516  1.00  0.00    -0.191 NA 
BRANCH  10  11
HETATM   11  C   UNL     1      -8.643  16.755  68.584  1.00  0.00    -0.263 A  
HETATM   12  N   UNL     1      -7.331  16.684  68.873  1.00  0.00    -0.214 NA 
HETATM   13  N   UNL     1      -9.263  17.934  68.411  1.00  0.00    -0.281 NA 
HETATM   14  C   UNL     1      -6.654  17.834  69.037  1.00  0.00    -0.244 A  
HETATM   15  C   UNL     1      -7.231  19.072  68.949  1.00  0.00    -0.364 A  
HETATM   16  C   UNL     1      -8.561  19.062  68.623  1.00  0.00    -0.354 A  
ENDBRANCH  10  11
BRANCH  10  17
HETATM   17  C   UNL     1      -8.608  14.335  68.559  1.00  0.00    -0.175 C  
BRANCH  17  18
HETATM   18  C   UNL     1      -8.319  13.641  67.209  1.00  0.00    -0.171 C  
BRANCH  18  19
HETATM   19  N   UNL     1      -8.613  12.184  67.200  1.00  0.00    -0.179 NA 
HETATM   20  C   UNL     1      -9.302  11.739  65.984  1.00  0.00    -0.220 C  
HETATM   21  C   UNL     1      -9.418  11.820  68.370  1.00  0.00    -0.188 C  
ENDBRANCH  18  19
ENDBRANCH  17  18
ENDBRANCH  10  17
ENDBRANCH   9  10
ENDBRANCH   6   9
ENDBRANCH   2   3
TORSDOF 7
ENDMDL
MODEL       65
REMARK 921   NORMALIZED FREE ENERGY PREDICTED BY IDOCK:   -4.74 KCAL/MOL
REMARK 922        TOTAL FREE ENERGY PREDICTED BY IDOCK:   -7.52 KCAL/MOL
REMARK 923 INTER-LIGAND FREE ENERGY PREDICTED BY IDOCK:   -6.79 KCAL/MOL
REMARK 924 INTRA-LIGAND FREE ENERGY PREDICTED BY IDOCK:   -0.73 KCAL/MOL
REMARK 927      BINDING AFFINITY PREDICTED BY RF-SCORE:    0.00 PKD
ROOT
HETATM    1  C   UNL     1     -10.420  19.841  65.729  1.00  0.00    -0.445 C  
HETATM    2  O   UNL     1      -9.357  18.951  66.045  1.00  0.00    -0.467 OA 
ENDROOT
BRANCH   2   3
HETATM    3  C   UNL     1      -9.703  17.784  66.671  1.00  0.00    -0.313 A  
HETATM    4  C   UNL     1     -10.627  17.654  67.706  1.00  0.00    -0.380 A  
HETATM    5  C   UNL     1     -10.818  16.412  68.325  1.00  0.00    -0.347 A  
HETATM    6  C   UNL     1     -10.098  15.275  67.919  1.00  0.00    -0.233 A  
HETATM    7  C   UNL     1      -9.238  15.407  66.820  1.00  0.00    -0.273 A  
HETATM    8  C   UNL     1      -9.044  16.647  66.203  1.00  0.00    -0.318 A  
BRANCH   6   9
HETATM    9  C   UNL     1     -10.052  13.993  68.741  1.00  0.00    -0.180 C  
BRANCH   9  10
HETATM   10  N   UNL     1     -10.989  12.955  68.360  1.00  0.00    -0.246 NA 
BRANCH  10  11
HETATM   11  C   UNL     1     -11.167  11.870  69.204  1.00  0.00    -0.255 A  
HETATM   12  N   UNL     1     -10.197  10.940  69.282  1.00  0.00    -0.201 NA 
HETATM   13  N   UNL     1     -12.320  11.745  69.884  1.00  0.00    -0.183 NA 
HETATM   14  C   UNL     1     -10.428   9.843  70.026  1.00  0.00    -0.284 A  
HETATM   15  C   UNL     1     -11.604   9.610  70.687  1.00  0.00    -0.371 A  
HETATM   16  C   UNL     1     -12.528  10.614  70.583  1.00  0.00    -0.371 A  
ENDBRANCH  10  11
BRANCH  10  17
HETATM   17  C   UNL     1     -11.776  12.942  67.122  1.00  0.00    -0.377 C  
BRANCH  17  18
HETATM   18  C   UNL     1     -11.193  12.154  65.927  1.00  0.00    -0.339 C  
BRANCH  18  19
HETATM   19  N   UNL     1     -10.876  12.994  64.743  1.00  0.00    -0.319 NA 
HETATM   20  C   UNL     1     -11.808  14.112  64.559  1.00  0.00    -0.436 C  
HETATM   21  C   UNL     1     -10.861  12.175  63.527  1.00  0.00    -0.458 C  
ENDBRANCH  18  19
ENDBRANCH  17  18
ENDBRANCH  10  17
ENDBRANCH   9  10
ENDBRANCH   6   9
ENDBRANCH   2   3
TORSDOF 7
ENDMDL
MODEL       66
REMARK 921   NORMALIZED FREE ENERGY PREDICTED BY IDOCK:   -4.74 KCAL/MOL
REMARK 922        TOTAL FREE ENERGY PREDICTED BY IDOCK:   -7.52 KCAL/MOL
REMARK 923 INTER-LIGAND FREE ENERGY PREDICTED BY IDOCK:   -6.81 KCAL/MOL
REMARK 924 INTRA-LIGAND FREE ENERGY PREDICTED BY IDOCK:   -0.71 KCAL/MOL
REMARK 927      BINDING AFFINITY PREDICTED BY RF-SCORE:    0.00 PKD
ROOT
HETATM    1  C   UNL     1     -13.634   9.069  72.297  1.00  0.00    -0.484 C  
HETATM    2  O   UNL     1     -12.218   8.992  72.195  1.00  0.00    -0.365 OA 
ENDROOT
BRANCH   2   3
HETATM    3  C   UNL     1     -11.646   9.645  71.137  1.00  0.00    -0.381 A  
HETATM    4  C   UNL     1     -12.278  10.567  70.306  1.00  0.00    -0.393 A  
HETATM    5  C   UNL     1     -11.604  11.091  69.196  1.00  0.00    -0.389 A  
HETATM    6  C   UNL     1     -10.282  10.712  68.899  1.00  0.00    -0.216 A  
HETATM    7  C   UNL     1      -9.635   9.851  69.794  1.00  0.00    -0.261 A  
HETATM    8  C   UNL     1     -10.308   9.325  70.901  1.00  0.00    -0.367 A  
BRANCH   6   9
HETATM    9  C   UNL     1      -9.619  11.019  67.562  1.00  0.00    -0.164 C  
BRANCH   9  10
HETATM   10  N   UNL     1      -9.778  12.372  67.064  1.00  0.00    -0.207 NA 
BRANCH  10  11
HETATM   11  C   UNL     1      -9.249  13.422  67.798  1.00  0.00    -0.211 A  
HETATM   12  N   UNL     1      -7.917  13.489  67.971  1.00  0.00    -0.137 NA 
HETATM   13  N   UNL     1     -10.079  14.318  68.360  1.00  0.00    -0.237 NA 
HETATM   14  C   UNL     1      -7.428  14.454  68.770  1.00  0.00    -0.133 A  
HETATM   15  C   UNL     1      -8.214  15.357  69.436  1.00  0.00    -0.250 A  
HETATM   16  C   UNL     1      -9.555  15.242  69.185  1.00  0.00    -0.243 A  
ENDBRANCH  10  11
BRANCH  10  17
HETATM   17  C   UNL     1     -10.480  12.739  65.830  1.00  0.00    -0.276 C  
BRANCH  17  18
HETATM   18  C   UNL     1     -12.023  12.643  65.844  1.00  0.00    -0.438 C  
BRANCH  18  19
HETATM   19  N   UNL     1     -12.672  13.128  64.598  1.00  0.00    -0.699 NA 
HETATM   20  C   UNL     1     -12.490  12.222  63.459  1.00  0.00    -0.534 C  
HETATM   21  C   UNL     1     -12.163  14.456  64.242  1.00  0.00    -0.423 C  
ENDBRANCH  18  19
ENDBRANCH  17  18
ENDBRANCH  10  17
ENDBRANCH   9  10
ENDBRANCH   6   9
ENDBRANCH   2   3
TORSDOF 7
ENDMDL
MODEL       67
REMARK 921   NORMALIZED FREE ENERGY PREDICTED BY IDOCK:   -4.73 KCAL/MOL
REMARK 922        TOTAL FREE ENERGY PREDICTED BY IDOCK:   -7.50 KCAL/MOL
REMARK 923 INTER-LIGAND FREE ENERGY PREDICTED BY IDOCK:   -6.97 KCAL/MOL
REMARK 924 INTRA-LIGAND FREE ENERGY PREDICTED BY IDOCK:   -0.53 KCAL/MOL
REMARK 927      BINDING AFFINITY PREDICTED BY RF-SCORE:    0.00 PKD
ROOT
HETATM    1  C   UNL     1     -12.654  12.006  63.461  1.00  0.00    -0.507 C  
HETATM    2  O   UNL     1     -11.800  11.997  64.597  1.00  0.00    -0.330 OA 
ENDROOT
BRANCH   2   3
HETATM    3  C   UNL     1     -11.225  13.191  64.939  1.00  0.00    -0.310 A  
HETATM    4  C   UNL     1     -10.134  13.359  65.788  1.00  0.00    -0.297 A  
HETATM    5  C   UNL     1      -9.703  14.647  66.132  1.00  0.00    -0.344 A  
HETATM    6  C   UNL     1     -10.347  15.791  65.628  1.00  0.00    -0.411 A  
HETATM    7  C   UNL     1     -11.387  15.601  64.709  1.00  0.00    -0.348 A  
HETATM    8  C   UNL     1     -11.819  14.316  64.366  1.00  0.00    -0.444 A  
BRANCH   6   9
HETATM    9  C   UNL     1     -10.110  17.186  66.196  1.00  0.00    -0.305 C  
BRANCH   9  10
HETATM   10  N   UNL     1     -10.030  17.284  67.640  1.00  0.00    -0.286 NA 
BRANCH  10  11
HETATM   11  C   UNL     1      -8.870  17.778  68.214  1.00  0.00    -0.277 A  
HETATM   12  N   UNL     1      -8.787  19.094  68.486  1.00  0.00    -0.357 NA 
HETATM   13  N   UNL     1      -7.839  16.946  68.439  1.00  0.00    -0.218 NA 
HETATM   14  C   UNL     1      -7.619  19.574  68.947  1.00  0.00    -0.348 A  
HETATM   15  C   UNL     1      -6.503  18.804  69.132  1.00  0.00    -0.297 A  
HETATM   16  C   UNL     1      -6.675  17.473  68.861  1.00  0.00    -0.239 A  
ENDBRANCH  10  11
BRANCH  10  17
HETATM   17  C   UNL     1     -11.089  16.883  68.572  1.00  0.00    -0.213 C  
BRANCH  17  18
HETATM   18  C   UNL     1     -10.671  16.005  69.774  1.00  0.00    -0.331 C  
BRANCH  18  19
HETATM   19  N   UNL     1     -11.808  15.543  70.612  1.00  0.00    -0.331 NA 
HETATM   20  C   UNL     1     -11.497  15.511  72.045  1.00  0.00    -0.428 C  
HETATM   21  C   UNL     1     -12.246  14.210  70.186  1.00  0.00    -0.351 C  
ENDBRANCH  18  19
ENDBRANCH  17  18
ENDBRANCH  10  17
ENDBRANCH   9  10
ENDBRANCH   6   9
ENDBRANCH   2   3
TORSDOF 7
ENDMDL
MODEL       68
REMARK 921   NORMALIZED FREE ENERGY PREDICTED BY IDOCK:   -4.73 KCAL/MOL
REMARK 922        TOTAL FREE ENERGY PREDICTED BY IDOCK:   -7.50 KCAL/MOL
REMARK 923 INTER-LIGAND FREE ENERGY PREDICTED BY IDOCK:   -6.75 KCAL/MOL
REMARK 924 INTRA-LIGAND FREE ENERGY PREDICTED BY IDOCK:   -0.75 KCAL/MOL
REMARK 927      BINDING AFFINITY PREDICTED BY RF-SCORE:    0.00 PKD
ROOT
HETATM    1  C   UNL     1     -10.999  10.003  68.387  1.00  0.00    -0.217 C  
HETATM    2  O   UNL     1     -11.379  10.447  67.092  1.00  0.00    -0.274 OA 
ENDROOT
BRANCH   2   3
HETATM    3  C   UNL     1     -10.983  11.709  66.738  1.00  0.00    -0.290 A  
HETATM    4  C   UNL     1      -9.746  12.286  67.017  1.00  0.00    -0.207 A  
HETATM    5  C   UNL     1      -9.503  13.624  66.682  1.00  0.00    -0.285 A  
HETATM    6  C   UNL     1     -10.487  14.409  66.054  1.00  0.00    -0.307 A  
HETATM    7  C   UNL     1     -11.692  13.787  65.704  1.00  0.00    -0.360 A  
HETATM    8  C   UNL     1     -11.936  12.452  66.041  1.00  0.00    -0.419 A  
BRANCH   6   9
HETATM    9  C   UNL     1     -10.380  15.925  65.939  1.00  0.00    -0.365 C  
BRANCH   9  10
HETATM   10  N   UNL     1     -10.627  16.678  67.154  1.00  0.00    -0.299 NA 
BRANCH  10  11
HETATM   11  C   UNL     1     -10.028  17.918  67.307  1.00  0.00    -0.325 A  
HETATM   12  N   UNL     1     -10.735  19.024  67.015  1.00  0.00    -0.454 NA 
HETATM   13  N   UNL     1      -8.742  17.985  67.695  1.00  0.00    -0.245 NA 
HETATM   14  C   UNL     1     -10.108  20.212  67.070  1.00  0.00    -0.459 A  
HETATM   15  C   UNL     1      -8.783  20.355  67.384  1.00  0.00    -0.415 A  
HETATM   16  C   UNL     1      -8.140  19.188  67.698  1.00  0.00    -0.269 A  
ENDBRANCH  10  11
BRANCH  10  17
HETATM   17  C   UNL     1     -11.465  16.226  68.269  1.00  0.00    -0.207 C  
BRANCH  17  18
HETATM   18  C   UNL     1     -10.737  15.758  69.550  1.00  0.00    -0.278 C  
BRANCH  18  19
HETATM   19  N   UNL     1     -11.535  14.835  70.399  1.00  0.00    -0.263 NA 
HETATM   20  C   UNL     1     -11.926  13.602  69.707  1.00  0.00    -0.341 C  
HETATM   21  C   UNL     1     -12.739  15.511  70.894  1.00  0.00    -0.468 C  
ENDBRANCH  18  19
ENDBRANCH  17  18
ENDBRANCH  10  17
ENDBRANCH   9  10
ENDBRANCH   6   9
ENDBRANCH   2   3
TORSDOF 7
ENDMDL
MODEL       69
REMARK 921   NORMALIZED FREE ENERGY PREDICTED BY IDOCK:   -4.72 KCAL/MOL
REMARK 922        TOTAL FREE ENERGY PREDICTED BY IDOCK:   -7.49 KCAL/MOL
REMARK 923 INTER-LIGAND FREE ENERGY PREDICTED BY IDOCK:   -6.73 KCAL/MOL
REMARK 924 INTRA-LIGAND FREE ENERGY PREDICTED BY IDOCK:   -0.76 KCAL/MOL
REMARK 927      BINDING AFFINITY PREDICTED BY RF-SCORE:    0.00 PKD
ROOT
HETATM    1  C   UNL     1     -10.532  19.833  66.276  1.00  0.00    -0.506 C  
HETATM    2  O   UNL     1     -10.960  18.909  67.268  1.00  0.00    -0.436 OA 
ENDROOT
BRANCH   2   3
HETATM    3  C   UNL     1     -10.386  17.667  67.235  1.00  0.00    -0.354 A  
HETATM    4  C   UNL     1      -9.572  17.170  66.220  1.00  0.00    -0.273 A  
HETATM    5  C   UNL     1      -9.126  15.842  66.264  1.00  0.00    -0.379 A  
HETATM    6  C   UNL     1      -9.477  14.989  67.325  1.00  0.00    -0.212 A  
HETATM    7  C   UNL     1     -10.224  15.533  68.378  1.00  0.00    -0.215 A  
HETATM    8  C   UNL     1     -10.672  16.857  68.335  1.00  0.00    -0.368 A  
BRANCH   6   9
HETATM    9  C   UNL     1      -9.268  13.480  67.272  1.00  0.00    -0.233 C  
BRANCH   9  10
HETATM   10  N   UNL     1     -10.464  12.674  67.123  1.00  0.00    -0.234 NA 
BRANCH  10  11
HETATM   11  C   UNL     1     -11.012  12.514  65.860  1.00  0.00    -0.279 A  
HETATM   12  N   UNL     1     -12.323  12.759  65.684  1.00  0.00    -0.594 NA 
HETATM   13  N   UNL     1     -10.236  12.072  64.856  1.00  0.00    -0.264 NA 
HETATM   14  C   UNL     1     -12.860  12.500  64.478  1.00  0.00    -0.262 A  
HETATM   15  C   UNL     1     -12.151  11.980  63.429  1.00  0.00    -0.597 A  
HETATM   16  C   UNL     1     -10.819  11.787  63.677  1.00  0.00    -0.440 A  
ENDBRANCH  10  11
BRANCH  10  17
HETATM   17  C   UNL     1     -11.172  12.007  68.221  1.00  0.00    -0.261 C  
BRANCH  17  18
HETATM   18  C   UNL     1     -10.943  10.488  68.385  1.00  0.00    -0.261 C  
BRANCH  18  19
HETATM   19  N   UNL     1     -10.149  10.120  69.586  1.00  0.00    -0.229 NA 
HETATM   20  C   UNL     1      -8.717  10.401  69.442  1.00  0.00    -0.124 C  
HETATM   21  C   UNL     1     -10.330   8.699  69.901  1.00  0.00    -0.209 C  
ENDBRANCH  18  19
ENDBRANCH  17  18
ENDBRANCH  10  17
ENDBRANCH   9  10
ENDBRANCH   6   9
ENDBRANCH   2   3
TORSDOF 7
ENDMDL
MODEL       70
REMARK 921   NORMALIZED FREE ENERGY PREDICTED BY IDOCK:   -4.71 KCAL/MOL
REMARK 922        TOTAL FREE ENERGY PREDICTED BY IDOCK:   -7.49 KCAL/MOL
REMARK 923 INTER-LIGAND FREE ENERGY PREDICTED BY IDOCK:   -6.87 KCAL/MOL
REMARK 924 INTRA-LIGAND FREE ENERGY PREDICTED BY IDOCK:   -0.62 KCAL/MOL
REMARK 927      BINDING AFFINITY PREDICTED BY RF-SCORE:    0.00 PKD
ROOT
HETATM    1  C   UNL     1     -12.485  15.808  74.548  1.00  0.00    -0.595 C  
HETATM    2  O   UNL     1     -12.621  14.704  73.663  1.00  0.00    -0.463 OA 
ENDROOT
BRANCH   2   3
HETATM    3  C   UNL     1     -12.260  14.917  72.361  1.00  0.00    -0.325 A  
HETATM    4  C   UNL     1     -11.616  16.048  71.865  1.00  0.00    -0.524 A  
HETATM    5  C   UNL     1     -11.388  16.182  70.489  1.00  0.00    -0.392 A  
HETATM    6  C   UNL     1     -11.793  15.186  69.583  1.00  0.00    -0.362 A  
HETATM    7  C   UNL     1     -12.361  14.018  70.109  1.00  0.00    -0.409 A  
HETATM    8  C   UNL     1     -12.590  13.885  71.482  1.00  0.00    -0.419 A  
BRANCH   6   9
HETATM    9  C   UNL     1     -11.836  15.413  68.076  1.00  0.00    -0.110 C  
BRANCH   9  10
HETATM   10  N   UNL     1     -10.554  15.504  67.406  1.00  0.00    -0.286 NA 
BRANCH  10  11
HETATM   11  C   UNL     1      -9.938  14.339  66.977  1.00  0.00    -0.258 A  
HETATM   12  N   UNL     1     -10.359  13.761  65.837  1.00  0.00    -0.301 NA 
HETATM   13  N   UNL     1      -8.973  13.787  67.733  1.00  0.00    -0.183 NA 
HETATM   14  C   UNL     1      -9.821  12.578  65.490  1.00  0.00    -0.183 A  
HETATM   15  C   UNL     1      -8.888  11.919  66.244  1.00  0.00    -0.111 A  
HETATM   16  C   UNL     1      -8.490  12.584  67.372  1.00  0.00    -0.181 A  
ENDBRANCH  10  11
BRANCH  10  17
HETATM   17  C   UNL     1      -9.825  16.751  67.146  1.00  0.00    -0.259 C  
BRANCH  17  18
HETATM   18  C   UNL     1     -10.501  18.066  67.596  1.00  0.00    -0.409 C  
BRANCH  18  19
HETATM   19  N   UNL     1      -9.848  19.294  67.072  1.00  0.00    -0.323 NA 
HETATM   20  C   UNL     1     -10.453  19.788  65.831  1.00  0.00    -0.486 C  
HETATM   21  C   UNL     1      -8.419  19.054  66.848  1.00  0.00    -0.290 C  
ENDBRANCH  18  19
ENDBRANCH  17  18
ENDBRANCH  10  17
ENDBRANCH   9  10
ENDBRANCH   6   9
ENDBRANCH   2   3
TORSDOF 7
ENDMDL
MODEL       71
REMARK 921   NORMALIZED FREE ENERGY PREDICTED BY IDOCK:   -4.70 KCAL/MOL
REMARK 922        TOTAL FREE ENERGY PREDICTED BY IDOCK:   -7.47 KCAL/MOL
REMARK 923 INTER-LIGAND FREE ENERGY PREDICTED BY IDOCK:   -6.73 KCAL/MOL
REMARK 924 INTRA-LIGAND FREE ENERGY PREDICTED BY IDOCK:   -0.73 KCAL/MOL
REMARK 927      BINDING AFFINITY PREDICTED BY RF-SCORE:    0.00 PKD
ROOT
HETATM    1  C   UNL     1      -8.782   9.475  63.435  1.00  0.00    -0.222 C  
HETATM    2  O   UNL     1      -9.623  10.456  62.843  1.00  0.00    -0.315 OA 
ENDROOT
BRANCH   2   3
HETATM    3  C   UNL     1     -10.443  11.149  63.691  1.00  0.00    -0.376 A  
HETATM    4  C   UNL     1     -11.326  12.163  63.327  1.00  0.00    -0.410 A  
HETATM    5  C   UNL     1     -12.041  12.860  64.310  1.00  0.00    -0.487 A  
HETATM    6  C   UNL     1     -11.893  12.554  65.675  1.00  0.00    -0.493 A  
HETATM    7  C   UNL     1     -11.065  11.475  66.014  1.00  0.00    -0.289 A  
HETATM    8  C   UNL     1     -10.351  10.780  65.034  1.00  0.00    -0.357 A  
BRANCH   6   9
HETATM    9  C   UNL     1     -12.411  13.462  66.783  1.00  0.00    -0.231 C  
BRANCH   9  10
HETATM   10  N   UNL     1     -11.408  14.053  67.647  1.00  0.00    -0.297 NA 
BRANCH  10  11
HETATM   11  C   UNL     1     -10.798  15.235  67.256  1.00  0.00    -0.318 A  
HETATM   12  N   UNL     1      -9.782  15.183  66.375  1.00  0.00    -0.260 NA 
HETATM   13  N   UNL     1     -11.200  16.396  67.800  1.00  0.00    -0.197 NA 
HETATM   14  C   UNL     1      -9.135  16.326  66.085  1.00  0.00    -0.341 A  
HETATM   15  C   UNL     1      -9.437  17.533  66.654  1.00  0.00    -0.285 A  
HETATM   16  C   UNL     1     -10.501  17.510  67.515  1.00  0.00    -0.355 A  
ENDBRANCH  10  11
BRANCH  10  17
HETATM   17  C   UNL     1     -10.958  13.490  68.924  1.00  0.00    -0.252 C  
BRANCH  17  18
HETATM   18  C   UNL     1     -12.028  12.807  69.807  1.00  0.00    -0.292 C  
BRANCH  18  19
HETATM   19  N   UNL     1     -12.060  11.327  69.685  1.00  0.00    -0.326 NA 
HETATM   20  C   UNL     1     -12.672  10.663  70.841  1.00  0.00    -0.404 C  
HETATM   21  C   UNL     1     -10.705  10.802  69.491  1.00  0.00    -0.226 C  
ENDBRANCH  18  19
ENDBRANCH  17  18
ENDBRANCH  10  17
ENDBRANCH   9  10
ENDBRANCH   6   9
ENDBRANCH   2   3
TORSDOF 7
ENDMDL
MODEL       72
REMARK 921   NORMALIZED FREE ENERGY PREDICTED BY IDOCK:   -4.68 KCAL/MOL
REMARK 922        TOTAL FREE ENERGY PREDICTED BY IDOCK:   -7.44 KCAL/MOL
REMARK 923 INTER-LIGAND FREE ENERGY PREDICTED BY IDOCK:   -6.69 KCAL/MOL
REMARK 924 INTRA-LIGAND FREE ENERGY PREDICTED BY IDOCK:   -0.76 KCAL/MOL
REMARK 927      BINDING AFFINITY PREDICTED BY RF-SCORE:    0.00 PKD
ROOT
HETATM    1  C   UNL     1     -12.528  12.388  63.238  1.00  0.00    -0.337 C  
HETATM    2  O   UNL     1     -12.907  12.167  64.590  1.00  0.00    -0.586 OA 
ENDROOT
BRANCH   2   3
HETATM    3  C   UNL     1     -12.248  12.903  65.537  1.00  0.00    -0.474 A  
HETATM    4  C   UNL     1     -11.900  12.468  66.814  1.00  0.00    -0.416 A  
HETATM    5  C   UNL     1     -11.311  13.356  67.723  1.00  0.00    -0.325 A  
HETATM    6  C   UNL     1     -11.051  14.693  67.373  1.00  0.00    -0.331 A  
HETATM    7  C   UNL     1     -11.329  15.088  66.058  1.00  0.00    -0.270 A  
HETATM    8  C   UNL     1     -11.919  14.203  65.150  1.00  0.00    -0.390 A  
BRANCH   6   9
HETATM    9  C   UNL     1     -10.692  15.759  68.402  1.00  0.00    -0.281 C  
BRANCH   9  10
HETATM   10  N   UNL     1      -9.506  16.544  68.124  1.00  0.00    -0.218 NA 
BRANCH  10  11
HETATM   11  C   UNL     1      -9.648  17.889  67.821  1.00  0.00    -0.277 A  
HETATM   12  N   UNL     1      -9.295  18.322  66.597  1.00  0.00    -0.295 NA 
HETATM   13  N   UNL     1     -10.085  18.735  68.770  1.00  0.00    -0.389 NA 
HETATM   14  C   UNL     1      -9.342  19.644  66.354  1.00  0.00    -0.387 A  
HETATM   15  C   UNL     1      -9.705  20.574  67.290  1.00  0.00    -0.600 A  
HETATM   16  C   UNL     1     -10.078  20.053  68.500  1.00  0.00    -0.365 A  
ENDBRANCH  10  11
BRANCH  10  17
HETATM   17  C   UNL     1      -8.134  16.025  68.118  1.00  0.00    -0.147 C  
BRANCH  17  18
HETATM   18  C   UNL     1      -7.685  15.212  69.354  1.00  0.00    -0.213 C  
BRANCH  18  19
HETATM   19  N   UNL     1      -7.161  13.859  69.034  1.00  0.00    -0.103 NA 
HETATM   20  C   UNL     1      -5.890  13.557  69.699  1.00  0.00    -0.110 C  
HETATM   21  C   UNL     1      -6.994  13.708  67.585  1.00  0.00    -0.172 C  
ENDBRANCH  18  19
ENDBRANCH  17  18
ENDBRANCH  10  17
ENDBRANCH   9  10
ENDBRANCH   6   9
ENDBRANCH   2   3
TORSDOF 7
ENDMDL
MODEL       73
REMARK 921   NORMALIZED FREE ENERGY PREDICTED BY IDOCK:   -4.67 KCAL/MOL
REMARK 922        TOTAL FREE ENERGY PREDICTED BY IDOCK:   -7.43 KCAL/MOL
REMARK 923 INTER-LIGAND FREE ENERGY PREDICTED BY IDOCK:   -7.01 KCAL/MOL
REMARK 924 INTRA-LIGAND FREE ENERGY PREDICTED BY IDOCK:   -0.42 KCAL/MOL
REMARK 927      BINDING AFFINITY PREDICTED BY RF-SCORE:    0.00 PKD
ROOT
HETATM    1  C   UNL     1      -8.211  20.315  65.872  1.00  0.00    -0.007 C  
HETATM    2  O   UNL     1      -9.262  20.121  66.808  1.00  0.00    -0.355 OA 
ENDROOT
BRANCH   2   3
HETATM    3  C   UNL     1      -9.290  18.915  67.454  1.00  0.00    -0.289 A  
HETATM    4  C   UNL     1      -8.192  18.257  68.004  1.00  0.00    -0.274 A  
HETATM    5  C   UNL     1      -8.343  16.978  68.555  1.00  0.00    -0.260 A  
HETATM    6  C   UNL     1      -9.594  16.335  68.576  1.00  0.00    -0.222 A  
HETATM    7  C   UNL     1     -10.701  17.048  68.097  1.00  0.00    -0.374 A  
HETATM    8  C   UNL     1     -10.551  18.324  67.545  1.00  0.00    -0.432 A  
BRANCH   6   9
HETATM    9  C   UNL     1      -9.752  14.852  68.888  1.00  0.00    -0.223 C  
BRANCH   9  10
HETATM   10  N   UNL     1     -10.989  14.235  68.454  1.00  0.00    -0.245 NA 
BRANCH  10  11
HETATM   11  C   UNL     1     -11.157  13.943  67.109  1.00  0.00    -0.300 A  
HETATM   12  N   UNL     1     -10.070  13.863  66.320  1.00  0.00    -0.292 NA 
HETATM   13  N   UNL     1     -12.398  13.798  66.615  1.00  0.00    -0.400 NA 
HETATM   14  C   UNL     1     -10.256  13.682  65.000  1.00  0.00    -0.334 A  
HETATM   15  C   UNL     1     -11.489  13.599  64.413  1.00  0.00    -0.410 A  
HETATM   16  C   UNL     1     -12.543  13.660  65.285  1.00  0.00    -0.469 A  
ENDBRANCH  10  11
BRANCH  10  17
HETATM   17  C   UNL     1     -12.115  13.896  69.331  1.00  0.00    -0.337 C  
BRANCH  17  18
HETATM   18  C   UNL     1     -12.437  14.884  70.475  1.00  0.00    -0.363 C  
BRANCH  18  19
HETATM   19  N   UNL     1     -13.628  14.511  71.282  1.00  0.00    -0.372 NA 
HETATM   20  C   UNL     1     -14.091  15.589  72.163  1.00  0.00    -0.526 C  
HETATM   21  C   UNL     1     -13.345  13.320  72.088  1.00  0.00    -0.523 C  
ENDBRANCH  18  19
ENDBRANCH  17  18
ENDBRANCH  10  17
ENDBRANCH   9  10
ENDBRANCH   6   9
ENDBRANCH   2   3
TORSDOF 7
ENDMDL
MODEL       74
REMARK 921   NORMALIZED FREE ENERGY PREDICTED BY IDOCK:   -4.67 KCAL/MOL
REMARK 922        TOTAL FREE ENERGY PREDICTED BY IDOCK:   -7.43 KCAL/MOL
REMARK 923 INTER-LIGAND FREE ENERGY PREDICTED BY IDOCK:   -6.94 KCAL/MOL
REMARK 924 INTRA-LIGAND FREE ENERGY PREDICTED BY IDOCK:   -0.49 KCAL/MOL
REMARK 927      BINDING AFFINITY PREDICTED BY RF-SCORE:    0.00 PKD
ROOT
HETATM    1  C   UNL     1      -6.950  18.096  66.410  1.00  0.00    -0.235 C  
HETATM    2  O   UNL     1      -8.084  18.317  67.238  1.00  0.00    -0.225 OA 
ENDROOT
BRANCH   2   3
HETATM    3  C   UNL     1      -8.919  17.249  67.428  1.00  0.00    -0.222 A  
HETATM    4  C   UNL     1      -8.611  15.915  67.173  1.00  0.00    -0.221 A  
HETATM    5  C   UNL     1      -9.593  14.926  67.319  1.00  0.00    -0.216 A  
HETATM    6  C   UNL     1     -10.899  15.250  67.730  1.00  0.00    -0.295 A  
HETATM    7  C   UNL     1     -11.165  16.584  68.063  1.00  0.00    -0.202 A  
HETATM    8  C   UNL     1     -10.186  17.572  67.916  1.00  0.00    -0.350 A  
BRANCH   6   9
HETATM    9  C   UNL     1     -12.062  14.272  67.619  1.00  0.00    -0.297 C  
BRANCH   9  10
HETATM   10  N   UNL     1     -11.715  12.894  67.332  1.00  0.00    -0.362 NA 
BRANCH  10  11
HETATM   11  C   UNL     1     -11.563  12.502  66.012  1.00  0.00    -0.406 A  
HETATM   12  N   UNL     1     -10.378  12.004  65.613  1.00  0.00    -0.244 NA 
HETATM   13  N   UNL     1     -12.580  12.675  65.151  1.00  0.00    -0.654 NA 
HETATM   14  C   UNL     1     -10.214  11.726  64.307  1.00  0.00    -0.302 A  
HETATM   15  C   UNL     1     -11.177  11.943  63.359  1.00  0.00    -0.463 A  
HETATM   16  C   UNL     1     -12.363  12.423  63.847  1.00  0.00    -0.508 A  
ENDBRANCH  10  11
BRANCH  10  17
HETATM   17  C   UNL     1     -11.520  11.847  68.340  1.00  0.00    -0.299 C  
BRANCH  17  18
HETATM   18  C   UNL     1     -11.900  12.195  69.798  1.00  0.00    -0.327 C  
BRANCH  18  19
HETATM   19  N   UNL     1     -12.489  11.062  70.558  1.00  0.00    -0.342 NA 
HETATM   20  C   UNL     1     -13.113  11.473  71.820  1.00  0.00    -0.398 C  
HETATM   21  C   UNL     1     -11.467  10.048  70.835  1.00  0.00    -0.371 C  
ENDBRANCH  18  19
ENDBRANCH  17  18
ENDBRANCH  10  17
ENDBRANCH   9  10
ENDBRANCH   6   9
ENDBRANCH   2   3
TORSDOF 7
ENDMDL
MODEL       75
REMARK 921   NORMALIZED FREE ENERGY PREDICTED BY IDOCK:   -4.67 KCAL/MOL
REMARK 922        TOTAL FREE ENERGY PREDICTED BY IDOCK:   -7.42 KCAL/MOL
REMARK 923 INTER-LIGAND FREE ENERGY PREDICTED BY IDOCK:   -6.89 KCAL/MOL
REMARK 924 INTRA-LIGAND FREE ENERGY PREDICTED BY IDOCK:   -0.54 KCAL/MOL
REMARK 927      BINDING AFFINITY PREDICTED BY RF-SCORE:    0.00 PKD
ROOT
HETATM    1  C   UNL     1     -14.015   8.217  72.072  1.00  0.00    -0.368 C  
HETATM    2  O   UNL     1     -13.206   9.334  72.415  1.00  0.00    -0.431 OA 
ENDROOT
BRANCH   2   3
HETATM    3  C   UNL     1     -12.449   9.872  71.409  1.00  0.00    -0.398 A  
HETATM    4  C   UNL     1     -12.826  10.923  70.576  1.00  0.00    -0.301 A  
HETATM    5  C   UNL     1     -11.993  11.315  69.519  1.00  0.00    -0.421 A  
HETATM    6  C   UNL     1     -10.766  10.672  69.280  1.00  0.00    -0.275 A  
HETATM    7  C   UNL     1     -10.366   9.676  70.180  1.00  0.00    -0.315 A  
HETATM    8  C   UNL     1     -11.197   9.282  71.234  1.00  0.00    -0.425 A  
BRANCH   6   9
HETATM    9  C   UNL     1      -9.977  10.859  67.990  1.00  0.00    -0.171 C  
BRANCH   9  10
HETATM   10  N   UNL     1     -10.211  12.095  67.270  1.00  0.00    -0.201 NA 
BRANCH  10  11
HETATM   11  C   UNL     1     -10.792  12.039  66.013  1.00  0.00    -0.289 A  
HETATM   12  N   UNL     1     -10.035  11.673  64.962  1.00  0.00    -0.253 NA 
HETATM   13  N   UNL     1     -12.078  12.398  65.863  1.00  0.00    -0.623 NA 
HETATM   14  C   UNL     1     -10.585  11.722  63.735  1.00  0.00    -0.415 A  
HETATM   15  C   UNL     1     -11.864  12.147  63.496  1.00  0.00    -0.597 A  
HETATM   16  C   UNL     1     -12.579  12.474  64.617  1.00  0.00    -0.426 A  
ENDBRANCH  10  11
BRANCH  10  17
HETATM   17  C   UNL     1      -9.866  13.434  67.759  1.00  0.00    -0.234 C  
BRANCH  17  18
HETATM   18  C   UNL     1      -8.438  13.945  67.461  1.00  0.00    -0.196 C  
BRANCH  18  19
HETATM   19  N   UNL     1      -8.172  15.323  67.952  1.00  0.00    -0.140 NA 
HETATM   20  C   UNL     1      -6.793  15.764  67.719  1.00  0.00    -0.156 C  
HETATM   21  C   UNL     1      -8.473  15.421  69.383  1.00  0.00    -0.253 C  
ENDBRANCH  18  19
ENDBRANCH  17  18
ENDBRANCH  10  17
ENDBRANCH   9  10
ENDBRANCH   6   9
ENDBRANCH   2   3
TORSDOF 7
ENDMDL
MODEL       76
REMARK 921   NORMALIZED FREE ENERGY PREDICTED BY IDOCK:   -4.65 KCAL/MOL
REMARK 922        TOTAL FREE ENERGY PREDICTED BY IDOCK:   -7.40 KCAL/MOL
REMARK 923 INTER-LIGAND FREE ENERGY PREDICTED BY IDOCK:   -6.68 KCAL/MOL
REMARK 924 INTRA-LIGAND FREE ENERGY PREDICTED BY IDOCK:   -0.73 KCAL/MOL
REMARK 927      BINDING AFFINITY PREDICTED BY RF-SCORE:    0.00 PKD
ROOT
HETATM    1  C   UNL     1      -6.862  19.430  68.848  1.00  0.00    -0.335 C  
HETATM    2  O   UNL     1      -8.223  19.290  68.464  1.00  0.00    -0.342 OA 
ENDROOT
BRANCH   2   3
HETATM    3  C   UNL     1      -8.602  18.063  67.992  1.00  0.00    -0.264 A  
HETATM    4  C   UNL     1      -9.464  17.828  66.924  1.00  0.00    -0.271 A  
HETATM    5  C   UNL     1      -9.847  16.519  66.603  1.00  0.00    -0.279 A  
HETATM    6  C   UNL     1      -9.371  15.419  67.339  1.00  0.00    -0.205 A  
HETATM    7  C   UNL     1      -8.439  15.668  68.354  1.00  0.00    -0.164 A  
HETATM    8  C   UNL     1      -8.057  16.975  68.676  1.00  0.00    -0.254 A  
BRANCH   6   9
HETATM    9  C   UNL     1      -9.979  14.026  67.222  1.00  0.00    -0.242 C  
BRANCH   9  10
HETATM   10  N   UNL     1     -11.392  13.918  67.525  1.00  0.00    -0.303 NA 
BRANCH  10  11
HETATM   11  C   UNL     1     -11.807  14.040  68.842  1.00  0.00    -0.355 A  
HETATM   12  N   UNL     1     -11.986  12.926  69.574  1.00  0.00    -0.308 NA 
HETATM   13  N   UNL     1     -12.068  15.261  69.340  1.00  0.00    -0.299 NA 
HETATM   14  C   UNL     1     -12.487  13.057  70.816  1.00  0.00    -0.302 A  
HETATM   15  C   UNL     1     -12.845  14.258  71.366  1.00  0.00    -0.415 A  
HETATM   16  C   UNL     1     -12.605  15.346  70.571  1.00  0.00    -0.423 A  
ENDBRANCH  10  11
BRANCH  10  17
HETATM   17  C   UNL     1     -12.449  13.668  66.539  1.00  0.00    -0.285 C  
BRANCH  17  18
HETATM   18  C   UNL     1     -12.046  13.724  65.048  1.00  0.00    -0.403 C  
BRANCH  18  19
HETATM   19  N   UNL     1     -11.715  12.400  64.458  1.00  0.00    -0.345 NA 
HETATM   20  C   UNL     1     -10.411  12.374  63.788  1.00  0.00    -0.443 C  
HETATM   21  C   UNL     1     -12.753  11.993  63.506  1.00  0.00    -0.443 C  
ENDBRANCH  18  19
ENDBRANCH  17  18
ENDBRANCH  10  17
ENDBRANCH   9  10
ENDBRANCH   6   9
ENDBRANCH   2   3
TORSDOF 7
ENDMDL
MODEL       77
REMARK 921   NORMALIZED FREE ENERGY PREDICTED BY IDOCK:   -4.65 KCAL/MOL
REMARK 922        TOTAL FREE ENERGY PREDICTED BY IDOCK:   -7.40 KCAL/MOL
REMARK 923 INTER-LIGAND FREE ENERGY PREDICTED BY IDOCK:   -6.88 KCAL/MOL
REMARK 924 INTRA-LIGAND FREE ENERGY PREDICTED BY IDOCK:   -0.52 KCAL/MOL
REMARK 927      BINDING AFFINITY PREDICTED BY RF-SCORE:    0.00 PKD
ROOT
HETATM    1  C   UNL     1     -12.455  16.137  74.286  1.00  0.00    -0.555 C  
HETATM    2  O   UNL     1     -13.240  15.249  73.503  1.00  0.00    -0.471 OA 
ENDROOT
BRANCH   2   3
HETATM    3  C   UNL     1     -12.710  14.860  72.303  1.00  0.00    -0.332 A  
HETATM    4  C   UNL     1     -12.728  13.569  71.781  1.00  0.00    -0.340 A  
HETATM    5  C   UNL     1     -12.063  13.287  70.581  1.00  0.00    -0.361 A  
HETATM    6  C   UNL     1     -11.373  14.289  69.875  1.00  0.00    -0.254 A  
HETATM    7  C   UNL     1     -11.439  15.598  70.371  1.00  0.00    -0.369 A  
HETATM    8  C   UNL     1     -12.101  15.880  71.570  1.00  0.00    -0.533 A  
BRANCH   6   9
HETATM    9  C   UNL     1     -10.402  13.978  68.743  1.00  0.00    -0.222 C  
BRANCH   9  10
HETATM   10  N   UNL     1     -10.298  14.977  67.696  1.00  0.00    -0.241 NA 
BRANCH  10  11
HETATM   11  C   UNL     1      -9.372  15.998  67.834  1.00  0.00    -0.208 A  
HETATM   12  N   UNL     1      -8.083  15.682  68.057  1.00  0.00    -0.134 NA 
HETATM   13  N   UNL     1      -9.787  17.276  67.793  1.00  0.00    -0.272 NA 
HETATM   14  C   UNL     1      -7.215  16.683  68.290  1.00  0.00    -0.169 A  
HETATM   15  C   UNL     1      -7.576  18.002  68.338  1.00  0.00    -0.288 A  
HETATM   16  C   UNL     1      -8.896  18.245  68.072  1.00  0.00    -0.280 A  
ENDBRANCH  10  11
BRANCH  10  17
HETATM   17  C   UNL     1     -11.119  15.012  66.481  1.00  0.00    -0.329 C  
BRANCH  17  18
HETATM   18  C   UNL     1     -10.503  14.403  65.200  1.00  0.00    -0.415 C  
BRANCH  18  19
HETATM   19  N   UNL     1     -11.244  13.229  64.670  1.00  0.00    -0.332 NA 
HETATM   20  C   UNL     1     -11.707  12.314  65.718  1.00  0.00    -0.385 C  
HETATM   21  C   UNL     1     -10.409  12.487  63.719  1.00  0.00    -0.388 C  
ENDBRANCH  18  19
ENDBRANCH  17  18
ENDBRANCH  10  17
ENDBRANCH   9  10
ENDBRANCH   6   9
ENDBRANCH   2   3
TORSDOF 7
ENDMDL
MODEL       78
REMARK 921   NORMALIZED FREE ENERGY PREDICTED BY IDOCK:   -4.65 KCAL/MOL
REMARK 922        TOTAL FREE ENERGY PREDICTED BY IDOCK:   -7.39 KCAL/MOL
REMARK 923 INTER-LIGAND FREE ENERGY PREDICTED BY IDOCK:   -6.63 KCAL/MOL
REMARK 924 INTRA-LIGAND FREE ENERGY PREDICTED BY IDOCK:   -0.76 KCAL/MOL
REMARK 927      BINDING AFFINITY PREDICTED BY RF-SCORE:    0.00 PKD
ROOT
HETATM    1  C   UNL     1     -13.102   9.843  71.877  1.00  0.00    -0.459 C  
HETATM    2  O   UNL     1     -11.878  10.169  71.233  1.00  0.00    -0.359 OA 
ENDROOT
BRANCH   2   3
HETATM    3  C   UNL     1     -11.927  11.165  70.295  1.00  0.00    -0.373 A  
HETATM    4  C   UNL     1     -11.691  11.014  68.931  1.00  0.00    -0.400 A  
HETATM    5  C   UNL     1     -11.678  12.136  68.091  1.00  0.00    -0.402 A  
HETATM    6  C   UNL     1     -11.910  13.428  68.596  1.00  0.00    -0.397 A  
HETATM    7  C   UNL     1     -12.230  13.548  69.955  1.00  0.00    -0.356 A  
HETATM    8  C   UNL     1     -12.241  12.430  70.794  1.00  0.00    -0.336 A  
BRANCH   6   9
HETATM    9  C   UNL     1     -11.619  14.690  67.793  1.00  0.00    -0.359 C  
BRANCH   9  10
HETATM   10  N   UNL     1     -10.316  14.759  67.160  1.00  0.00    -0.253 NA 
BRANCH  10  11
HETATM   11  C   UNL     1      -9.258  15.310  67.863  1.00  0.00    -0.184 A  
HETATM   12  N   UNL     1      -8.203  14.532  68.169  1.00  0.00    -0.137 NA 
HETATM   13  N   UNL     1      -9.329  16.590  68.267  1.00  0.00    -0.212 NA 
HETATM   14  C   UNL     1      -7.232  15.053  68.940  1.00  0.00    -0.127 A  
HETATM   15  C   UNL     1      -7.269  16.323  69.450  1.00  0.00    -0.192 A  
HETATM   16  C   UNL     1      -8.358  17.061  69.070  1.00  0.00    -0.125 A  
ENDBRANCH  10  11
BRANCH  10  17
HETATM   17  C   UNL     1     -10.015  14.298  65.800  1.00  0.00    -0.323 C  
BRANCH  17  18
HETATM   18  C   UNL     1     -11.113  14.499  64.731  1.00  0.00    -0.391 C  
BRANCH  18  19
HETATM   19  N   UNL     1     -11.510  13.252  64.026  1.00  0.00    -0.394 NA 
HETATM   20  C   UNL     1     -12.645  12.568  64.654  1.00  0.00    -0.426 C  
HETATM   21  C   UNL     1     -10.374  12.327  63.950  1.00  0.00    -0.429 C  
ENDBRANCH  18  19
ENDBRANCH  17  18
ENDBRANCH  10  17
ENDBRANCH   9  10
ENDBRANCH   6   9
ENDBRANCH   2   3
TORSDOF 7
ENDMDL
MODEL       79
REMARK 921   NORMALIZED FREE ENERGY PREDICTED BY IDOCK:   -4.64 KCAL/MOL
REMARK 922        TOTAL FREE ENERGY PREDICTED BY IDOCK:   -7.39 KCAL/MOL
REMARK 923 INTER-LIGAND FREE ENERGY PREDICTED BY IDOCK:   -6.99 KCAL/MOL
REMARK 924 INTRA-LIGAND FREE ENERGY PREDICTED BY IDOCK:   -0.40 KCAL/MOL
REMARK 927      BINDING AFFINITY PREDICTED BY RF-SCORE:    0.00 PKD
ROOT
HETATM    1  C   UNL     1     -12.500   7.171  71.689  1.00  0.00    -0.370 C  
HETATM    2  O   UNL     1     -11.410   7.249  70.781  1.00  0.00    -0.269 OA 
ENDROOT
BRANCH   2   3
HETATM    3  C   UNL     1     -11.247   8.437  70.122  1.00  0.00    -0.136 A  
HETATM    4  C   UNL     1     -10.723   8.596  68.840  1.00  0.00    -0.109 A  
HETATM    5  C   UNL     1     -10.520   9.880  68.318  1.00  0.00    -0.246 A  
HETATM    6  C   UNL     1     -10.844  11.030  69.062  1.00  0.00    -0.274 A  
HETATM    7  C   UNL     1     -11.448  10.848  70.312  1.00  0.00    -0.391 A  
HETATM    8  C   UNL     1     -11.649   9.567  70.835  1.00  0.00    -0.398 A  
BRANCH   6   9
HETATM    9  C   UNL     1     -10.375  12.425  68.665  1.00  0.00    -0.182 C  
BRANCH   9  10
HETATM   10  N   UNL     1     -11.410  13.427  68.509  1.00  0.00    -0.269 NA 
BRANCH  10  11
HETATM   11  C   UNL     1     -11.790  14.175  69.612  1.00  0.00    -0.324 A  
HETATM   12  N   UNL     1     -12.919  13.843  70.265  1.00  0.00    -0.074 NA 
HETATM   13  N   UNL     1     -11.055  15.241  69.972  1.00  0.00    -0.267 NA 
HETATM   14  C   UNL     1     -13.329  14.640  71.269  1.00  0.00    -0.383 A  
HETATM   15  C   UNL     1     -12.674  15.781  71.645  1.00  0.00    -0.515 A  
HETATM   16  C   UNL     1     -11.520  16.035  70.954  1.00  0.00    -0.416 A  
ENDBRANCH  10  11
BRANCH  10  17
HETATM   17  C   UNL     1     -12.119  13.718  67.258  1.00  0.00    -0.357 C  
BRANCH  17  18
HETATM   18  C   UNL     1     -11.976  12.690  66.113  1.00  0.00    -0.395 C  
BRANCH  18  19
HETATM   19  N   UNL     1     -12.687  13.069  64.865  1.00  0.00    -0.706 NA 
HETATM   20  C   UNL     1     -12.581  12.057  63.808  1.00  0.00    -0.454 C  
HETATM   21  C   UNL     1     -12.180  14.348  64.358  1.00  0.00    -0.458 C  
ENDBRANCH  18  19
ENDBRANCH  17  18
ENDBRANCH  10  17
ENDBRANCH   9  10
ENDBRANCH   6   9
ENDBRANCH   2   3
TORSDOF 7
ENDMDL
MODEL       80
REMARK 921   NORMALIZED FREE ENERGY PREDICTED BY IDOCK:   -4.64 KCAL/MOL
REMARK 922        TOTAL FREE ENERGY PREDICTED BY IDOCK:   -7.39 KCAL/MOL
REMARK 923 INTER-LIGAND FREE ENERGY PREDICTED BY IDOCK:   -6.98 KCAL/MOL
REMARK 924 INTRA-LIGAND FREE ENERGY PREDICTED BY IDOCK:   -0.41 KCAL/MOL
REMARK 927      BINDING AFFINITY PREDICTED BY RF-SCORE:    0.00 PKD
ROOT
HETATM    1  C   UNL     1      -8.017   9.351  65.918  1.00  0.00    -0.106 C  
HETATM    2  O   UNL     1      -9.416   9.163  66.075  1.00  0.00    -0.216 OA 
ENDROOT
BRANCH   2   3
HETATM    3  C   UNL     1     -10.177  10.295  66.185  1.00  0.00    -0.217 A  
HETATM    4  C   UNL     1     -10.361  11.256  65.194  1.00  0.00    -0.353 A  
HETATM    5  C   UNL     1     -11.089  12.421  65.470  1.00  0.00    -0.338 A  
HETATM    6  C   UNL     1     -11.654  12.645  66.739  1.00  0.00    -0.438 A  
HETATM    7  C   UNL     1     -11.531  11.628  67.695  1.00  0.00    -0.373 A  
HETATM    8  C   UNL     1     -10.802  10.467  67.421  1.00  0.00    -0.344 A  
BRANCH   6   9
HETATM    9  C   UNL     1     -12.191  14.004  67.172  1.00  0.00    -0.321 C  
BRANCH   9  10
HETATM   10  N   UNL     1     -11.674  14.527  68.421  1.00  0.00    -0.325 NA 
BRANCH  10  11
HETATM   11  C   UNL     1     -10.665  15.477  68.383  1.00  0.00    -0.263 A  
HETATM   12  N   UNL     1      -9.492  15.206  68.984  1.00  0.00    -0.212 NA 
HETATM   13  N   UNL     1     -10.896  16.662  67.792  1.00  0.00    -0.325 NA 
HETATM   14  C   UNL     1      -8.562  16.176  69.027  1.00  0.00    -0.251 A  
HETATM   15  C   UNL     1      -8.751  17.431  68.514  1.00  0.00    -0.277 A  
HETATM   16  C   UNL     1      -9.956  17.619  67.893  1.00  0.00    -0.323 A  
ENDBRANCH  10  11
BRANCH  10  17
HETATM   17  C   UNL     1     -12.124  14.120  69.756  1.00  0.00    -0.354 C  
BRANCH  17  18
HETATM   18  C   UNL     1     -12.605  15.240  70.707  1.00  0.00    -0.417 C  
BRANCH  18  19
HETATM   19  N   UNL     1     -13.665  14.815  71.658  1.00  0.00    -0.393 NA 
HETATM   20  C   UNL     1     -13.777  15.691  72.829  1.00  0.00    -0.578 C  
HETATM   21  C   UNL     1     -13.425  13.441  72.107  1.00  0.00    -0.552 C  
ENDBRANCH  18  19
ENDBRANCH  17  18
ENDBRANCH  10  17
ENDBRANCH   9  10
ENDBRANCH   6   9
ENDBRANCH   2   3
TORSDOF 7
ENDMDL
MODEL       81
REMARK 921   NORMALIZED FREE ENERGY PREDICTED BY IDOCK:   -4.64 KCAL/MOL
REMARK 922        TOTAL FREE ENERGY PREDICTED BY IDOCK:   -7.38 KCAL/MOL
REMARK 923 INTER-LIGAND FREE ENERGY PREDICTED BY IDOCK:   -6.61 KCAL/MOL
REMARK 924 INTRA-LIGAND FREE ENERGY PREDICTED BY IDOCK:   -0.77 KCAL/MOL
REMARK 927      BINDING AFFINITY PREDICTED BY RF-SCORE:    0.00 PKD
ROOT
HETATM    1  C   UNL     1      -9.591  19.347  66.556  1.00  0.00    -0.370 C  
HETATM    2  O   UNL     1      -9.387  18.069  65.970  1.00  0.00    -0.505 OA 
ENDROOT
BRANCH   2   3
HETATM    3  C   UNL     1     -10.176  17.051  66.433  1.00  0.00    -0.326 A  
HETATM    4  C   UNL     1     -10.642  16.907  67.738  1.00  0.00    -0.340 A  
HETATM    5  C   UNL     1     -11.364  15.763  68.104  1.00  0.00    -0.337 A  
HETATM    6  C   UNL     1     -11.641  14.746  67.174  1.00  0.00    -0.373 A  
HETATM    7  C   UNL     1     -11.238  14.949  65.847  1.00  0.00    -0.328 A  
HETATM    8  C   UNL     1     -10.515  16.088  65.481  1.00  0.00    -0.426 A  
BRANCH   6   9
HETATM    9  C   UNL     1     -12.154  13.371  67.586  1.00  0.00    -0.269 C  
BRANCH   9  10
HETATM   10  N   UNL     1     -11.435  12.716  68.661  1.00  0.00    -0.283 NA 
BRANCH  10  11
HETATM   11  C   UNL     1     -12.024  12.640  69.913  1.00  0.00    -0.295 A  
HETATM   12  N   UNL     1     -12.289  11.429  70.436  1.00  0.00    -0.328 NA 
HETATM   13  N   UNL     1     -12.363  13.773  70.551  1.00  0.00    -0.349 NA 
HETATM   14  C   UNL     1     -12.953  11.374  71.605  1.00  0.00    -0.418 A  
HETATM   15  C   UNL     1     -13.396  12.481  72.277  1.00  0.00    -0.475 A  
HETATM   16  C   UNL     1     -13.062  13.675  71.697  1.00  0.00    -0.372 A  
ENDBRANCH  10  11
BRANCH  10  17
HETATM   17  C   UNL     1     -10.098  12.123  68.542  1.00  0.00    -0.187 C  
BRANCH  17  18
HETATM   18  C   UNL     1      -9.720  11.511  67.173  1.00  0.00    -0.183 C  
BRANCH  18  19
HETATM   19  N   UNL     1      -8.452  12.037  66.604  1.00  0.00    -0.157 NA 
HETATM   20  C   UNL     1      -7.318  11.122  66.772  1.00  0.00    -0.146 C  
HETATM   21  C   UNL     1      -8.120  13.331  67.208  1.00  0.00    -0.142 C  
ENDBRANCH  18  19
ENDBRANCH  17  18
ENDBRANCH  10  17
ENDBRANCH   9  10
ENDBRANCH   6   9
ENDBRANCH   2   3
TORSDOF 7
ENDMDL
MODEL       82
REMARK 921   NORMALIZED FREE ENERGY PREDICTED BY IDOCK:   -4.63 KCAL/MOL
REMARK 922        TOTAL FREE ENERGY PREDICTED BY IDOCK:   -7.36 KCAL/MOL
REMARK 923 INTER-LIGAND FREE ENERGY PREDICTED BY IDOCK:   -6.97 KCAL/MOL
REMARK 924 INTRA-LIGAND FREE ENERGY PREDICTED BY IDOCK:   -0.39 KCAL/MOL
REMARK 927      BINDING AFFINITY PREDICTED BY RF-SCORE:    0.00 PKD
ROOT
HETATM    1  C   UNL     1     -13.988   8.474  71.884  1.00  0.00    -0.437 C  
HETATM    2  O   UNL     1     -13.321   9.610  72.416  1.00  0.00    -0.433 OA 
ENDROOT
BRANCH   2   3
HETATM    3  C   UNL     1     -12.924  10.562  71.517  1.00  0.00    -0.460 A  
HETATM    4  C   UNL     1     -12.318  10.322  70.286  1.00  0.00    -0.267 A  
HETATM    5  C   UNL     1     -11.872  11.393  69.501  1.00  0.00    -0.426 A  
HETATM    6  C   UNL     1     -12.029  12.724  69.926  1.00  0.00    -0.368 A  
HETATM    7  C   UNL     1     -12.717  12.948  71.125  1.00  0.00    -0.366 A  
HETATM    8  C   UNL     1     -13.161  11.880  71.911  1.00  0.00    -0.474 A  
BRANCH   6   9
HETATM    9  C   UNL     1     -11.308  13.891  69.260  1.00  0.00    -0.272 C  
BRANCH   9  10
HETATM   10  N   UNL     1     -10.526  13.571  68.083  1.00  0.00    -0.238 NA 
BRANCH  10  11
HETATM   11  C   UNL     1     -11.006  13.945  66.838  1.00  0.00    -0.295 A  
HETATM   12  N   UNL     1     -10.240  14.721  66.050  1.00  0.00    -0.288 NA 
HETATM   13  N   UNL     1     -12.242  13.567  66.467  1.00  0.00    -0.401 NA 
HETATM   14  C   UNL     1     -10.762  15.159  64.890  1.00  0.00    -0.398 A  
HETATM   15  C   UNL     1     -12.037  14.878  64.479  1.00  0.00    -0.420 A  
HETATM   16  C   UNL     1     -12.742  14.060  65.319  1.00  0.00    -0.439 A  
ENDBRANCH  10  11
BRANCH  10  17
HETATM   17  C   UNL     1      -9.245  12.857  68.090  1.00  0.00    -0.212 C  
BRANCH  17  18
HETATM   18  C   UNL     1      -9.240  11.417  67.527  1.00  0.00    -0.160 C  
BRANCH  18  19
HETATM   19  N   UNL     1      -8.876  11.329  66.089  1.00  0.00    -0.190 NA 
HETATM   20  C   UNL     1      -9.951  10.785  65.252  1.00  0.00    -0.282 C  
HETATM   21  C   UNL     1      -7.672  10.511  65.917  1.00  0.00    -0.148 C  
ENDBRANCH  18  19
ENDBRANCH  17  18
ENDBRANCH  10  17
ENDBRANCH   9  10
ENDBRANCH   6   9
ENDBRANCH   2   3
TORSDOF 7
ENDMDL
MODEL       83
REMARK 921   NORMALIZED FREE ENERGY PREDICTED BY IDOCK:   -4.62 KCAL/MOL
REMARK 922        TOTAL FREE ENERGY PREDICTED BY IDOCK:   -7.35 KCAL/MOL
REMARK 923 INTER-LIGAND FREE ENERGY PREDICTED BY IDOCK:   -6.68 KCAL/MOL
REMARK 924 INTRA-LIGAND FREE ENERGY PREDICTED BY IDOCK:   -0.66 KCAL/MOL
REMARK 927      BINDING AFFINITY PREDICTED BY RF-SCORE:    0.00 PKD
ROOT
HETATM    1  C   UNL     1     -10.137   5.343  69.003  1.00  0.00    -0.213 C  
HETATM    2  O   UNL     1     -11.041   6.433  69.121  1.00  0.00    -0.322 OA 
ENDROOT
BRANCH   2   3
HETATM    3  C   UNL     1     -10.506   7.687  69.001  1.00  0.00    -0.205 A  
HETATM    4  C   UNL     1      -9.997   8.461  70.041  1.00  0.00    -0.188 A  
HETATM    5  C   UNL     1      -9.565   9.771  69.796  1.00  0.00    -0.256 A  
HETATM    6  C   UNL     1      -9.625  10.330  68.507  1.00  0.00    -0.165 A  
HETATM    7  C   UNL     1     -10.059   9.507  67.459  1.00  0.00    -0.257 A  
HETATM    8  C   UNL     1     -10.493   8.200  67.703  1.00  0.00    -0.300 A  
BRANCH   6   9
HETATM    9  C   UNL     1      -9.450  11.822  68.247  1.00  0.00    -0.193 C  
BRANCH   9  10
HETATM   10  N   UNL     1     -10.668  12.586  68.060  1.00  0.00    -0.214 NA 
BRANCH  10  11
HETATM   11  C   UNL     1     -11.050  12.931  66.774  1.00  0.00    -0.281 A  
HETATM   12  N   UNL     1     -12.143  12.353  66.242  1.00  0.00    -0.630 NA 
HETATM   13  N   UNL     1     -10.297  13.793  66.070  1.00  0.00    -0.301 NA 
HETATM   14  C   UNL     1     -12.442  12.620  64.958  1.00  0.00    -0.487 A  
HETATM   15  C   UNL     1     -11.682  13.429  64.156  1.00  0.00    -0.466 A  
HETATM   16  C   UNL     1     -10.606  14.002  64.777  1.00  0.00    -0.421 A  
ENDBRANCH  10  11
BRANCH  10  17
HETATM   17  C   UNL     1     -11.545  13.052  69.139  1.00  0.00    -0.316 C  
BRANCH  17  18
HETATM   18  C   UNL     1     -11.854  14.565  69.190  1.00  0.00    -0.319 C  
BRANCH  18  19
HETATM   19  N   UNL     1     -12.494  15.012  70.455  1.00  0.00    -0.346 NA 
HETATM   20  C   UNL     1     -11.704  16.012  71.182  1.00  0.00    -0.439 C  
HETATM   21  C   UNL     1     -12.742  13.865  71.333  1.00  0.00    -0.365 C  
ENDBRANCH  18  19
ENDBRANCH  17  18
ENDBRANCH  10  17
ENDBRANCH   9  10
ENDBRANCH   6   9
ENDBRANCH   2   3
TORSDOF 7
ENDMDL
MODEL       84
REMARK 921   NORMALIZED FREE ENERGY PREDICTED BY IDOCK:   -4.60 KCAL/MOL
REMARK 922        TOTAL FREE ENERGY PREDICTED BY IDOCK:   -7.33 KCAL/MOL
REMARK 923 INTER-LIGAND FREE ENERGY PREDICTED BY IDOCK:   -6.49 KCAL/MOL
REMARK 924 INTRA-LIGAND FREE ENERGY PREDICTED BY IDOCK:   -0.84 KCAL/MOL
REMARK 927      BINDING AFFINITY PREDICTED BY RF-SCORE:    0.00 PKD
ROOT
HETATM    1  C   UNL     1     -10.752  19.140  67.273  1.00  0.00    -0.488 C  
HETATM    2  O   UNL     1      -9.927  18.064  67.699  1.00  0.00    -0.303 OA 
ENDROOT
BRANCH   2   3
HETATM    3  C   UNL     1     -10.511  16.827  67.746  1.00  0.00    -0.335 A  
HETATM    4  C   UNL     1     -11.097  16.242  68.866  1.00  0.00    -0.345 A  
HETATM    5  C   UNL     1     -11.574  14.926  68.802  1.00  0.00    -0.348 A  
HETATM    6  C   UNL     1     -11.483  14.173  67.618  1.00  0.00    -0.364 A  
HETATM    7  C   UNL     1     -10.969  14.808  66.480  1.00  0.00    -0.325 A  
HETATM    8  C   UNL     1     -10.490  16.120  66.543  1.00  0.00    -0.298 A  
BRANCH   6   9
HETATM    9  C   UNL     1     -11.711  12.666  67.581  1.00  0.00    -0.361 C  
BRANCH   9  10
HETATM   10  N   UNL     1     -10.749  11.856  68.301  1.00  0.00    -0.213 NA 
BRANCH  10  11
HETATM   11  C   UNL     1     -11.192  11.059  69.345  1.00  0.00    -0.268 A  
HETATM   12  N   UNL     1     -12.392  11.316  69.896  1.00  0.00    -0.265 NA 
HETATM   13  N   UNL     1     -10.395  10.083  69.814  1.00  0.00    -0.240 NA 
HETATM   14  C   UNL     1     -12.762  10.600  70.974  1.00  0.00    -0.415 A  
HETATM   15  C   UNL     1     -11.974   9.642  71.554  1.00  0.00    -0.485 A  
HETATM   16  C   UNL     1     -10.783   9.419  70.918  1.00  0.00    -0.323 A  
ENDBRANCH  10  11
BRANCH  10  17
HETATM   17  C   UNL     1      -9.309  11.813  68.026  1.00  0.00    -0.184 C  
BRANCH  17  18
HETATM   18  C   UNL     1      -8.878  11.422  66.594  1.00  0.00    -0.183 C  
BRANCH  18  19
HETATM   19  N   UNL     1      -9.698  10.340  65.988  1.00  0.00    -0.204 NA 
HETATM   20  C   UNL     1      -9.050   9.025  66.038  1.00  0.00    -0.208 C  
HETATM   21  C   UNL     1     -10.021  10.665  64.595  1.00  0.00    -0.337 C  
ENDBRANCH  18  19
ENDBRANCH  17  18
ENDBRANCH  10  17
ENDBRANCH   9  10
ENDBRANCH   6   9
ENDBRANCH   2   3
TORSDOF 7
ENDMDL
MODEL       85
REMARK 921   NORMALIZED FREE ENERGY PREDICTED BY IDOCK:   -4.60 KCAL/MOL
REMARK 922        TOTAL FREE ENERGY PREDICTED BY IDOCK:   -7.33 KCAL/MOL
REMARK 923 INTER-LIGAND FREE ENERGY PREDICTED BY IDOCK:   -6.48 KCAL/MOL
REMARK 924 INTRA-LIGAND FREE ENERGY PREDICTED BY IDOCK:   -0.85 KCAL/MOL
REMARK 927      BINDING AFFINITY PREDICTED BY RF-SCORE:    0.00 PKD
ROOT
HETATM    1  C   UNL     1     -10.649   5.805  71.469  1.00  0.00    -0.246 C  
HETATM    2  O   UNL     1     -11.245   5.816  70.179  1.00  0.00    -0.319 OA 
ENDROOT
BRANCH   2   3
HETATM    3  C   UNL     1     -10.955   6.891  69.382  1.00  0.00    -0.237 A  
HETATM    4  C   UNL     1     -10.810   6.865  67.997  1.00  0.00    -0.266 A  
HETATM    5  C   UNL     1     -10.416   8.021  67.310  1.00  0.00    -0.384 A  
HETATM    6  C   UNL     1     -10.169   9.226  67.992  1.00  0.00    -0.255 A  
HETATM    7  C   UNL     1     -10.404   9.254  69.372  1.00  0.00    -0.223 A  
HETATM    8  C   UNL     1     -10.794   8.100  70.059  1.00  0.00    -0.233 A  
BRANCH   6   9
HETATM    9  C   UNL     1      -9.464  10.410  67.340  1.00  0.00    -0.149 C  
BRANCH   9  10
HETATM   10  N   UNL     1     -10.263  11.605  67.150  1.00  0.00    -0.210 NA 
BRANCH  10  11
HETATM   11  C   UNL     1     -10.976  11.754  65.971  1.00  0.00    -0.306 A  
HETATM   12  N   UNL     1     -10.429  11.321  64.820  1.00  0.00    -0.308 NA 
HETATM   13  N   UNL     1     -12.169  12.372  65.995  1.00  0.00    -0.624 NA 
HETATM   14  C   UNL     1     -11.087  11.565  63.673  1.00  0.00    -0.385 A  
HETATM   15  C   UNL     1     -12.269  12.252  63.610  1.00  0.00    -0.665 A  
HETATM   16  C   UNL     1     -12.776  12.633  64.823  1.00  0.00    -0.379 A  
ENDBRANCH  10  11
BRANCH  10  17
HETATM   17  C   UNL     1     -10.376  12.705  68.114  1.00  0.00    -0.234 C  
BRANCH  17  18
HETATM   18  C   UNL     1      -9.283  13.798  68.063  1.00  0.00    -0.195 C  
BRANCH  18  19
HETATM   19  N   UNL     1      -9.749  15.097  67.514  1.00  0.00    -0.205 NA 
HETATM   20  C   UNL     1     -11.146  15.399  67.844  1.00  0.00    -0.323 C  
HETATM   21  C   UNL     1      -9.583  15.123  66.057  1.00  0.00    -0.330 C  
ENDBRANCH  18  19
ENDBRANCH  17  18
ENDBRANCH  10  17
ENDBRANCH   9  10
ENDBRANCH   6   9
ENDBRANCH   2   3
TORSDOF 7
ENDMDL
MODEL       86
REMARK 921   NORMALIZED FREE ENERGY PREDICTED BY IDOCK:   -4.59 KCAL/MOL
REMARK 922        TOTAL FREE ENERGY PREDICTED BY IDOCK:   -7.32 KCAL/MOL
REMARK 923 INTER-LIGAND FREE ENERGY PREDICTED BY IDOCK:   -6.56 KCAL/MOL
REMARK 924 INTRA-LIGAND FREE ENERGY PREDICTED BY IDOCK:   -0.76 KCAL/MOL
REMARK 927      BINDING AFFINITY PREDICTED BY RF-SCORE:    0.00 PKD
ROOT
HETATM    1  C   UNL     1     -14.383   8.602  72.283  1.00  0.00    -0.396 C  
HETATM    2  O   UNL     1     -13.041   8.955  72.588  1.00  0.00    -0.418 OA 
ENDROOT
BRANCH   2   3
HETATM    3  C   UNL     1     -12.286   9.440  71.555  1.00  0.00    -0.369 A  
HETATM    4  C   UNL     1     -10.962   9.105  71.282  1.00  0.00    -0.400 A  
HETATM    5  C   UNL     1     -10.272   9.748  70.246  1.00  0.00    -0.346 A  
HETATM    6  C   UNL     1     -10.894  10.732  69.457  1.00  0.00    -0.288 A  
HETATM    7  C   UNL     1     -12.251  10.993  69.691  1.00  0.00    -0.370 A  
HETATM    8  C   UNL     1     -12.939  10.353  70.726  1.00  0.00    -0.422 A  
BRANCH   6   9
HETATM    9  C   UNL     1     -10.115  11.657  68.529  1.00  0.00    -0.206 C  
BRANCH   9  10
HETATM   10  N   UNL     1     -10.188  11.353  67.114  1.00  0.00    -0.198 NA 
BRANCH  10  11
HETATM   11  C   UNL     1     -10.743  12.288  66.255  1.00  0.00    -0.259 A  
HETATM   12  N   UNL     1      -9.960  13.265  65.761  1.00  0.00    -0.276 NA 
HETATM   13  N   UNL     1     -12.057  12.230  65.977  1.00  0.00    -0.630 NA 
HETATM   14  C   UNL     1     -10.536  14.223  65.013  1.00  0.00    -0.425 A  
HETATM   15  C   UNL     1     -11.878  14.272  64.747  1.00  0.00    -0.436 A  
HETATM   16  C   UNL     1     -12.602  13.229  65.259  1.00  0.00    -0.470 A  
ENDBRANCH  10  11
BRANCH  10  17
HETATM   17  C   UNL     1      -9.728  10.105  66.495  1.00  0.00    -0.200 C  
BRANCH  17  18
HETATM   18  C   UNL     1      -8.319   9.604  66.888  1.00  0.00    -0.117 C  
BRANCH  18  19
HETATM   19  N   UNL     1      -8.325   8.401  67.762  1.00  0.00    -0.129 NA 
HETATM   20  C   UNL     1      -6.981   7.898  68.064  1.00  0.00    -0.073 C  
HETATM   21  C   UNL     1      -9.113   7.329  67.147  1.00  0.00    -0.130 C  
ENDBRANCH  18  19
ENDBRANCH  17  18
ENDBRANCH  10  17
ENDBRANCH   9  10
ENDBRANCH   6   9
ENDBRANCH   2   3
TORSDOF 7
ENDMDL
MODEL       87
REMARK 921   NORMALIZED FREE ENERGY PREDICTED BY IDOCK:   -4.59 KCAL/MOL
REMARK 922        TOTAL FREE ENERGY PREDICTED BY IDOCK:   -7.31 KCAL/MOL
REMARK 923 INTER-LIGAND FREE ENERGY PREDICTED BY IDOCK:   -6.75 KCAL/MOL
REMARK 924 INTRA-LIGAND FREE ENERGY PREDICTED BY IDOCK:   -0.56 KCAL/MOL
REMARK 927      BINDING AFFINITY PREDICTED BY RF-SCORE:    0.00 PKD
ROOT
HETATM    1  C   UNL     1     -11.071  10.341  69.193  1.00  0.00    -0.235 C  
HETATM    2  O   UNL     1     -12.101  11.248  68.823  1.00  0.00    -0.508 OA 
ENDROOT
BRANCH   2   3
HETATM    3  C   UNL     1     -11.752  12.246  67.954  1.00  0.00    -0.347 A  
HETATM    4  C   UNL     1     -11.154  12.073  66.708  1.00  0.00    -0.353 A  
HETATM    5  C   UNL     1     -10.760  13.187  65.956  1.00  0.00    -0.288 A  
HETATM    6  C   UNL     1     -10.962  14.496  66.430  1.00  0.00    -0.324 A  
HETATM    7  C   UNL     1     -11.642  14.651  67.645  1.00  0.00    -0.383 A  
HETATM    8  C   UNL     1     -12.034  13.539  68.397  1.00  0.00    -0.378 A  
BRANCH   6   9
HETATM    9  C   UNL     1     -10.295  15.712  65.799  1.00  0.00    -0.365 C  
BRANCH   9  10
HETATM   10  N   UNL     1      -9.396  16.464  66.652  1.00  0.00    -0.243 NA 
BRANCH  10  11
HETATM   11  C   UNL     1      -9.678  17.795  66.915  1.00  0.00    -0.300 A  
HETATM   12  N   UNL     1     -10.012  18.604  65.893  1.00  0.00    -0.526 NA 
HETATM   13  N   UNL     1      -9.563  18.258  68.172  1.00  0.00    -0.291 NA 
HETATM   14  C   UNL     1     -10.182  19.914  66.150  1.00  0.00    -0.503 A  
HETATM   15  C   UNL     1     -10.010  20.471  67.388  1.00  0.00    -0.525 A  
HETATM   16  C   UNL     1      -9.701  19.580  68.380  1.00  0.00    -0.410 A  
ENDBRANCH  10  11
BRANCH  10  17
HETATM   17  C   UNL     1      -8.174  15.932  67.265  1.00  0.00    -0.185 C  
BRANCH  17  18
HETATM   18  C   UNL     1      -6.829  16.346  66.626  1.00  0.00    -0.052 C  
BRANCH  18  19
HETATM   19  N   UNL     1      -6.525  17.796  66.740  1.00  0.00    -0.167 NA 
HETATM   20  C   UNL     1      -5.770  18.321  65.597  1.00  0.00    -0.212 C  
HETATM   21  C   UNL     1      -5.779  18.066  67.973  1.00  0.00    -0.159 C  
ENDBRANCH  18  19
ENDBRANCH  17  18
ENDBRANCH  10  17
ENDBRANCH   9  10
ENDBRANCH   6   9
ENDBRANCH   2   3
TORSDOF 7
ENDMDL
MODEL       88
REMARK 921   NORMALIZED FREE ENERGY PREDICTED BY IDOCK:   -4.59 KCAL/MOL
REMARK 922        TOTAL FREE ENERGY PREDICTED BY IDOCK:   -7.31 KCAL/MOL
REMARK 923 INTER-LIGAND FREE ENERGY PREDICTED BY IDOCK:   -7.04 KCAL/MOL
REMARK 924 INTRA-LIGAND FREE ENERGY PREDICTED BY IDOCK:   -0.27 KCAL/MOL
REMARK 927      BINDING AFFINITY PREDICTED BY RF-SCORE:    0.00 PKD
ROOT
HETATM    1  C   UNL     1     -14.007  15.056  72.484  1.00  0.00    -0.452 C  
HETATM    2  O   UNL     1     -14.089  13.654  72.700  1.00  0.00    -0.746 OA 
ENDROOT
BRANCH   2   3
HETATM    3  C   UNL     1     -13.377  12.861  71.841  1.00  0.00    -0.435 A  
HETATM    4  C   UNL     1     -13.272  11.473  71.907  1.00  0.00    -0.479 A  
HETATM    5  C   UNL     1     -12.430  10.789  71.020  1.00  0.00    -0.522 A  
HETATM    6  C   UNL     1     -11.684  11.476  70.045  1.00  0.00    -0.414 A  
HETATM    7  C   UNL     1     -11.869  12.860  69.939  1.00  0.00    -0.373 A  
HETATM    8  C   UNL     1     -12.707  13.544  70.825  1.00  0.00    -0.316 A  
BRANCH   6   9
HETATM    9  C   UNL     1     -10.548  10.822  69.267  1.00  0.00    -0.229 C  
BRANCH   9  10
HETATM   10  N   UNL     1     -10.286  11.359  67.946  1.00  0.00    -0.178 NA 
BRANCH  10  11
HETATM   11  C   UNL     1      -9.187  12.183  67.764  1.00  0.00    -0.189 A  
HETATM   12  N   UNL     1      -8.032  11.642  67.337  1.00  0.00    -0.139 NA 
HETATM   13  N   UNL     1      -9.285  13.490  68.065  1.00  0.00    -0.202 NA 
HETATM   14  C   UNL     1      -6.948  12.436  67.264  1.00  0.00    -0.129 A  
HETATM   15  C   UNL     1      -6.951  13.757  67.623  1.00  0.00    -0.186 A  
HETATM   16  C   UNL     1      -8.169  14.240  68.018  1.00  0.00    -0.153 A  
ENDBRANCH  10  11
BRANCH  10  17
HETATM   17  C   UNL     1     -11.111  11.114  66.758  1.00  0.00    -0.214 C  
BRANCH  17  18
HETATM   18  C   UNL     1     -10.925  12.077  65.563  1.00  0.00    -0.298 C  
BRANCH  18  19
HETATM   19  N   UNL     1     -12.192  12.444  64.878  1.00  0.00    -0.439 NA 
HETATM   20  C   UNL     1     -12.199  12.102  63.452  1.00  0.00    -0.530 C  
HETATM   21  C   UNL     1     -12.456  13.878  65.029  1.00  0.00    -0.419 C  
ENDBRANCH  18  19
ENDBRANCH  17  18
ENDBRANCH  10  17
ENDBRANCH   9  10
ENDBRANCH   6   9
ENDBRANCH   2   3
TORSDOF 7
ENDMDL
MODEL       89
REMARK 921   NORMALIZED FREE ENERGY PREDICTED BY IDOCK:   -4.58 KCAL/MOL
REMARK 922        TOTAL FREE ENERGY PREDICTED BY IDOCK:   -7.30 KCAL/MOL
REMARK 923 INTER-LIGAND FREE ENERGY PREDICTED BY IDOCK:   -6.74 KCAL/MOL
REMARK 924 INTRA-LIGAND FREE ENERGY PREDICTED BY IDOCK:   -0.57 KCAL/MOL
REMARK 927      BINDING AFFINITY PREDICTED BY RF-SCORE:    0.00 PKD
ROOT
HETATM    1  C   UNL     1     -14.227   8.662  72.156  1.00  0.00    -0.439 C  
HETATM    2  O   UNL     1     -13.003   9.327  72.436  1.00  0.00    -0.403 OA 
ENDROOT
BRANCH   2   3
HETATM    3  C   UNL     1     -12.304   9.799  71.359  1.00  0.00    -0.388 A  
HETATM    4  C   UNL     1     -11.312   9.112  70.662  1.00  0.00    -0.323 A  
HETATM    5  C   UNL     1     -10.605   9.748  69.634  1.00  0.00    -0.260 A  
HETATM    6  C   UNL     1     -10.879  11.081  69.276  1.00  0.00    -0.285 A  
HETATM    7  C   UNL     1     -11.937  11.726  69.930  1.00  0.00    -0.405 A  
HETATM    8  C   UNL     1     -12.642  11.092  70.958  1.00  0.00    -0.503 A  
BRANCH   6   9
HETATM    9  C   UNL     1      -9.954  11.900  68.384  1.00  0.00    -0.203 C  
BRANCH   9  10
HETATM   10  N   UNL     1     -10.595  12.676  67.340  1.00  0.00    -0.223 NA 
BRANCH  10  11
HETATM   11  C   UNL     1     -10.419  14.051  67.325  1.00  0.00    -0.268 A  
HETATM   12  N   UNL     1     -11.337  14.831  67.925  1.00  0.00    -0.303 NA 
HETATM   13  N   UNL     1      -9.369  14.575  66.670  1.00  0.00    -0.269 NA 
HETATM   14  C   UNL     1     -11.207  16.165  67.813  1.00  0.00    -0.199 A  
HETATM   15  C   UNL     1     -10.207  16.771  67.101  1.00  0.00    -0.295 A  
HETATM   16  C   UNL     1      -9.298  15.912  66.545  1.00  0.00    -0.277 A  
ENDBRANCH  10  11
BRANCH  10  17
HETATM   17  C   UNL     1     -11.446  12.124  66.281  1.00  0.00    -0.374 C  
BRANCH  17  18
HETATM   18  C   UNL     1     -10.937  12.262  64.828  1.00  0.00    -0.303 C  
BRANCH  18  19
HETATM   19  N   UNL     1     -10.588  10.969  64.182  1.00  0.00    -0.380 NA 
HETATM   20  C   UNL     1      -9.945  10.020  65.097  1.00  0.00    -0.280 C  
HETATM   21  C   UNL     1      -9.710  11.196  63.030  1.00  0.00    -0.359 C  
ENDBRANCH  18  19
ENDBRANCH  17  18
ENDBRANCH  10  17
ENDBRANCH   9  10
ENDBRANCH   6   9
ENDBRANCH   2   3
TORSDOF 7
ENDMDL
MODEL       90
REMARK 921   NORMALIZED FREE ENERGY PREDICTED BY IDOCK:   -4.57 KCAL/MOL
REMARK 922        TOTAL FREE ENERGY PREDICTED BY IDOCK:   -7.28 KCAL/MOL
REMARK 923 INTER-LIGAND FREE ENERGY PREDICTED BY IDOCK:   -6.62 KCAL/MOL
REMARK 924 INTRA-LIGAND FREE ENERGY PREDICTED BY IDOCK:   -0.66 KCAL/MOL
REMARK 927      BINDING AFFINITY PREDICTED BY RF-SCORE:    0.00 PKD
ROOT
HETATM    1  C   UNL     1      -7.873   6.915  67.957  1.00  0.00    -0.114 C  
HETATM    2  O   UNL     1      -8.694   7.751  67.153  1.00  0.00    -0.122 OA 
ENDROOT
BRANCH   2   3
HETATM    3  C   UNL     1      -9.365   8.753  67.799  1.00  0.00    -0.141 A  
HETATM    4  C   UNL     1      -9.163   9.154  69.118  1.00  0.00    -0.144 A  
HETATM    5  C   UNL     1      -9.987  10.132  69.690  1.00  0.00    -0.262 A  
HETATM    6  C   UNL     1     -11.023  10.735  68.954  1.00  0.00    -0.289 A  
HETATM    7  C   UNL     1     -11.155  10.380  67.605  1.00  0.00    -0.361 A  
HETATM    8  C   UNL     1     -10.335   9.402  67.034  1.00  0.00    -0.322 A  
BRANCH   6   9
HETATM    9  C   UNL     1     -12.116  11.572  69.607  1.00  0.00    -0.296 C  
BRANCH   9  10
HETATM   10  N   UNL     1     -11.907  13.006  69.611  1.00  0.00    -0.320 NA 
BRANCH  10  11
HETATM   11  C   UNL     1     -12.396  13.752  70.672  1.00  0.00    -0.375 A  
HETATM   12  N   UNL     1     -13.058  13.122  71.660  1.00  0.00    -0.383 NA 
HETATM   13  N   UNL     1     -12.244  15.087  70.666  1.00  0.00    -0.300 NA 
HETATM   14  C   UNL     1     -13.615  13.870  72.629  1.00  0.00    -0.517 A  
HETATM   15  C   UNL     1     -13.566  15.238  72.652  1.00  0.00    -0.617 A  
HETATM   16  C   UNL     1     -12.850  15.803  71.630  1.00  0.00    -0.448 A  
ENDBRANCH  10  11
BRANCH  10  17
HETATM   17  C   UNL     1     -11.219  13.761  68.558  1.00  0.00    -0.275 C  
BRANCH  17  18
HETATM   18  C   UNL     1     -11.992  13.992  67.240  1.00  0.00    -0.413 C  
BRANCH  18  19
HETATM   19  N   UNL     1     -11.121  14.174  66.050  1.00  0.00    -0.310 NA 
HETATM   20  C   UNL     1     -11.462  13.278  64.940  1.00  0.00    -0.318 C  
HETATM   21  C   UNL     1      -9.714  13.977  66.413  1.00  0.00    -0.296 C  
ENDBRANCH  18  19
ENDBRANCH  17  18
ENDBRANCH  10  17
ENDBRANCH   9  10
ENDBRANCH   6   9
ENDBRANCH   2   3
TORSDOF 7
ENDMDL
MODEL       91
REMARK 921   NORMALIZED FREE ENERGY PREDICTED BY IDOCK:   -4.57 KCAL/MOL
REMARK 922        TOTAL FREE ENERGY PREDICTED BY IDOCK:   -7.28 KCAL/MOL
REMARK 923 INTER-LIGAND FREE ENERGY PREDICTED BY IDOCK:   -6.57 KCAL/MOL
REMARK 924 INTRA-LIGAND FREE ENERGY PREDICTED BY IDOCK:   -0.72 KCAL/MOL
REMARK 927      BINDING AFFINITY PREDICTED BY RF-SCORE:    0.00 PKD
ROOT
HETATM    1  C   UNL     1     -12.338  12.171  63.524  1.00  0.00    -0.574 C  
HETATM    2  O   UNL     1     -12.497  13.583  63.559  1.00  0.00    -0.745 OA 
ENDROOT
BRANCH   2   3
HETATM    3  C   UNL     1     -11.988  14.228  64.653  1.00  0.00    -0.455 A  
HETATM    4  C   UNL     1     -11.133  15.328  64.629  1.00  0.00    -0.346 A  
HETATM    5  C   UNL     1     -10.607  15.835  65.824  1.00  0.00    -0.369 A  
HETATM    6  C   UNL     1     -10.929  15.259  67.066  1.00  0.00    -0.324 A  
HETATM    7  C   UNL     1     -11.856  14.209  67.076  1.00  0.00    -0.458 A  
HETATM    8  C   UNL     1     -12.381  13.701  65.884  1.00  0.00    -0.516 A  
BRANCH   6   9
HETATM    9  C   UNL     1     -10.164  15.579  68.345  1.00  0.00    -0.215 C  
BRANCH   9  10
HETATM   10  N   UNL     1      -8.741  15.812  68.198  1.00  0.00    -0.171 NA 
BRANCH  10  11
HETATM   11  C   UNL     1      -8.222  17.045  68.561  1.00  0.00    -0.259 A  
HETATM   12  N   UNL     1      -9.033  18.119  68.557  1.00  0.00    -0.302 NA 
HETATM   13  N   UNL     1      -6.916  17.149  68.859  1.00  0.00    -0.221 NA 
HETATM   14  C   UNL     1      -8.491  19.323  68.813  1.00  0.00    -0.347 A  
HETATM   15  C   UNL     1      -7.158  19.519  69.052  1.00  0.00    -0.399 A  
HETATM   16  C   UNL     1      -6.405  18.376  69.068  1.00  0.00    -0.241 A  
ENDBRANCH  10  11
BRANCH  10  17
HETATM   17  C   UNL     1      -7.778  14.839  67.670  1.00  0.00    -0.182 C  
BRANCH  17  18
HETATM   18  C   UNL     1      -7.723  13.458  68.363  1.00  0.00    -0.138 C  
BRANCH  18  19
HETATM   19  N   UNL     1      -6.348  12.993  68.681  1.00  0.00    -0.077 NA 
HETATM   20  C   UNL     1      -5.984  13.181  70.090  1.00  0.00    -0.138 C  
HETATM   21  C   UNL     1      -5.368  13.682  67.835  1.00  0.00    -0.090 C  
ENDBRANCH  18  19
ENDBRANCH  17  18
ENDBRANCH  10  17
ENDBRANCH   9  10
ENDBRANCH   6   9
ENDBRANCH   2   3
TORSDOF 7
ENDMDL
MODEL       92
REMARK 921   NORMALIZED FREE ENERGY PREDICTED BY IDOCK:   -4.57 KCAL/MOL
REMARK 922        TOTAL FREE ENERGY PREDICTED BY IDOCK:   -7.28 KCAL/MOL
REMARK 923 INTER-LIGAND FREE ENERGY PREDICTED BY IDOCK:   -6.55 KCAL/MOL
REMARK 924 INTRA-LIGAND FREE ENERGY PREDICTED BY IDOCK:   -0.73 KCAL/MOL
REMARK 927      BINDING AFFINITY PREDICTED BY RF-SCORE:    0.00 PKD
ROOT
HETATM    1  C   UNL     1     -12.446  15.255  74.167  1.00  0.00    -0.597 C  
HETATM    2  O   UNL     1     -13.221  14.446  73.292  1.00  0.00    -0.622 OA 
ENDROOT
BRANCH   2   3
HETATM    3  C   UNL     1     -12.772  14.338  72.004  1.00  0.00    -0.324 A  
HETATM    4  C   UNL     1     -12.488  15.397  71.145  1.00  0.00    -0.463 A  
HETATM    5  C   UNL     1     -12.127  15.147  69.815  1.00  0.00    -0.354 A  
HETATM    6  C   UNL     1     -12.036  13.834  69.318  1.00  0.00    -0.399 A  
HETATM    7  C   UNL     1     -12.242  12.781  70.219  1.00  0.00    -0.351 A  
HETATM    8  C   UNL     1     -12.604  13.030  71.546  1.00  0.00    -0.279 A  
BRANCH   6   9
HETATM    9  C   UNL     1     -11.940  13.523  67.829  1.00  0.00    -0.334 C  
BRANCH   9  10
HETATM   10  N   UNL     1     -10.605  13.317  67.303  1.00  0.00    -0.247 NA 
BRANCH  10  11
HETATM   11  C   UNL     1      -9.817  14.422  67.024  1.00  0.00    -0.252 A  
HETATM   12  N   UNL     1     -10.290  15.364  66.188  1.00  0.00    -0.296 NA 
HETATM   13  N   UNL     1      -8.583  14.503  67.551  1.00  0.00    -0.177 NA 
HETATM   14  C   UNL     1      -9.473  16.378  65.847  1.00  0.00    -0.254 A  
HETATM   15  C   UNL     1      -8.181  16.489  66.284  1.00  0.00    -0.360 A  
HETATM   16  C   UNL     1      -7.783  15.509  67.153  1.00  0.00    -0.222 A  
ENDBRANCH  10  11
BRANCH  10  17
HETATM   17  C   UNL     1     -10.003  12.009  67.019  1.00  0.00    -0.204 C  
BRANCH  17  18
HETATM   18  C   UNL     1      -9.374  11.252  68.210  1.00  0.00    -0.180 C  
BRANCH  18  19
HETATM   19  N   UNL     1     -10.184  10.104  68.697  1.00  0.00    -0.168 NA 
HETATM   20  C   UNL     1      -9.580   9.413  69.840  1.00  0.00    -0.212 C  
HETATM   21  C   UNL     1     -10.403   9.141  67.613  1.00  0.00    -0.255 C  
ENDBRANCH  18  19
ENDBRANCH  17  18
ENDBRANCH  10  17
ENDBRANCH   9  10
ENDBRANCH   6   9
ENDBRANCH   2   3
TORSDOF 7
ENDMDL
MODEL       93
REMARK 921   NORMALIZED FREE ENERGY PREDICTED BY IDOCK:   -4.54 KCAL/MOL
REMARK 922        TOTAL FREE ENERGY PREDICTED BY IDOCK:   -7.24 KCAL/MOL
REMARK 923 INTER-LIGAND FREE ENERGY PREDICTED BY IDOCK:   -6.47 KCAL/MOL
REMARK 924 INTRA-LIGAND FREE ENERGY PREDICTED BY IDOCK:   -0.77 KCAL/MOL
REMARK 927      BINDING AFFINITY PREDICTED BY RF-SCORE:    0.00 PKD
ROOT
HETATM    1  C   UNL     1     -10.041   5.868  66.715  1.00  0.00    -0.192 C  
HETATM    2  O   UNL     1     -10.920   6.719  67.439  1.00  0.00    -0.318 OA 
ENDROOT
BRANCH   2   3
HETATM    3  C   UNL     1     -10.553   8.034  67.539  1.00  0.00    -0.232 A  
HETATM    4  C   UNL     1     -10.585   8.805  68.699  1.00  0.00    -0.174 A  
HETATM    5  C   UNL     1     -10.273  10.170  68.644  1.00  0.00    -0.193 A  
HETATM    6  C   UNL     1      -9.918  10.789  67.432  1.00  0.00    -0.214 A  
HETATM    7  C   UNL     1      -9.809   9.979  66.294  1.00  0.00    -0.297 A  
HETATM    8  C   UNL     1     -10.121   8.617  66.347  1.00  0.00    -0.294 A  
BRANCH   6   9
HETATM    9  C   UNL     1      -9.861  12.303  67.268  1.00  0.00    -0.205 C  
BRANCH   9  10
HETATM   10  N   UNL     1     -11.137  12.989  67.211  1.00  0.00    -0.265 NA 
BRANCH  10  11
HETATM   11  C   UNL     1     -11.547  13.732  68.306  1.00  0.00    -0.338 A  
HETATM   12  N   UNL     1     -11.447  15.073  68.257  1.00  0.00    -0.320 NA 
HETATM   13  N   UNL     1     -11.985  13.098  69.408  1.00  0.00    -0.308 NA 
HETATM   14  C   UNL     1     -11.752  15.774  69.365  1.00  0.00    -0.370 A  
HETATM   15  C   UNL     1     -12.134  15.196  70.545  1.00  0.00    -0.390 A  
HETATM   16  C   UNL     1     -12.240  13.831  70.507  1.00  0.00    -0.369 A  
ENDBRANCH  10  11
BRANCH  10  17
HETATM   17  C   UNL     1     -12.063  12.953  66.075  1.00  0.00    -0.422 C  
BRANCH  17  18
HETATM   18  C   UNL     1     -11.625  13.689  64.788  1.00  0.00    -0.355 C  
BRANCH  18  19
HETATM   19  N   UNL     1     -11.606  12.831  63.575  1.00  0.00    -0.501 NA 
HETATM   20  C   UNL     1     -12.667  11.818  63.565  1.00  0.00    -0.306 C  
HETATM   21  C   UNL     1     -10.306  12.167  63.440  1.00  0.00    -0.402 C  
ENDBRANCH  18  19
ENDBRANCH  17  18
ENDBRANCH  10  17
ENDBRANCH   9  10
ENDBRANCH   6   9
ENDBRANCH   2   3
TORSDOF 7
ENDMDL
MODEL       94
REMARK 921   NORMALIZED FREE ENERGY PREDICTED BY IDOCK:   -4.53 KCAL/MOL
REMARK 922        TOTAL FREE ENERGY PREDICTED BY IDOCK:   -7.23 KCAL/MOL
REMARK 923 INTER-LIGAND FREE ENERGY PREDICTED BY IDOCK:   -6.48 KCAL/MOL
REMARK 924 INTRA-LIGAND FREE ENERGY PREDICTED BY IDOCK:   -0.76 KCAL/MOL
REMARK 927      BINDING AFFINITY PREDICTED BY RF-SCORE:    0.00 PKD
ROOT
HETATM    1  C   UNL     1     -13.957  15.259  72.320  1.00  0.00    -0.546 C  
HETATM    2  O   UNL     1     -13.620  13.982  72.845  1.00  0.00    -0.676 OA 
ENDROOT
BRANCH   2   3
HETATM    3  C   UNL     1     -13.196  13.044  71.943  1.00  0.00    -0.430 A  
HETATM    4  C   UNL     1     -13.487  11.682  71.983  1.00  0.00    -0.304 A  
HETATM    5  C   UNL     1     -12.907  10.813  71.050  1.00  0.00    -0.480 A  
HETATM    6  C   UNL     1     -12.033  11.286  70.055  1.00  0.00    -0.447 A  
HETATM    7  C   UNL     1     -11.820  12.669  69.979  1.00  0.00    -0.358 A  
HETATM    8  C   UNL     1     -12.397  13.538  70.911  1.00  0.00    -0.437 A  
BRANCH   6   9
HETATM    9  C   UNL     1     -11.159  10.359  69.218  1.00  0.00    -0.253 C  
BRANCH   9  10
HETATM   10  N   UNL     1     -10.121   9.642  69.931  1.00  0.00    -0.229 NA 
BRANCH  10  11
HETATM   11  C   UNL     1     -10.477   8.574  70.738  1.00  0.00    -0.200 A  
HETATM   12  N   UNL     1     -11.108   7.522  70.185  1.00  0.00    -0.255 NA 
HETATM   13  N   UNL     1     -10.232   8.633  72.059  1.00  0.00    -0.321 NA 
HETATM   14  C   UNL     1     -11.538   6.540  70.997  1.00  0.00    -0.348 A  
HETATM   15  C   UNL     1     -11.392   6.564  72.358  1.00  0.00    -0.314 A  
HETATM   16  C   UNL     1     -10.715   7.651  72.842  1.00  0.00    -0.371 A  
ENDBRANCH  10  11
BRANCH  10  17
HETATM   17  C   UNL     1      -8.690   9.965  69.886  1.00  0.00    -0.201 C  
BRANCH  17  18
HETATM   18  C   UNL     1      -7.789   9.043  69.033  1.00  0.00    -0.090 C  
BRANCH  18  19
HETATM   19  N   UNL     1      -6.949   8.110  69.828  1.00  0.00    -0.051 NA 
HETATM   20  C   UNL     1      -7.469   6.739  69.853  1.00  0.00    -0.095 C  
HETATM   21  C   UNL     1      -6.811   8.597  71.205  1.00  0.00    -0.071 C  
ENDBRANCH  18  19
ENDBRANCH  17  18
ENDBRANCH  10  17
ENDBRANCH   9  10
ENDBRANCH   6   9
ENDBRANCH   2   3
TORSDOF 7
ENDMDL
MODEL       95
REMARK 921   NORMALIZED FREE ENERGY PREDICTED BY IDOCK:   -4.51 KCAL/MOL
REMARK 922        TOTAL FREE ENERGY PREDICTED BY IDOCK:   -7.19 KCAL/MOL
REMARK 923 INTER-LIGAND FREE ENERGY PREDICTED BY IDOCK:   -6.54 KCAL/MOL
REMARK 924 INTRA-LIGAND FREE ENERGY PREDICTED BY IDOCK:   -0.65 KCAL/MOL
REMARK 927      BINDING AFFINITY PREDICTED BY RF-SCORE:    0.00 PKD
ROOT
HETATM    1  C   UNL     1      -8.701   9.069  62.410  1.00  0.00    -0.207 C  
HETATM    2  O   UNL     1      -9.373  10.319  62.345  1.00  0.00    -0.279 OA 
ENDROOT
BRANCH   2   3
HETATM    3  C   UNL     1      -9.821  10.835  63.530  1.00  0.00    -0.347 A  
HETATM    4  C   UNL     1      -9.833  10.174  64.757  1.00  0.00    -0.382 A  
HETATM    5  C   UNL     1     -10.410  10.784  65.878  1.00  0.00    -0.302 A  
HETATM    6  C   UNL     1     -10.980  12.067  65.799  1.00  0.00    -0.351 A  
HETATM    7  C   UNL     1     -10.881  12.749  64.580  1.00  0.00    -0.373 A  
HETATM    8  C   UNL     1     -10.307  12.141  63.459  1.00  0.00    -0.473 A  
BRANCH   6   9
HETATM    9  C   UNL     1     -11.869  12.642  66.896  1.00  0.00    -0.355 C  
BRANCH   9  10
HETATM   10  N   UNL     1     -11.266  12.768  68.208  1.00  0.00    -0.252 NA 
BRANCH  10  11
HETATM   11  C   UNL     1     -11.768  12.008  69.252  1.00  0.00    -0.330 A  
HETATM   12  N   UNL     1     -12.377  12.631  70.277  1.00  0.00    -0.246 NA 
HETATM   13  N   UNL     1     -11.591  10.675  69.242  1.00  0.00    -0.278 NA 
HETATM   14  C   UNL     1     -12.766  11.889  71.330  1.00  0.00    -0.298 A  
HETATM   15  C   UNL     1     -12.556  10.540  71.425  1.00  0.00    -0.539 A  
HETATM   16  C   UNL     1     -11.958   9.975  70.331  1.00  0.00    -0.236 A  
ENDBRANCH  10  11
BRANCH  10  17
HETATM   17  C   UNL     1     -10.152  13.663  68.541  1.00  0.00    -0.219 C  
BRANCH  17  18
HETATM   18  C   UNL     1     -10.512  15.110  68.950  1.00  0.00    -0.241 C  
BRANCH  18  19
HETATM   19  N   UNL     1      -9.770  16.155  68.198  1.00  0.00    -0.220 NA 
HETATM   20  C   UNL     1     -10.514  17.412  68.067  1.00  0.00    -0.383 C  
HETATM   21  C   UNL     1      -9.413  15.666  66.863  1.00  0.00    -0.229 C  
ENDBRANCH  18  19
ENDBRANCH  17  18
ENDBRANCH  10  17
ENDBRANCH   9  10
ENDBRANCH   6   9
ENDBRANCH   2   3
TORSDOF 7
ENDMDL
MODEL       96
REMARK 921   NORMALIZED FREE ENERGY PREDICTED BY IDOCK:   -4.51 KCAL/MOL
REMARK 922        TOTAL FREE ENERGY PREDICTED BY IDOCK:   -7.19 KCAL/MOL
REMARK 923 INTER-LIGAND FREE ENERGY PREDICTED BY IDOCK:   -6.32 KCAL/MOL
REMARK 924 INTRA-LIGAND FREE ENERGY PREDICTED BY IDOCK:   -0.87 KCAL/MOL
REMARK 927      BINDING AFFINITY PREDICTED BY RF-SCORE:    0.00 PKD
ROOT
HETATM    1  C   UNL     1      -6.561  19.143  69.435  1.00  0.00    -0.298 C  
HETATM    2  O   UNL     1      -7.878  19.576  69.126  1.00  0.00    -0.348 OA 
ENDROOT
BRANCH   2   3
HETATM    3  C   UNL     1      -8.621  18.751  68.326  1.00  0.00    -0.327 A  
HETATM    4  C   UNL     1      -9.910  19.004  67.863  1.00  0.00    -0.400 A  
HETATM    5  C   UNL     1     -10.598  18.029  67.128  1.00  0.00    -0.337 A  
HETATM    6  C   UNL     1     -10.008  16.787  66.834  1.00  0.00    -0.274 A  
HETATM    7  C   UNL     1      -8.680  16.585  67.233  1.00  0.00    -0.204 A  
HETATM    8  C   UNL     1      -7.995  17.556  67.969  1.00  0.00    -0.234 A  
BRANCH   6   9
HETATM    9  C   UNL     1     -10.807  15.602  66.304  1.00  0.00    -0.262 C  
BRANCH   9  10
HETATM   10  N   UNL     1     -11.181  14.596  67.278  1.00  0.00    -0.325 NA 
BRANCH  10  11
HETATM   11  C   UNL     1     -10.773  13.287  67.080  1.00  0.00    -0.259 A  
HETATM   12  N   UNL     1     -11.598  12.286  67.437  1.00  0.00    -0.385 NA 
HETATM   13  N   UNL     1      -9.546  13.046  66.586  1.00  0.00    -0.254 NA 
HETATM   14  C   UNL     1     -11.147  11.023  67.334  1.00  0.00    -0.305 A  
HETATM   15  C   UNL     1      -9.886  10.702  66.910  1.00  0.00    -0.228 A  
HETATM   16  C   UNL     1      -9.117  11.771  66.537  1.00  0.00    -0.203 A  
ENDBRANCH  10  11
BRANCH  10  17
HETATM   17  C   UNL     1     -11.987  14.844  68.478  1.00  0.00    -0.241 C  
BRANCH  17  18
HETATM   18  C   UNL     1     -11.229  14.980  69.818  1.00  0.00    -0.277 C  
BRANCH  18  19
HETATM   19  N   UNL     1     -12.001  14.520  71.002  1.00  0.00    -0.329 NA 
HETATM   20  C   UNL     1     -12.448  13.127  70.897  1.00  0.00    -0.323 C  
HETATM   21  C   UNL     1     -13.166  15.384  71.217  1.00  0.00    -0.510 C  
ENDBRANCH  18  19
ENDBRANCH  17  18
ENDBRANCH  10  17
ENDBRANCH   9  10
ENDBRANCH   6   9
ENDBRANCH   2   3
TORSDOF 7
ENDMDL
MODEL       97
REMARK 921   NORMALIZED FREE ENERGY PREDICTED BY IDOCK:   -4.49 KCAL/MOL
REMARK 922        TOTAL FREE ENERGY PREDICTED BY IDOCK:   -7.17 KCAL/MOL
REMARK 923 INTER-LIGAND FREE ENERGY PREDICTED BY IDOCK:   -6.60 KCAL/MOL
REMARK 924 INTRA-LIGAND FREE ENERGY PREDICTED BY IDOCK:   -0.57 KCAL/MOL
REMARK 927      BINDING AFFINITY PREDICTED BY RF-SCORE:    0.00 PKD
ROOT
HETATM    1  C   UNL     1     -12.373  15.575  64.081  1.00  0.00     0.066 C  
HETATM    2  O   UNL     1     -11.994  14.206  64.032  1.00  0.00    -0.416 OA 
ENDROOT
BRANCH   2   3
HETATM    3  C   UNL     1     -11.603  13.637  65.214  1.00  0.00    -0.320 A  
HETATM    4  C   UNL     1     -11.954  12.367  65.665  1.00  0.00    -0.449 A  
HETATM    5  C   UNL     1     -11.563  11.942  66.942  1.00  0.00    -0.358 A  
HETATM    6  C   UNL     1     -10.809  12.773  67.789  1.00  0.00    -0.248 A  
HETATM    7  C   UNL     1     -10.393  14.012  67.284  1.00  0.00    -0.264 A  
HETATM    8  C   UNL     1     -10.784  14.439  66.010  1.00  0.00    -0.302 A  
BRANCH   6   9
HETATM    9  C   UNL     1     -10.616  12.480  69.272  1.00  0.00     0.147 C  
BRANCH   9  10
HETATM   10  N   UNL     1     -11.814  12.158  70.021  1.00  0.00    -0.330 NA 
BRANCH  10  11
HETATM   11  C   UNL     1     -12.485  13.175  70.681  1.00  0.00    -0.286 A  
HETATM   12  N   UNL     1     -12.426  14.424  70.183  1.00  0.00    -0.351 NA 
HETATM   13  N   UNL     1     -13.134  12.903  71.826  1.00  0.00    -0.394 NA 
HETATM   14  C   UNL     1     -12.996  15.417  70.889  1.00  0.00    -0.478 A  
HETATM   15  C   UNL     1     -13.610  15.230  72.098  1.00  0.00    -0.576 A  
HETATM   16  C   UNL     1     -13.655  13.930  72.523  1.00  0.00    -0.576 A  
ENDBRANCH  10  11
BRANCH  10  17
HETATM   17  C   UNL     1     -12.386  10.814  70.160  1.00  0.00    -0.325 C  
BRANCH  17  18
HETATM   18  C   UNL     1     -11.426   9.619  69.968  1.00  0.00    -0.145 C  
BRANCH  18  19
HETATM   19  N   UNL     1     -11.466   8.625  71.072  1.00  0.00    -0.273 NA 
HETATM   20  C   UNL     1     -12.667   8.734  71.906  1.00  0.00    -0.374 C  
HETATM   21  C   UNL     1     -10.277   8.758  71.920  1.00  0.00    -0.345 C  
ENDBRANCH  18  19
ENDBRANCH  17  18
ENDBRANCH  10  17
ENDBRANCH   9  10
ENDBRANCH   6   9
ENDBRANCH   2   3
TORSDOF 7
ENDMDL
MODEL       98
REMARK 921   NORMALIZED FREE ENERGY PREDICTED BY IDOCK:   -4.49 KCAL/MOL
REMARK 922        TOTAL FREE ENERGY PREDICTED BY IDOCK:   -7.16 KCAL/MOL
REMARK 923 INTER-LIGAND FREE ENERGY PREDICTED BY IDOCK:   -6.49 KCAL/MOL
REMARK 924 INTRA-LIGAND FREE ENERGY PREDICTED BY IDOCK:   -0.67 KCAL/MOL
REMARK 927      BINDING AFFINITY PREDICTED BY RF-SCORE:    0.00 PKD
ROOT
HETATM    1  C   UNL     1      -6.002  19.604  65.262  1.00  0.00    -0.217 C  
HETATM    2  O   UNL     1      -7.367  19.220  65.167  1.00  0.00    -0.359 OA 
ENDROOT
BRANCH   2   3
HETATM    3  C   UNL     1      -8.008  18.946  66.345  1.00  0.00    -0.285 A  
HETATM    4  C   UNL     1      -7.420  18.418  67.492  1.00  0.00    -0.221 A  
HETATM    5  C   UNL     1      -8.210  18.094  68.602  1.00  0.00    -0.295 A  
HETATM    6  C   UNL     1      -9.602  18.298  68.592  1.00  0.00    -0.351 A  
HETATM    7  C   UNL     1     -10.162  18.910  67.462  1.00  0.00    -0.456 A  
HETATM    8  C   UNL     1      -9.374  19.232  66.353  1.00  0.00    -0.399 A  
BRANCH   6   9
HETATM    9  C   UNL     1     -10.530  17.698  69.641  1.00  0.00     0.341 C  
BRANCH   9  10
HETATM   10  N   UNL     1     -10.833  16.288  69.495  1.00  0.00    -0.320 NA 
BRANCH  10  11
HETATM   11  C   UNL     1     -11.601  15.664  70.465  1.00  0.00    -0.360 A  
HETATM   12  N   UNL     1     -11.849  16.314  71.617  1.00  0.00    -0.472 NA 
HETATM   13  N   UNL     1     -12.035  14.409  70.257  1.00  0.00    -0.301 NA 
HETATM   14  C   UNL     1     -12.508  15.656  72.588  1.00  0.00    -0.428 A  
HETATM   15  C   UNL     1     -12.918  14.354  72.478  1.00  0.00    -0.501 A  
HETATM   16  C   UNL     1     -12.655  13.772  71.267  1.00  0.00    -0.362 A  
ENDBRANCH  10  11
BRANCH  10  17
HETATM   17  C   UNL     1     -10.374  15.437  68.392  1.00  0.00    -0.229 C  
BRANCH  17  18
HETATM   18  C   UNL     1     -11.270  15.375  67.133  1.00  0.00    -0.256 C  
BRANCH  18  19
HETATM   19  N   UNL     1     -10.516  15.351  65.853  1.00  0.00    -0.319 NA 
HETATM   20  C   UNL     1     -10.829  14.186  65.018  1.00  0.00    -0.398 C  
HETATM   21  C   UNL     1      -9.073  15.384  66.111  1.00  0.00    -0.304 C  
ENDBRANCH  18  19
ENDBRANCH  17  18
ENDBRANCH  10  17
ENDBRANCH   9  10
ENDBRANCH   6   9
ENDBRANCH   2   3
TORSDOF 7
ENDMDL
MODEL       99
REMARK 921   NORMALIZED FREE ENERGY PREDICTED BY IDOCK:   -4.48 KCAL/MOL
REMARK 922        TOTAL FREE ENERGY PREDICTED BY IDOCK:   -7.16 KCAL/MOL
REMARK 923 INTER-LIGAND FREE ENERGY PREDICTED BY IDOCK:   -6.56 KCAL/MOL
REMARK 924 INTRA-LIGAND FREE ENERGY PREDICTED BY IDOCK:   -0.60 KCAL/MOL
REMARK 927      BINDING AFFINITY PREDICTED BY RF-SCORE:    0.00 PKD
ROOT
HETATM    1  C   UNL     1     -13.233  11.502  71.850  1.00  0.00    -0.374 C  
HETATM    2  O   UNL     1     -13.585  12.855  72.101  1.00  0.00    -0.528 OA 
ENDROOT
BRANCH   2   3
HETATM    3  C   UNL     1     -12.754  13.809  71.580  1.00  0.00    -0.346 A  
HETATM    4  C   UNL     1     -12.400  15.009  72.193  1.00  0.00    -0.433 A  
HETATM    5  C   UNL     1     -11.614  15.945  71.508  1.00  0.00    -0.537 A  
HETATM    6  C   UNL     1     -11.159  15.697  70.201  1.00  0.00    -0.347 A  
HETATM    7  C   UNL     1     -11.453  14.450  69.634  1.00  0.00    -0.331 A  
HETATM    8  C   UNL     1     -12.239  13.516  70.316  1.00  0.00    -0.417 A  
BRANCH   6   9
HETATM    9  C   UNL     1     -10.563  16.786  69.317  1.00  0.00    -0.336 C  
BRANCH   9  10
HETATM   10  N   UNL     1      -9.518  16.368  68.403  1.00  0.00    -0.214 NA 
BRANCH  10  11
HETATM   11  C   UNL     1      -8.281  16.012  68.917  1.00  0.00    -0.223 A  
HETATM   12  N   UNL     1      -7.424  16.982  69.282  1.00  0.00    -0.165 NA 
HETATM   13  N   UNL     1      -7.948  14.712  68.993  1.00  0.00    -0.141 NA 
HETATM   14  C   UNL     1      -6.191  16.623  69.682  1.00  0.00    -0.226 A  
HETATM   15  C   UNL     1      -5.753  15.326  69.715  1.00  0.00    -0.119 A  
HETATM   16  C   UNL     1      -6.692  14.396  69.358  1.00  0.00    -0.140 A  
ENDBRANCH  10  11
BRANCH  10  17
HETATM   17  C   UNL     1      -9.651  16.301  66.944  1.00  0.00    -0.232 C  
BRANCH  17  18
HETATM   18  C   UNL     1     -10.612  17.312  66.279  1.00  0.00    -0.184 C  
BRANCH  18  19
HETATM   19  N   UNL     1     -10.009  18.647  66.027  1.00  0.00    -0.534 NA 
HETATM   20  C   UNL     1      -8.589  18.718  66.385  1.00  0.00    -0.284 C  
HETATM   21  C   UNL     1     -10.742  19.684  66.761  1.00  0.00    -0.447 C  
ENDBRANCH  18  19
ENDBRANCH  17  18
ENDBRANCH  10  17
ENDBRANCH   9  10
ENDBRANCH   6   9
ENDBRANCH   2   3
TORSDOF 7
ENDMDL
MODEL      100
REMARK 921   NORMALIZED FREE ENERGY PREDICTED BY IDOCK:   -4.48 KCAL/MOL
REMARK 922        TOTAL FREE ENERGY PREDICTED BY IDOCK:   -7.16 KCAL/MOL
REMARK 923 INTER-LIGAND FREE ENERGY PREDICTED BY IDOCK:   -6.51 KCAL/MOL
REMARK 924 INTRA-LIGAND FREE ENERGY PREDICTED BY IDOCK:   -0.65 KCAL/MOL
REMARK 927      BINDING AFFINITY PREDICTED BY RF-SCORE:    0.00 PKD
ROOT
HETATM    1  C   UNL     1     -13.350   9.649  71.562  1.00  0.00    -0.388 C  
HETATM    2  O   UNL     1     -12.444  10.738  71.680  1.00  0.00    -0.354 OA 
ENDROOT
BRANCH   2   3
HETATM    3  C   UNL     1     -12.257  11.501  70.560  1.00  0.00    -0.377 A  
HETATM    4  C   UNL     1     -11.945  11.023  69.288  1.00  0.00    -0.410 A  
HETATM    5  C   UNL     1     -11.684  11.921  68.245  1.00  0.00    -0.385 A  
HETATM    6  C   UNL     1     -11.736  13.312  68.448  1.00  0.00    -0.389 A  
HETATM    7  C   UNL     1     -12.135  13.771  69.711  1.00  0.00    -0.400 A  
HETATM    8  C   UNL     1     -12.394  12.876  70.753  1.00  0.00    -0.385 A  
BRANCH   6   9
HETATM    9  C   UNL     1     -11.180  14.312  67.442  1.00  0.00    -0.316 C  
BRANCH   9  10
HETATM   10  N   UNL     1     -10.054  15.109  67.888  1.00  0.00    -0.222 NA 
BRANCH  10  11
HETATM   11  C   UNL     1      -8.833  14.486  68.097  1.00  0.00    -0.177 A  
HETATM   12  N   UNL     1      -8.038  14.929  69.088  1.00  0.00    -0.172 NA 
HETATM   13  N   UNL     1      -8.450  13.492  67.277  1.00  0.00    -0.196 NA 
HETATM   14  C   UNL     1      -6.815  14.383  69.213  1.00  0.00    -0.129 A  
HETATM   15  C   UNL     1      -6.327  13.419  68.372  1.00  0.00    -0.088 A  
HETATM   16  C   UNL     1      -7.205  13.001  67.408  1.00  0.00    -0.116 A  
ENDBRANCH  10  11
BRANCH  10  17
HETATM   17  C   UNL     1     -10.095  16.550  68.158  1.00  0.00    -0.255 C  
BRANCH  17  18
HETATM   18  C   UNL     1     -10.130  17.494  66.935  1.00  0.00    -0.324 C  
BRANCH  18  19
HETATM   19  N   UNL     1     -10.673  18.846  67.227  1.00  0.00    -0.461 NA 
HETATM   20  C   UNL     1     -10.390  19.824  66.171  1.00  0.00    -0.524 C  
HETATM   21  C   UNL     1     -10.141  19.344  68.499  1.00  0.00    -0.437 C  
ENDBRANCH  18  19
ENDBRANCH  17  18
ENDBRANCH  10  17
ENDBRANCH   9  10
ENDBRANCH   6   9
ENDBRANCH   2   3
TORSDOF 7
ENDMDL
MODEL      101
REMARK 921   NORMALIZED FREE ENERGY PREDICTED BY IDOCK:   -4.47 KCAL/MOL
REMARK 922        TOTAL FREE ENERGY PREDICTED BY IDOCK:   -7.15 KCAL/MOL
REMARK 923 INTER-LIGAND FREE ENERGY PREDICTED BY IDOCK:   -6.41 KCAL/MOL
REMARK 924 INTRA-LIGAND FREE ENERGY PREDICTED BY IDOCK:   -0.73 KCAL/MOL
REMARK 927      BINDING AFFINITY PREDICTED BY RF-SCORE:    0.00 PKD
ROOT
HETATM    1  C   UNL     1     -11.214  14.803  64.975  1.00  0.00    -0.395 C  
HETATM    2  O   UNL     1     -10.836  13.550  64.423  1.00  0.00    -0.392 OA 
ENDROOT
BRANCH   2   3
HETATM    3  C   UNL     1     -10.612  12.533  65.311  1.00  0.00    -0.290 A  
HETATM    4  C   UNL     1      -9.762  11.447  65.113  1.00  0.00    -0.280 A  
HETATM    5  C   UNL     1      -9.697  10.422  66.066  1.00  0.00    -0.265 A  
HETATM    6  C   UNL     1     -10.474  10.465  67.238  1.00  0.00    -0.304 A  
HETATM    7  C   UNL     1     -11.257  11.605  67.459  1.00  0.00    -0.355 A  
HETATM    8  C   UNL     1     -11.324  12.628  66.507  1.00  0.00    -0.377 A  
BRANCH   6   9
HETATM    9  C   UNL     1     -10.660   9.256  68.147  1.00  0.00    -0.198 C  
BRANCH   9  10
HETATM   10  N   UNL     1     -10.349   9.455  69.548  1.00  0.00    -0.204 NA 
BRANCH  10  11
HETATM   11  C   UNL     1     -11.381   9.432  70.473  1.00  0.00    -0.274 A  
HETATM   12  N   UNL     1     -11.851   8.244  70.895  1.00  0.00    -0.259 NA 
HETATM   13  N   UNL     1     -11.920  10.591  70.888  1.00  0.00    -0.357 NA 
HETATM   14  C   UNL     1     -12.919   8.239  71.712  1.00  0.00    -0.344 A  
HETATM   15  C   UNL     1     -13.568   9.374  72.119  1.00  0.00    -0.528 A  
HETATM   16  C   UNL     1     -13.012  10.542  71.673  1.00  0.00    -0.476 A  
ENDBRANCH  10  11
BRANCH  10  17
HETATM   17  C   UNL     1      -9.007   9.699  70.088  1.00  0.00    -0.236 C  
BRANCH  17  18
HETATM   18  C   UNL     1      -8.327   8.530  70.837  1.00  0.00    -0.146 C  
BRANCH  18  19
HETATM   19  N   UNL     1      -8.057   8.804  72.272  1.00  0.00    -0.379 NA 
HETATM   20  C   UNL     1      -6.712   8.403  72.696  1.00  0.00    -0.088 C  
HETATM   21  C   UNL     1      -9.049   8.128  73.115  1.00  0.00    -0.265 C  
ENDBRANCH  18  19
ENDBRANCH  17  18
ENDBRANCH  10  17
ENDBRANCH   9  10
ENDBRANCH   6   9
ENDBRANCH   2   3
TORSDOF 7
ENDMDL
MODEL      102
REMARK 921   NORMALIZED FREE ENERGY PREDICTED BY IDOCK:   -4.45 KCAL/MOL
REMARK 922        TOTAL FREE ENERGY PREDICTED BY IDOCK:   -7.12 KCAL/MOL
REMARK 923 INTER-LIGAND FREE ENERGY PREDICTED BY IDOCK:   -6.41 KCAL/MOL
REMARK 924 INTRA-LIGAND FREE ENERGY PREDICTED BY IDOCK:   -0.71 KCAL/MOL
REMARK 927      BINDING AFFINITY PREDICTED BY RF-SCORE:    0.00 PKD
ROOT
HETATM    1  C   UNL     1     -12.553  11.745  63.387  1.00  0.00    -0.336 C  
HETATM    2  O   UNL     1     -13.142  12.579  64.375  1.00  0.00    -0.759 OA 
ENDROOT
BRANCH   2   3
HETATM    3  C   UNL     1     -12.281  13.235  65.213  1.00  0.00    -0.448 A  
HETATM    4  C   UNL     1     -11.979  12.870  66.523  1.00  0.00    -0.447 A  
HETATM    5  C   UNL     1     -11.152  13.685  67.307  1.00  0.00    -0.309 A  
HETATM    6  C   UNL     1     -10.604  14.875  66.796  1.00  0.00    -0.305 A  
HETATM    7  C   UNL     1     -10.850  15.180  65.450  1.00  0.00    -0.393 A  
HETATM    8  C   UNL     1     -11.677  14.368  64.668  1.00  0.00    -0.438 A  
BRANCH   6   9
HETATM    9  C   UNL     1      -9.953  15.930  67.683  1.00  0.00    -0.237 C  
BRANCH   9  10
HETATM   10  N   UNL     1      -8.570  16.248  67.390  1.00  0.00    -0.175 NA 
BRANCH  10  11
HETATM   11  C   UNL     1      -7.568  15.549  68.045  1.00  0.00    -0.125 A  
HETATM   12  N   UNL     1      -6.607  14.953  67.316  1.00  0.00    -0.282 NA 
HETATM   13  N   UNL     1      -7.608  15.440  69.384  1.00  0.00    -0.213 NA 
HETATM   14  C   UNL     1      -5.701  14.195  67.960  1.00  0.00    -0.129 A  
HETATM   15  C   UNL     1      -5.719  13.976  69.311  1.00  0.00    -0.084 A  
HETATM   16  C   UNL     1      -6.709  14.639  69.985  1.00  0.00    -0.135 A  
ENDBRANCH  10  11
BRANCH  10  17
HETATM   17  C   UNL     1      -8.124  17.280  66.447  1.00  0.00    -0.293 C  
BRANCH  17  18
HETATM   18  C   UNL     1      -8.902  18.616  66.449  1.00  0.00    -0.275 C  
BRANCH  18  19
HETATM   19  N   UNL     1      -8.765  19.396  67.706  1.00  0.00    -0.303 NA 
HETATM   20  C   UNL     1     -10.052  19.818  68.269  1.00  0.00    -0.458 C  
HETATM   21  C   UNL     1      -7.927  20.578  67.483  1.00  0.00    -0.266 C  
ENDBRANCH  18  19
ENDBRANCH  17  18
ENDBRANCH  10  17
ENDBRANCH   9  10
ENDBRANCH   6   9
ENDBRANCH   2   3
TORSDOF 7
ENDMDL
MODEL      103
REMARK 921   NORMALIZED FREE ENERGY PREDICTED BY IDOCK:   -4.45 KCAL/MOL
REMARK 922        TOTAL FREE ENERGY PREDICTED BY IDOCK:   -7.12 KCAL/MOL
REMARK 923 INTER-LIGAND FREE ENERGY PREDICTED BY IDOCK:   -6.34 KCAL/MOL
REMARK 924 INTRA-LIGAND FREE ENERGY PREDICTED BY IDOCK:   -0.77 KCAL/MOL
REMARK 927      BINDING AFFINITY PREDICTED BY RF-SCORE:    0.00 PKD
ROOT
HETATM    1  C   UNL     1     -12.107  14.830  64.286  1.00  0.00    -0.394 C  
HETATM    2  O   UNL     1     -12.832  13.782  64.914  1.00  0.00    -0.690 OA 
ENDROOT
BRANCH   2   3
HETATM    3  C   UNL     1     -12.143  13.018  65.817  1.00  0.00    -0.454 A  
HETATM    4  C   UNL     1     -12.116  13.209  67.197  1.00  0.00    -0.343 A  
HETATM    5  C   UNL     1     -11.291  12.412  68.001  1.00  0.00    -0.340 A  
HETATM    6  C   UNL     1     -10.483  11.405  67.445  1.00  0.00    -0.239 A  
HETATM    7  C   UNL     1     -10.589  11.172  66.067  1.00  0.00    -0.298 A  
HETATM    8  C   UNL     1     -11.410  11.968  65.264  1.00  0.00    -0.366 A  
BRANCH   6   9
HETATM    9  C   UNL     1      -9.366  10.722  68.224  1.00  0.00    -0.161 C  
BRANCH   9  10
HETATM   10  N   UNL     1      -9.646   9.383  68.704  1.00  0.00    -0.146 NA 
BRANCH  10  11
HETATM   11  C   UNL     1     -10.135   9.221  69.990  1.00  0.00    -0.212 A  
HETATM   12  N   UNL     1      -9.319   8.725  70.939  1.00  0.00    -0.194 NA 
HETATM   13  N   UNL     1     -11.421   9.512  70.249  1.00  0.00    -0.237 NA 
HETATM   14  C   UNL     1      -9.838   8.478  72.156  1.00  0.00    -0.318 A  
HETATM   15  C   UNL     1     -11.154   8.679  72.474  1.00  0.00    -0.234 A  
HETATM   16  C   UNL     1     -11.911   9.212  71.466  1.00  0.00    -0.352 A  
ENDBRANCH  10  11
BRANCH  10  17
HETATM   17  C   UNL     1      -9.439   8.151  67.934  1.00  0.00    -0.146 C  
BRANCH  17  18
HETATM   18  C   UNL     1     -10.647   7.609  67.138  1.00  0.00    -0.340 C  
BRANCH  18  19
HETATM   19  N   UNL     1     -11.027   6.215  67.485  1.00  0.00    -0.334 NA 
HETATM   20  C   UNL     1     -10.538   5.792  68.802  1.00  0.00    -0.251 C  
HETATM   21  C   UNL     1     -10.531   5.283  66.467  1.00  0.00    -0.298 C  
ENDBRANCH  18  19
ENDBRANCH  17  18
ENDBRANCH  10  17
ENDBRANCH   9  10
ENDBRANCH   6   9
ENDBRANCH   2   3
TORSDOF 7
ENDMDL
MODEL      104
REMARK 921   NORMALIZED FREE ENERGY PREDICTED BY IDOCK:   -4.45 KCAL/MOL
REMARK 922        TOTAL FREE ENERGY PREDICTED BY IDOCK:   -7.11 KCAL/MOL
REMARK 923 INTER-LIGAND FREE ENERGY PREDICTED BY IDOCK:   -6.47 KCAL/MOL
REMARK 924 INTRA-LIGAND FREE ENERGY PREDICTED BY IDOCK:   -0.64 KCAL/MOL
REMARK 927      BINDING AFFINITY PREDICTED BY RF-SCORE:    0.00 PKD
ROOT
HETATM    1  C   UNL     1     -10.474  19.034  66.158  1.00  0.00    -0.467 C  
HETATM    2  O   UNL     1      -9.917  17.851  65.604  1.00  0.00    -0.539 OA 
ENDROOT
BRANCH   2   3
HETATM    3  C   UNL     1     -10.532  16.673  65.933  1.00  0.00    -0.313 A  
HETATM    4  C   UNL     1     -10.751  16.199  67.224  1.00  0.00    -0.277 A  
HETATM    5  C   UNL     1     -11.308  14.928  67.421  1.00  0.00    -0.354 A  
HETATM    6  C   UNL     1     -11.663  14.110  66.334  1.00  0.00    -0.404 A  
HETATM    7  C   UNL     1     -11.515  14.640  65.045  1.00  0.00    -0.386 A  
HETATM    8  C   UNL     1     -10.958  15.907  64.847  1.00  0.00    -0.427 A  
BRANCH   6   9
HETATM    9  C   UNL     1     -11.989  12.630  66.489  1.00  0.00    -0.331 C  
BRANCH   9  10
HETATM   10  N   UNL     1     -11.217  11.905  67.479  1.00  0.00    -0.275 NA 
BRANCH  10  11
HETATM   11  C   UNL     1      -9.892  11.605  67.207  1.00  0.00    -0.187 A  
HETATM   12  N   UNL     1      -8.931  12.126  67.992  1.00  0.00    -0.182 NA 
HETATM   13  N   UNL     1      -9.594  10.846  66.138  1.00  0.00    -0.195 NA 
HETATM   14  C   UNL     1      -7.648  11.909  67.654  1.00  0.00    -0.136 A  
HETATM   15  C   UNL     1      -7.266  11.209  66.541  1.00  0.00    -0.124 A  
HETATM   16  C   UNL     1      -8.299  10.687  65.810  1.00  0.00    -0.162 A  
ENDBRANCH  10  11
BRANCH  10  17
HETATM   17  C   UNL     1     -11.730  11.436  68.771  1.00  0.00    -0.339 C  
BRANCH  17  18
HETATM   18  C   UNL     1     -11.985  12.507  69.856  1.00  0.00    -0.301 C  
BRANCH  18  19
HETATM   19  N   UNL     1     -12.383  11.951  71.176  1.00  0.00    -0.271 NA 
HETATM   20  C   UNL     1     -12.951  10.602  71.088  1.00  0.00    -0.387 C  
HETATM   21  C   UNL     1     -13.350  12.837  71.831  1.00  0.00    -0.413 C  
ENDBRANCH  18  19
ENDBRANCH  17  18
ENDBRANCH  10  17
ENDBRANCH   9  10
ENDBRANCH   6   9
ENDBRANCH   2   3
TORSDOF 7
ENDMDL
MODEL      105
REMARK 921   NORMALIZED FREE ENERGY PREDICTED BY IDOCK:   -4.45 KCAL/MOL
REMARK 922        TOTAL FREE ENERGY PREDICTED BY IDOCK:   -7.11 KCAL/MOL
REMARK 923 INTER-LIGAND FREE ENERGY PREDICTED BY IDOCK:   -6.54 KCAL/MOL
REMARK 924 INTRA-LIGAND FREE ENERGY PREDICTED BY IDOCK:   -0.58 KCAL/MOL
REMARK 927      BINDING AFFINITY PREDICTED BY RF-SCORE:    0.00 PKD
ROOT
HETATM    1  C   UNL     1      -6.815  19.674  69.214  1.00  0.00    -0.355 C  
HETATM    2  O   UNL     1      -7.306  19.992  67.919  1.00  0.00    -0.284 OA 
ENDROOT
BRANCH   2   3
HETATM    3  C   UNL     1      -8.329  19.216  67.446  1.00  0.00    -0.281 A  
HETATM    4  C   UNL     1      -9.687  19.511  67.532  1.00  0.00    -0.456 A  
HETATM    5  C   UNL     1     -10.638  18.582  67.092  1.00  0.00    -0.439 A  
HETATM    6  C   UNL     1     -10.252  17.343  66.550  1.00  0.00    -0.329 A  
HETATM    7  C   UNL     1      -8.881  17.100  66.393  1.00  0.00    -0.288 A  
HETATM    8  C   UNL     1      -7.931  18.026  66.834  1.00  0.00    -0.251 A  
BRANCH   6   9
HETATM    9  C   UNL     1     -11.233  16.196  66.336  1.00  0.00     0.220 C  
BRANCH   9  10
HETATM   10  N   UNL     1     -10.904  14.943  66.986  1.00  0.00    -0.308 NA 
BRANCH  10  11
HETATM   11  C   UNL     1     -11.354  14.719  68.277  1.00  0.00    -0.301 A  
HETATM   12  N   UNL     1     -11.381  13.459  68.748  1.00  0.00    -0.272 NA 
HETATM   13  N   UNL     1     -11.800  15.755  69.009  1.00  0.00    -0.392 NA 
HETATM   14  C   UNL     1     -11.916  13.247  69.964  1.00  0.00    -0.329 A  
HETATM   15  C   UNL     1     -12.457  14.239  70.737  1.00  0.00    -0.428 A  
HETATM   16  C   UNL     1     -12.365  15.496  70.202  1.00  0.00    -0.353 A  
ENDBRANCH  10  11
BRANCH  10  17
HETATM   17  C   UNL     1     -10.103  13.868  66.388  1.00  0.00    -0.295 C  
BRANCH  17  18
HETATM   18  C   UNL     1     -10.177  13.708  64.853  1.00  0.00    -0.339 C  
BRANCH  18  19
HETATM   19  N   UNL     1     -10.929  12.507  64.404  1.00  0.00    -0.317 NA 
HETATM   20  C   UNL     1     -12.056  12.825  63.521  1.00  0.00    -0.559 C  
HETATM   21  C   UNL     1     -11.422  11.752  65.561  1.00  0.00    -0.179 C  
ENDBRANCH  18  19
ENDBRANCH  17  18
ENDBRANCH  10  17
ENDBRANCH   9  10
ENDBRANCH   6   9
ENDBRANCH   2   3
TORSDOF 7
ENDMDL
MODEL      106
REMARK 921   NORMALIZED FREE ENERGY PREDICTED BY IDOCK:   -4.44 KCAL/MOL
REMARK 922        TOTAL FREE ENERGY PREDICTED BY IDOCK:   -7.09 KCAL/MOL
REMARK 923 INTER-LIGAND FREE ENERGY PREDICTED BY IDOCK:   -6.39 KCAL/MOL
REMARK 924 INTRA-LIGAND FREE ENERGY PREDICTED BY IDOCK:   -0.71 KCAL/MOL
REMARK 927      BINDING AFFINITY PREDICTED BY RF-SCORE:    0.00 PKD
ROOT
HETATM    1  C   UNL     1     -12.083  15.160  64.234  1.00  0.00    -0.261 C  
HETATM    2  O   UNL     1     -12.718  13.953  64.635  1.00  0.00    -0.648 OA 
ENDROOT
BRANCH   2   3
HETATM    3  C   UNL     1     -12.255  13.372  65.784  1.00  0.00    -0.458 A  
HETATM    4  C   UNL     1     -12.309  13.927  67.060  1.00  0.00    -0.287 A  
HETATM    5  C   UNL     1     -11.710  13.266  68.141  1.00  0.00    -0.397 A  
HETATM    6  C   UNL     1     -11.052  12.034  67.969  1.00  0.00    -0.292 A  
HETATM    7  C   UNL     1     -11.083  11.452  66.695  1.00  0.00    -0.333 A  
HETATM    8  C   UNL     1     -11.679  12.112  65.616  1.00  0.00    -0.385 A  
BRANCH   6   9
HETATM    9  C   UNL     1     -10.144  11.431  69.033  1.00  0.00    -0.090 C  
BRANCH   9  10
HETATM   10  N   UNL     1     -10.468  10.084  69.462  1.00  0.00    -0.222 NA 
BRANCH  10  11
HETATM   11  C   UNL     1     -11.436   9.907  70.438  1.00  0.00    -0.301 A  
HETATM   12  N   UNL     1     -11.706   8.661  70.867  1.00  0.00    -0.276 NA 
HETATM   13  N   UNL     1     -12.115  10.973  70.895  1.00  0.00    -0.350 NA 
HETATM   14  C   UNL     1     -12.718   8.495  71.738  1.00  0.00    -0.349 A  
HETATM   15  C   UNL     1     -13.502   9.521  72.192  1.00  0.00    -0.535 A  
HETATM   16  C   UNL     1     -13.146  10.760  71.733  1.00  0.00    -0.468 A  
ENDBRANCH  10  11
BRANCH  10  17
HETATM   17  C   UNL     1      -9.835   8.863  68.953  1.00  0.00    -0.177 C  
BRANCH  17  18
HETATM   18  C   UNL     1      -8.422   9.004  68.344  1.00  0.00    -0.129 C  
BRANCH  18  19
HETATM   19  N   UNL     1      -8.343   8.650  66.903  1.00  0.00    -0.108 NA 
HETATM   20  C   UNL     1      -7.877   9.755  66.059  1.00  0.00    -0.107 C  
HETATM   21  C   UNL     1      -9.649   8.192  66.419  1.00  0.00    -0.216 C  
ENDBRANCH  18  19
ENDBRANCH  17  18
ENDBRANCH  10  17
ENDBRANCH   9  10
ENDBRANCH   6   9
ENDBRANCH   2   3
TORSDOF 7
ENDMDL
MODEL      107
REMARK 921   NORMALIZED FREE ENERGY PREDICTED BY IDOCK:   -4.41 KCAL/MOL
REMARK 922        TOTAL FREE ENERGY PREDICTED BY IDOCK:   -7.06 KCAL/MOL
REMARK 923 INTER-LIGAND FREE ENERGY PREDICTED BY IDOCK:   -6.20 KCAL/MOL
REMARK 924 INTRA-LIGAND FREE ENERGY PREDICTED BY IDOCK:   -0.86 KCAL/MOL
REMARK 927      BINDING AFFINITY PREDICTED BY RF-SCORE:    0.00 PKD
ROOT
HETATM    1  C   UNL     1     -10.415  18.630  66.059  1.00  0.00    -0.414 C  
HETATM    2  O   UNL     1      -9.766  17.420  65.695  1.00  0.00    -0.533 OA 
ENDROOT
BRANCH   2   3
HETATM    3  C   UNL     1     -10.390  16.258  66.062  1.00  0.00    -0.349 A  
HETATM    4  C   UNL     1     -10.846  15.943  67.340  1.00  0.00    -0.291 A  
HETATM    5  C   UNL     1     -11.382  14.676  67.602  1.00  0.00    -0.350 A  
HETATM    6  C   UNL     1     -11.481  13.701  66.593  1.00  0.00    -0.365 A  
HETATM    7  C   UNL     1     -11.096  14.066  65.296  1.00  0.00    -0.325 A  
HETATM    8  C   UNL     1     -10.559  15.330  65.033  1.00  0.00    -0.444 A  
BRANCH   6   9
HETATM    9  C   UNL     1     -11.775  12.236  66.890  1.00  0.00    -0.334 C  
BRANCH   9  10
HETATM   10  N   UNL     1     -10.813  11.547  67.727  1.00  0.00    -0.208 NA 
BRANCH  10  11
HETATM   11  C   UNL     1     -11.248  10.963  68.906  1.00  0.00    -0.267 A  
HETATM   12  N   UNL     1     -11.990  11.693  69.759  1.00  0.00    -0.327 NA 
HETATM   13  N   UNL     1     -10.878   9.703  69.194  1.00  0.00    -0.214 NA 
HETATM   14  C   UNL     1     -12.317  11.146  70.944  1.00  0.00    -0.399 A  
HETATM   15  C   UNL     1     -11.915   9.898  71.339  1.00  0.00    -0.489 A  
HETATM   16  C   UNL     1     -11.189   9.208  70.406  1.00  0.00    -0.240 A  
ENDBRANCH  10  11
BRANCH  10  17
HETATM   17  C   UNL     1      -9.381  11.422  67.437  1.00  0.00    -0.167 C  
BRANCH  17  18
HETATM   18  C   UNL     1      -8.398  11.923  68.520  1.00  0.00    -0.118 C  
BRANCH  18  19
HETATM   19  N   UNL     1      -7.248  12.696  67.984  1.00  0.00    -0.099 NA 
HETATM   20  C   UNL     1      -6.151  12.845  68.947  1.00  0.00    -0.083 C  
HETATM   21  C   UNL     1      -7.686  14.024  67.545  1.00  0.00    -0.182 C  
ENDBRANCH  18  19
ENDBRANCH  17  18
ENDBRANCH  10  17
ENDBRANCH   9  10
ENDBRANCH   6   9
ENDBRANCH   2   3
TORSDOF 7
ENDMDL
MODEL      108
REMARK 921   NORMALIZED FREE ENERGY PREDICTED BY IDOCK:   -4.39 KCAL/MOL
REMARK 922        TOTAL FREE ENERGY PREDICTED BY IDOCK:   -7.04 KCAL/MOL
REMARK 923 INTER-LIGAND FREE ENERGY PREDICTED BY IDOCK:   -6.23 KCAL/MOL
REMARK 924 INTRA-LIGAND FREE ENERGY PREDICTED BY IDOCK:   -0.80 KCAL/MOL
REMARK 927      BINDING AFFINITY PREDICTED BY RF-SCORE:    0.00 PKD
ROOT
HETATM    1  C   UNL     1     -13.671  15.270  72.738  1.00  0.00    -0.486 C  
HETATM    2  O   UNL     1     -13.779  13.855  72.803  1.00  0.00    -0.686 OA 
ENDROOT
BRANCH   2   3
HETATM    3  C   UNL     1     -13.099  13.146  71.849  1.00  0.00    -0.385 A  
HETATM    4  C   UNL     1     -12.462  13.681  70.732  1.00  0.00    -0.432 A  
HETATM    5  C   UNL     1     -11.882  12.832  69.780  1.00  0.00    -0.380 A  
HETATM    6  C   UNL     1     -11.922  11.434  69.928  1.00  0.00    -0.434 A  
HETATM    7  C   UNL     1     -12.492  10.919  71.099  1.00  0.00    -0.511 A  
HETATM    8  C   UNL     1     -13.072  11.765  72.050  1.00  0.00    -0.436 A  
BRANCH   6   9
HETATM    9  C   UNL     1     -11.576  10.476  68.794  1.00  0.00    -0.182 C  
BRANCH   9  10
HETATM   10  N   UNL     1     -10.165  10.303  68.511  1.00  0.00    -0.165 NA 
BRANCH  10  11
HETATM   11  C   UNL     1      -9.760  10.143  67.195  1.00  0.00    -0.173 A  
HETATM   12  N   UNL     1      -8.609   9.494  66.942  1.00  0.00    -0.127 NA 
HETATM   13  N   UNL     1     -10.496  10.683  66.208  1.00  0.00    -0.230 NA 
HETATM   14  C   UNL     1      -8.178   9.437  65.669  1.00  0.00    -0.120 A  
HETATM   15  C   UNL     1      -8.834  10.025  64.621  1.00  0.00    -0.227 A  
HETATM   16  C   UNL     1     -10.010  10.640  64.954  1.00  0.00    -0.318 A  
ENDBRANCH  10  11
BRANCH  10  17
HETATM   17  C   UNL     1      -9.101  10.266  69.520  1.00  0.00    -0.167 C  
BRANCH  17  18
HETATM   18  C   UNL     1      -9.075   9.046  70.469  1.00  0.00    -0.221 C  
BRANCH  18  19
HETATM   19  N   UNL     1      -9.906   7.903  70.010  1.00  0.00    -0.180 NA 
HETATM   20  C   UNL     1     -10.779   7.363  71.058  1.00  0.00    -0.231 C  
HETATM   21  C   UNL     1      -9.054   6.827  69.494  1.00  0.00    -0.141 C  
ENDBRANCH  18  19
ENDBRANCH  17  18
ENDBRANCH  10  17
ENDBRANCH   9  10
ENDBRANCH   6   9
ENDBRANCH   2   3
TORSDOF 7
ENDMDL
MODEL      109
REMARK 921   NORMALIZED FREE ENERGY PREDICTED BY IDOCK:   -4.39 KCAL/MOL
REMARK 922        TOTAL FREE ENERGY PREDICTED BY IDOCK:   -7.03 KCAL/MOL
REMARK 923 INTER-LIGAND FREE ENERGY PREDICTED BY IDOCK:   -6.31 KCAL/MOL
REMARK 924 INTRA-LIGAND FREE ENERGY PREDICTED BY IDOCK:   -0.71 KCAL/MOL
REMARK 927      BINDING AFFINITY PREDICTED BY RF-SCORE:    0.00 PKD
ROOT
HETATM    1  C   UNL     1      -9.623   7.735  73.254  1.00  0.00    -0.283 C  
HETATM    2  O   UNL     1     -11.009   7.862  72.967  1.00  0.00    -0.393 OA 
ENDROOT
BRANCH   2   3
HETATM    3  C   UNL     1     -11.364   8.854  72.094  1.00  0.00    -0.299 A  
HETATM    4  C   UNL     1     -12.585   9.524  72.070  1.00  0.00    -0.456 A  
HETATM    5  C   UNL     1     -12.857  10.455  71.059  1.00  0.00    -0.494 A  
HETATM    6  C   UNL     1     -11.912  10.742  70.058  1.00  0.00    -0.427 A  
HETATM    7  C   UNL     1     -10.659  10.122  70.149  1.00  0.00    -0.337 A  
HETATM    8  C   UNL     1     -10.387   9.191  71.156  1.00  0.00    -0.387 A  
BRANCH   6   9
HETATM    9  C   UNL     1     -12.264  11.510  68.790  1.00  0.00    -0.006 C  
BRANCH   9  10
HETATM   10  N   UNL     1     -11.334  12.549  68.393  1.00  0.00    -0.267 NA 
BRANCH  10  11
HETATM   11  C   UNL     1     -11.358  13.762  69.063  1.00  0.00    -0.289 A  
HETATM   12  N   UNL     1     -10.222  14.478  69.153  1.00  0.00    -0.204 NA 
HETATM   13  N   UNL     1     -12.496  14.169  69.650  1.00  0.00    -0.253 NA 
HETATM   14  C   UNL     1     -10.237  15.601  69.894  1.00  0.00    -0.289 A  
HETATM   15  C   UNL     1     -11.337  16.041  70.581  1.00  0.00    -0.424 A  
HETATM   16  C   UNL     1     -12.459  15.275  70.415  1.00  0.00    -0.381 A  
ENDBRANCH  10  11
BRANCH  10  17
HETATM   17  C   UNL     1     -10.356  12.434  67.306  1.00  0.00    -0.215 C  
BRANCH  17  18
HETATM   18  C   UNL     1     -10.643  11.382  66.211  1.00  0.00    -0.263 C  
BRANCH  18  19
HETATM   19  N   UNL     1      -9.488  10.500  65.898  1.00  0.00    -0.180 NA 
HETATM   20  C   UNL     1      -8.195  11.087  66.266  1.00  0.00    -0.164 C  
HETATM   21  C   UNL     1      -9.475  10.164  64.471  1.00  0.00    -0.303 C  
ENDBRANCH  18  19
ENDBRANCH  17  18
ENDBRANCH  10  17
ENDBRANCH   9  10
ENDBRANCH   6   9
ENDBRANCH   2   3
TORSDOF 7
ENDMDL
MODEL      110
REMARK 921   NORMALIZED FREE ENERGY PREDICTED BY IDOCK:   -4.38 KCAL/MOL
REMARK 922        TOTAL FREE ENERGY PREDICTED BY IDOCK:   -7.02 KCAL/MOL
REMARK 923 INTER-LIGAND FREE ENERGY PREDICTED BY IDOCK:   -6.41 KCAL/MOL
REMARK 924 INTRA-LIGAND FREE ENERGY PREDICTED BY IDOCK:   -0.60 KCAL/MOL
REMARK 927      BINDING AFFINITY PREDICTED BY RF-SCORE:    0.00 PKD
ROOT
HETATM    1  C   UNL     1      -7.940   8.944  63.629  1.00  0.00    -0.154 C  
HETATM    2  O   UNL     1      -7.962   8.832  65.046  1.00  0.00    -0.117 OA 
ENDROOT
BRANCH   2   3
HETATM    3  C   UNL     1      -8.757   9.721  65.717  1.00  0.00    -0.142 A  
HETATM    4  C   UNL     1      -8.548  10.190  67.012  1.00  0.00    -0.129 A  
HETATM    5  C   UNL     1      -9.494  11.026  67.619  1.00  0.00    -0.173 A  
HETATM    6  C   UNL     1     -10.663  11.417  66.942  1.00  0.00    -0.308 A  
HETATM    7  C   UNL     1     -10.814  11.006  65.611  1.00  0.00    -0.160 A  
HETATM    8  C   UNL     1      -9.871  10.169  65.005  1.00  0.00    -0.392 A  
BRANCH   6   9
HETATM    9  C   UNL     1     -11.844  12.070  67.650  1.00  0.00    -0.224 C  
BRANCH   9  10
HETATM   10  N   UNL     1     -11.781  13.511  67.803  1.00  0.00    -0.338 NA 
BRANCH  10  11
HETATM   11  C   UNL     1     -11.690  14.301  66.669  1.00  0.00    -0.400 A  
HETATM   12  N   UNL     1     -12.523  14.062  65.639  1.00  0.00    -0.489 NA 
HETATM   13  N   UNL     1     -10.743  15.252  66.602  1.00  0.00    -0.306 NA 
HETATM   14  C   UNL     1     -12.354  14.770  64.508  1.00  0.00    -0.366 A  
HETATM   15  C   UNL     1     -11.366  15.702  64.338  1.00  0.00    -0.272 A  
HETATM   16  C   UNL     1     -10.579  15.909  65.439  1.00  0.00    -0.419 A  
ENDBRANCH  10  11
BRANCH  10  17
HETATM   17  C   UNL     1     -11.791  14.223  69.085  1.00  0.00    -0.330 C  
BRANCH  17  18
HETATM   18  C   UNL     1     -12.253  13.428  70.327  1.00  0.00    -0.335 C  
BRANCH  18  19
HETATM   19  N   UNL     1     -13.394  14.045  71.052  1.00  0.00    -0.237 NA 
HETATM   20  C   UNL     1     -13.217  15.481  71.297  1.00  0.00    -0.515 C  
HETATM   21  C   UNL     1     -13.614  13.363  72.331  1.00  0.00    -0.606 C  
ENDBRANCH  18  19
ENDBRANCH  17  18
ENDBRANCH  10  17
ENDBRANCH   9  10
ENDBRANCH   6   9
ENDBRANCH   2   3
TORSDOF 7
ENDMDL
MODEL      111
REMARK 921   NORMALIZED FREE ENERGY PREDICTED BY IDOCK:   -4.38 KCAL/MOL
REMARK 922        TOTAL FREE ENERGY PREDICTED BY IDOCK:   -7.01 KCAL/MOL
REMARK 923 INTER-LIGAND FREE ENERGY PREDICTED BY IDOCK:   -6.35 KCAL/MOL
REMARK 924 INTRA-LIGAND FREE ENERGY PREDICTED BY IDOCK:   -0.66 KCAL/MOL
REMARK 927      BINDING AFFINITY PREDICTED BY RF-SCORE:    0.00 PKD
ROOT
HETATM    1  C   UNL     1     -10.042  19.687  66.667  1.00  0.00    -0.445 C  
HETATM    2  O   UNL     1     -10.622  18.844  67.653  1.00  0.00    -0.420 OA 
ENDROOT
BRANCH   2   3
HETATM    3  C   UNL     1     -10.726  17.517  67.337  1.00  0.00    -0.250 A  
HETATM    4  C   UNL     1     -10.373  16.935  66.122  1.00  0.00    -0.327 A  
HETATM    5  C   UNL     1     -10.621  15.575  65.894  1.00  0.00    -0.350 A  
HETATM    6  C   UNL     1     -11.219  14.768  66.878  1.00  0.00    -0.347 A  
HETATM    7  C   UNL     1     -11.489  15.351  68.124  1.00  0.00    -0.352 A  
HETATM    8  C   UNL     1     -11.243  16.709  68.351  1.00  0.00    -0.239 A  
BRANCH   6   9
HETATM    9  C   UNL     1     -11.773  13.380  66.579  1.00  0.00    -0.373 C  
BRANCH   9  10
HETATM   10  N   UNL     1     -10.870  12.269  66.807  1.00  0.00    -0.244 NA 
BRANCH  10  11
HETATM   11  C   UNL     1     -10.954  11.571  68.001  1.00  0.00    -0.231 A  
HETATM   12  N   UNL     1      -9.880  10.884  68.431  1.00  0.00    -0.170 NA 
HETATM   13  N   UNL     1     -12.118  11.553  68.674  1.00  0.00    -0.505 NA 
HETATM   14  C   UNL     1     -10.010  10.129  69.537  1.00  0.00    -0.235 A  
HETATM   15  C   UNL     1     -11.182  10.002  70.234  1.00  0.00    -0.379 A  
HETATM   16  C   UNL     1     -12.219  10.754  69.752  1.00  0.00    -0.288 A  
ENDBRANCH  10  11
BRANCH  10  17
HETATM   17  C   UNL     1      -9.838  11.815  65.868  1.00  0.00    -0.238 C  
BRANCH  17  18
HETATM   18  C   UNL     1     -10.267  10.788  64.795  1.00  0.00    -0.334 C  
BRANCH  18  19
HETATM   19  N   UNL     1      -9.311   9.664  64.615  1.00  0.00    -0.250 NA 
HETATM   20  C   UNL     1      -9.123   8.863  65.829  1.00  0.00    -0.221 C  
HETATM   21  C   UNL     1      -8.010  10.169  64.166  1.00  0.00    -0.154 C  
ENDBRANCH  18  19
ENDBRANCH  17  18
ENDBRANCH  10  17
ENDBRANCH   9  10
ENDBRANCH   6   9
ENDBRANCH   2   3
TORSDOF 7
ENDMDL
MODEL      112
REMARK 921   NORMALIZED FREE ENERGY PREDICTED BY IDOCK:   -4.37 KCAL/MOL
REMARK 922        TOTAL FREE ENERGY PREDICTED BY IDOCK:   -7.01 KCAL/MOL
REMARK 923 INTER-LIGAND FREE ENERGY PREDICTED BY IDOCK:   -6.62 KCAL/MOL
REMARK 924 INTRA-LIGAND FREE ENERGY PREDICTED BY IDOCK:   -0.39 KCAL/MOL
REMARK 927      BINDING AFFINITY PREDICTED BY RF-SCORE:    0.00 PKD
ROOT
HETATM    1  C   UNL     1     -11.865  15.685  69.721  1.00  0.00    -0.363 C  
HETATM    2  O   UNL     1     -12.317  15.174  70.967  1.00  0.00    -0.295 OA 
ENDROOT
BRANCH   2   3
HETATM    3  C   UNL     1     -12.537  13.824  71.031  1.00  0.00    -0.371 A  
HETATM    4  C   UNL     1     -13.195  13.151  72.057  1.00  0.00    -0.543 A  
HETATM    5  C   UNL     1     -13.268  11.752  72.046  1.00  0.00    -0.460 A  
HETATM    6  C   UNL     1     -12.691  10.999  71.008  1.00  0.00    -0.485 A  
HETATM    7  C   UNL     1     -12.109  11.698  69.943  1.00  0.00    -0.373 A  
HETATM    8  C   UNL     1     -12.034  13.094  69.953  1.00  0.00    -0.387 A  
BRANCH   6   9
HETATM    9  C   UNL     1     -12.486   9.491  71.100  1.00  0.00    -0.315 C  
BRANCH   9  10
HETATM   10  N   UNL     1     -11.127   9.043  71.331  1.00  0.00    -0.300 NA 
BRANCH  10  11
HETATM   11  C   UNL     1     -10.917   7.917  72.110  1.00  0.00    -0.281 A  
HETATM   12  N   UNL     1     -11.635   6.807  71.858  1.00  0.00    -0.278 NA 
HETATM   13  N   UNL     1     -10.042   7.973  73.129  1.00  0.00    -0.294 NA 
HETATM   14  C   UNL     1     -11.493   5.757  72.687  1.00  0.00    -0.287 A  
HETATM   15  C   UNL     1     -10.678   5.764  73.786  1.00  0.00    -0.247 A  
HETATM   16  C   UNL     1      -9.960   6.917  73.959  1.00  0.00    -0.336 A  
ENDBRANCH  10  11
BRANCH  10  17
HETATM   17  C   UNL     1      -9.923   9.701  70.813  1.00  0.00    -0.189 C  
BRANCH  17  18
HETATM   18  C   UNL     1      -9.412   9.242  69.428  1.00  0.00    -0.168 C  
BRANCH  18  19
HETATM   19  N   UNL     1     -10.463   8.650  68.560  1.00  0.00    -0.199 NA 
HETATM   20  C   UNL     1     -10.178   7.266  68.168  1.00  0.00    -0.187 C  
HETATM   21  C   UNL     1     -10.644   9.463  67.353  1.00  0.00    -0.258 C  
ENDBRANCH  18  19
ENDBRANCH  17  18
ENDBRANCH  10  17
ENDBRANCH   9  10
ENDBRANCH   6   9
ENDBRANCH   2   3
TORSDOF 7
ENDMDL
MODEL      113
REMARK 921   NORMALIZED FREE ENERGY PREDICTED BY IDOCK:   -4.36 KCAL/MOL
REMARK 922        TOTAL FREE ENERGY PREDICTED BY IDOCK:   -6.99 KCAL/MOL
REMARK 923 INTER-LIGAND FREE ENERGY PREDICTED BY IDOCK:   -6.20 KCAL/MOL
REMARK 924 INTRA-LIGAND FREE ENERGY PREDICTED BY IDOCK:   -0.79 KCAL/MOL
REMARK 927      BINDING AFFINITY PREDICTED BY RF-SCORE:    0.00 PKD
ROOT
HETATM    1  C   UNL     1     -13.749  13.398  72.359  1.00  0.00    -0.597 C  
HETATM    2  O   UNL     1     -13.248  14.021  71.184  1.00  0.00    -0.322 OA 
ENDROOT
BRANCH   2   3
HETATM    3  C   UNL     1     -12.490  13.240  70.354  1.00  0.00    -0.225 A  
HETATM    4  C   UNL     1     -12.237  11.880  70.517  1.00  0.00    -0.426 A  
HETATM    5  C   UNL     1     -11.363  11.218  69.645  1.00  0.00    -0.359 A  
HETATM    6  C   UNL     1     -10.730  11.900  68.590  1.00  0.00    -0.266 A  
HETATM    7  C   UNL     1     -11.064  13.246  68.391  1.00  0.00    -0.299 A  
HETATM    8  C   UNL     1     -11.935  13.908  69.262  1.00  0.00    -0.402 A  
BRANCH   6   9
HETATM    9  C   UNL     1      -9.563  11.306  67.810  1.00  0.00    -0.174 C  
BRANCH   9  10
HETATM   10  N   UNL     1      -9.893  10.261  66.861  1.00  0.00    -0.189 NA 
BRANCH  10  11
HETATM   11  C   UNL     1      -9.797   8.938  67.262  1.00  0.00    -0.199 A  
HETATM   12  N   UNL     1     -10.635   8.033  66.724  1.00  0.00    -0.270 NA 
HETATM   13  N   UNL     1      -8.908   8.599  68.211  1.00  0.00    -0.141 NA 
HETATM   14  C   UNL     1     -10.599   6.774  67.198  1.00  0.00    -0.331 A  
HETATM   15  C   UNL     1      -9.774   6.371  68.213  1.00  0.00    -0.127 A  
HETATM   16  C   UNL     1      -8.932   7.340  68.687  1.00  0.00    -0.128 A  
ENDBRANCH  10  11
BRANCH  10  17
HETATM   17  C   UNL     1     -10.315  10.484  65.474  1.00  0.00    -0.217 C  
BRANCH  17  18
HETATM   18  C   UNL     1     -10.253  11.936  64.946  1.00  0.00    -0.271 C  
BRANCH  18  19
HETATM   19  N   UNL     1     -11.583  12.572  64.762  1.00  0.00    -0.324 NA 
HETATM   20  C   UNL     1     -12.296  12.090  63.574  1.00  0.00    -0.551 C  
HETATM   21  C   UNL     1     -11.444  14.029  64.681  1.00  0.00    -0.383 C  
ENDBRANCH  18  19
ENDBRANCH  17  18
ENDBRANCH  10  17
ENDBRANCH   9  10
ENDBRANCH   6   9
ENDBRANCH   2   3
TORSDOF 7
ENDMDL
MODEL      114
REMARK 921   NORMALIZED FREE ENERGY PREDICTED BY IDOCK:   -4.35 KCAL/MOL
REMARK 922        TOTAL FREE ENERGY PREDICTED BY IDOCK:   -6.97 KCAL/MOL
REMARK 923 INTER-LIGAND FREE ENERGY PREDICTED BY IDOCK:   -6.27 KCAL/MOL
REMARK 924 INTRA-LIGAND FREE ENERGY PREDICTED BY IDOCK:   -0.70 KCAL/MOL
REMARK 927      BINDING AFFINITY PREDICTED BY RF-SCORE:    0.00 PKD
ROOT
HETATM    1  C   UNL     1      -9.682  10.770  63.028  1.00  0.00    -0.340 C  
HETATM    2  O   UNL     1     -10.845  11.568  62.857  1.00  0.00    -0.112 OA 
ENDROOT
BRANCH   2   3
HETATM    3  C   UNL     1     -11.182  12.388  63.900  1.00  0.00    -0.422 A  
HETATM    4  C   UNL     1     -12.434  12.467  64.506  1.00  0.00    -0.519 A  
HETATM    5  C   UNL     1     -12.673  13.420  65.504  1.00  0.00    -0.469 A  
HETATM    6  C   UNL     1     -11.665  14.308  65.922  1.00  0.00    -0.375 A  
HETATM    7  C   UNL     1     -10.390  14.156  65.362  1.00  0.00    -0.384 A  
HETATM    8  C   UNL     1     -10.151  13.206  64.364  1.00  0.00    -0.224 A  
BRANCH   6   9
HETATM    9  C   UNL     1     -11.954  15.537  66.776  1.00  0.00     0.545 C  
BRANCH   9  10
HETATM   10  N   UNL     1     -10.920  15.919  67.717  1.00  0.00    -0.326 NA 
BRANCH  10  11
HETATM   11  C   UNL     1     -10.301  17.150  67.570  1.00  0.00    -0.341 A  
HETATM   12  N   UNL     1     -11.028  18.269  67.745  1.00  0.00    -0.223 NA 
HETATM   13  N   UNL     1      -9.008  17.200  67.208  1.00  0.00    -0.218 NA 
HETATM   14  C   UNL     1     -10.440  19.453  67.498  1.00  0.00    -0.462 A  
HETATM   15  C   UNL     1      -9.151  19.581  67.056  1.00  0.00    -0.378 A  
HETATM   16  C   UNL     1      -8.468  18.401  66.931  1.00  0.00    -0.265 A  
ENDBRANCH  10  11
BRANCH  10  17
HETATM   17  C   UNL     1     -10.447  15.090  68.832  1.00  0.00    -0.241 C  
BRANCH  17  18
HETATM   18  C   UNL     1     -10.536  15.701  70.249  1.00  0.00    -0.313 C  
BRANCH  18  19
HETATM   19  N   UNL     1     -11.888  15.619  70.860  1.00  0.00    -0.351 NA 
HETATM   20  C   UNL     1     -11.875  15.770  72.319  1.00  0.00    -0.498 C  
HETATM   21  C   UNL     1     -12.528  14.346  70.514  1.00  0.00    -0.350 C  
ENDBRANCH  18  19
ENDBRANCH  17  18
ENDBRANCH  10  17
ENDBRANCH   9  10
ENDBRANCH   6   9
ENDBRANCH   2   3
TORSDOF 7
ENDMDL
MODEL      115
REMARK 921   NORMALIZED FREE ENERGY PREDICTED BY IDOCK:   -4.34 KCAL/MOL
REMARK 922        TOTAL FREE ENERGY PREDICTED BY IDOCK:   -6.97 KCAL/MOL
REMARK 923 INTER-LIGAND FREE ENERGY PREDICTED BY IDOCK:   -6.36 KCAL/MOL
REMARK 924 INTRA-LIGAND FREE ENERGY PREDICTED BY IDOCK:   -0.60 KCAL/MOL
REMARK 927      BINDING AFFINITY PREDICTED BY RF-SCORE:    0.00 PKD
ROOT
HETATM    1  C   UNL     1     -10.328   7.666  73.269  1.00  0.00    -0.345 C  
HETATM    2  O   UNL     1     -11.486   8.324  72.773  1.00  0.00    -0.391 OA 
ENDROOT
BRANCH   2   3
HETATM    3  C   UNL     1     -11.313   9.119  71.673  1.00  0.00    -0.376 A  
HETATM    4  C   UNL     1     -10.145   9.235  70.924  1.00  0.00    -0.373 A  
HETATM    5  C   UNL     1     -10.071  10.161  69.875  1.00  0.00    -0.268 A  
HETATM    6  C   UNL     1     -11.165  10.984  69.550  1.00  0.00    -0.343 A  
HETATM    7  C   UNL     1     -12.358  10.792  70.259  1.00  0.00    -0.423 A  
HETATM    8  C   UNL     1     -12.431   9.869  71.307  1.00  0.00    -0.479 A  
BRANCH   6   9
HETATM    9  C   UNL     1     -11.040  12.192  68.630  1.00  0.00    -0.251 C  
BRANCH   9  10
HETATM   10  N   UNL     1     -11.043  11.916  67.207  1.00  0.00    -0.270 NA 
BRANCH  10  11
HETATM   11  C   UNL     1     -10.023  11.146  66.671  1.00  0.00    -0.207 A  
HETATM   12  N   UNL     1     -10.329   9.969  66.097  1.00  0.00    -0.196 NA 
HETATM   13  N   UNL     1      -8.751  11.567  66.782  1.00  0.00    -0.173 NA 
HETATM   14  C   UNL     1      -9.319   9.187  65.675  1.00  0.00    -0.235 A  
HETATM   15  C   UNL     1      -7.997   9.513  65.820  1.00  0.00    -0.111 A  
HETATM   16  C   UNL     1      -7.768  10.738  66.386  1.00  0.00    -0.145 A  
ENDBRANCH  10  11
BRANCH  10  17
HETATM   17  C   UNL     1     -12.047  12.405  66.256  1.00  0.00    -0.180 C  
BRANCH  17  18
HETATM   18  C   UNL     1     -11.586  13.463  65.228  1.00  0.00    -0.308 C  
BRANCH  18  19
HETATM   19  N   UNL     1     -11.614  12.992  63.818  1.00  0.00    -0.448 NA 
HETATM   20  C   UNL     1     -12.783  12.163  63.508  1.00  0.00    -0.431 C  
HETATM   21  C   UNL     1     -10.394  12.240  63.508  1.00  0.00    -0.410 C  
ENDBRANCH  18  19
ENDBRANCH  17  18
ENDBRANCH  10  17
ENDBRANCH   9  10
ENDBRANCH   6   9
ENDBRANCH   2   3
TORSDOF 7
ENDMDL
MODEL      116
REMARK 921   NORMALIZED FREE ENERGY PREDICTED BY IDOCK:   -4.34 KCAL/MOL
REMARK 922        TOTAL FREE ENERGY PREDICTED BY IDOCK:   -6.96 KCAL/MOL
REMARK 923 INTER-LIGAND FREE ENERGY PREDICTED BY IDOCK:   -6.43 KCAL/MOL
REMARK 924 INTRA-LIGAND FREE ENERGY PREDICTED BY IDOCK:   -0.53 KCAL/MOL
REMARK 927      BINDING AFFINITY PREDICTED BY RF-SCORE:    0.00 PKD
ROOT
HETATM    1  C   UNL     1      -9.943   5.016  66.250  1.00  0.00    -0.224 C  
HETATM    2  O   UNL     1     -11.001   5.845  66.711  1.00  0.00    -0.299 OA 
ENDROOT
BRANCH   2   3
HETATM    3  C   UNL     1     -10.640   6.977  67.390  1.00  0.00    -0.302 A  
HETATM    4  C   UNL     1     -10.755   7.178  68.763  1.00  0.00    -0.199 A  
HETATM    5  C   UNL     1     -10.436   8.424  69.320  1.00  0.00    -0.223 A  
HETATM    6  C   UNL     1      -9.989   9.489  68.518  1.00  0.00    -0.184 A  
HETATM    7  C   UNL     1      -9.798   9.241  67.153  1.00  0.00    -0.251 A  
HETATM    8  C   UNL     1     -10.118   7.999  66.595  1.00  0.00    -0.329 A  
BRANCH   6   9
HETATM    9  C   UNL     1      -9.916  10.925  69.024  1.00  0.00    -0.191 C  
BRANCH   9  10
HETATM   10  N   UNL     1     -11.133  11.704  68.916  1.00  0.00    -0.216 NA 
BRANCH  10  11
HETATM   11  C   UNL     1     -11.811  12.052  70.073  1.00  0.00    -0.314 A  
HETATM   12  N   UNL     1     -12.306  11.076  70.856  1.00  0.00    -0.381 NA 
HETATM   13  N   UNL     1     -12.002  13.351  70.361  1.00  0.00    -0.319 NA 
HETATM   14  C   UNL     1     -13.049  11.432  71.920  1.00  0.00    -0.400 A  
HETATM   15  C   UNL     1     -13.348  12.730  72.236  1.00  0.00    -0.563 A  
HETATM   16  C   UNL     1     -12.784  13.664  71.410  1.00  0.00    -0.352 A  
ENDBRANCH  10  11
BRANCH  10  17
HETATM   17  C   UNL     1     -11.736  12.157  67.657  1.00  0.00    -0.316 C  
BRANCH  17  18
HETATM   18  C   UNL     1     -11.190  13.468  67.048  1.00  0.00    -0.312 C  
BRANCH  18  19
HETATM   19  N   UNL     1     -11.507  13.647  65.607  1.00  0.00    -0.305 NA 
HETATM   20  C   UNL     1     -11.287  12.435  64.811  1.00  0.00    -0.315 C  
HETATM   21  C   UNL     1     -10.714  14.743  65.043  1.00  0.00    -0.433 C  
ENDBRANCH  18  19
ENDBRANCH  17  18
ENDBRANCH  10  17
ENDBRANCH   9  10
ENDBRANCH   6   9
ENDBRANCH   2   3
TORSDOF 7
ENDMDL
MODEL      117
REMARK 921   NORMALIZED FREE ENERGY PREDICTED BY IDOCK:   -4.33 KCAL/MOL
REMARK 922        TOTAL FREE ENERGY PREDICTED BY IDOCK:   -6.94 KCAL/MOL
REMARK 923 INTER-LIGAND FREE ENERGY PREDICTED BY IDOCK:   -5.98 KCAL/MOL
REMARK 924 INTRA-LIGAND FREE ENERGY PREDICTED BY IDOCK:   -0.96 KCAL/MOL
REMARK 927      BINDING AFFINITY PREDICTED BY RF-SCORE:    0.00 PKD
ROOT
HETATM    1  C   UNL     1      -9.131   9.892  63.990  1.00  0.00    -0.259 C  
HETATM    2  O   UNL     1     -10.315  10.677  63.952  1.00  0.00    -0.318 OA 
ENDROOT
BRANCH   2   3
HETATM    3  C   UNL     1     -10.341  11.783  64.759  1.00  0.00    -0.288 A  
HETATM    4  C   UNL     1     -10.142  11.793  66.137  1.00  0.00    -0.255 A  
HETATM    5  C   UNL     1     -10.291  12.984  66.860  1.00  0.00    -0.246 A  
HETATM    6  C   UNL     1     -10.634  14.189  66.219  1.00  0.00    -0.284 A  
HETATM    7  C   UNL     1     -10.746  14.175  64.823  1.00  0.00    -0.436 A  
HETATM    8  C   UNL     1     -10.599  12.986  64.101  1.00  0.00    -0.421 A  
BRANCH   6   9
HETATM    9  C   UNL     1     -11.092  15.426  66.983  1.00  0.00    -0.273 C  
BRANCH   9  10
HETATM   10  N   UNL     1     -10.128  16.503  67.093  1.00  0.00    -0.268 NA 
BRANCH  10  11
HETATM   11  C   UNL     1      -8.884  16.235  67.641  1.00  0.00    -0.190 A  
HETATM   12  N   UNL     1      -7.798  16.284  66.847  1.00  0.00    -0.216 NA 
HETATM   13  N   UNL     1      -8.795  15.883  68.935  1.00  0.00    -0.210 NA 
HETATM   14  C   UNL     1      -6.613  15.922  67.370  1.00  0.00    -0.188 A  
HETATM   15  C   UNL     1      -6.455  15.482  68.656  1.00  0.00    -0.102 A  
HETATM   16  C   UNL     1      -7.598  15.488  69.408  1.00  0.00    -0.225 A  
ENDBRANCH  10  11
BRANCH  10  17
HETATM   17  C   UNL     1     -10.363  17.890  66.679  1.00  0.00    -0.361 C  
BRANCH  17  18
HETATM   18  C   UNL     1     -10.199  18.983  67.760  1.00  0.00    -0.402 C  
BRANCH  18  19
HETATM   19  N   UNL     1      -9.018  19.862  67.559  1.00  0.00    -0.328 NA 
HETATM   20  C   UNL     1      -8.431  19.748  66.220  1.00  0.00    -0.361 C  
HETATM   21  C   UNL     1      -7.990  19.570  68.562  1.00  0.00    -0.348 C  
ENDBRANCH  18  19
ENDBRANCH  17  18
ENDBRANCH  10  17
ENDBRANCH   9  10
ENDBRANCH   6   9
ENDBRANCH   2   3
TORSDOF 7
ENDMDL
MODEL      118
REMARK 921   NORMALIZED FREE ENERGY PREDICTED BY IDOCK:   -4.32 KCAL/MOL
REMARK 922        TOTAL FREE ENERGY PREDICTED BY IDOCK:   -6.94 KCAL/MOL
REMARK 923 INTER-LIGAND FREE ENERGY PREDICTED BY IDOCK:   -6.42 KCAL/MOL
REMARK 924 INTRA-LIGAND FREE ENERGY PREDICTED BY IDOCK:   -0.52 KCAL/MOL
REMARK 927      BINDING AFFINITY PREDICTED BY RF-SCORE:    0.00 PKD
ROOT
HETATM    1  C   UNL     1     -10.265   4.371  73.254  1.00  0.00    -0.162 C  
HETATM    2  O   UNL     1     -11.470   5.069  72.971  1.00  0.00    -0.309 OA 
ENDROOT
BRANCH   2   3
HETATM    3  C   UNL     1     -11.350   6.238  72.270  1.00  0.00    -0.294 A  
HETATM    4  C   UNL     1     -11.524   6.388  70.896  1.00  0.00    -0.406 A  
HETATM    5  C   UNL     1     -11.276   7.625  70.287  1.00  0.00    -0.230 A  
HETATM    6  C   UNL     1     -10.856   8.738  71.039  1.00  0.00    -0.321 A  
HETATM    7  C   UNL     1     -10.770   8.589  72.429  1.00  0.00    -0.376 A  
HETATM    8  C   UNL     1     -11.016   7.354  73.038  1.00  0.00    -0.422 A  
BRANCH   6   9
HETATM    9  C   UNL     1     -10.296  10.001  70.396  1.00  0.00    -0.205 C  
BRANCH   9  10
HETATM   10  N   UNL     1     -11.247  10.831  69.682  1.00  0.00    -0.269 NA 
BRANCH  10  11
HETATM   11  C   UNL     1     -11.964  11.786  70.385  1.00  0.00    -0.332 A  
HETATM   12  N   UNL     1     -11.861  13.077  70.019  1.00  0.00    -0.314 NA 
HETATM   13  N   UNL     1     -12.702  11.410  71.443  1.00  0.00    -0.403 NA 
HETATM   14  C   UNL     1     -12.481  14.001  70.774  1.00  0.00    -0.372 A  
HETATM   15  C   UNL     1     -13.190  13.703  71.907  1.00  0.00    -0.497 A  
HETATM   16  C   UNL     1     -13.272  12.368  72.196  1.00  0.00    -0.385 A  
ENDBRANCH  10  11
BRANCH  10  17
HETATM   17  C   UNL     1     -11.535  10.737  68.247  1.00  0.00    -0.280 C  
BRANCH  17  18
HETATM   18  C   UNL     1     -10.351  10.398  67.313  1.00  0.00    -0.228 C  
BRANCH  18  19
HETATM   19  N   UNL     1      -9.696  11.586  66.707  1.00  0.00    -0.196 NA 
HETATM   20  C   UNL     1     -10.273  11.970  65.414  1.00  0.00    -0.263 C  
HETATM   21  C   UNL     1      -8.259  11.347  66.540  1.00  0.00    -0.152 C  
ENDBRANCH  18  19
ENDBRANCH  17  18
ENDBRANCH  10  17
ENDBRANCH   9  10
ENDBRANCH   6   9
ENDBRANCH   2   3
TORSDOF 7
ENDMDL
MODEL      119
REMARK 921   NORMALIZED FREE ENERGY PREDICTED BY IDOCK:   -4.32 KCAL/MOL
REMARK 922        TOTAL FREE ENERGY PREDICTED BY IDOCK:   -6.93 KCAL/MOL
REMARK 923 INTER-LIGAND FREE ENERGY PREDICTED BY IDOCK:   -6.66 KCAL/MOL
REMARK 924 INTRA-LIGAND FREE ENERGY PREDICTED BY IDOCK:   -0.27 KCAL/MOL
REMARK 927      BINDING AFFINITY PREDICTED BY RF-SCORE:    0.00 PKD
ROOT
HETATM    1  C   UNL     1     -11.780  14.631  68.197  1.00  0.00    -0.330 C  
HETATM    2  O   UNL     1     -11.730  14.552  69.615  1.00  0.00    -0.271 OA 
ENDROOT
BRANCH   2   3
HETATM    3  C   UNL     1     -12.122  13.366  70.175  1.00  0.00    -0.344 A  
HETATM    4  C   UNL     1     -12.822  13.218  71.369  1.00  0.00    -0.411 A  
HETATM    5  C   UNL     1     -13.078  11.939  71.881  1.00  0.00    -0.474 A  
HETATM    6  C   UNL     1     -12.646  10.784  71.206  1.00  0.00    -0.532 A  
HETATM    7  C   UNL     1     -12.019  10.951  69.964  1.00  0.00    -0.429 A  
HETATM    8  C   UNL     1     -11.762  12.227  69.454  1.00  0.00    -0.392 A  
BRANCH   6   9
HETATM    9  C   UNL     1     -12.638   9.405  71.857  1.00  0.00    -0.401 C  
BRANCH   9  10
HETATM   10  N   UNL     1     -11.563   8.517  71.459  1.00  0.00    -0.275 NA 
BRANCH  10  11
HETATM   11  C   UNL     1     -10.562   8.226  72.373  1.00  0.00    -0.337 A  
HETATM   12  N   UNL     1      -9.338   8.754  72.188  1.00  0.00    -0.351 NA 
HETATM   13  N   UNL     1     -10.821   7.386  73.390  1.00  0.00    -0.373 NA 
HETATM   14  C   UNL     1      -8.353   8.380  73.024  1.00  0.00    -0.130 A  
HETATM   15  C   UNL     1      -8.521   7.474  74.036  1.00  0.00    -0.259 A  
HETATM   16  C   UNL     1      -9.800   7.005  74.178  1.00  0.00    -0.269 A  
ENDBRANCH  10  11
BRANCH  10  17
HETATM   17  C   UNL     1     -11.429   7.894  70.138  1.00  0.00    -0.017 C  
BRANCH  17  18
HETATM   18  C   UNL     1     -11.528   6.353  70.074  1.00  0.00    -0.428 C  
BRANCH  18  19
HETATM   19  N   UNL     1     -10.611   5.727  69.087  1.00  0.00    -0.279 NA 
HETATM   20  C   UNL     1      -9.824   4.622  69.646  1.00  0.00    -0.223 C  
HETATM   21  C   UNL     1      -9.701   6.731  68.528  1.00  0.00    -0.133 C  
ENDBRANCH  18  19
ENDBRANCH  17  18
ENDBRANCH  10  17
ENDBRANCH   9  10
ENDBRANCH   6   9
ENDBRANCH   2   3
TORSDOF 7
ENDMDL
MODEL      120
REMARK 921   NORMALIZED FREE ENERGY PREDICTED BY IDOCK:   -4.32 KCAL/MOL
REMARK 922        TOTAL FREE ENERGY PREDICTED BY IDOCK:   -6.93 KCAL/MOL
REMARK 923 INTER-LIGAND FREE ENERGY PREDICTED BY IDOCK:   -6.45 KCAL/MOL
REMARK 924 INTRA-LIGAND FREE ENERGY PREDICTED BY IDOCK:   -0.47 KCAL/MOL
REMARK 927      BINDING AFFINITY PREDICTED BY RF-SCORE:    0.00 PKD
ROOT
HETATM    1  C   UNL     1      -7.325  17.990  67.945  1.00  0.00    -0.224 C  
HETATM    2  O   UNL     1      -8.588  18.058  68.594  1.00  0.00    -0.303 OA 
ENDROOT
BRANCH   2   3
HETATM    3  C   UNL     1      -9.302  16.893  68.663  1.00  0.00    -0.268 A  
HETATM    4  C   UNL     1      -8.794  15.610  68.473  1.00  0.00    -0.187 A  
HETATM    5  C   UNL     1      -9.655  14.505  68.477  1.00  0.00    -0.220 A  
HETATM    6  C   UNL     1     -11.039  14.658  68.678  1.00  0.00    -0.276 A  
HETATM    7  C   UNL     1     -11.518  15.946  68.953  1.00  0.00    -0.386 A  
HETATM    8  C   UNL     1     -10.659  17.049  68.948  1.00  0.00    -0.328 A  
BRANCH   6   9
HETATM    9  C   UNL     1     -12.039  13.543  68.400  1.00  0.00    -0.258 C  
BRANCH   9  10
HETATM   10  N   UNL     1     -11.642  12.558  67.413  1.00  0.00    -0.349 NA 
BRANCH  10  11
HETATM   11  C   UNL     1     -11.878  12.821  66.073  1.00  0.00    -0.439 A  
HETATM   12  N   UNL     1     -11.945  11.791  65.210  1.00  0.00    -0.227 NA 
HETATM   13  N   UNL     1     -11.983  14.095  65.659  1.00  0.00    -0.380 NA 
HETATM   14  C   UNL     1     -12.072  12.067  63.899  1.00  0.00    -0.457 A  
HETATM   15  C   UNL     1     -12.111  13.339  63.394  1.00  0.00    -0.508 A  
HETATM   16  C   UNL     1     -12.067  14.331  64.337  1.00  0.00    -0.468 A  
ENDBRANCH  10  11
BRANCH  10  17
HETATM   17  C   UNL     1     -11.011  11.269  67.715  1.00  0.00    -0.252 C  
BRANCH  17  18
HETATM   18  C   UNL     1     -11.164  10.732  69.156  1.00  0.00    -0.262 C  
BRANCH  18  19
HETATM   19  N   UNL     1     -10.450   9.453  69.406  1.00  0.00    -0.213 NA 
HETATM   20  C   UNL     1     -10.323   8.617  68.208  1.00  0.00    -0.207 C  
HETATM   21  C   UNL     1     -11.129   8.688  70.457  1.00  0.00    -0.242 C  
ENDBRANCH  18  19
ENDBRANCH  17  18
ENDBRANCH  10  17
ENDBRANCH   9  10
ENDBRANCH   6   9
ENDBRANCH   2   3
TORSDOF 7
ENDMDL
MODEL      121
REMARK 921   NORMALIZED FREE ENERGY PREDICTED BY IDOCK:   -4.31 KCAL/MOL
REMARK 922        TOTAL FREE ENERGY PREDICTED BY IDOCK:   -6.91 KCAL/MOL
REMARK 923 INTER-LIGAND FREE ENERGY PREDICTED BY IDOCK:   -6.11 KCAL/MOL
REMARK 924 INTRA-LIGAND FREE ENERGY PREDICTED BY IDOCK:   -0.80 KCAL/MOL
REMARK 927      BINDING AFFINITY PREDICTED BY RF-SCORE:    0.00 PKD
ROOT
HETATM    1  C   UNL     1      -8.355  18.039  66.655  1.00  0.00    -0.262 C  
HETATM    2  O   UNL     1      -9.673  18.141  67.176  1.00  0.00    -0.284 OA 
ENDROOT
BRANCH   2   3
HETATM    3  C   UNL     1     -10.357  16.967  67.341  1.00  0.00    -0.319 A  
HETATM    4  C   UNL     1     -10.967  16.535  68.516  1.00  0.00    -0.350 A  
HETATM    5  C   UNL     1     -11.555  15.264  68.577  1.00  0.00    -0.368 A  
HETATM    6  C   UNL     1     -11.551  14.405  67.464  1.00  0.00    -0.398 A  
HETATM    7  C   UNL     1     -11.009  14.891  66.267  1.00  0.00    -0.338 A  
HETATM    8  C   UNL     1     -10.421  16.158  66.206  1.00  0.00    -0.321 A  
BRANCH   6   9
HETATM    9  C   UNL     1     -11.907  12.926  67.565  1.00  0.00    -0.351 C  
BRANCH   9  10
HETATM   10  N   UNL     1     -11.018  12.108  68.367  1.00  0.00    -0.221 NA 
BRANCH  10  11
HETATM   11  C   UNL     1     -11.511  11.509  69.515  1.00  0.00    -0.311 A  
HETATM   12  N   UNL     1     -11.315  10.190  69.697  1.00  0.00    -0.248 NA 
HETATM   13  N   UNL     1     -12.216  12.245  70.392  1.00  0.00    -0.329 NA 
HETATM   14  C   UNL     1     -11.888   9.605  70.764  1.00  0.00    -0.300 A  
HETATM   15  C   UNL     1     -12.679  10.272  71.660  1.00  0.00    -0.561 A  
HETATM   16  C   UNL     1     -12.806  11.615  71.424  1.00  0.00    -0.356 A  
ENDBRANCH  10  11
BRANCH  10  17
HETATM   17  C   UNL     1      -9.602  11.863  68.071  1.00  0.00    -0.193 C  
BRANCH  17  18
HETATM   18  C   UNL     1      -9.232  11.572  66.599  1.00  0.00    -0.186 C  
BRANCH  18  19
HETATM   19  N   UNL     1      -8.393  10.360  66.412  1.00  0.00    -0.135 NA 
HETATM   20  C   UNL     1      -7.941  10.175  65.029  1.00  0.00    -0.146 C  
HETATM   21  C   UNL     1      -9.124   9.164  66.843  1.00  0.00    -0.135 C  
ENDBRANCH  18  19
ENDBRANCH  17  18
ENDBRANCH  10  17
ENDBRANCH   9  10
ENDBRANCH   6   9
ENDBRANCH   2   3
TORSDOF 7
ENDMDL
MODEL      122
REMARK 921   NORMALIZED FREE ENERGY PREDICTED BY IDOCK:   -4.29 KCAL/MOL
REMARK 922        TOTAL FREE ENERGY PREDICTED BY IDOCK:   -6.89 KCAL/MOL
REMARK 923 INTER-LIGAND FREE ENERGY PREDICTED BY IDOCK:   -6.09 KCAL/MOL
REMARK 924 INTRA-LIGAND FREE ENERGY PREDICTED BY IDOCK:   -0.79 KCAL/MOL
REMARK 927      BINDING AFFINITY PREDICTED BY RF-SCORE:    0.00 PKD
ROOT
HETATM    1  C   UNL     1     -10.093  19.673  66.211  1.00  0.00    -0.480 C  
HETATM    2  O   UNL     1     -10.526  18.440  65.652  1.00  0.00    -0.624 OA 
ENDROOT
BRANCH   2   3
HETATM    3  C   UNL     1     -10.212  17.308  66.353  1.00  0.00    -0.331 A  
HETATM    4  C   UNL     1      -9.420  16.257  65.896  1.00  0.00    -0.318 A  
HETATM    5  C   UNL     1      -9.255  15.107  66.680  1.00  0.00    -0.298 A  
HETATM    6  C   UNL     1      -9.871  14.989  67.939  1.00  0.00    -0.217 A  
HETATM    7  C   UNL     1     -10.592  16.090  68.418  1.00  0.00    -0.270 A  
HETATM    8  C   UNL     1     -10.759  17.237  67.634  1.00  0.00    -0.307 A  
BRANCH   6   9
HETATM    9  C   UNL     1      -9.966  13.665  68.687  1.00  0.00    -0.161 C  
BRANCH   9  10
HETATM   10  N   UNL     1     -10.246  12.493  67.882  1.00  0.00    -0.213 NA 
BRANCH  10  11
HETATM   11  C   UNL     1      -9.285  11.500  67.785  1.00  0.00    -0.165 A  
HETATM   12  N   UNL     1      -8.156  11.751  67.097  1.00  0.00    -0.163 NA 
HETATM   13  N   UNL     1      -9.521  10.296  68.335  1.00  0.00    -0.142 NA 
HETATM   14  C   UNL     1      -7.280  10.745  66.925  1.00  0.00    -0.115 A  
HETATM   15  C   UNL     1      -7.485   9.474  67.392  1.00  0.00    -0.091 A  
HETATM   16  C   UNL     1      -8.640   9.306  68.106  1.00  0.00    -0.125 A  
ENDBRANCH  10  11
BRANCH  10  17
HETATM   17  C   UNL     1     -11.484  12.265  67.128  1.00  0.00    -0.352 C  
BRANCH  17  18
HETATM   18  C   UNL     1     -11.342  11.968  65.617  1.00  0.00    -0.329 C  
BRANCH  18  19
HETATM   19  N   UNL     1     -12.406  12.576  64.777  1.00  0.00    -0.476 NA 
HETATM   20  C   UNL     1     -12.553  11.928  63.469  1.00  0.00    -0.459 C  
HETATM   21  C   UNL     1     -12.143  14.005  64.578  1.00  0.00    -0.459 C  
ENDBRANCH  18  19
ENDBRANCH  17  18
ENDBRANCH  10  17
ENDBRANCH   9  10
ENDBRANCH   6   9
ENDBRANCH   2   3
TORSDOF 7
ENDMDL
MODEL      123
REMARK 921   NORMALIZED FREE ENERGY PREDICTED BY IDOCK:   -4.28 KCAL/MOL
REMARK 922        TOTAL FREE ENERGY PREDICTED BY IDOCK:   -6.88 KCAL/MOL
REMARK 923 INTER-LIGAND FREE ENERGY PREDICTED BY IDOCK:   -6.18 KCAL/MOL
REMARK 924 INTRA-LIGAND FREE ENERGY PREDICTED BY IDOCK:   -0.70 KCAL/MOL
REMARK 927      BINDING AFFINITY PREDICTED BY RF-SCORE:    0.00 PKD
ROOT
HETATM    1  C   UNL     1      -7.036  20.473  66.590  1.00  0.00    -0.259 C  
HETATM    2  O   UNL     1      -8.143  20.327  67.469  1.00  0.00    -0.314 OA 
ENDROOT
BRANCH   2   3
HETATM    3  C   UNL     1      -8.833  19.147  67.393  1.00  0.00    -0.293 A  
HETATM    4  C   UNL     1      -9.721  18.784  66.383  1.00  0.00    -0.378 A  
HETATM    5  C   UNL     1     -10.437  17.583  66.476  1.00  0.00    -0.270 A  
HETATM    6  C   UNL     1     -10.274  16.718  67.573  1.00  0.00    -0.289 A  
HETATM    7  C   UNL     1      -9.314  17.060  68.534  1.00  0.00    -0.265 A  
HETATM    8  C   UNL     1      -8.600  18.260  68.444  1.00  0.00    -0.315 A  
BRANCH   6   9
HETATM    9  C   UNL     1     -11.230  15.567  67.863  1.00  0.00    -0.325 C  
BRANCH   9  10
HETATM   10  N   UNL     1     -11.004  14.345  67.116  1.00  0.00    -0.296 NA 
BRANCH  10  11
HETATM   11  C   UNL     1     -10.110  13.411  67.614  1.00  0.00    -0.229 A  
HETATM   12  N   UNL     1      -8.798  13.561  67.352  1.00  0.00    -0.210 NA 
HETATM   13  N   UNL     1     -10.574  12.353  68.301  1.00  0.00    -0.215 NA 
HETATM   14  C   UNL     1      -7.956  12.593  67.753  1.00  0.00    -0.158 A  
HETATM   15  C   UNL     1      -8.362  11.452  68.392  1.00  0.00    -0.153 A  
HETATM   16  C   UNL     1      -9.705  11.387  68.649  1.00  0.00    -0.176 A  
ENDBRANCH  10  11
BRANCH  10  17
HETATM   17  C   UNL     1     -11.644  14.007  65.840  1.00  0.00    -0.347 C  
BRANCH  17  18
HETATM   18  C   UNL     1     -10.714  13.779  64.627  1.00  0.00    -0.414 C  
BRANCH  18  19
HETATM   19  N   UNL     1     -10.985  12.520  63.884  1.00  0.00    -0.390 NA 
HETATM   20  C   UNL     1     -12.402  12.336  63.553  1.00  0.00    -0.565 C  
HETATM   21  C   UNL     1     -10.516  11.363  64.653  1.00  0.00    -0.315 C  
ENDBRANCH  18  19
ENDBRANCH  17  18
ENDBRANCH  10  17
ENDBRANCH   9  10
ENDBRANCH   6   9
ENDBRANCH   2   3
TORSDOF 7
ENDMDL
MODEL      124
REMARK 921   NORMALIZED FREE ENERGY PREDICTED BY IDOCK:   -4.26 KCAL/MOL
REMARK 922        TOTAL FREE ENERGY PREDICTED BY IDOCK:   -6.85 KCAL/MOL
REMARK 923 INTER-LIGAND FREE ENERGY PREDICTED BY IDOCK:   -6.06 KCAL/MOL
REMARK 924 INTRA-LIGAND FREE ENERGY PREDICTED BY IDOCK:   -0.79 KCAL/MOL
REMARK 927      BINDING AFFINITY PREDICTED BY RF-SCORE:    0.00 PKD
ROOT
HETATM    1  C   UNL     1      -8.799   5.815  73.187  1.00  0.00    -0.122 C  
HETATM    2  O   UNL     1     -10.116   6.024  72.695  1.00  0.00    -0.175 OA 
ENDROOT
BRANCH   2   3
HETATM    3  C   UNL     1     -10.254   6.943  71.690  1.00  0.00    -0.191 A  
HETATM    4  C   UNL     1     -10.784   6.697  70.425  1.00  0.00    -0.297 A  
HETATM    5  C   UNL     1     -10.780   7.705  69.453  1.00  0.00    -0.188 A  
HETATM    6  C   UNL     1     -10.253   8.980  69.726  1.00  0.00    -0.214 A  
HETATM    7  C   UNL     1      -9.803   9.234  71.029  1.00  0.00    -0.355 A  
HETATM    8  C   UNL     1      -9.806   8.227  71.999  1.00  0.00    -0.327 A  
BRANCH   6   9
HETATM    9  C   UNL     1      -9.958  10.000  68.633  1.00  0.00    -0.165 C  
BRANCH   9  10
HETATM   10  N   UNL     1     -11.078  10.810  68.194  1.00  0.00    -0.258 NA 
BRANCH  10  11
HETATM   11  C   UNL     1     -11.069  11.324  66.907  1.00  0.00    -0.275 A  
HETATM   12  N   UNL     1     -12.069  12.138  66.524  1.00  0.00    -0.582 NA 
HETATM   13  N   UNL     1     -10.093  10.959  66.058  1.00  0.00    -0.241 NA 
HETATM   14  C   UNL     1     -12.101  12.546  65.243  1.00  0.00    -0.444 A  
HETATM   15  C   UNL     1     -11.186  12.158  64.302  1.00  0.00    -0.409 A  
HETATM   16  C   UNL     1     -10.184  11.355  64.775  1.00  0.00    -0.286 A  
ENDBRANCH  10  11
BRANCH  10  17
HETATM   17  C   UNL     1     -12.242  11.154  69.016  1.00  0.00    -0.125 C  
BRANCH  17  18
HETATM   18  C   UNL     1     -12.045  12.249  70.090  1.00  0.00    -0.287 C  
BRANCH  18  19
HETATM   19  N   UNL     1     -12.480  11.848  71.453  1.00  0.00    -0.223 NA 
HETATM   20  C   UNL     1     -13.115  10.526  71.493  1.00  0.00    -0.430 C  
HETATM   21  C   UNL     1     -13.405  12.842  72.006  1.00  0.00    -0.466 C  
ENDBRANCH  18  19
ENDBRANCH  17  18
ENDBRANCH  10  17
ENDBRANCH   9  10
ENDBRANCH   6   9
ENDBRANCH   2   3
TORSDOF 7
ENDMDL
MODEL      125
REMARK 921   NORMALIZED FREE ENERGY PREDICTED BY IDOCK:   -4.25 KCAL/MOL
REMARK 922        TOTAL FREE ENERGY PREDICTED BY IDOCK:   -6.84 KCAL/MOL
REMARK 923 INTER-LIGAND FREE ENERGY PREDICTED BY IDOCK:   -6.15 KCAL/MOL
REMARK 924 INTRA-LIGAND FREE ENERGY PREDICTED BY IDOCK:   -0.69 KCAL/MOL
REMARK 927      BINDING AFFINITY PREDICTED BY RF-SCORE:    0.00 PKD
ROOT
HETATM    1  C   UNL     1      -6.033  20.961  67.991  1.00  0.00    -0.331 C  
HETATM    2  O   UNL     1      -7.323  21.364  67.553  1.00  0.00    -0.459 OA 
ENDROOT
BRANCH   2   3
HETATM    3  C   UNL     1      -8.190  20.364  67.202  1.00  0.00    -0.320 A  
HETATM    4  C   UNL     1      -9.543  20.304  67.528  1.00  0.00    -0.562 A  
HETATM    5  C   UNL     1     -10.298  19.174  67.188  1.00  0.00    -0.511 A  
HETATM    6  C   UNL     1      -9.719  18.086  66.511  1.00  0.00    -0.338 A  
HETATM    7  C   UNL     1      -8.379  18.202  66.117  1.00  0.00    -0.155 A  
HETATM    8  C   UNL     1      -7.624  19.329  66.457  1.00  0.00    -0.264 A  
BRANCH   6   9
HETATM    9  C   UNL     1     -10.409  16.733  66.384  1.00  0.00    -0.306 C  
BRANCH   9  10
HETATM   10  N   UNL     1     -10.281  15.841  67.519  1.00  0.00    -0.260 NA 
BRANCH  10  11
HETATM   11  C   UNL     1      -9.014  15.485  67.951  1.00  0.00    -0.173 A  
HETATM   12  N   UNL     1      -8.588  15.921  69.151  1.00  0.00    -0.242 NA 
HETATM   13  N   UNL     1      -8.221  14.758  67.145  1.00  0.00    -0.212 NA 
HETATM   14  C   UNL     1      -7.320  15.654  69.511  1.00  0.00    -0.197 A  
HETATM   15  C   UNL     1      -6.432  14.984  68.714  1.00  0.00    -0.082 A  
HETATM   16  C   UNL     1      -6.947  14.547  67.523  1.00  0.00    -0.164 A  
ENDBRANCH  10  11
BRANCH  10  17
HETATM   17  C   UNL     1     -11.402  15.253  68.260  1.00  0.00    -0.336 C  
BRANCH  17  18
HETATM   18  C   UNL     1     -11.384  13.721  68.464  1.00  0.00    -0.285 C  
BRANCH  18  19
HETATM   19  N   UNL     1     -11.329  12.942  67.199  1.00  0.00    -0.289 NA 
HETATM   20  C   UNL     1     -12.310  13.385  66.203  1.00  0.00    -0.380 C  
HETATM   21  C   UNL     1     -11.531  11.515  67.471  1.00  0.00    -0.282 C  
ENDBRANCH  18  19
ENDBRANCH  17  18
ENDBRANCH  10  17
ENDBRANCH   9  10
ENDBRANCH   6   9
ENDBRANCH   2   3
TORSDOF 7
ENDMDL
MODEL      126
REMARK 921   NORMALIZED FREE ENERGY PREDICTED BY IDOCK:   -4.23 KCAL/MOL
REMARK 922        TOTAL FREE ENERGY PREDICTED BY IDOCK:   -6.81 KCAL/MOL
REMARK 923 INTER-LIGAND FREE ENERGY PREDICTED BY IDOCK:   -6.22 KCAL/MOL
REMARK 924 INTRA-LIGAND FREE ENERGY PREDICTED BY IDOCK:   -0.59 KCAL/MOL
REMARK 927      BINDING AFFINITY PREDICTED BY RF-SCORE:    0.00 PKD
ROOT
HETATM    1  C   UNL     1     -13.369  15.478  73.098  1.00  0.00    -0.528 C  
HETATM    2  O   UNL     1     -12.007  15.425  72.696  1.00  0.00    -0.384 OA 
ENDROOT
BRANCH   2   3
HETATM    3  C   UNL     1     -11.769  15.121  71.383  1.00  0.00    -0.374 A  
HETATM    4  C   UNL     1     -10.947  15.835  70.514  1.00  0.00    -0.361 A  
HETATM    5  C   UNL     1     -10.866  15.471  69.164  1.00  0.00    -0.251 A  
HETATM    6  C   UNL     1     -11.597  14.382  68.657  1.00  0.00    -0.347 A  
HETATM    7  C   UNL     1     -12.350  13.624  69.563  1.00  0.00    -0.232 A  
HETATM    8  C   UNL     1     -12.433  13.988  70.911  1.00  0.00    -0.439 A  
BRANCH   6   9
HETATM    9  C   UNL     1     -11.772  14.132  67.164  1.00  0.00    -0.403 C  
BRANCH   9  10
HETATM   10  N   UNL     1     -11.054  12.998  66.617  1.00  0.00    -0.282 NA 
BRANCH  10  11
HETATM   11  C   UNL     1      -9.895  12.571  67.246  1.00  0.00    -0.204 A  
HETATM   12  N   UNL     1      -9.923  11.431  67.960  1.00  0.00    -0.177 NA 
HETATM   13  N   UNL     1      -8.787  13.329  67.171  1.00  0.00    -0.216 NA 
HETATM   14  C   UNL     1      -8.820  11.086  68.648  1.00  0.00    -0.164 A  
HETATM   15  C   UNL     1      -7.680  11.842  68.681  1.00  0.00    -0.113 A  
HETATM   16  C   UNL     1      -7.718  12.971  67.907  1.00  0.00    -0.145 A  
ENDBRANCH  10  11
BRANCH  10  17
HETATM   17  C   UNL     1     -11.446  12.250  65.417  1.00  0.00    -0.354 C  
BRANCH  17  18
HETATM   18  C   UNL     1     -10.460  12.264  64.226  1.00  0.00    -0.346 C  
BRANCH  18  19
HETATM   19  N   UNL     1     -10.094  10.914  63.726  1.00  0.00    -0.334 NA 
HETATM   20  C   UNL     1      -9.370  10.107  64.714  1.00  0.00    -0.268 C  
HETATM   21  C   UNL     1      -9.284  11.024  62.509  1.00  0.00    -0.299 C  
ENDBRANCH  18  19
ENDBRANCH  17  18
ENDBRANCH  10  17
ENDBRANCH   9  10
ENDBRANCH   6   9
ENDBRANCH   2   3
TORSDOF 7
ENDMDL
MODEL      127
REMARK 921   NORMALIZED FREE ENERGY PREDICTED BY IDOCK:   -4.23 KCAL/MOL
REMARK 922        TOTAL FREE ENERGY PREDICTED BY IDOCK:   -6.80 KCAL/MOL
REMARK 923 INTER-LIGAND FREE ENERGY PREDICTED BY IDOCK:   -6.10 KCAL/MOL
REMARK 924 INTRA-LIGAND FREE ENERGY PREDICTED BY IDOCK:   -0.70 KCAL/MOL
REMARK 927      BINDING AFFINITY PREDICTED BY RF-SCORE:    0.00 PKD
ROOT
HETATM    1  C   UNL     1     -10.388  19.757  66.384  1.00  0.00    -0.508 C  
HETATM    2  O   UNL     1     -10.675  18.687  65.494  1.00  0.00    -0.577 OA 
ENDROOT
BRANCH   2   3
HETATM    3  C   UNL     1     -10.405  17.425  65.948  1.00  0.00    -0.269 A  
HETATM    4  C   UNL     1      -9.836  17.103  67.178  1.00  0.00    -0.271 A  
HETATM    5  C   UNL     1      -9.522  15.771  67.480  1.00  0.00    -0.218 A  
HETATM    6  C   UNL     1      -9.777  14.735  66.564  1.00  0.00    -0.295 A  
HETATM    7  C   UNL     1     -10.427  15.068  65.369  1.00  0.00    -0.406 A  
HETATM    8  C   UNL     1     -10.739  16.397  65.065  1.00  0.00    -0.279 A  
BRANCH   6   9
HETATM    9  C   UNL     1      -9.193  13.336  66.721  1.00  0.00    -0.233 C  
BRANCH   9  10
HETATM   10  N   UNL     1     -10.062  12.235  66.355  1.00  0.00    -0.222 NA 
BRANCH  10  11
HETATM   11  C   UNL     1      -9.734  11.459  65.254  1.00  0.00    -0.241 A  
HETATM   12  N   UNL     1      -8.837  10.467  65.401  1.00  0.00    -0.180 NA 
HETATM   13  N   UNL     1     -10.277  11.747  64.059  1.00  0.00    -0.316 NA 
HETATM   14  C   UNL     1      -8.452   9.791  64.304  1.00  0.00    -0.178 A  
HETATM   15  C   UNL     1      -8.905  10.073  63.043  1.00  0.00    -0.237 A  
HETATM   16  C   UNL     1      -9.835  11.075  62.980  1.00  0.00    -0.337 A  
ENDBRANCH  10  11
BRANCH  10  17
HETATM   17  C   UNL     1     -11.298  11.869  67.054  1.00  0.00    -0.329 C  
BRANCH  17  18
HETATM   18  C   UNL     1     -11.285  10.550  67.861  1.00  0.00    -0.289 C  
BRANCH  18  19
HETATM   19  N   UNL     1     -10.489  10.614  69.114  1.00  0.00    -0.210 NA 
HETATM   20  C   UNL     1      -9.294   9.764  69.085  1.00  0.00    -0.182 C  
HETATM   21  C   UNL     1     -11.318  10.239  70.264  1.00  0.00    -0.323 C  
ENDBRANCH  18  19
ENDBRANCH  17  18
ENDBRANCH  10  17
ENDBRANCH   9  10
ENDBRANCH   6   9
ENDBRANCH   2   3
TORSDOF 7
ENDMDL
MODEL      128
REMARK 921   NORMALIZED FREE ENERGY PREDICTED BY IDOCK:   -4.21 KCAL/MOL
REMARK 922        TOTAL FREE ENERGY PREDICTED BY IDOCK:   -6.78 KCAL/MOL
REMARK 923 INTER-LIGAND FREE ENERGY PREDICTED BY IDOCK:   -6.26 KCAL/MOL
REMARK 924 INTRA-LIGAND FREE ENERGY PREDICTED BY IDOCK:   -0.51 KCAL/MOL
REMARK 927      BINDING AFFINITY PREDICTED BY RF-SCORE:    0.00 PKD
ROOT
HETATM    1  C   UNL     1     -12.769  11.970  63.603  1.00  0.00    -0.431 C  
HETATM    2  O   UNL     1     -12.608  13.375  63.465  1.00  0.00    -0.733 OA 
ENDROOT
BRANCH   2   3
HETATM    3  C   UNL     1     -11.703  13.972  64.301  1.00  0.00    -0.367 A  
HETATM    4  C   UNL     1     -10.746  13.316  65.071  1.00  0.00    -0.346 A  
HETATM    5  C   UNL     1      -9.942  14.041  65.961  1.00  0.00    -0.331 A  
HETATM    6  C   UNL     1     -10.074  15.435  66.094  1.00  0.00    -0.325 A  
HETATM    7  C   UNL     1     -10.982  16.086  65.249  1.00  0.00    -0.309 A  
HETATM    8  C   UNL     1     -11.786  15.364  64.362  1.00  0.00    -0.261 A  
BRANCH   6   9
HETATM    9  C   UNL     1      -9.443  16.215  67.240  1.00  0.00    -0.226 C  
BRANCH   9  10
HETATM   10  N   UNL     1      -9.306  15.507  68.498  1.00  0.00    -0.191 NA 
BRANCH  10  11
HETATM   11  C   UNL     1     -10.446  15.201  69.223  1.00  0.00    -0.260 A  
HETATM   12  N   UNL     1     -10.926  16.107  70.094  1.00  0.00    -0.358 NA 
HETATM   13  N   UNL     1     -11.016  13.992  69.077  1.00  0.00    -0.257 NA 
HETATM   14  C   UNL     1     -11.972  15.756  70.864  1.00  0.00    -0.413 A  
HETATM   15  C   UNL     1     -12.559  14.520  70.826  1.00  0.00    -0.418 A  
HETATM   16  C   UNL     1     -12.034  13.665  69.894  1.00  0.00    -0.348 A  
ENDBRANCH  10  11
BRANCH  10  17
HETATM   17  C   UNL     1      -8.033  15.086  69.093  1.00  0.00    -0.195 C  
BRANCH  17  18
HETATM   18  C   UNL     1      -7.059  14.298  68.188  1.00  0.00    -0.126 C  
BRANCH  18  19
HETATM   19  N   UNL     1      -6.927  12.862  68.544  1.00  0.00    -0.092 NA 
HETATM   20  C   UNL     1      -6.098  12.634  69.733  1.00  0.00    -0.134 C  
HETATM   21  C   UNL     1      -6.370  12.106  67.418  1.00  0.00    -0.144 C  
ENDBRANCH  18  19
ENDBRANCH  17  18
ENDBRANCH  10  17
ENDBRANCH   9  10
ENDBRANCH   6   9
ENDBRANCH   2   3
TORSDOF 7
ENDMDL
MODEL      129
REMARK 921   NORMALIZED FREE ENERGY PREDICTED BY IDOCK:   -4.20 KCAL/MOL
REMARK 922        TOTAL FREE ENERGY PREDICTED BY IDOCK:   -6.77 KCAL/MOL
REMARK 923 INTER-LIGAND FREE ENERGY PREDICTED BY IDOCK:   -5.99 KCAL/MOL
REMARK 924 INTRA-LIGAND FREE ENERGY PREDICTED BY IDOCK:   -0.78 KCAL/MOL
REMARK 927      BINDING AFFINITY PREDICTED BY RF-SCORE:    0.00 PKD
ROOT
HETATM    1  C   UNL     1      -6.544  20.421  68.103  1.00  0.00    -0.303 C  
HETATM    2  O   UNL     1      -7.788  20.712  67.481  1.00  0.00    -0.317 OA 
ENDROOT
BRANCH   2   3
HETATM    3  C   UNL     1      -8.598  19.644  67.206  1.00  0.00    -0.308 A  
HETATM    4  C   UNL     1      -9.916  19.486  67.631  1.00  0.00    -0.498 A  
HETATM    5  C   UNL     1     -10.604  18.297  67.360  1.00  0.00    -0.425 A  
HETATM    6  C   UNL     1      -9.994  17.245  66.654  1.00  0.00    -0.296 A  
HETATM    7  C   UNL     1      -8.699  17.456  66.162  1.00  0.00    -0.182 A  
HETATM    8  C   UNL     1      -8.010  18.642  66.433  1.00  0.00    -0.298 A  
BRANCH   6   9
HETATM    9  C   UNL     1     -10.586  15.842  66.594  1.00  0.00    -0.307 C  
BRANCH   9  10
HETATM   10  N   UNL     1     -10.438  15.033  67.788  1.00  0.00    -0.246 NA 
BRANCH  10  11
HETATM   11  C   UNL     1      -9.175  14.589  68.145  1.00  0.00    -0.195 A  
HETATM   12  N   UNL     1      -8.545  15.180  69.177  1.00  0.00    -0.214 NA 
HETATM   13  N   UNL     1      -8.588  13.619  67.424  1.00  0.00    -0.198 NA 
HETATM   14  C   UNL     1      -7.281  14.808  69.446  1.00  0.00    -0.168 A  
HETATM   15  C   UNL     1      -6.592  13.881  68.711  1.00  0.00    -0.098 A  
HETATM   16  C   UNL     1      -7.309  13.305  67.698  1.00  0.00    -0.161 A  
ENDBRANCH  10  11
BRANCH  10  17
HETATM   17  C   UNL     1     -11.538  14.619  68.666  1.00  0.00    -0.314 C  
BRANCH  17  18
HETATM   18  C   UNL     1     -12.020  15.644  69.719  1.00  0.00    -0.354 C  
BRANCH  18  19
HETATM   19  N   UNL     1     -12.377  15.043  71.031  1.00  0.00    -0.304 NA 
HETATM   20  C   UNL     1     -11.453  15.414  72.108  1.00  0.00    -0.433 C  
HETATM   21  C   UNL     1     -12.430  13.582  70.924  1.00  0.00    -0.369 C  
ENDBRANCH  18  19
ENDBRANCH  17  18
ENDBRANCH  10  17
ENDBRANCH   9  10
ENDBRANCH   6   9
ENDBRANCH   2   3
TORSDOF 7
ENDMDL
MODEL      130
REMARK 921   NORMALIZED FREE ENERGY PREDICTED BY IDOCK:   -4.20 KCAL/MOL
REMARK 922        TOTAL FREE ENERGY PREDICTED BY IDOCK:   -6.76 KCAL/MOL
REMARK 923 INTER-LIGAND FREE ENERGY PREDICTED BY IDOCK:   -6.53 KCAL/MOL
REMARK 924 INTRA-LIGAND FREE ENERGY PREDICTED BY IDOCK:   -0.23 KCAL/MOL
REMARK 927      BINDING AFFINITY PREDICTED BY RF-SCORE:    0.00 PKD
ROOT
HETATM    1  C   UNL     1     -12.979  15.767  73.394  1.00  0.00    -0.583 C  
HETATM    2  O   UNL     1     -12.700  14.511  72.790  1.00  0.00    -0.379 OA 
ENDROOT
BRANCH   2   3
HETATM    3  C   UNL     1     -12.557  14.505  71.429  1.00  0.00    -0.341 A  
HETATM    4  C   UNL     1     -12.462  13.374  70.621  1.00  0.00    -0.385 A  
HETATM    5  C   UNL     1     -12.221  13.509  69.248  1.00  0.00    -0.257 A  
HETATM    6  C   UNL     1     -12.077  14.776  68.653  1.00  0.00    -0.223 A  
HETATM    7  C   UNL     1     -12.261  15.902  69.466  1.00  0.00    -0.107 A  
HETATM    8  C   UNL     1     -12.500  15.768  70.837  1.00  0.00    -0.451 A  
BRANCH   6   9
HETATM    9  C   UNL     1     -11.527  14.966  67.244  1.00  0.00    -0.340 C  
BRANCH   9  10
HETATM   10  N   UNL     1     -10.281  15.698  67.137  1.00  0.00    -0.264 NA 
BRANCH  10  11
HETATM   11  C   UNL     1     -10.324  17.076  66.997  1.00  0.00    -0.304 A  
HETATM   12  N   UNL     1     -10.357  17.842  68.103  1.00  0.00    -0.375 NA 
HETATM   13  N   UNL     1     -10.382  17.613  65.766  1.00  0.00    -0.598 NA 
HETATM   14  C   UNL     1     -10.502  19.170  67.951  1.00  0.00    -0.399 A  
HETATM   15  C   UNL     1     -10.641  19.783  66.735  1.00  0.00    -0.586 A  
HETATM   16  C   UNL     1     -10.568  18.941  65.658  1.00  0.00    -0.177 A  
ENDBRANCH  10  11
BRANCH  10  17
HETATM   17  C   UNL     1      -8.945  15.093  67.148  1.00  0.00    -0.213 C  
BRANCH  17  18
HETATM   18  C   UNL     1      -8.823  13.647  66.616  1.00  0.00    -0.064 C  
BRANCH  18  19
HETATM   19  N   UNL     1      -8.347  12.667  67.627  1.00  0.00    -0.161 NA 
HETATM   20  C   UNL     1      -6.951  12.262  67.429  1.00  0.00    -0.151 C  
HETATM   21  C   UNL     1      -9.199  11.474  67.620  1.00  0.00    -0.171 C  
ENDBRANCH  18  19
ENDBRANCH  17  18
ENDBRANCH  10  17
ENDBRANCH   9  10
ENDBRANCH   6   9
ENDBRANCH   2   3
TORSDOF 7
ENDMDL
MODEL      131
REMARK 921   NORMALIZED FREE ENERGY PREDICTED BY IDOCK:   -4.19 KCAL/MOL
REMARK 922        TOTAL FREE ENERGY PREDICTED BY IDOCK:   -6.74 KCAL/MOL
REMARK 923 INTER-LIGAND FREE ENERGY PREDICTED BY IDOCK:   -5.99 KCAL/MOL
REMARK 924 INTRA-LIGAND FREE ENERGY PREDICTED BY IDOCK:   -0.75 KCAL/MOL
REMARK 927      BINDING AFFINITY PREDICTED BY RF-SCORE:    0.00 PKD
ROOT
HETATM    1  C   UNL     1     -12.281  13.446  63.312  1.00  0.00    -0.243 C  
HETATM    2  O   UNL     1     -12.538  13.666  64.693  1.00  0.00    -0.597 OA 
ENDROOT
BRANCH   2   3
HETATM    3  C   UNL     1     -11.977  12.776  65.568  1.00  0.00    -0.449 A  
HETATM    4  C   UNL     1     -12.092  12.812  66.956  1.00  0.00    -0.252 A  
HETATM    5  C   UNL     1     -11.386  11.894  67.744  1.00  0.00    -0.361 A  
HETATM    6  C   UNL     1     -10.558  10.918  67.162  1.00  0.00    -0.302 A  
HETATM    7  C   UNL     1     -10.523  10.843  65.763  1.00  0.00    -0.275 A  
HETATM    8  C   UNL     1     -11.226  11.761  64.976  1.00  0.00    -0.318 A  
BRANCH   6   9
HETATM    9  C   UNL     1      -9.555  10.102  67.969  1.00  0.00    -0.145 C  
BRANCH   9  10
HETATM   10  N   UNL     1     -10.012   8.808  68.437  1.00  0.00    -0.173 NA 
BRANCH  10  11
HETATM   11  C   UNL     1      -9.805   7.695  67.638  1.00  0.00    -0.164 A  
HETATM   12  N   UNL     1     -10.830   6.852  67.417  1.00  0.00    -0.315 NA 
HETATM   13  N   UNL     1      -8.577   7.455  67.146  1.00  0.00    -0.117 NA 
HETATM   14  C   UNL     1     -10.587   5.724  66.726  1.00  0.00    -0.306 A  
HETATM   15  C   UNL     1      -9.349   5.375  66.257  1.00  0.00    -0.163 A  
HETATM   16  C   UNL     1      -8.366   6.297  66.496  1.00  0.00    -0.114 A  
ENDBRANCH  10  11
BRANCH  10  17
HETATM   17  C   UNL     1     -10.706   8.569  69.707  1.00  0.00    -0.213 C  
BRANCH  17  18
HETATM   18  C   UNL     1     -10.643   9.694  70.765  1.00  0.00    -0.322 C  
BRANCH  18  19
HETATM   19  N   UNL     1     -11.819   9.739  71.673  1.00  0.00    -0.390 NA 
HETATM   20  C   UNL     1     -12.222   8.418  72.165  1.00  0.00    -0.374 C  
HETATM   21  C   UNL     1     -12.958  10.370  71.000  1.00  0.00    -0.399 C  
ENDBRANCH  18  19
ENDBRANCH  17  18
ENDBRANCH  10  17
ENDBRANCH   9  10
ENDBRANCH   6   9
ENDBRANCH   2   3
TORSDOF 7
ENDMDL
MODEL      132
REMARK 921   NORMALIZED FREE ENERGY PREDICTED BY IDOCK:   -4.19 KCAL/MOL
REMARK 922        TOTAL FREE ENERGY PREDICTED BY IDOCK:   -6.74 KCAL/MOL
REMARK 923 INTER-LIGAND FREE ENERGY PREDICTED BY IDOCK:   -6.01 KCAL/MOL
REMARK 924 INTRA-LIGAND FREE ENERGY PREDICTED BY IDOCK:   -0.74 KCAL/MOL
REMARK 927      BINDING AFFINITY PREDICTED BY RF-SCORE:    0.00 PKD
ROOT
HETATM    1  C   UNL     1      -9.377   6.803  67.704  1.00  0.00    -0.120 C  
HETATM    2  O   UNL     1     -10.484   7.570  68.157  1.00  0.00    -0.197 OA 
ENDROOT
BRANCH   2   3
HETATM    3  C   UNL     1     -10.288   8.920  68.266  1.00  0.00    -0.206 A  
HETATM    4  C   UNL     1     -11.014   9.789  69.078  1.00  0.00    -0.193 A  
HETATM    5  C   UNL     1     -10.774  11.168  69.023  1.00  0.00    -0.265 A  
HETATM    6  C   UNL     1      -9.799  11.706  68.163  1.00  0.00    -0.191 A  
HETATM    7  C   UNL     1      -9.021  10.809  67.419  1.00  0.00    -0.141 A  
HETATM    8  C   UNL     1      -9.261   9.432  67.472  1.00  0.00    -0.139 A  
BRANCH   6   9
HETATM    9  C   UNL     1      -9.707  13.195  67.854  1.00  0.00    -0.221 C  
BRANCH   9  10
HETATM   10  N   UNL     1     -10.802  13.759  67.090  1.00  0.00    -0.281 NA 
BRANCH  10  11
HETATM   11  C   UNL     1     -11.147  13.176  65.881  1.00  0.00    -0.278 A  
HETATM   12  N   UNL     1     -10.209  13.060  64.923  1.00  0.00    -0.304 NA 
HETATM   13  N   UNL     1     -12.417  12.786  65.675  1.00  0.00    -0.608 NA 
HETATM   14  C   UNL     1     -10.584  12.587  63.721  1.00  0.00    -0.436 A  
HETATM   15  C   UNL     1     -11.872  12.239  63.413  1.00  0.00    -0.563 A  
HETATM   16  C   UNL     1     -12.760  12.356  64.447  1.00  0.00    -0.342 A  
ENDBRANCH  10  11
BRANCH  10  17
HETATM   17  C   UNL     1     -11.590  14.932  67.486  1.00  0.00    -0.339 C  
BRANCH  17  18
HETATM   18  C   UNL     1     -11.046  15.780  68.659  1.00  0.00    -0.327 C  
BRANCH  18  19
HETATM   19  N   UNL     1     -10.386  17.043  68.238  1.00  0.00    -0.326 NA 
HETATM   20  C   UNL     1     -10.416  17.258  66.788  1.00  0.00    -0.261 C  
HETATM   21  C   UNL     1      -8.995  17.070  68.700  1.00  0.00    -0.267 C  
ENDBRANCH  18  19
ENDBRANCH  17  18
ENDBRANCH  10  17
ENDBRANCH   9  10
ENDBRANCH   6   9
ENDBRANCH   2   3
TORSDOF 7
ENDMDL
MODEL      133
REMARK 921   NORMALIZED FREE ENERGY PREDICTED BY IDOCK:   -4.16 KCAL/MOL
REMARK 922        TOTAL FREE ENERGY PREDICTED BY IDOCK:   -6.71 KCAL/MOL
REMARK 923 INTER-LIGAND FREE ENERGY PREDICTED BY IDOCK:   -6.27 KCAL/MOL
REMARK 924 INTRA-LIGAND FREE ENERGY PREDICTED BY IDOCK:   -0.43 KCAL/MOL
REMARK 927      BINDING AFFINITY PREDICTED BY RF-SCORE:    0.00 PKD
ROOT
HETATM    1  C   UNL     1      -7.329  10.100  66.098  1.00  0.00    -0.115 C  
HETATM    2  O   UNL     1      -8.565  10.777  66.282  1.00  0.00    -0.150 OA 
ENDROOT
BRANCH   2   3
HETATM    3  C   UNL     1      -8.515  11.969  66.952  1.00  0.00    -0.172 A  
HETATM    4  C   UNL     1      -7.588  12.318  67.933  1.00  0.00    -0.127 A  
HETATM    5  C   UNL     1      -7.708  13.538  68.611  1.00  0.00    -0.093 A  
HETATM    6  C   UNL     1      -8.749  14.437  68.318  1.00  0.00    -0.180 A  
HETATM    7  C   UNL     1      -9.619  14.107  67.271  1.00  0.00    -0.234 A  
HETATM    8  C   UNL     1      -9.502  12.888  66.595  1.00  0.00    -0.255 A  
BRANCH   6   9
HETATM    9  C   UNL     1      -9.091  15.620  69.216  1.00  0.00    -0.270 C  
BRANCH   9  10
HETATM   10  N   UNL     1     -10.337  16.302  68.928  1.00  0.00    -0.246 NA 
BRANCH  10  11
HETATM   11  C   UNL     1     -10.305  17.470  68.183  1.00  0.00    -0.375 A  
HETATM   12  N   UNL     1     -10.474  17.397  66.850  1.00  0.00    -0.310 NA 
HETATM   13  N   UNL     1     -10.056  18.639  68.798  1.00  0.00    -0.385 NA 
HETATM   14  C   UNL     1     -10.337  18.525  66.130  1.00  0.00    -0.426 A  
HETATM   15  C   UNL     1     -10.012  19.738  66.676  1.00  0.00    -0.556 A  
HETATM   16  C   UNL     1      -9.887  19.736  68.039  1.00  0.00    -0.417 A  
ENDBRANCH  10  11
BRANCH  10  17
HETATM   17  C   UNL     1     -11.662  15.863  69.378  1.00  0.00    -0.343 C  
BRANCH  17  18
HETATM   18  C   UNL     1     -11.717  14.612  70.285  1.00  0.00    -0.297 C  
BRANCH  18  19
HETATM   19  N   UNL     1     -12.468  14.813  71.552  1.00  0.00    -0.320 NA 
HETATM   20  C   UNL     1     -13.920  14.883  71.359  1.00  0.00    -0.463 C  
HETATM   21  C   UNL     1     -12.013  16.033  72.226  1.00  0.00    -0.538 C  
ENDBRANCH  18  19
ENDBRANCH  17  18
ENDBRANCH  10  17
ENDBRANCH   9  10
ENDBRANCH   6   9
ENDBRANCH   2   3
TORSDOF 7
ENDMDL
MODEL      134
REMARK 921   NORMALIZED FREE ENERGY PREDICTED BY IDOCK:   -4.15 KCAL/MOL
REMARK 922        TOTAL FREE ENERGY PREDICTED BY IDOCK:   -6.69 KCAL/MOL
REMARK 923 INTER-LIGAND FREE ENERGY PREDICTED BY IDOCK:   -5.95 KCAL/MOL
REMARK 924 INTRA-LIGAND FREE ENERGY PREDICTED BY IDOCK:   -0.74 KCAL/MOL
REMARK 927      BINDING AFFINITY PREDICTED BY RF-SCORE:    0.00 PKD
ROOT
HETATM    1  C   UNL     1      -7.129   7.473  64.128  1.00  0.00    -0.064 C  
HETATM    2  O   UNL     1      -8.382   8.143  64.161  1.00  0.00    -0.125 OA 
ENDROOT
BRANCH   2   3
HETATM    3  C   UNL     1      -8.638   8.906  65.269  1.00  0.00    -0.184 A  
HETATM    4  C   UNL     1      -9.654   8.685  66.196  1.00  0.00    -0.305 A  
HETATM    5  C   UNL     1      -9.868   9.600  67.235  1.00  0.00    -0.225 A  
HETATM    6  C   UNL     1      -9.067  10.748  67.374  1.00  0.00    -0.148 A  
HETATM    7  C   UNL     1      -7.998  10.907  66.483  1.00  0.00    -0.152 A  
HETATM    8  C   UNL     1      -7.785   9.995  65.444  1.00  0.00    -0.137 A  
BRANCH   6   9
HETATM    9  C   UNL     1      -9.440  11.905  68.292  1.00  0.00    -0.197 C  
BRANCH   9  10
HETATM   10  N   UNL     1     -10.802  12.392  68.188  1.00  0.00    -0.212 NA 
BRANCH  10  11
HETATM   11  C   UNL     1     -11.213  12.983  67.004  1.00  0.00    -0.289 A  
HETATM   12  N   UNL     1     -10.775  14.220  66.707  1.00  0.00    -0.284 NA 
HETATM   13  N   UNL     1     -12.078  12.332  66.207  1.00  0.00    -0.620 NA 
HETATM   14  C   UNL     1     -11.264  14.820  65.607  1.00  0.00    -0.343 A  
HETATM   15  C   UNL     1     -12.201  14.251  64.787  1.00  0.00    -0.456 A  
HETATM   16  C   UNL     1     -12.575  12.982  65.139  1.00  0.00    -0.469 A  
ENDBRANCH  10  11
BRANCH  10  17
HETATM   17  C   UNL     1     -11.804  12.325  69.257  1.00  0.00    -0.306 C  
BRANCH  17  18
HETATM   18  C   UNL     1     -12.234  10.918  69.731  1.00  0.00    -0.311 C  
BRANCH  18  19
HETATM   19  N   UNL     1     -12.162  10.726  71.203  1.00  0.00    -0.358 NA 
HETATM   20  C   UNL     1     -12.455   9.351  71.622  1.00  0.00    -0.378 C  
HETATM   21  C   UNL     1     -13.084  11.642  71.881  1.00  0.00    -0.385 C  
ENDBRANCH  18  19
ENDBRANCH  17  18
ENDBRANCH  10  17
ENDBRANCH   9  10
ENDBRANCH   6   9
ENDBRANCH   2   3
TORSDOF 7
ENDMDL
MODEL      135
REMARK 921   NORMALIZED FREE ENERGY PREDICTED BY IDOCK:   -4.15 KCAL/MOL
REMARK 922        TOTAL FREE ENERGY PREDICTED BY IDOCK:   -6.69 KCAL/MOL
REMARK 923 INTER-LIGAND FREE ENERGY PREDICTED BY IDOCK:   -5.86 KCAL/MOL
REMARK 924 INTRA-LIGAND FREE ENERGY PREDICTED BY IDOCK:   -0.83 KCAL/MOL
REMARK 927      BINDING AFFINITY PREDICTED BY RF-SCORE:    0.00 PKD
ROOT
HETATM    1  C   UNL     1      -9.436   5.700  69.713  1.00  0.00    -0.148 C  
HETATM    2  O   UNL     1      -8.702   6.908  69.859  1.00  0.00    -0.140 OA 
ENDROOT
BRANCH   2   3
HETATM    3  C   UNL     1      -9.365   8.066  69.557  1.00  0.00    -0.156 A  
HETATM    4  C   UNL     1      -9.686   9.082  70.455  1.00  0.00    -0.245 A  
HETATM    5  C   UNL     1     -10.455  10.175  70.034  1.00  0.00    -0.325 A  
HETATM    6  C   UNL     1     -10.912  10.279  68.708  1.00  0.00    -0.285 A  
HETATM    7  C   UNL     1     -10.507   9.291  67.801  1.00  0.00    -0.313 A  
HETATM    8  C   UNL     1      -9.742   8.198  68.220  1.00  0.00    -0.175 A  
BRANCH   6   9
HETATM    9  C   UNL     1     -11.981  11.277  68.282  1.00  0.00    -0.145 C  
BRANCH   9  10
HETATM   10  N   UNL     1     -11.503  12.549  67.777  1.00  0.00    -0.300 NA 
BRANCH  10  11
HETATM   11  C   UNL     1     -11.667  12.841  66.432  1.00  0.00    -0.403 A  
HETATM   12  N   UNL     1     -12.270  13.992  66.084  1.00  0.00    -0.450 NA 
HETATM   13  N   UNL     1     -11.269  11.947  65.510  1.00  0.00    -0.317 NA 
HETATM   14  C   UNL     1     -12.514  14.212  64.779  1.00  0.00    -0.373 A  
HETATM   15  C   UNL     1     -12.205  13.318  63.790  1.00  0.00    -0.508 A  
HETATM   16  C   UNL     1     -11.568  12.186  64.220  1.00  0.00    -0.370 A  
ENDBRANCH  10  11
BRANCH  10  17
HETATM   17  C   UNL     1     -10.830  13.576  68.580  1.00  0.00    -0.264 C  
BRANCH  17  18
HETATM   18  C   UNL     1      -9.360  13.895  68.224  1.00  0.00    -0.209 C  
BRANCH  18  19
HETATM   19  N   UNL     1      -9.096  15.335  67.971  1.00  0.00    -0.175 NA 
HETATM   20  C   UNL     1     -10.286  16.178  68.120  1.00  0.00    -0.269 C  
HETATM   21  C   UNL     1      -8.540  15.522  66.627  1.00  0.00    -0.290 C  
ENDBRANCH  18  19
ENDBRANCH  17  18
ENDBRANCH  10  17
ENDBRANCH   9  10
ENDBRANCH   6   9
ENDBRANCH   2   3
TORSDOF 7
ENDMDL
MODEL      136
REMARK 921   NORMALIZED FREE ENERGY PREDICTED BY IDOCK:   -4.14 KCAL/MOL
REMARK 922        TOTAL FREE ENERGY PREDICTED BY IDOCK:   -6.67 KCAL/MOL
REMARK 923 INTER-LIGAND FREE ENERGY PREDICTED BY IDOCK:   -5.94 KCAL/MOL
REMARK 924 INTRA-LIGAND FREE ENERGY PREDICTED BY IDOCK:   -0.73 KCAL/MOL
REMARK 927      BINDING AFFINITY PREDICTED BY RF-SCORE:    0.00 PKD
ROOT
HETATM    1  C   UNL     1     -12.619  16.117  74.407  1.00  0.00    -0.448 C  
HETATM    2  O   UNL     1     -12.901  14.871  73.783  1.00  0.00    -0.491 OA 
ENDROOT
BRANCH   2   3
HETATM    3  C   UNL     1     -12.473  14.725  72.491  1.00  0.00    -0.327 A  
HETATM    4  C   UNL     1     -11.594  15.571  71.820  1.00  0.00    -0.515 A  
HETATM    5  C   UNL     1     -11.313  15.361  70.464  1.00  0.00    -0.351 A  
HETATM    6  C   UNL     1     -11.898  14.297  69.754  1.00  0.00    -0.380 A  
HETATM    7  C   UNL     1     -12.712  13.408  70.467  1.00  0.00    -0.194 A  
HETATM    8  C   UNL     1     -12.995  13.618  71.820  1.00  0.00    -0.441 A  
BRANCH   6   9
HETATM    9  C   UNL     1     -11.859  14.203  68.233  1.00  0.00    -0.356 C  
BRANCH   9  10
HETATM   10  N   UNL     1     -10.554  13.991  67.639  1.00  0.00    -0.248 NA 
BRANCH  10  11
HETATM   11  C   UNL     1      -9.835  12.859  67.988  1.00  0.00    -0.223 A  
HETATM   12  N   UNL     1     -10.478  11.680  68.077  1.00  0.00    -0.188 NA 
HETATM   13  N   UNL     1      -8.527  12.971  68.278  1.00  0.00    -0.168 NA 
HETATM   14  C   UNL     1      -9.789  10.612  68.517  1.00  0.00    -0.168 A  
HETATM   15  C   UNL     1      -8.476  10.664  68.901  1.00  0.00    -0.154 A  
HETATM   16  C   UNL     1      -7.884  11.889  68.753  1.00  0.00    -0.052 A  
ENDBRANCH  10  11
BRANCH  10  17
HETATM   17  C   UNL     1      -9.904  14.898  66.687  1.00  0.00    -0.260 C  
BRANCH  17  18
HETATM   18  C   UNL     1     -10.200  14.673  65.187  1.00  0.00    -0.382 C  
BRANCH  18  19
HETATM   19  N   UNL     1     -10.798  15.849  64.503  1.00  0.00    -0.496 NA 
HETATM   20  C   UNL     1     -10.779  17.066  65.321  1.00  0.00    -0.096 C  
HETATM   21  C   UNL     1     -12.180  15.558  64.106  1.00  0.00    -0.004 C  
ENDBRANCH  18  19
ENDBRANCH  17  18
ENDBRANCH  10  17
ENDBRANCH   9  10
ENDBRANCH   6   9
ENDBRANCH   2   3
TORSDOF 7
ENDMDL
MODEL      137
REMARK 921   NORMALIZED FREE ENERGY PREDICTED BY IDOCK:   -4.13 KCAL/MOL
REMARK 922        TOTAL FREE ENERGY PREDICTED BY IDOCK:   -6.67 KCAL/MOL
REMARK 923 INTER-LIGAND FREE ENERGY PREDICTED BY IDOCK:   -5.95 KCAL/MOL
REMARK 924 INTRA-LIGAND FREE ENERGY PREDICTED BY IDOCK:   -0.72 KCAL/MOL
REMARK 927      BINDING AFFINITY PREDICTED BY RF-SCORE:    0.00 PKD
ROOT
HETATM    1  C   UNL     1     -10.525  17.163  68.873  1.00  0.00    -0.346 C  
HETATM    2  O   UNL     1     -11.330  16.463  67.934  1.00  0.00    -0.240 OA 
ENDROOT
BRANCH   2   3
HETATM    3  C   UNL     1     -11.412  15.106  68.092  1.00  0.00    -0.342 A  
HETATM    4  C   UNL     1     -11.598  14.174  67.073  1.00  0.00    -0.404 A  
HETATM    5  C   UNL     1     -11.762  12.818  67.381  1.00  0.00    -0.425 A  
HETATM    6  C   UNL     1     -11.735  12.364  68.712  1.00  0.00    -0.379 A  
HETATM    7  C   UNL     1     -11.461  13.303  69.715  1.00  0.00    -0.228 A  
HETATM    8  C   UNL     1     -11.300  14.657  69.408  1.00  0.00    -0.314 A  
BRANCH   6   9
HETATM    9  C   UNL     1     -12.196  10.968  69.115  1.00  0.00    -0.159 C  
BRANCH   9  10
HETATM   10  N   UNL     1     -11.152   9.981  69.311  1.00  0.00    -0.225 NA 
BRANCH  10  11
HETATM   11  C   UNL     1     -11.170   9.206  70.460  1.00  0.00    -0.264 A  
HETATM   12  N   UNL     1     -12.264   9.228  71.243  1.00  0.00    -0.320 NA 
HETATM   13  N   UNL     1     -10.080   8.494  70.792  1.00  0.00    -0.192 NA 
HETATM   14  C   UNL     1     -12.226   8.552  72.405  1.00  0.00    -0.366 A  
HETATM   15  C   UNL     1     -11.128   7.865  72.846  1.00  0.00    -0.442 A  
HETATM   16  C   UNL     1     -10.067   7.866  71.982  1.00  0.00    -0.202 A  
ENDBRANCH  10  11
BRANCH  10  17
HETATM   17  C   UNL     1     -10.042   9.733  68.385  1.00  0.00    -0.166 C  
BRANCH  17  18
HETATM   18  C   UNL     1     -10.410   9.396  66.922  1.00  0.00    -0.238 C  
BRANCH  18  19
HETATM   19  N   UNL     1      -9.491   9.986  65.914  1.00  0.00    -0.189 NA 
HETATM   20  C   UNL     1     -10.192  10.649  64.809  1.00  0.00    -0.331 C  
HETATM   21  C   UNL     1      -8.602   8.955  65.369  1.00  0.00    -0.176 C  
ENDBRANCH  18  19
ENDBRANCH  17  18
ENDBRANCH  10  17
ENDBRANCH   9  10
ENDBRANCH   6   9
ENDBRANCH   2   3
TORSDOF 7
ENDMDL
MODEL      138
REMARK 921   NORMALIZED FREE ENERGY PREDICTED BY IDOCK:   -4.11 KCAL/MOL
REMARK 922        TOTAL FREE ENERGY PREDICTED BY IDOCK:   -6.63 KCAL/MOL
REMARK 923 INTER-LIGAND FREE ENERGY PREDICTED BY IDOCK:   -6.12 KCAL/MOL
REMARK 924 INTRA-LIGAND FREE ENERGY PREDICTED BY IDOCK:   -0.51 KCAL/MOL
REMARK 927      BINDING AFFINITY PREDICTED BY RF-SCORE:    0.00 PKD
ROOT
HETATM    1  C   UNL     1      -7.039   7.302  64.360  1.00  0.00    -0.062 C  
HETATM    2  O   UNL     1      -8.279   7.995  64.356  1.00  0.00    -0.147 OA 
ENDROOT
BRANCH   2   3
HETATM    3  C   UNL     1      -8.575   8.726  65.474  1.00  0.00    -0.174 A  
HETATM    4  C   UNL     1      -9.523   8.397  66.440  1.00  0.00    -0.293 A  
HETATM    5  C   UNL     1      -9.796   9.284  67.489  1.00  0.00    -0.224 A  
HETATM    6  C   UNL     1      -9.123  10.514  67.598  1.00  0.00    -0.146 A  
HETATM    7  C   UNL     1      -8.113  10.789  66.667  1.00  0.00    -0.142 A  
HETATM    8  C   UNL     1      -7.841   9.904  65.618  1.00  0.00    -0.127 A  
BRANCH   6   9
HETATM    9  C   UNL     1      -9.586  11.625  68.533  1.00  0.00    -0.178 C  
BRANCH   9  10
HETATM   10  N   UNL     1     -10.991  11.974  68.466  1.00  0.00    -0.226 NA 
BRANCH  10  11
HETATM   11  C   UNL     1     -11.689  12.174  69.646  1.00  0.00    -0.325 A  
HETATM   12  N   UNL     1     -12.124  11.103  70.335  1.00  0.00    -0.356 NA 
HETATM   13  N   UNL     1     -11.958  13.428  70.049  1.00  0.00    -0.338 NA 
HETATM   14  C   UNL     1     -12.887  11.314  71.422  1.00  0.00    -0.410 A  
HETATM   15  C   UNL     1     -13.265  12.558  71.852  1.00  0.00    -0.495 A  
HETATM   16  C   UNL     1     -12.758  13.596  71.118  1.00  0.00    -0.353 A  
ENDBRANCH  10  11
BRANCH  10  17
HETATM   17  C   UNL     1     -11.764  12.123  67.228  1.00  0.00    -0.299 C  
BRANCH  17  18
HETATM   18  C   UNL     1     -11.760  13.517  66.561  1.00  0.00    -0.371 C  
BRANCH  18  19
HETATM   19  N   UNL     1     -12.551  13.592  65.305  1.00  0.00    -0.577 NA 
HETATM   20  C   UNL     1     -12.363  12.428  64.432  1.00  0.00    -0.447 C  
HETATM   21  C   UNL     1     -12.214  14.810  64.562  1.00  0.00    -0.428 C  
ENDBRANCH  18  19
ENDBRANCH  17  18
ENDBRANCH  10  17
ENDBRANCH   9  10
ENDBRANCH   6   9
ENDBRANCH   2   3
TORSDOF 7
ENDMDL
MODEL      139
REMARK 921   NORMALIZED FREE ENERGY PREDICTED BY IDOCK:   -4.10 KCAL/MOL
REMARK 922        TOTAL FREE ENERGY PREDICTED BY IDOCK:   -6.62 KCAL/MOL
REMARK 923 INTER-LIGAND FREE ENERGY PREDICTED BY IDOCK:   -5.97 KCAL/MOL
REMARK 924 INTRA-LIGAND FREE ENERGY PREDICTED BY IDOCK:   -0.65 KCAL/MOL
REMARK 927      BINDING AFFINITY PREDICTED BY RF-SCORE:    0.00 PKD
ROOT
HETATM    1  C   UNL     1      -7.527  19.260  68.536  1.00  0.00    -0.325 C  
HETATM    2  O   UNL     1      -7.591  19.180  67.119  1.00  0.00    -0.230 OA 
ENDROOT
BRANCH   2   3
HETATM    3  C   UNL     1      -8.483  18.282  66.597  1.00  0.00    -0.265 A  
HETATM    4  C   UNL     1      -9.811  18.545  66.270  1.00  0.00    -0.352 A  
HETATM    5  C   UNL     1     -10.646  17.509  65.832  1.00  0.00    -0.203 A  
HETATM    6  C   UNL     1     -10.169  16.192  65.705  1.00  0.00    -0.397 A  
HETATM    7  C   UNL     1      -8.810  15.964  65.956  1.00  0.00    -0.298 A  
HETATM    8  C   UNL     1      -7.976  16.998  66.395  1.00  0.00    -0.342 A  
BRANCH   6   9
HETATM    9  C   UNL     1     -11.095  14.996  65.523  1.00  0.00    -0.357 C  
BRANCH   9  10
HETATM   10  N   UNL     1     -10.631  13.737  66.072  1.00  0.00    -0.286 NA 
BRANCH  10  11
HETATM   11  C   UNL     1     -10.475  12.653  65.223  1.00  0.00    -0.289 A  
HETATM   12  N   UNL     1      -9.572  11.705  65.537  1.00  0.00    -0.227 NA 
HETATM   13  N   UNL     1     -11.188  12.597  64.086  1.00  0.00    -0.358 NA 
HETATM   14  C   UNL     1      -9.359  10.714  64.653  1.00  0.00    -0.238 A  
HETATM   15  C   UNL     1      -9.993  10.629  63.442  1.00  0.00    -0.329 A  
HETATM   16  C   UNL     1     -10.916  11.612  63.210  1.00  0.00    -0.279 A  
ENDBRANCH  10  11
BRANCH  10  17
HETATM   17  C   UNL     1     -10.318  13.499  67.485  1.00  0.00    -0.237 C  
BRANCH  17  18
HETATM   18  C   UNL     1     -11.472  13.668  68.499  1.00  0.00    -0.312 C  
BRANCH  18  19
HETATM   19  N   UNL     1     -11.235  14.725  69.517  1.00  0.00    -0.267 NA 
HETATM   20  C   UNL     1     -12.187  15.837  69.429  1.00  0.00    -0.127 C  
HETATM   21  C   UNL     1      -9.871  15.248  69.400  1.00  0.00    -0.252 C  
ENDBRANCH  18  19
ENDBRANCH  17  18
ENDBRANCH  10  17
ENDBRANCH   9  10
ENDBRANCH   6   9
ENDBRANCH   2   3
TORSDOF 7
ENDMDL
MODEL      140
REMARK 921   NORMALIZED FREE ENERGY PREDICTED BY IDOCK:   -4.07 KCAL/MOL
REMARK 922        TOTAL FREE ENERGY PREDICTED BY IDOCK:   -6.59 KCAL/MOL
REMARK 923 INTER-LIGAND FREE ENERGY PREDICTED BY IDOCK:   -5.90 KCAL/MOL
REMARK 924 INTRA-LIGAND FREE ENERGY PREDICTED BY IDOCK:   -0.69 KCAL/MOL
REMARK 927      BINDING AFFINITY PREDICTED BY RF-SCORE:    0.00 PKD
ROOT
HETATM    1  C   UNL     1      -6.251  20.455  67.689  1.00  0.00    -0.235 C  
HETATM    2  O   UNL     1      -7.543  20.780  67.196  1.00  0.00    -0.335 OA 
ENDROOT
BRANCH   2   3
HETATM    3  C   UNL     1      -8.362  19.728  66.886  1.00  0.00    -0.311 A  
HETATM    4  C   UNL     1      -9.751  19.773  66.794  1.00  0.00    -0.512 A  
HETATM    5  C   UNL     1     -10.478  18.598  66.564  1.00  0.00    -0.465 A  
HETATM    6  C   UNL     1      -9.833  17.358  66.413  1.00  0.00    -0.311 A  
HETATM    7  C   UNL     1      -8.432  17.347  66.423  1.00  0.00    -0.292 A  
HETATM    8  C   UNL     1      -7.705  18.519  66.655  1.00  0.00    -0.265 A  
BRANCH   6   9
HETATM    9  C   UNL     1     -10.580  16.030  66.457  1.00  0.00    -0.284 C  
BRANCH   9  10
HETATM   10  N   UNL     1     -10.132  15.076  67.452  1.00  0.00    -0.228 NA 
BRANCH  10  11
HETATM   11  C   UNL     1     -10.812  14.995  68.656  1.00  0.00    -0.249 A  
HETATM   12  N   UNL     1     -11.583  13.919  68.898  1.00  0.00    -0.292 NA 
HETATM   13  N   UNL     1     -10.729  16.012  69.531  1.00  0.00    -0.273 NA 
HETATM   14  C   UNL     1     -12.316  13.903  70.025  1.00  0.00    -0.316 A  
HETATM   15  C   UNL     1     -12.340  14.932  70.927  1.00  0.00    -0.392 A  
HETATM   16  C   UNL     1     -11.509  15.977  70.627  1.00  0.00    -0.402 A  
ENDBRANCH  10  11
BRANCH  10  17
HETATM   17  C   UNL     1      -8.984  14.176  67.299  1.00  0.00    -0.214 C  
BRANCH  17  18
HETATM   18  C   UNL     1      -8.053  14.012  68.522  1.00  0.00    -0.139 C  
BRANCH  18  19
HETATM   19  N   UNL     1      -6.812  14.827  68.453  1.00  0.00    -0.097 NA 
HETATM   20  C   UNL     1      -5.590  14.040  68.651  1.00  0.00    -0.087 C  
HETATM   21  C   UNL     1      -6.855  15.906  69.445  1.00  0.00    -0.200 C  
ENDBRANCH  18  19
ENDBRANCH  17  18
ENDBRANCH  10  17
ENDBRANCH   9  10
ENDBRANCH   6   9
ENDBRANCH   2   3
TORSDOF 7
ENDMDL
MODEL      141
REMARK 921   NORMALIZED FREE ENERGY PREDICTED BY IDOCK:   -4.07 KCAL/MOL
REMARK 922        TOTAL FREE ENERGY PREDICTED BY IDOCK:   -6.58 KCAL/MOL
REMARK 923 INTER-LIGAND FREE ENERGY PREDICTED BY IDOCK:   -5.90 KCAL/MOL
REMARK 924 INTRA-LIGAND FREE ENERGY PREDICTED BY IDOCK:   -0.68 KCAL/MOL
REMARK 927      BINDING AFFINITY PREDICTED BY RF-SCORE:    0.00 PKD
ROOT
HETATM    1  C   UNL     1      -6.524   8.518  67.395  1.00  0.00    -0.058 C  
HETATM    2  O   UNL     1      -7.292   9.617  66.924  1.00  0.00    -0.090 OA 
ENDROOT
BRANCH   2   3
HETATM    3  C   UNL     1      -8.404   9.942  67.652  1.00  0.00    -0.114 A  
HETATM    4  C   UNL     1      -8.768   9.392  68.879  1.00  0.00    -0.132 A  
HETATM    5  C   UNL     1      -9.986   9.744  69.474  1.00  0.00    -0.230 A  
HETATM    6  C   UNL     1     -10.862  10.657  68.859  1.00  0.00    -0.272 A  
HETATM    7  C   UNL     1     -10.439  11.264  67.669  1.00  0.00    -0.225 A  
HETATM    8  C   UNL     1      -9.224  10.912  67.073  1.00  0.00    -0.165 A  
BRANCH   6   9
HETATM    9  C   UNL     1     -12.306  10.844  69.310  1.00  0.00    -0.037 C  
BRANCH   9  10
HETATM   10  N   UNL     1     -12.505  11.133  70.716  1.00  0.00    -0.371 NA 
BRANCH  10  11
HETATM   11  C   UNL     1     -12.685  12.449  71.111  1.00  0.00    -0.240 A  
HETATM   12  N   UNL     1     -13.518  12.713  72.134  1.00  0.00    -0.531 NA 
HETATM   13  N   UNL     1     -12.067  13.431  70.434  1.00  0.00    -0.349 NA 
HETATM   14  C   UNL     1     -13.761  14.001  72.438  1.00  0.00    -0.568 A  
HETATM   15  C   UNL     1     -13.227  15.056  71.748  1.00  0.00    -0.457 A  
HETATM   16  C   UNL     1     -12.368  14.706  70.742  1.00  0.00    -0.328 A  
ENDBRANCH  10  11
BRANCH  10  17
HETATM   17  C   UNL     1     -12.518  10.132  71.788  1.00  0.00    -0.360 C  
BRANCH  17  18
HETATM   18  C   UNL     1     -13.137   8.755  71.456  1.00  0.00    -0.318 C  
BRANCH  18  19
HETATM   19  N   UNL     1     -12.301   7.598  71.870  1.00  0.00    -0.302 NA 
HETATM   20  C   UNL     1     -11.068   7.992  72.560  1.00  0.00    -0.375 C  
HETATM   21  C   UNL     1     -11.958   6.774  70.707  1.00  0.00    -0.378 C  
ENDBRANCH  18  19
ENDBRANCH  17  18
ENDBRANCH  10  17
ENDBRANCH   9  10
ENDBRANCH   6   9
ENDBRANCH   2   3
TORSDOF 7
ENDMDL
MODEL      142
REMARK 921   NORMALIZED FREE ENERGY PREDICTED BY IDOCK:   -4.03 KCAL/MOL
REMARK 922        TOTAL FREE ENERGY PREDICTED BY IDOCK:   -6.53 KCAL/MOL
REMARK 923 INTER-LIGAND FREE ENERGY PREDICTED BY IDOCK:   -5.84 KCAL/MOL
REMARK 924 INTRA-LIGAND FREE ENERGY PREDICTED BY IDOCK:   -0.68 KCAL/MOL
REMARK 927      BINDING AFFINITY PREDICTED BY RF-SCORE:    0.00 PKD
ROOT
HETATM    1  C   UNL     1      -5.917  19.613  67.094  1.00  0.00    -0.177 C  
HETATM    2  O   UNL     1      -7.020  19.892  67.944  1.00  0.00    -0.255 OA 
ENDROOT
BRANCH   2   3
HETATM    3  C   UNL     1      -7.756  18.817  68.364  1.00  0.00    -0.315 A  
HETATM    4  C   UNL     1      -7.251  17.563  68.701  1.00  0.00    -0.246 A  
HETATM    5  C   UNL     1      -8.126  16.517  69.023  1.00  0.00    -0.214 A  
HETATM    6  C   UNL     1      -9.520  16.704  69.023  1.00  0.00    -0.236 A  
HETATM    7  C   UNL     1     -10.003  17.994  68.765  1.00  0.00    -0.380 A  
HETATM    8  C   UNL     1      -9.131  19.038  68.441  1.00  0.00    -0.391 A  
BRANCH   6   9
HETATM    9  C   UNL     1     -10.506  15.544  69.075  1.00  0.00    -0.231 C  
BRANCH   9  10
HETATM   10  N   UNL     1     -10.340  14.518  68.064  1.00  0.00    -0.227 NA 
BRANCH  10  11
HETATM   11  C   UNL     1     -10.990  14.662  66.849  1.00  0.00    -0.324 A  
HETATM   12  N   UNL     1     -12.046  13.873  66.578  1.00  0.00    -0.439 NA 
HETATM   13  N   UNL     1     -10.524  15.547  65.952  1.00  0.00    -0.322 NA 
HETATM   14  C   UNL     1     -12.602  13.954  65.356  1.00  0.00    -0.507 A  
HETATM   15  C   UNL     1     -12.137  14.777  64.366  1.00  0.00    -0.457 A  
HETATM   16  C   UNL     1     -11.081  15.568  64.728  1.00  0.00    -0.407 A  
ENDBRANCH  10  11
BRANCH  10  17
HETATM   17  C   UNL     1      -9.536  13.301  68.223  1.00  0.00    -0.209 C  
BRANCH  17  18
HETATM   18  C   UNL     1      -8.247  13.195  67.376  1.00  0.00    -0.187 C  
BRANCH  18  19
HETATM   19  N   UNL     1      -7.176  12.376  68.000  1.00  0.00    -0.094 NA 
HETATM   20  C   UNL     1      -5.844  12.980  67.885  1.00  0.00    -0.128 C  
HETATM   21  C   UNL     1      -7.149  11.035  67.408  1.00  0.00    -0.095 C  
ENDBRANCH  18  19
ENDBRANCH  17  18
ENDBRANCH  10  17
ENDBRANCH   9  10
ENDBRANCH   6   9
ENDBRANCH   2   3
TORSDOF 7
ENDMDL
MODEL      143
REMARK 921   NORMALIZED FREE ENERGY PREDICTED BY IDOCK:   -4.03 KCAL/MOL
REMARK 922        TOTAL FREE ENERGY PREDICTED BY IDOCK:   -6.52 KCAL/MOL
REMARK 923 INTER-LIGAND FREE ENERGY PREDICTED BY IDOCK:   -5.68 KCAL/MOL
REMARK 924 INTRA-LIGAND FREE ENERGY PREDICTED BY IDOCK:   -0.84 KCAL/MOL
REMARK 927      BINDING AFFINITY PREDICTED BY RF-SCORE:    0.00 PKD
ROOT
HETATM    1  C   UNL     1     -10.502  17.043  68.354  1.00  0.00    -0.370 C  
HETATM    2  O   UNL     1     -11.566  16.105  68.257  1.00  0.00    -0.321 OA 
ENDROOT
BRANCH   2   3
HETATM    3  C   UNL     1     -11.212  14.788  68.145  1.00  0.00    -0.294 A  
HETATM    4  C   UNL     1     -12.000  13.697  68.502  1.00  0.00    -0.396 A  
HETATM    5  C   UNL     1     -11.479  12.398  68.426  1.00  0.00    -0.356 A  
HETATM    6  C   UNL     1     -10.164  12.164  67.985  1.00  0.00    -0.203 A  
HETATM    7  C   UNL     1      -9.418  13.267  67.549  1.00  0.00    -0.220 A  
HETATM    8  C   UNL     1      -9.936  14.563  67.627  1.00  0.00    -0.224 A  
BRANCH   6   9
HETATM    9  C   UNL     1      -9.463  10.823  68.163  1.00  0.00    -0.158 C  
BRANCH   9  10
HETATM   10  N   UNL     1      -9.956   9.730  67.349  1.00  0.00    -0.180 NA 
BRANCH  10  11
HETATM   11  C   UNL     1     -10.190   8.502  67.947  1.00  0.00    -0.218 A  
HETATM   12  N   UNL     1     -10.645   7.486  67.191  1.00  0.00    -0.335 NA 
HETATM   13  N   UNL     1     -10.008   8.368  69.271  1.00  0.00    -0.190 NA 
HETATM   14  C   UNL     1     -10.965   6.332  67.804  1.00  0.00    -0.332 A  
HETATM   15  C   UNL     1     -10.876   6.143  69.157  1.00  0.00    -0.418 A  
HETATM   16  C   UNL     1     -10.378   7.212  69.853  1.00  0.00    -0.213 A  
ENDBRANCH  10  11
BRANCH  10  17
HETATM   17  C   UNL     1     -10.223   9.805  65.908  1.00  0.00    -0.174 C  
BRANCH  17  18
HETATM   18  C   UNL     1      -9.076  10.320  65.008  1.00  0.00    -0.207 C  
BRANCH  18  19
HETATM   19  N   UNL     1      -9.496  11.349  64.020  1.00  0.00    -0.180 NA 
HETATM   20  C   UNL     1     -10.897  11.757  64.169  1.00  0.00    -0.360 C  
HETATM   21  C   UNL     1      -9.279  10.862  62.655  1.00  0.00    -0.330 C  
ENDBRANCH  18  19
ENDBRANCH  17  18
ENDBRANCH  10  17
ENDBRANCH   9  10
ENDBRANCH   6   9
ENDBRANCH   2   3
TORSDOF 7
ENDMDL
MODEL      144
REMARK 921   NORMALIZED FREE ENERGY PREDICTED BY IDOCK:   -4.01 KCAL/MOL
REMARK 922        TOTAL FREE ENERGY PREDICTED BY IDOCK:   -6.49 KCAL/MOL
REMARK 923 INTER-LIGAND FREE ENERGY PREDICTED BY IDOCK:   -6.07 KCAL/MOL
REMARK 924 INTRA-LIGAND FREE ENERGY PREDICTED BY IDOCK:   -0.42 KCAL/MOL
REMARK 927      BINDING AFFINITY PREDICTED BY RF-SCORE:    0.00 PKD
ROOT
HETATM    1  C   UNL     1     -13.565  14.642  72.536  1.00  0.00    -0.470 C  
HETATM    2  O   UNL     1     -13.630  13.233  72.711  1.00  0.00    -0.634 OA 
ENDROOT
BRANCH   2   3
HETATM    3  C   UNL     1     -13.112  12.468  71.701  1.00  0.00    -0.315 A  
HETATM    4  C   UNL     1     -13.127  11.076  71.641  1.00  0.00    -0.543 A  
HETATM    5  C   UNL     1     -12.475  10.411  70.595  1.00  0.00    -0.437 A  
HETATM    6  C   UNL     1     -11.801  11.121  69.585  1.00  0.00    -0.419 A  
HETATM    7  C   UNL     1     -11.871  12.520  69.617  1.00  0.00    -0.382 A  
HETATM    8  C   UNL     1     -12.520  13.186  70.661  1.00  0.00    -0.363 A  
BRANCH   6   9
HETATM    9  C   UNL     1     -10.842  10.453  68.608  1.00  0.00    -0.232 C  
BRANCH   9  10
HETATM   10  N   UNL     1      -9.968   9.438  69.163  1.00  0.00    -0.175 NA 
BRANCH  10  11
HETATM   11  C   UNL     1     -10.091   8.131  68.717  1.00  0.00    -0.199 A  
HETATM   12  N   UNL     1      -9.536   7.790  67.540  1.00  0.00    -0.138 NA 
HETATM   13  N   UNL     1     -10.803   7.252  69.442  1.00  0.00    -0.221 NA 
HETATM   14  C   UNL     1      -9.752   6.547  67.073  1.00  0.00    -0.151 A  
HETATM   15  C   UNL     1     -10.525   5.619  67.718  1.00  0.00    -0.275 A  
HETATM   16  C   UNL     1     -11.030   6.032  68.921  1.00  0.00    -0.325 A  
ENDBRANCH  10  11
BRANCH  10  17
HETATM   17  C   UNL     1      -8.949   9.674  70.191  1.00  0.00    -0.236 C  
BRANCH  17  18
HETATM   18  C   UNL     1      -8.209   8.434  70.744  1.00  0.00    -0.124 C  
BRANCH  18  19
HETATM   19  N   UNL     1      -8.025   8.445  72.218  1.00  0.00    -0.212 NA 
HETATM   20  C   UNL     1      -6.616   8.434  72.626  1.00  0.00    -0.093 C  
HETATM   21  C   UNL     1      -8.711   7.301  72.826  1.00  0.00    -0.122 C  
ENDBRANCH  18  19
ENDBRANCH  17  18
ENDBRANCH  10  17
ENDBRANCH   9  10
ENDBRANCH   6   9
ENDBRANCH   2   3
TORSDOF 7
ENDMDL
MODEL      145
REMARK 921   NORMALIZED FREE ENERGY PREDICTED BY IDOCK:   -4.00 KCAL/MOL
REMARK 922        TOTAL FREE ENERGY PREDICTED BY IDOCK:   -6.47 KCAL/MOL
REMARK 923 INTER-LIGAND FREE ENERGY PREDICTED BY IDOCK:   -5.86 KCAL/MOL
REMARK 924 INTRA-LIGAND FREE ENERGY PREDICTED BY IDOCK:   -0.61 KCAL/MOL
REMARK 927      BINDING AFFINITY PREDICTED BY RF-SCORE:    0.00 PKD
ROOT
HETATM    1  C   UNL     1     -10.781  17.200  68.502  1.00  0.00    -0.326 C  
HETATM    2  O   UNL     1     -11.018  16.205  67.515  1.00  0.00    -0.313 OA 
ENDROOT
BRANCH   2   3
HETATM    3  C   UNL     1     -11.109  14.914  67.959  1.00  0.00    -0.295 A  
HETATM    4  C   UNL     1     -10.840  13.771  67.209  1.00  0.00    -0.292 A  
HETATM    5  C   UNL     1     -11.067  12.502  67.757  1.00  0.00    -0.291 A  
HETATM    6  C   UNL     1     -11.558  12.349  69.065  1.00  0.00    -0.362 A  
HETATM    7  C   UNL     1     -11.741  13.507  69.832  1.00  0.00    -0.341 A  
HETATM    8  C   UNL     1     -11.517  14.774  69.286  1.00  0.00    -0.322 A  
BRANCH   6   9
HETATM    9  C   UNL     1     -12.094  11.023  69.593  1.00  0.00    -0.340 C  
BRANCH   9  10
HETATM   10  N   UNL     1     -11.103  10.016  69.917  1.00  0.00    -0.270 NA 
BRANCH  10  11
HETATM   11  C   UNL     1     -10.365   9.448  68.891  1.00  0.00    -0.213 A  
HETATM   12  N   UNL     1     -11.012   8.948  67.823  1.00  0.00    -0.022 NA 
HETATM   13  N   UNL     1      -9.028   9.364  69.008  1.00  0.00    -0.138 NA 
HETATM   14  C   UNL     1     -10.290   8.309  66.885  1.00  0.00    -0.320 A  
HETATM   15  C   UNL     1      -8.937   8.119  66.970  1.00  0.00    -0.160 A  
HETATM   16  C   UNL     1      -8.347   8.682  68.070  1.00  0.00    -0.123 A  
ENDBRANCH  10  11
BRANCH  10  17
HETATM   17  C   UNL     1     -10.815   9.521  71.268  1.00  0.00    -0.343 C  
BRANCH  17  18
HETATM   18  C   UNL     1     -11.941   8.743  71.986  1.00  0.00    -0.376 C  
BRANCH  18  19
HETATM   19  N   UNL     1     -12.689   7.807  71.106  1.00  0.00    -0.231 NA 
HETATM   20  C   UNL     1     -13.975   7.385  71.670  1.00  0.00    -0.403 C  
HETATM   21  C   UNL     1     -11.877   6.620  70.818  1.00  0.00    -0.383 C  
ENDBRANCH  18  19
ENDBRANCH  17  18
ENDBRANCH  10  17
ENDBRANCH   9  10
ENDBRANCH   6   9
ENDBRANCH   2   3
TORSDOF 7
ENDMDL
MODEL      146
REMARK 921   NORMALIZED FREE ENERGY PREDICTED BY IDOCK:   -3.98 KCAL/MOL
REMARK 922        TOTAL FREE ENERGY PREDICTED BY IDOCK:   -6.46 KCAL/MOL
REMARK 923 INTER-LIGAND FREE ENERGY PREDICTED BY IDOCK:   -5.73 KCAL/MOL
REMARK 924 INTRA-LIGAND FREE ENERGY PREDICTED BY IDOCK:   -0.73 KCAL/MOL
REMARK 927      BINDING AFFINITY PREDICTED BY RF-SCORE:    0.00 PKD
ROOT
HETATM    1  C   UNL     1      -6.059   7.473  68.719  1.00  0.00    -0.031 C  
HETATM    2  O   UNL     1      -7.196   7.298  67.885  1.00  0.00    -0.085 OA 
ENDROOT
BRANCH   2   3
HETATM    3  C   UNL     1      -8.017   8.383  67.735  1.00  0.00    -0.111 A  
HETATM    4  C   UNL     1      -7.975   9.550  68.495  1.00  0.00    -0.093 A  
HETATM    5  C   UNL     1      -8.938  10.550  68.301  1.00  0.00    -0.139 A  
HETATM    6  C   UNL     1      -9.955  10.407  67.341  1.00  0.00    -0.226 A  
HETATM    7  C   UNL     1      -9.929   9.265  66.529  1.00  0.00    -0.344 A  
HETATM    8  C   UNL     1      -8.970   8.266  66.723  1.00  0.00    -0.174 A  
BRANCH   6   9
HETATM    9  C   UNL     1     -11.179  11.314  67.297  1.00  0.00    -0.296 C  
BRANCH   9  10
HETATM   10  N   UNL     1     -10.924  12.722  67.063  1.00  0.00    -0.257 NA 
BRANCH  10  11
HETATM   11  C   UNL     1     -11.374  13.648  67.990  1.00  0.00    -0.285 A  
HETATM   12  N   UNL     1     -11.185  14.958  67.747  1.00  0.00    -0.309 NA 
HETATM   13  N   UNL     1     -11.942  13.218  69.130  1.00  0.00    -0.312 NA 
HETATM   14  C   UNL     1     -11.534  15.838  68.702  1.00  0.00    -0.386 A  
HETATM   15  C   UNL     1     -12.049  15.472  69.917  1.00  0.00    -0.378 A  
HETATM   16  C   UNL     1     -12.239  14.126  70.077  1.00  0.00    -0.357 A  
ENDBRANCH  10  11
BRANCH  10  17
HETATM   17  C   UNL     1     -10.226  13.268  65.894  1.00  0.00    -0.293 C  
BRANCH  17  18
HETATM   18  C   UNL     1     -10.325  12.465  64.577  1.00  0.00    -0.325 C  
BRANCH  18  19
HETATM   19  N   UNL     1     -11.433  12.894  63.686  1.00  0.00    -0.457 NA 
HETATM   20  C   UNL     1     -12.066  14.147  64.110  1.00  0.00    -0.406 C  
HETATM   21  C   UNL     1     -12.454  11.845  63.600  1.00  0.00    -0.470 C  
ENDBRANCH  18  19
ENDBRANCH  17  18
ENDBRANCH  10  17
ENDBRANCH   9  10
ENDBRANCH   6   9
ENDBRANCH   2   3
TORSDOF 7
ENDMDL
MODEL      147
REMARK 921   NORMALIZED FREE ENERGY PREDICTED BY IDOCK:   -3.97 KCAL/MOL
REMARK 922        TOTAL FREE ENERGY PREDICTED BY IDOCK:   -6.44 KCAL/MOL
REMARK 923 INTER-LIGAND FREE ENERGY PREDICTED BY IDOCK:   -6.20 KCAL/MOL
REMARK 924 INTRA-LIGAND FREE ENERGY PREDICTED BY IDOCK:   -0.23 KCAL/MOL
REMARK 927      BINDING AFFINITY PREDICTED BY RF-SCORE:    0.00 PKD
ROOT
HETATM    1  C   UNL     1     -11.204  16.102  67.989  1.00  0.00    -0.291 C  
HETATM    2  O   UNL     1     -11.899  15.013  67.395  1.00  0.00    -0.309 OA 
ENDROOT
BRANCH   2   3
HETATM    3  C   UNL     1     -11.794  13.804  68.027  1.00  0.00    -0.373 A  
HETATM    4  C   UNL     1     -11.599  12.572  67.408  1.00  0.00    -0.434 A  
HETATM    5  C   UNL     1     -11.606  11.394  68.167  1.00  0.00    -0.364 A  
HETATM    6  C   UNL     1     -11.801  11.425  69.559  1.00  0.00    -0.426 A  
HETATM    7  C   UNL     1     -11.909  12.679  70.174  1.00  0.00    -0.326 A  
HETATM    8  C   UNL     1     -11.904  13.855  69.418  1.00  0.00    -0.384 A  
BRANCH   6   9
HETATM    9  C   UNL     1     -12.109  10.175  70.375  1.00  0.00    -0.246 C  
BRANCH   9  10
HETATM   10  N   UNL     1     -11.060   9.176  70.436  1.00  0.00    -0.247 NA 
BRANCH  10  11
HETATM   11  C   UNL     1     -11.118   8.203  71.421  1.00  0.00    -0.247 A  
HETATM   12  N   UNL     1     -10.336   8.329  72.509  1.00  0.00    -0.326 NA 
HETATM   13  N   UNL     1     -11.913   7.133  71.245  1.00  0.00    -0.318 NA 
HETATM   14  C   UNL     1     -10.329   7.325  73.405  1.00  0.00    -0.363 A  
HETATM   15  C   UNL     1     -11.054   6.174  73.258  1.00  0.00    -0.160 A  
HETATM   16  C   UNL     1     -11.846   6.134  72.143  1.00  0.00    -0.285 A  
ENDBRANCH  10  11
BRANCH  10  17
HETATM   17  C   UNL     1      -9.904   9.112  69.536  1.00  0.00    -0.178 C  
BRANCH  17  18
HETATM   18  C   UNL     1      -9.369   7.706  69.179  1.00  0.00    -0.147 C  
BRANCH  18  19
HETATM   19  N   UNL     1      -9.835   7.195  67.864  1.00  0.00    -0.140 NA 
HETATM   20  C   UNL     1     -10.318   8.252  66.969  1.00  0.00    -0.323 C  
HETATM   21  C   UNL     1     -10.896   6.201  68.050  1.00  0.00    -0.313 C  
ENDBRANCH  18  19
ENDBRANCH  17  18
ENDBRANCH  10  17
ENDBRANCH   9  10
ENDBRANCH   6   9
ENDBRANCH   2   3
TORSDOF 7
ENDMDL
MODEL      148
REMARK 921   NORMALIZED FREE ENERGY PREDICTED BY IDOCK:   -3.97 KCAL/MOL
REMARK 922        TOTAL FREE ENERGY PREDICTED BY IDOCK:   -6.43 KCAL/MOL
REMARK 923 INTER-LIGAND FREE ENERGY PREDICTED BY IDOCK:   -5.83 KCAL/MOL
REMARK 924 INTRA-LIGAND FREE ENERGY PREDICTED BY IDOCK:   -0.60 KCAL/MOL
REMARK 927      BINDING AFFINITY PREDICTED BY RF-SCORE:    0.00 PKD
ROOT
HETATM    1  C   UNL     1     -11.123   5.343  73.110  1.00  0.00    -0.308 C  
HETATM    2  O   UNL     1     -12.135   6.080  72.437  1.00  0.00    -0.280 OA 
ENDROOT
BRANCH   2   3
HETATM    3  C   UNL     1     -11.712   7.010  71.527  1.00  0.00    -0.300 A  
HETATM    4  C   UNL     1     -11.159   6.739  70.278  1.00  0.00    -0.360 A  
HETATM    5  C   UNL     1     -10.676   7.784  69.480  1.00  0.00    -0.200 A  
HETATM    6  C   UNL     1     -10.742   9.121  69.912  1.00  0.00    -0.246 A  
HETATM    7  C   UNL     1     -11.378   9.381  71.133  1.00  0.00    -0.422 A  
HETATM    8  C   UNL     1     -11.859   8.338  71.930  1.00  0.00    -0.380 A  
BRANCH   6   9
HETATM    9  C   UNL     1      -9.976  10.246  69.226  1.00  0.00    -0.227 C  
BRANCH   9  10
HETATM   10  N   UNL     1     -10.504  10.698  67.955  1.00  0.00    -0.194 NA 
BRANCH  10  11
HETATM   11  C   UNL     1     -10.874  12.027  67.817  1.00  0.00    -0.215 A  
HETATM   12  N   UNL     1     -11.986  12.325  67.120  1.00  0.00    -0.576 NA 
HETATM   13  N   UNL     1     -10.089  12.987  68.336  1.00  0.00    -0.234 NA 
HETATM   14  C   UNL     1     -12.274  13.622  66.909  1.00  0.00    -0.352 A  
HETATM   15  C   UNL     1     -11.485  14.653  67.342  1.00  0.00    -0.384 A  
HETATM   16  C   UNL     1     -10.389  14.271  68.067  1.00  0.00    -0.229 A  
ENDBRANCH  10  11
BRANCH  10  17
HETATM   17  C   UNL     1     -10.703   9.850  66.775  1.00  0.00    -0.084 C  
BRANCH  17  18
HETATM   18  C   UNL     1      -9.468   9.088  66.241  1.00  0.00    -0.242 C  
BRANCH  18  19
HETATM   19  N   UNL     1      -8.737   9.799  65.161  1.00  0.00    -0.156 NA 
HETATM   20  C   UNL     1      -7.688  10.693  65.662  1.00  0.00    -0.109 C  
HETATM   21  C   UNL     1      -9.671  10.569  64.334  1.00  0.00    -0.328 C  
ENDBRANCH  18  19
ENDBRANCH  17  18
ENDBRANCH  10  17
ENDBRANCH   9  10
ENDBRANCH   6   9
ENDBRANCH   2   3
TORSDOF 7
ENDMDL
MODEL      149
REMARK 921   NORMALIZED FREE ENERGY PREDICTED BY IDOCK:   -3.96 KCAL/MOL
REMARK 922        TOTAL FREE ENERGY PREDICTED BY IDOCK:   -6.42 KCAL/MOL
REMARK 923 INTER-LIGAND FREE ENERGY PREDICTED BY IDOCK:   -6.15 KCAL/MOL
REMARK 924 INTRA-LIGAND FREE ENERGY PREDICTED BY IDOCK:   -0.27 KCAL/MOL
REMARK 927      BINDING AFFINITY PREDICTED BY RF-SCORE:    0.00 PKD
ROOT
HETATM    1  C   UNL     1      -9.963   8.830  67.808  1.00  0.00    -0.194 C  
HETATM    2  O   UNL     1     -10.291   9.193  66.474  1.00  0.00    -0.263 OA 
ENDROOT
BRANCH   2   3
HETATM    3  C   UNL     1     -10.123  10.509  66.140  1.00  0.00    -0.246 A  
HETATM    4  C   UNL     1      -9.497  11.478  66.921  1.00  0.00    -0.194 A  
HETATM    5  C   UNL     1      -9.477  12.814  66.502  1.00  0.00    -0.253 A  
HETATM    6  C   UNL     1     -10.074  13.209  65.292  1.00  0.00    -0.250 A  
HETATM    7  C   UNL     1     -10.623  12.208  64.480  1.00  0.00    -0.350 A  
HETATM    8  C   UNL     1     -10.646  10.873  64.898  1.00  0.00    -0.304 A  
BRANCH   6   9
HETATM    9  C   UNL     1     -10.336  14.668  64.940  1.00  0.00    -0.350 C  
BRANCH   9  10
HETATM   10  N   UNL     1     -10.670  15.543  66.047  1.00  0.00    -0.323 NA 
BRANCH  10  11
HETATM   11  C   UNL     1     -10.079  16.794  66.115  1.00  0.00    -0.345 A  
HETATM   12  N   UNL     1      -8.881  16.916  66.717  1.00  0.00    -0.222 NA 
HETATM   13  N   UNL     1     -10.733  17.861  65.626  1.00  0.00    -0.495 NA 
HETATM   14  C   UNL     1      -8.368  18.151  66.866  1.00  0.00    -0.245 A  
HETATM   15  C   UNL     1      -9.009  19.291  66.461  1.00  0.00    -0.373 A  
HETATM   16  C   UNL     1     -10.207  19.082  65.832  1.00  0.00    -0.311 A  
ENDBRANCH  10  11
BRANCH  10  17
HETATM   17  C   UNL     1     -11.592  15.207  67.138  1.00  0.00    -0.199 C  
BRANCH  17  18
HETATM   18  C   UNL     1     -11.526  16.084  68.409  1.00  0.00    -0.331 C  
BRANCH  18  19
HETATM   19  N   UNL     1     -11.044  15.366  69.617  1.00  0.00    -0.255 NA 
HETATM   20  C   UNL     1     -11.559  15.929  70.870  1.00  0.00    -0.421 C  
HETATM   21  C   UNL     1      -9.578  15.364  69.658  1.00  0.00    -0.229 C  
ENDBRANCH  18  19
ENDBRANCH  17  18
ENDBRANCH  10  17
ENDBRANCH   9  10
ENDBRANCH   6   9
ENDBRANCH   2   3
TORSDOF 7
ENDMDL
MODEL      150
REMARK 921   NORMALIZED FREE ENERGY PREDICTED BY IDOCK:   -3.95 KCAL/MOL
REMARK 922        TOTAL FREE ENERGY PREDICTED BY IDOCK:   -6.41 KCAL/MOL
REMARK 923 INTER-LIGAND FREE ENERGY PREDICTED BY IDOCK:   -5.76 KCAL/MOL
REMARK 924 INTRA-LIGAND FREE ENERGY PREDICTED BY IDOCK:   -0.65 KCAL/MOL
REMARK 927      BINDING AFFINITY PREDICTED BY RF-SCORE:    0.00 PKD
ROOT
HETATM    1  C   UNL     1     -11.202  12.781  67.897  1.00  0.00    -0.274 C  
HETATM    2  O   UNL     1     -11.277  14.149  67.519  1.00  0.00    -0.285 OA 
ENDROOT
BRANCH   2   3
HETATM    3  C   UNL     1     -10.091  14.769  67.231  1.00  0.00    -0.236 A  
HETATM    4  C   UNL     1      -8.885  14.578  67.901  1.00  0.00    -0.176 A  
HETATM    5  C   UNL     1      -7.765  15.351  67.567  1.00  0.00    -0.205 A  
HETATM    6  C   UNL     1      -7.825  16.322  66.552  1.00  0.00    -0.298 A  
HETATM    7  C   UNL     1      -9.022  16.439  65.832  1.00  0.00    -0.194 A  
HETATM    8  C   UNL     1     -10.141  15.671  66.167  1.00  0.00    -0.333 A  
BRANCH   6   9
HETATM    9  C   UNL     1      -6.741  17.375  66.355  1.00  0.00    -0.262 C  
BRANCH   9  10
HETATM   10  N   UNL     1      -7.074  18.722  66.776  1.00  0.00    -0.209 NA 
BRANCH  10  11
HETATM   11  C   UNL     1      -6.455  19.245  67.900  1.00  0.00    -0.233 A  
HETATM   12  N   UNL     1      -6.682  18.669  69.095  1.00  0.00    -0.276 NA 
HETATM   13  N   UNL     1      -5.687  20.342  67.781  1.00  0.00    -0.191 NA 
HETATM   14  C   UNL     1      -6.158  19.249  70.189  1.00  0.00    -0.201 A  
HETATM   15  C   UNL     1      -5.428  20.406  70.157  1.00  0.00    -0.351 A  
HETATM   16  C   UNL     1      -5.216  20.915  68.904  1.00  0.00    -0.339 A  
ENDBRANCH  10  11
BRANCH  10  17
HETATM   17  C   UNL     1      -8.042  19.599  66.108  1.00  0.00    -0.346 C  
BRANCH  17  18
HETATM   18  C   UNL     1      -8.895  20.519  67.010  1.00  0.00    -0.242 C  
BRANCH  18  19
HETATM   19  N   UNL     1     -10.292  20.052  67.205  1.00  0.00    -0.430 NA 
HETATM   20  C   UNL     1     -10.411  18.974  68.192  1.00  0.00    -0.368 C  
HETATM   21  C   UNL     1     -10.862  19.603  65.931  1.00  0.00    -0.317 C  
ENDBRANCH  18  19
ENDBRANCH  17  18
ENDBRANCH  10  17
ENDBRANCH   9  10
ENDBRANCH   6   9
ENDBRANCH   2   3
TORSDOF 7
ENDMDL
MODEL      151
REMARK 921   NORMALIZED FREE ENERGY PREDICTED BY IDOCK:   -3.95 KCAL/MOL
REMARK 922        TOTAL FREE ENERGY PREDICTED BY IDOCK:   -6.40 KCAL/MOL
REMARK 923 INTER-LIGAND FREE ENERGY PREDICTED BY IDOCK:   -5.72 KCAL/MOL
REMARK 924 INTRA-LIGAND FREE ENERGY PREDICTED BY IDOCK:   -0.68 KCAL/MOL
REMARK 927      BINDING AFFINITY PREDICTED BY RF-SCORE:    0.00 PKD
ROOT
HETATM    1  C   UNL     1     -10.472   7.466  73.256  1.00  0.00    -0.374 C  
HETATM    2  O   UNL     1     -11.260   7.326  72.081  1.00  0.00    -0.236 OA 
ENDROOT
BRANCH   2   3
HETATM    3  C   UNL     1     -11.266   8.390  71.220  1.00  0.00    -0.259 A  
HETATM    4  C   UNL     1     -11.980   9.574  71.388  1.00  0.00    -0.464 A  
HETATM    5  C   UNL     1     -11.975  10.547  70.381  1.00  0.00    -0.425 A  
HETATM    6  C   UNL     1     -11.251  10.361  69.190  1.00  0.00    -0.301 A  
HETATM    7  C   UNL     1     -10.471   9.203  69.076  1.00  0.00    -0.238 A  
HETATM    8  C   UNL     1     -10.477   8.230  70.080  1.00  0.00    -0.231 A  
BRANCH   6   9
HETATM    9  C   UNL     1     -11.449  11.241  67.961  1.00  0.00    -0.298 C  
BRANCH   9  10
HETATM   10  N   UNL     1     -10.247  11.610  67.239  1.00  0.00    -0.199 NA 
BRANCH  10  11
HETATM   11  C   UNL     1     -10.050  11.105  65.963  1.00  0.00    -0.244 A  
HETATM   12  N   UNL     1      -9.110  10.160  65.775  1.00  0.00    -0.163 NA 
HETATM   13  N   UNL     1     -10.763  11.603  64.939  1.00  0.00    -0.287 NA 
HETATM   14  C   UNL     1      -8.860   9.755  64.517  1.00  0.00    -0.216 A  
HETATM   15  C   UNL     1      -9.493  10.268  63.417  1.00  0.00    -0.340 A  
HETATM   16  C   UNL     1     -10.455  11.201  63.692  1.00  0.00    -0.376 A  
ENDBRANCH  10  11
BRANCH  10  17
HETATM   17  C   UNL     1      -9.187  12.481  67.756  1.00  0.00    -0.198 C  
BRANCH  17  18
HETATM   18  C   UNL     1      -9.141  13.929  67.217  1.00  0.00    -0.228 C  
BRANCH  18  19
HETATM   19  N   UNL     1      -9.358  14.970  68.256  1.00  0.00    -0.187 NA 
HETATM   20  C   UNL     1     -10.460  14.655  69.171  1.00  0.00    -0.233 C  
HETATM   21  C   UNL     1      -9.611  16.271  67.628  1.00  0.00    -0.227 C  
ENDBRANCH  18  19
ENDBRANCH  17  18
ENDBRANCH  10  17
ENDBRANCH   9  10
ENDBRANCH   6   9
ENDBRANCH   2   3
TORSDOF 7
ENDMDL
MODEL      152
REMARK 921   NORMALIZED FREE ENERGY PREDICTED BY IDOCK:   -3.95 KCAL/MOL
REMARK 922        TOTAL FREE ENERGY PREDICTED BY IDOCK:   -6.40 KCAL/MOL
REMARK 923 INTER-LIGAND FREE ENERGY PREDICTED BY IDOCK:   -5.70 KCAL/MOL
REMARK 924 INTRA-LIGAND FREE ENERGY PREDICTED BY IDOCK:   -0.70 KCAL/MOL
REMARK 927      BINDING AFFINITY PREDICTED BY RF-SCORE:    0.00 PKD
ROOT
HETATM    1  C   UNL     1      -9.070   3.725  67.176  1.00  0.00    -0.159 C  
HETATM    2  O   UNL     1     -10.109   4.651  66.887  1.00  0.00    -0.212 OA 
ENDROOT
BRANCH   2   3
HETATM    3  C   UNL     1      -9.812   5.976  67.062  1.00  0.00    -0.152 A  
HETATM    4  C   UNL     1      -8.545   6.507  67.291  1.00  0.00    -0.111 A  
HETATM    5  C   UNL     1      -8.391   7.875  67.550  1.00  0.00    -0.124 A  
HETATM    6  C   UNL     1      -9.499   8.741  67.578  1.00  0.00    -0.173 A  
HETATM    7  C   UNL     1     -10.754   8.204  67.260  1.00  0.00    -0.263 A  
HETATM    8  C   UNL     1     -10.908   6.838  67.004  1.00  0.00    -0.453 A  
BRANCH   6   9
HETATM    9  C   UNL     1      -9.424  10.156  68.138  1.00  0.00    -0.142 C  
BRANCH   9  10
HETATM   10  N   UNL     1     -10.668  10.719  68.624  1.00  0.00    -0.193 NA 
BRANCH  10  11
HETATM   11  C   UNL     1     -11.237  11.779  67.936  1.00  0.00    -0.267 A  
HETATM   12  N   UNL     1     -11.457  11.655  66.615  1.00  0.00    -0.467 NA 
HETATM   13  N   UNL     1     -11.509  12.921  68.592  1.00  0.00    -0.285 NA 
HETATM   14  C   UNL     1     -11.914  12.728  65.944  1.00  0.00    -0.449 A  
HETATM   15  C   UNL     1     -12.144  13.945  66.527  1.00  0.00    -0.484 A  
HETATM   16  C   UNL     1     -11.926  13.983  67.878  1.00  0.00    -0.351 A  
ENDBRANCH  10  11
BRANCH  10  17
HETATM   17  C   UNL     1     -11.389  10.265  69.818  1.00  0.00    -0.273 C  
BRANCH  17  18
HETATM   18  C   UNL     1     -10.573   9.496  70.881  1.00  0.00    -0.325 C  
BRANCH  18  19
HETATM   19  N   UNL     1     -11.047   8.109  71.125  1.00  0.00    -0.240 NA 
HETATM   20  C   UNL     1     -11.555   7.900  72.485  1.00  0.00    -0.386 C  
HETATM   21  C   UNL     1      -9.971   7.149  70.861  1.00  0.00    -0.189 C  
ENDBRANCH  18  19
ENDBRANCH  17  18
ENDBRANCH  10  17
ENDBRANCH   9  10
ENDBRANCH   6   9
ENDBRANCH   2   3
TORSDOF 7
ENDMDL
MODEL      153
REMARK 921   NORMALIZED FREE ENERGY PREDICTED BY IDOCK:   -3.94 KCAL/MOL
REMARK 922        TOTAL FREE ENERGY PREDICTED BY IDOCK:   -6.40 KCAL/MOL
REMARK 923 INTER-LIGAND FREE ENERGY PREDICTED BY IDOCK:   -5.53 KCAL/MOL
REMARK 924 INTRA-LIGAND FREE ENERGY PREDICTED BY IDOCK:   -0.86 KCAL/MOL
REMARK 927      BINDING AFFINITY PREDICTED BY RF-SCORE:    0.00 PKD
ROOT
HETATM    1  C   UNL     1      -9.660  10.515  63.326  1.00  0.00    -0.331 C  
HETATM    2  O   UNL     1     -10.496  10.712  64.459  1.00  0.00    -0.345 OA 
ENDROOT
BRANCH   2   3
HETATM    3  C   UNL     1     -10.098  10.114  65.623  1.00  0.00    -0.254 A  
HETATM    4  C   UNL     1      -9.263   9.004  65.728  1.00  0.00    -0.293 A  
HETATM    5  C   UNL     1      -9.010   8.430  66.981  1.00  0.00    -0.161 A  
HETATM    6  C   UNL     1      -9.581   8.958  68.154  1.00  0.00    -0.161 A  
HETATM    7  C   UNL     1     -10.348  10.124  68.037  1.00  0.00    -0.227 A  
HETATM    8  C   UNL     1     -10.602  10.697  66.787  1.00  0.00    -0.297 A  
BRANCH   6   9
HETATM    9  C   UNL     1      -9.578   8.207  69.480  1.00  0.00    -0.168 C  
BRANCH   9  10
HETATM   10  N   UNL     1     -10.739   7.381  69.750  1.00  0.00    -0.240 NA 
BRANCH  10  11
HETATM   11  C   UNL     1     -11.659   7.807  70.695  1.00  0.00    -0.218 A  
HETATM   12  N   UNL     1     -12.671   6.988  71.033  1.00  0.00    -0.324 NA 
HETATM   13  N   UNL     1     -11.550   9.044  71.211  1.00  0.00    -0.294 NA 
HETATM   14  C   UNL     1     -13.612   7.456  71.873  1.00  0.00    -0.227 A  
HETATM   15  C   UNL     1     -13.609   8.726  72.382  1.00  0.00    -0.456 A  
HETATM   16  C   UNL     1     -12.533   9.488  72.015  1.00  0.00    -0.349 A  
ENDBRANCH  10  11
BRANCH  10  17
HETATM   17  C   UNL     1     -11.026   6.094  69.107  1.00  0.00    -0.381 C  
BRANCH  17  18
HETATM   18  C   UNL     1      -9.830   5.142  68.878  1.00  0.00    -0.172 C  
BRANCH  18  19
HETATM   19  N   UNL     1      -9.567   4.832  67.449  1.00  0.00    -0.149 NA 
HETATM   20  C   UNL     1     -10.650   5.254  66.555  1.00  0.00    -0.285 C  
HETATM   21  C   UNL     1      -9.331   3.395  67.274  1.00  0.00    -0.201 C  
ENDBRANCH  18  19
ENDBRANCH  17  18
ENDBRANCH  10  17
ENDBRANCH   9  10
ENDBRANCH   6   9
ENDBRANCH   2   3
TORSDOF 7
ENDMDL
MODEL      154
REMARK 921   NORMALIZED FREE ENERGY PREDICTED BY IDOCK:   -3.93 KCAL/MOL
REMARK 922        TOTAL FREE ENERGY PREDICTED BY IDOCK:   -6.38 KCAL/MOL
REMARK 923 INTER-LIGAND FREE ENERGY PREDICTED BY IDOCK:   -5.96 KCAL/MOL
REMARK 924 INTRA-LIGAND FREE ENERGY PREDICTED BY IDOCK:   -0.43 KCAL/MOL
REMARK 927      BINDING AFFINITY PREDICTED BY RF-SCORE:    0.00 PKD
ROOT
HETATM    1  C   UNL     1      -9.552  10.899  62.740  1.00  0.00    -0.308 C  
HETATM    2  O   UNL     1     -10.665  11.529  63.360  1.00  0.00    -0.385 OA 
ENDROOT
BRANCH   2   3
HETATM    3  C   UNL     1     -10.715  11.474  64.726  1.00  0.00    -0.306 A  
HETATM    4  C   UNL     1     -11.497  12.283  65.548  1.00  0.00    -0.408 A  
HETATM    5  C   UNL     1     -11.382  12.188  66.942  1.00  0.00    -0.402 A  
HETATM    6  C   UNL     1     -10.491  11.280  67.541  1.00  0.00    -0.234 A  
HETATM    7  C   UNL     1      -9.778  10.416  66.699  1.00  0.00    -0.236 A  
HETATM    8  C   UNL     1      -9.890  10.511  65.309  1.00  0.00    -0.345 A  
BRANCH   6   9
HETATM    9  C   UNL     1     -10.119  11.345  69.017  1.00  0.00    -0.090 C  
BRANCH   9  10
HETATM   10  N   UNL     1     -10.216  10.102  69.757  1.00  0.00    -0.246 NA 
BRANCH  10  11
HETATM   11  C   UNL     1     -11.291   9.913  70.611  1.00  0.00    -0.339 A  
HETATM   12  N   UNL     1     -11.152   9.081  71.659  1.00  0.00    -0.339 NA 
HETATM   13  N   UNL     1     -12.460  10.523  70.346  1.00  0.00    -0.318 NA 
HETATM   14  C   UNL     1     -12.234   8.829  72.418  1.00  0.00    -0.326 A  
HETATM   15  C   UNL     1     -13.473   9.354  72.168  1.00  0.00    -0.543 A  
HETATM   16  C   UNL     1     -13.527  10.213  71.104  1.00  0.00    -0.201 A  
ENDBRANCH  10  11
BRANCH  10  17
HETATM   17  C   UNL     1      -9.246   9.004  69.692  1.00  0.00    -0.159 C  
BRANCH  17  18
HETATM   18  C   UNL     1      -9.708   7.697  69.007  1.00  0.00    -0.160 C  
BRANCH  18  19
HETATM   19  N   UNL     1      -9.599   6.490  69.867  1.00  0.00    -0.154 NA 
HETATM   20  C   UNL     1      -8.494   5.605  69.485  1.00  0.00    -0.110 C  
HETATM   21  C   UNL     1     -10.854   5.731  69.841  1.00  0.00    -0.347 C  
ENDBRANCH  18  19
ENDBRANCH  17  18
ENDBRANCH  10  17
ENDBRANCH   9  10
ENDBRANCH   6   9
ENDBRANCH   2   3
TORSDOF 7
ENDMDL
MODEL      155
REMARK 921   NORMALIZED FREE ENERGY PREDICTED BY IDOCK:   -3.93 KCAL/MOL
REMARK 922        TOTAL FREE ENERGY PREDICTED BY IDOCK:   -6.38 KCAL/MOL
REMARK 923 INTER-LIGAND FREE ENERGY PREDICTED BY IDOCK:   -5.73 KCAL/MOL
REMARK 924 INTRA-LIGAND FREE ENERGY PREDICTED BY IDOCK:   -0.64 KCAL/MOL
REMARK 927      BINDING AFFINITY PREDICTED BY RF-SCORE:    0.00 PKD
ROOT
HETATM    1  C   UNL     1      -8.321   5.345  72.195  1.00  0.00    -0.126 C  
HETATM    2  O   UNL     1      -9.660   5.375  72.669  1.00  0.00    -0.150 OA 
ENDROOT
BRANCH   2   3
HETATM    3  C   UNL     1     -10.441   6.410  72.231  1.00  0.00    -0.197 A  
HETATM    4  C   UNL     1     -11.584   6.295  71.444  1.00  0.00    -0.338 A  
HETATM    5  C   UNL     1     -12.239   7.445  70.982  1.00  0.00    -0.315 A  
HETATM    6  C   UNL     1     -11.768   8.731  71.303  1.00  0.00    -0.356 A  
HETATM    7  C   UNL     1     -10.668   8.825  72.166  1.00  0.00    -0.383 A  
HETATM    8  C   UNL     1     -10.013   7.678  72.625  1.00  0.00    -0.279 A  
BRANCH   6   9
HETATM    9  C   UNL     1     -12.260   9.987  70.595  1.00  0.00    -0.269 C  
BRANCH   9  10
HETATM   10  N   UNL     1     -11.536  10.371  69.398  1.00  0.00    -0.230 NA 
BRANCH  10  11
HETATM   11  C   UNL     1     -11.745  11.633  68.865  1.00  0.00    -0.334 A  
HETATM   12  N   UNL     1     -11.813  11.772  67.529  1.00  0.00    -0.617 NA 
HETATM   13  N   UNL     1     -11.824  12.693  69.689  1.00  0.00    -0.320 NA 
HETATM   14  C   UNL     1     -11.913  13.015  67.024  1.00  0.00    -0.347 A  
HETATM   15  C   UNL     1     -11.925  14.147  67.795  1.00  0.00    -0.389 A  
HETATM   16  C   UNL     1     -11.882  13.921  69.144  1.00  0.00    -0.358 A  
ENDBRANCH  10  11
BRANCH  10  17
HETATM   17  C   UNL     1     -10.590   9.516  68.675  1.00  0.00    -0.210 C  
BRANCH  17  18
HETATM   18  C   UNL     1      -9.106   9.948  68.680  1.00  0.00    -0.132 C  
BRANCH  18  19
HETATM   19  N   UNL     1      -8.604  10.411  67.360  1.00  0.00    -0.125 NA 
HETATM   20  C   UNL     1      -9.218   9.709  66.228  1.00  0.00    -0.168 C  
HETATM   21  C   UNL     1      -7.147  10.259  67.288  1.00  0.00    -0.088 C  
ENDBRANCH  18  19
ENDBRANCH  17  18
ENDBRANCH  10  17
ENDBRANCH   9  10
ENDBRANCH   6   9
ENDBRANCH   2   3
TORSDOF 7
ENDMDL
MODEL      156
REMARK 921   NORMALIZED FREE ENERGY PREDICTED BY IDOCK:   -3.92 KCAL/MOL
REMARK 922        TOTAL FREE ENERGY PREDICTED BY IDOCK:   -6.37 KCAL/MOL
REMARK 923 INTER-LIGAND FREE ENERGY PREDICTED BY IDOCK:   -5.80 KCAL/MOL
REMARK 924 INTRA-LIGAND FREE ENERGY PREDICTED BY IDOCK:   -0.57 KCAL/MOL
REMARK 927      BINDING AFFINITY PREDICTED BY RF-SCORE:    0.00 PKD
ROOT
HETATM    1  C   UNL     1      -9.382  10.345  62.884  1.00  0.00    -0.319 C  
HETATM    2  O   UNL     1     -10.466  11.151  63.324  1.00  0.00    -0.353 OA 
ENDROOT
BRANCH   2   3
HETATM    3  C   UNL     1     -10.654  11.236  64.677  1.00  0.00    -0.327 A  
HETATM    4  C   UNL     1     -11.396  12.211  65.340  1.00  0.00    -0.388 A  
HETATM    5  C   UNL     1     -11.428  12.240  66.740  1.00  0.00    -0.421 A  
HETATM    6  C   UNL     1     -10.727  11.291  67.506  1.00  0.00    -0.275 A  
HETATM    7  C   UNL     1     -10.057  10.269  66.821  1.00  0.00    -0.272 A  
HETATM    8  C   UNL     1     -10.022  10.240  65.424  1.00  0.00    -0.371 A  
BRANCH   6   9
HETATM    9  C   UNL     1     -10.491  11.453  69.003  1.00  0.00    -0.168 C  
BRANCH   9  10
HETATM   10  N   UNL     1     -10.366  10.228  69.767  1.00  0.00    -0.253 NA 
BRANCH  10  11
HETATM   11  C   UNL     1     -11.429   9.820  70.556  1.00  0.00    -0.300 A  
HETATM   12  N   UNL     1     -12.503  10.624  70.670  1.00  0.00    -0.343 NA 
HETATM   13  N   UNL     1     -11.345   8.659  71.229  1.00  0.00    -0.266 NA 
HETATM   14  C   UNL     1     -13.481  10.261  71.519  1.00  0.00    -0.246 A  
HETATM   15  C   UNL     1     -13.432   9.132  72.292  1.00  0.00    -0.546 A  
HETATM   16  C   UNL     1     -12.324   8.352  72.099  1.00  0.00    -0.370 A  
ENDBRANCH  10  11
BRANCH  10  17
HETATM   17  C   UNL     1      -9.178   9.368  69.793  1.00  0.00    -0.196 C  
BRANCH  17  18
HETATM   18  C   UNL     1      -7.802  10.071  69.805  1.00  0.00    -0.177 C  
BRANCH  18  19
HETATM   19  N   UNL     1      -6.807   9.473  68.877  1.00  0.00    -0.054 NA 
HETATM   20  C   UNL     1      -6.447  10.359  67.765  1.00  0.00    -0.061 C  
HETATM   21  C   UNL     1      -7.309   8.205  68.339  1.00  0.00    -0.094 C  
ENDBRANCH  18  19
ENDBRANCH  17  18
ENDBRANCH  10  17
ENDBRANCH   9  10
ENDBRANCH   6   9
ENDBRANCH   2   3
TORSDOF 7
ENDMDL
MODEL      157
REMARK 921   NORMALIZED FREE ENERGY PREDICTED BY IDOCK:   -3.92 KCAL/MOL
REMARK 922        TOTAL FREE ENERGY PREDICTED BY IDOCK:   -6.37 KCAL/MOL
REMARK 923 INTER-LIGAND FREE ENERGY PREDICTED BY IDOCK:   -5.75 KCAL/MOL
REMARK 924 INTRA-LIGAND FREE ENERGY PREDICTED BY IDOCK:   -0.61 KCAL/MOL
REMARK 927      BINDING AFFINITY PREDICTED BY RF-SCORE:    0.00 PKD
ROOT
HETATM    1  C   UNL     1      -5.295  17.442  67.936  1.00  0.00    -0.125 C  
HETATM    2  O   UNL     1      -6.683  17.650  68.158  1.00  0.00    -0.194 OA 
ENDROOT
BRANCH   2   3
HETATM    3  C   UNL     1      -7.476  16.535  68.153  1.00  0.00    -0.159 A  
HETATM    4  C   UNL     1      -8.616  16.339  68.929  1.00  0.00    -0.260 A  
HETATM    5  C   UNL     1      -9.285  15.108  68.898  1.00  0.00    -0.209 A  
HETATM    6  C   UNL     1      -8.833  14.052  68.086  1.00  0.00    -0.182 A  
HETATM    7  C   UNL     1      -7.737  14.298  67.248  1.00  0.00    -0.145 A  
HETATM    8  C   UNL     1      -7.068  15.525  67.280  1.00  0.00    -0.225 A  
BRANCH   6   9
HETATM    9  C   UNL     1      -9.340  12.623  68.237  1.00  0.00    -0.195 C  
BRANCH   9  10
HETATM   10  N   UNL     1     -10.779  12.448  68.211  1.00  0.00    -0.222 NA 
BRANCH  10  11
HETATM   11  C   UNL     1     -11.422  12.017  69.360  1.00  0.00    -0.296 A  
HETATM   12  N   UNL     1     -11.336  10.719  69.707  1.00  0.00    -0.276 NA 
HETATM   13  N   UNL     1     -12.157  12.889  70.071  1.00  0.00    -0.317 NA 
HETATM   14  C   UNL     1     -12.049  10.297  70.766  1.00  0.00    -0.353 A  
HETATM   15  C   UNL     1     -12.877  11.108  71.495  1.00  0.00    -0.542 A  
HETATM   16  C   UNL     1     -12.888  12.419  71.098  1.00  0.00    -0.205 A  
ENDBRANCH  10  11
BRANCH  10  17
HETATM   17  C   UNL     1     -11.634  12.678  67.042  1.00  0.00    -0.365 C  
BRANCH  17  18
HETATM   18  C   UNL     1     -11.756  14.133  66.536  1.00  0.00    -0.397 C  
BRANCH  18  19
HETATM   19  N   UNL     1     -11.346  14.319  65.120  1.00  0.00    -0.329 NA 
HETATM   20  C   UNL     1     -10.200  13.489  64.734  1.00  0.00    -0.332 C  
HETATM   21  C   UNL     1     -11.027  15.727  64.863  1.00  0.00    -0.427 C  
ENDBRANCH  18  19
ENDBRANCH  17  18
ENDBRANCH  10  17
ENDBRANCH   9  10
ENDBRANCH   6   9
ENDBRANCH   2   3
TORSDOF 7
ENDMDL
MODEL      158
REMARK 921   NORMALIZED FREE ENERGY PREDICTED BY IDOCK:   -3.92 KCAL/MOL
REMARK 922        TOTAL FREE ENERGY PREDICTED BY IDOCK:   -6.37 KCAL/MOL
REMARK 923 INTER-LIGAND FREE ENERGY PREDICTED BY IDOCK:   -5.70 KCAL/MOL
REMARK 924 INTRA-LIGAND FREE ENERGY PREDICTED BY IDOCK:   -0.67 KCAL/MOL
REMARK 927      BINDING AFFINITY PREDICTED BY RF-SCORE:    0.00 PKD
ROOT
HETATM    1  C   UNL     1     -10.282  19.412  66.419  1.00  0.00    -0.465 C  
HETATM    2  O   UNL     1     -10.894  18.753  67.519  1.00  0.00    -0.435 OA 
ENDROOT
BRANCH   2   3
HETATM    3  C   UNL     1     -10.420  17.506  67.825  1.00  0.00    -0.381 A  
HETATM    4  C   UNL     1      -9.084  17.112  67.802  1.00  0.00    -0.233 A  
HETATM    5  C   UNL     1      -8.741  15.775  68.045  1.00  0.00    -0.171 A  
HETATM    6  C   UNL     1      -9.724  14.809  68.322  1.00  0.00    -0.218 A  
HETATM    7  C   UNL     1     -11.053  15.242  68.425  1.00  0.00    -0.289 A  
HETATM    8  C   UNL     1     -11.396  16.575  68.181  1.00  0.00    -0.150 A  
BRANCH   6   9
HETATM    9  C   UNL     1      -9.437  13.312  68.299  1.00  0.00    -0.209 C  
BRANCH   9  10
HETATM   10  N   UNL     1      -9.432  12.681  66.994  1.00  0.00    -0.213 NA 
BRANCH  10  11
HETATM   11  C   UNL     1     -10.401  13.043  66.072  1.00  0.00    -0.285 A  
HETATM   12  N   UNL     1     -10.129  14.025  65.192  1.00  0.00    -0.347 NA 
HETATM   13  N   UNL     1     -11.603  12.443  66.109  1.00  0.00    -0.380 NA 
HETATM   14  C   UNL     1     -11.114  14.434  64.373  1.00  0.00    -0.189 A  
HETATM   15  C   UNL     1     -12.384  13.923  64.401  1.00  0.00    -0.400 A  
HETATM   16  C   UNL     1     -12.573  12.909  65.301  1.00  0.00    -0.439 A  
ENDBRANCH  10  11
BRANCH  10  17
HETATM   17  C   UNL     1      -8.477  11.657  66.556  1.00  0.00    -0.141 C  
BRANCH  17  18
HETATM   18  C   UNL     1      -8.409  10.358  67.391  1.00  0.00    -0.121 C  
BRANCH  18  19
HETATM   19  N   UNL     1      -9.310   9.279  66.909  1.00  0.00    -0.145 NA 
HETATM   20  C   UNL     1      -9.681   9.422  65.497  1.00  0.00    -0.230 C  
HETATM   21  C   UNL     1     -10.528   9.230  67.723  1.00  0.00    -0.255 C  
ENDBRANCH  18  19
ENDBRANCH  17  18
ENDBRANCH  10  17
ENDBRANCH   9  10
ENDBRANCH   6   9
ENDBRANCH   2   3
TORSDOF 7
ENDMDL
MODEL      159
REMARK 921   NORMALIZED FREE ENERGY PREDICTED BY IDOCK:   -3.90 KCAL/MOL
REMARK 922        TOTAL FREE ENERGY PREDICTED BY IDOCK:   -6.35 KCAL/MOL
REMARK 923 INTER-LIGAND FREE ENERGY PREDICTED BY IDOCK:   -5.66 KCAL/MOL
REMARK 924 INTRA-LIGAND FREE ENERGY PREDICTED BY IDOCK:   -0.69 KCAL/MOL
REMARK 927      BINDING AFFINITY PREDICTED BY RF-SCORE:    0.00 PKD
ROOT
HETATM    1  C   UNL     1      -9.639   9.806  69.209  1.00  0.00    -0.197 C  
HETATM    2  O   UNL     1     -10.906  10.205  68.704  1.00  0.00    -0.217 OA 
ENDROOT
BRANCH   2   3
HETATM    3  C   UNL     1     -10.943  11.386  68.012  1.00  0.00    -0.237 A  
HETATM    4  C   UNL     1     -10.286  11.651  66.813  1.00  0.00    -0.257 A  
HETATM    5  C   UNL     1     -10.330  12.937  66.257  1.00  0.00    -0.278 A  
HETATM    6  C   UNL     1     -11.037  13.979  66.883  1.00  0.00    -0.310 A  
HETATM    7  C   UNL     1     -11.762  13.670  68.042  1.00  0.00    -0.387 A  
HETATM    8  C   UNL     1     -11.717  12.388  68.599  1.00  0.00    -0.372 A  
BRANCH   6   9
HETATM    9  C   UNL     1     -10.873  15.441  66.484  1.00  0.00    -0.298 C  
BRANCH   9  10
HETATM   10  N   UNL     1     -10.233  16.302  67.459  1.00  0.00    -0.264 NA 
BRANCH  10  11
HETATM   11  C   UNL     1      -8.904  16.078  67.780  1.00  0.00    -0.176 A  
HETATM   12  N   UNL     1      -7.969  16.224  66.823  1.00  0.00    -0.242 NA 
HETATM   13  N   UNL     1      -8.584  15.674  69.021  1.00  0.00    -0.214 NA 
HETATM   14  C   UNL     1      -6.698  15.904  67.124  1.00  0.00    -0.133 A  
HETATM   15  C   UNL     1      -6.307  15.415  68.341  1.00  0.00    -0.110 A  
HETATM   16  C   UNL     1      -7.309  15.324  69.270  1.00  0.00    -0.191 A  
ENDBRANCH  10  11
BRANCH  10  17
HETATM   17  C   UNL     1     -10.888  17.408  68.165  1.00  0.00    -0.273 C  
BRANCH  17  18
HETATM   18  C   UNL     1      -9.981  18.551  68.675  1.00  0.00    -0.383 C  
BRANCH  18  19
HETATM   19  N   UNL     1      -9.851  19.691  67.730  1.00  0.00    -0.360 NA 
HETATM   20  C   UNL     1     -10.694  19.554  66.537  1.00  0.00    -0.432 C  
HETATM   21  C   UNL     1      -8.454  19.852  67.315  1.00  0.00    -0.324 C  
ENDBRANCH  18  19
ENDBRANCH  17  18
ENDBRANCH  10  17
ENDBRANCH   9  10
ENDBRANCH   6   9
ENDBRANCH   2   3
TORSDOF 7
ENDMDL
MODEL      160
REMARK 921   NORMALIZED FREE ENERGY PREDICTED BY IDOCK:   -3.90 KCAL/MOL
REMARK 922        TOTAL FREE ENERGY PREDICTED BY IDOCK:   -6.33 KCAL/MOL
REMARK 923 INTER-LIGAND FREE ENERGY PREDICTED BY IDOCK:   -5.64 KCAL/MOL
REMARK 924 INTRA-LIGAND FREE ENERGY PREDICTED BY IDOCK:   -0.69 KCAL/MOL
REMARK 927      BINDING AFFINITY PREDICTED BY RF-SCORE:    0.00 PKD
ROOT
HETATM    1  C   UNL     1     -10.780   5.658  73.448  1.00  0.00    -0.278 C  
HETATM    2  O   UNL     1     -10.671   7.039  73.768  1.00  0.00    -0.360 OA 
ENDROOT
BRANCH   2   3
HETATM    3  C   UNL     1     -10.811   7.919  72.730  1.00  0.00    -0.386 A  
HETATM    4  C   UNL     1     -12.017   8.352  72.183  1.00  0.00    -0.438 A  
HETATM    5  C   UNL     1     -12.019   9.184  71.056  1.00  0.00    -0.344 A  
HETATM    6  C   UNL     1     -10.818   9.605  70.457  1.00  0.00    -0.371 A  
HETATM    7  C   UNL     1      -9.617   9.229  71.073  1.00  0.00    -0.329 A  
HETATM    8  C   UNL     1      -9.614   8.397  72.197  1.00  0.00    -0.367 A  
BRANCH   6   9
HETATM    9  C   UNL     1     -10.768  10.254  69.079  1.00  0.00    -0.227 C  
BRANCH   9  10
HETATM   10  N   UNL     1      -9.763   9.744  68.168  1.00  0.00    -0.143 NA 
BRANCH  10  11
HETATM   11  C   UNL     1      -9.791   8.402  67.822  1.00  0.00    -0.174 A  
HETATM   12  N   UNL     1     -10.905   7.897  67.260  1.00  0.00    -0.215 NA 
HETATM   13  N   UNL     1      -8.729   7.626  68.102  1.00  0.00    -0.123 NA 
HETATM   14  C   UNL     1     -10.953   6.573  67.026  1.00  0.00    -0.396 A  
HETATM   15  C   UNL     1      -9.943   5.709  67.351  1.00  0.00    -0.180 A  
HETATM   16  C   UNL     1      -8.834   6.302  67.891  1.00  0.00    -0.112 A  
ENDBRANCH  10  11
BRANCH  10  17
HETATM   17  C   UNL     1      -8.682  10.538  67.574  1.00  0.00    -0.125 C  
BRANCH  17  18
HETATM   18  C   UNL     1      -9.086  11.608  66.534  1.00  0.00    -0.197 C  
BRANCH  18  19
HETATM   19  N   UNL     1     -10.197  11.194  65.638  1.00  0.00    -0.247 NA 
HETATM   20  C   UNL     1      -9.762  10.327  64.538  1.00  0.00    -0.329 C  
HETATM   21  C   UNL     1     -10.870  12.372  65.083  1.00  0.00    -0.297 C  
ENDBRANCH  18  19
ENDBRANCH  17  18
ENDBRANCH  10  17
ENDBRANCH   9  10
ENDBRANCH   6   9
ENDBRANCH   2   3
TORSDOF 7
ENDMDL
MODEL      161
REMARK 921   NORMALIZED FREE ENERGY PREDICTED BY IDOCK:   -3.87 KCAL/MOL
REMARK 922        TOTAL FREE ENERGY PREDICTED BY IDOCK:   -6.30 KCAL/MOL
REMARK 923 INTER-LIGAND FREE ENERGY PREDICTED BY IDOCK:   -5.75 KCAL/MOL
REMARK 924 INTRA-LIGAND FREE ENERGY PREDICTED BY IDOCK:   -0.55 KCAL/MOL
REMARK 927      BINDING AFFINITY PREDICTED BY RF-SCORE:    0.00 PKD
ROOT
HETATM    1  C   UNL     1      -9.039   3.200  66.589  1.00  0.00    -0.162 C  
HETATM    2  O   UNL     1      -9.989   4.165  66.159  1.00  0.00    -0.213 OA 
ENDROOT
BRANCH   2   3
HETATM    3  C   UNL     1      -9.760   5.460  66.540  1.00  0.00    -0.164 A  
HETATM    4  C   UNL     1      -8.531   6.114  66.514  1.00  0.00    -0.119 A  
HETATM    5  C   UNL     1      -8.415   7.414  67.023  1.00  0.00    -0.118 A  
HETATM    6  C   UNL     1      -9.526   8.089  67.561  1.00  0.00    -0.177 A  
HETATM    7  C   UNL     1     -10.770   7.447  67.499  1.00  0.00    -0.310 A  
HETATM    8  C   UNL     1     -10.886   6.149  66.993  1.00  0.00    -0.435 A  
BRANCH   6   9
HETATM    9  C   UNL     1      -9.395   9.365  68.383  1.00  0.00    -0.134 C  
BRANCH   9  10
HETATM   10  N   UNL     1     -10.579  10.198  68.465  1.00  0.00    -0.204 NA 
BRANCH  10  11
HETATM   11  C   UNL     1     -11.260  10.277  69.669  1.00  0.00    -0.269 A  
HETATM   12  N   UNL     1     -11.157   9.260  70.544  1.00  0.00    -0.252 NA 
HETATM   13  N   UNL     1     -12.046  11.340  69.913  1.00  0.00    -0.332 NA 
HETATM   14  C   UNL     1     -11.905   9.306  71.662  1.00  0.00    -0.383 A  
HETATM   15  C   UNL     1     -12.782  10.318  71.945  1.00  0.00    -0.478 A  
HETATM   16  C   UNL     1     -12.809  11.328  71.022  1.00  0.00    -0.300 A  
ENDBRANCH  10  11
BRANCH  10  17
HETATM   17  C   UNL     1     -11.143  10.972  67.354  1.00  0.00    -0.305 C  
BRANCH  17  18
HETATM   18  C   UNL     1     -10.368  12.235  66.913  1.00  0.00    -0.216 C  
BRANCH  18  19
HETATM   19  N   UNL     1     -11.211  13.263  66.249  1.00  0.00    -0.294 NA 
HETATM   20  C   UNL     1     -11.847  14.189  67.192  1.00  0.00    -0.423 C  
HETATM   21  C   UNL     1     -12.247  12.623  65.432  1.00  0.00    -0.459 C  
ENDBRANCH  18  19
ENDBRANCH  17  18
ENDBRANCH  10  17
ENDBRANCH   9  10
ENDBRANCH   6   9
ENDBRANCH   2   3
TORSDOF 7
ENDMDL
MODEL      162
REMARK 921   NORMALIZED FREE ENERGY PREDICTED BY IDOCK:   -3.85 KCAL/MOL
REMARK 922        TOTAL FREE ENERGY PREDICTED BY IDOCK:   -6.26 KCAL/MOL
REMARK 923 INTER-LIGAND FREE ENERGY PREDICTED BY IDOCK:   -5.90 KCAL/MOL
REMARK 924 INTRA-LIGAND FREE ENERGY PREDICTED BY IDOCK:   -0.36 KCAL/MOL
REMARK 927      BINDING AFFINITY PREDICTED BY RF-SCORE:    0.00 PKD
ROOT
HETATM    1  C   UNL     1     -11.663  16.151  64.259  1.00  0.00     0.003 C  
HETATM    2  O   UNL     1     -12.482  15.019  63.998  1.00  0.00    -0.796 OA 
ENDROOT
BRANCH   2   3
HETATM    3  C   UNL     1     -11.876  13.794  64.084  1.00  0.00    -0.401 A  
HETATM    4  C   UNL     1     -12.398  12.591  63.615  1.00  0.00    -0.618 A  
HETATM    5  C   UNL     1     -11.717  11.390  63.853  1.00  0.00    -0.077 A  
HETATM    6  C   UNL     1     -10.498  11.368  64.556  1.00  0.00    -0.381 A  
HETATM    7  C   UNL     1      -9.948  12.597  64.943  1.00  0.00    -0.169 A  
HETATM    8  C   UNL     1     -10.629  13.796  64.708  1.00  0.00    -0.444 A  
BRANCH   6   9
HETATM    9  C   UNL     1      -9.879  10.083  65.090  1.00  0.00    -0.318 C  
BRANCH   9  10
HETATM   10  N   UNL     1      -9.957   9.883  66.524  1.00  0.00    -0.215 NA 
BRANCH  10  11
HETATM   11  C   UNL     1      -9.805   8.602  67.031  1.00  0.00    -0.220 A  
HETATM   12  N   UNL     1      -8.691   8.305  67.726  1.00  0.00    -0.134 NA 
HETATM   13  N   UNL     1     -10.744   7.676  66.776  1.00  0.00    -0.235 NA 
HETATM   14  C   UNL     1      -8.512   7.032  68.123  1.00  0.00    -0.129 A  
HETATM   15  C   UNL     1      -9.387   6.019  67.837  1.00  0.00    -0.110 A  
HETATM   16  C   UNL     1     -10.508   6.406  67.154  1.00  0.00    -0.277 A  
ENDBRANCH  10  11
BRANCH  10  17
HETATM   17  C   UNL     1     -10.203  10.940  67.510  1.00  0.00    -0.190 C  
BRANCH  17  18
HETATM   18  C   UNL     1     -11.457  10.792  68.402  1.00  0.00    -0.288 C  
BRANCH  18  19
HETATM   19  N   UNL     1     -11.161  10.714  69.856  1.00  0.00    -0.288 NA 
HETATM   20  C   UNL     1     -11.198   9.346  70.383  1.00  0.00    -0.262 C  
HETATM   21  C   UNL     1     -12.103  11.546  70.612  1.00  0.00    -0.353 C  
ENDBRANCH  18  19
ENDBRANCH  17  18
ENDBRANCH  10  17
ENDBRANCH   9  10
ENDBRANCH   6   9
ENDBRANCH   2   3
TORSDOF 7
ENDMDL
MODEL      163
REMARK 921   NORMALIZED FREE ENERGY PREDICTED BY IDOCK:   -3.83 KCAL/MOL
REMARK 922        TOTAL FREE ENERGY PREDICTED BY IDOCK:   -6.23 KCAL/MOL
REMARK 923 INTER-LIGAND FREE ENERGY PREDICTED BY IDOCK:   -5.59 KCAL/MOL
REMARK 924 INTRA-LIGAND FREE ENERGY PREDICTED BY IDOCK:   -0.65 KCAL/MOL
REMARK 927      BINDING AFFINITY PREDICTED BY RF-SCORE:    0.00 PKD
ROOT
HETATM    1  C   UNL     1      -5.677  11.371  69.613  1.00  0.00    -0.074 C  
HETATM    2  O   UNL     1      -6.143  12.632  70.074  1.00  0.00    -0.143 OA 
ENDROOT
BRANCH   2   3
HETATM    3  C   UNL     1      -6.867  13.378  69.185  1.00  0.00    -0.076 A  
HETATM    4  C   UNL     1      -7.720  12.879  68.203  1.00  0.00    -0.138 A  
HETATM    5  C   UNL     1      -8.330  13.751  67.292  1.00  0.00    -0.186 A  
HETATM    6  C   UNL     1      -8.106  15.138  67.348  1.00  0.00    -0.209 A  
HETATM    7  C   UNL     1      -7.315  15.628  68.395  1.00  0.00    -0.116 A  
HETATM    8  C   UNL     1      -6.704  14.759  69.304  1.00  0.00    -0.137 A  
BRANCH   6   9
HETATM    9  C   UNL     1      -8.501  16.082  66.218  1.00  0.00    -0.302 C  
BRANCH   9  10
HETATM   10  N   UNL     1      -9.905  16.432  66.139  1.00  0.00    -0.318 NA 
BRANCH  10  11
HETATM   11  C   UNL     1     -10.829  15.439  65.853  1.00  0.00    -0.325 A  
HETATM   12  N   UNL     1     -11.631  14.993  66.837  1.00  0.00    -0.282 NA 
HETATM   13  N   UNL     1     -10.867  14.909  64.618  1.00  0.00    -0.339 NA 
HETATM   14  C   UNL     1     -12.448  13.959  66.570  1.00  0.00    -0.321 A  
HETATM   15  C   UNL     1     -12.492  13.320  65.360  1.00  0.00    -0.543 A  
HETATM   16  C   UNL     1     -11.669  13.850  64.403  1.00  0.00    -0.404 A  
ENDBRANCH  10  11
BRANCH  10  17
HETATM   17  C   UNL     1     -10.449  17.782  66.323  1.00  0.00    -0.307 C  
BRANCH  17  18
HETATM   18  C   UNL     1      -9.446  18.899  66.690  1.00  0.00    -0.334 C  
BRANCH  18  19
HETATM   19  N   UNL     1      -9.155  19.000  68.144  1.00  0.00    -0.309 NA 
HETATM   20  C   UNL     1     -10.117  19.835  68.871  1.00  0.00    -0.384 C  
HETATM   21  C   UNL     1      -7.803  19.527  68.357  1.00  0.00    -0.339 C  
ENDBRANCH  18  19
ENDBRANCH  17  18
ENDBRANCH  10  17
ENDBRANCH   9  10
ENDBRANCH   6   9
ENDBRANCH   2   3
TORSDOF 7
ENDMDL
MODEL      164
REMARK 921   NORMALIZED FREE ENERGY PREDICTED BY IDOCK:   -3.82 KCAL/MOL
REMARK 922        TOTAL FREE ENERGY PREDICTED BY IDOCK:   -6.23 KCAL/MOL
REMARK 923 INTER-LIGAND FREE ENERGY PREDICTED BY IDOCK:   -5.59 KCAL/MOL
REMARK 924 INTRA-LIGAND FREE ENERGY PREDICTED BY IDOCK:   -0.65 KCAL/MOL
REMARK 927      BINDING AFFINITY PREDICTED BY RF-SCORE:    0.00 PKD
ROOT
HETATM    1  C   UNL     1     -10.977  12.202  64.098  1.00  0.00    -0.361 C  
HETATM    2  O   UNL     1     -11.495  12.786  65.285  1.00  0.00    -0.304 OA 
ENDROOT
BRANCH   2   3
HETATM    3  C   UNL     1     -11.358  12.057  66.435  1.00  0.00    -0.354 A  
HETATM    4  C   UNL     1     -11.844  12.413  67.691  1.00  0.00    -0.363 A  
HETATM    5  C   UNL     1     -11.550  11.620  68.809  1.00  0.00    -0.374 A  
HETATM    6  C   UNL     1     -10.772  10.454  68.693  1.00  0.00    -0.250 A  
HETATM    7  C   UNL     1     -10.366  10.068  67.409  1.00  0.00    -0.292 A  
HETATM    8  C   UNL     1     -10.656  10.859  66.293  1.00  0.00    -0.276 A  
BRANCH   6   9
HETATM    9  C   UNL     1     -10.186   9.733  69.900  1.00  0.00    -0.254 C  
BRANCH   9  10
HETATM   10  N   UNL     1     -10.721   8.415  70.181  1.00  0.00    -0.234 NA 
BRANCH  10  11
HETATM   11  C   UNL     1     -10.200   7.323  69.506  1.00  0.00    -0.198 A  
HETATM   12  N   UNL     1     -11.042   6.487  68.872  1.00  0.00    -0.312 NA 
HETATM   13  N   UNL     1      -8.876   7.095  69.542  1.00  0.00    -0.137 NA 
HETATM   14  C   UNL     1     -10.532   5.377  68.309  1.00  0.00    -0.120 A  
HETATM   15  C   UNL     1      -9.206   5.040  68.368  1.00  0.00    -0.150 A  
HETATM   16  C   UNL     1      -8.410   5.954  69.003  1.00  0.00    -0.106 A  
ENDBRANCH  10  11
BRANCH  10  17
HETATM   17  C   UNL     1     -11.803   8.130  71.129  1.00  0.00    -0.279 C  
BRANCH  17  18
HETATM   18  C   UNL     1     -11.401   7.892  72.603  1.00  0.00    -0.408 C  
BRANCH  18  19
HETATM   19  N   UNL     1     -10.730   6.589  72.846  1.00  0.00    -0.239 NA 
HETATM   20  C   UNL     1     -11.636   5.441  72.733  1.00  0.00    -0.226 C  
HETATM   21  C   UNL     1     -10.104   6.578  74.172  1.00  0.00    -0.351 C  
ENDBRANCH  18  19
ENDBRANCH  17  18
ENDBRANCH  10  17
ENDBRANCH   9  10
ENDBRANCH   6   9
ENDBRANCH   2   3
TORSDOF 7
ENDMDL
MODEL      165
REMARK 921   NORMALIZED FREE ENERGY PREDICTED BY IDOCK:   -3.82 KCAL/MOL
REMARK 922        TOTAL FREE ENERGY PREDICTED BY IDOCK:   -6.22 KCAL/MOL
REMARK 923 INTER-LIGAND FREE ENERGY PREDICTED BY IDOCK:   -5.47 KCAL/MOL
REMARK 924 INTRA-LIGAND FREE ENERGY PREDICTED BY IDOCK:   -0.75 KCAL/MOL
REMARK 927      BINDING AFFINITY PREDICTED BY RF-SCORE:    0.00 PKD
ROOT
HETATM    1  C   UNL     1      -7.926   9.291  64.824  1.00  0.00    -0.123 C  
HETATM    2  O   UNL     1      -8.018   9.788  66.152  1.00  0.00    -0.107 OA 
ENDROOT
BRANCH   2   3
HETATM    3  C   UNL     1      -8.727   9.027  67.041  1.00  0.00    -0.116 A  
HETATM    4  C   UNL     1      -8.282   8.602  68.291  1.00  0.00    -0.122 A  
HETATM    5  C   UNL     1      -9.074   7.743  69.065  1.00  0.00    -0.144 A  
HETATM    6  C   UNL     1     -10.328   7.300  68.610  1.00  0.00    -0.208 A  
HETATM    7  C   UNL     1     -10.795   7.806  67.390  1.00  0.00    -0.207 A  
HETATM    8  C   UNL     1     -10.005   8.661  66.616  1.00  0.00    -0.357 A  
BRANCH   6   9
HETATM    9  C   UNL     1     -11.083   6.151  69.268  1.00  0.00    -0.393 C  
BRANCH   9  10
HETATM   10  N   UNL     1     -11.319   6.274  70.693  1.00  0.00    -0.342 NA 
BRANCH  10  11
HETATM   11  C   UNL     1     -12.239   7.208  71.142  1.00  0.00    -0.365 A  
HETATM   12  N   UNL     1     -11.805   8.429  71.504  1.00  0.00    -0.284 NA 
HETATM   13  N   UNL     1     -13.532   6.858  71.254  1.00  0.00    -0.193 NA 
HETATM   14  C   UNL     1     -12.694   9.288  72.034  1.00  0.00    -0.401 A  
HETATM   15  C   UNL     1     -14.010   8.979  72.247  1.00  0.00    -0.522 A  
HETATM   16  C   UNL     1     -14.382   7.731  71.826  1.00  0.00    -0.470 A  
ENDBRANCH  10  11
BRANCH  10  17
HETATM   17  C   UNL     1     -10.641   5.488  71.730  1.00  0.00    -0.235 C  
BRANCH  17  18
HETATM   18  C   UNL     1      -9.199   5.905  72.098  1.00  0.00    -0.146 C  
BRANCH  18  19
HETATM   19  N   UNL     1      -9.102   6.731  73.330  1.00  0.00    -0.127 NA 
HETATM   20  C   UNL     1     -10.282   6.624  74.194  1.00  0.00    -0.363 C  
HETATM   21  C   UNL     1      -8.886   8.139  72.983  1.00  0.00    -0.248 C  
ENDBRANCH  18  19
ENDBRANCH  17  18
ENDBRANCH  10  17
ENDBRANCH   9  10
ENDBRANCH   6   9
ENDBRANCH   2   3
TORSDOF 7
ENDMDL
MODEL      166
REMARK 921   NORMALIZED FREE ENERGY PREDICTED BY IDOCK:   -3.80 KCAL/MOL
REMARK 922        TOTAL FREE ENERGY PREDICTED BY IDOCK:   -6.19 KCAL/MOL
REMARK 923 INTER-LIGAND FREE ENERGY PREDICTED BY IDOCK:   -5.38 KCAL/MOL
REMARK 924 INTRA-LIGAND FREE ENERGY PREDICTED BY IDOCK:   -0.81 KCAL/MOL
REMARK 927      BINDING AFFINITY PREDICTED BY RF-SCORE:    0.00 PKD
ROOT
HETATM    1  C   UNL     1      -8.428   4.906  68.983  1.00  0.00    -0.081 C  
HETATM    2  O   UNL     1      -7.799   6.180  69.022  1.00  0.00    -0.097 OA 
ENDROOT
BRANCH   2   3
HETATM    3  C   UNL     1      -8.187   7.082  68.069  1.00  0.00    -0.119 A  
HETATM    4  C   UNL     1      -7.399   8.100  67.537  1.00  0.00    -0.093 A  
HETATM    5  C   UNL     1      -7.951   9.018  66.635  1.00  0.00    -0.100 A  
HETATM    6  C   UNL     1      -9.298   8.935  66.241  1.00  0.00    -0.279 A  
HETATM    7  C   UNL     1     -10.051   7.855  66.720  1.00  0.00    -0.352 A  
HETATM    8  C   UNL     1      -9.502   6.939  67.622  1.00  0.00    -0.133 A  
BRANCH   6   9
HETATM    9  C   UNL     1     -10.013  10.064  65.507  1.00  0.00    -0.296 C  
BRANCH   9  10
HETATM   10  N   UNL     1     -10.491  11.158  66.328  1.00  0.00    -0.253 NA 
BRANCH  10  11
HETATM   11  C   UNL     1     -11.121  12.230  65.716  1.00  0.00    -0.323 A  
HETATM   12  N   UNL     1     -11.532  12.101  64.441  1.00  0.00    -0.336 NA 
HETATM   13  N   UNL     1     -11.259  13.386  66.388  1.00  0.00    -0.299 NA 
HETATM   14  C   UNL     1     -12.048  13.182  63.829  1.00  0.00    -0.495 A  
HETATM   15  C   UNL     1     -12.154  14.411  64.423  1.00  0.00    -0.491 A  
HETATM   16  C   UNL     1     -11.742  14.454  65.727  1.00  0.00    -0.362 A  
ENDBRANCH  10  11
BRANCH  10  17
HETATM   17  C   UNL     1     -10.351  11.242  67.786  1.00  0.00    -0.182 C  
BRANCH  17  18
HETATM   18  C   UNL     1     -11.523  10.700  68.636  1.00  0.00    -0.263 C  
BRANCH  18  19
HETATM   19  N   UNL     1     -11.110   9.754  69.706  1.00  0.00    -0.244 NA 
HETATM   20  C   UNL     1     -11.899   9.890  70.935  1.00  0.00    -0.356 C  
HETATM   21  C   UNL     1      -9.690   9.933  70.024  1.00  0.00    -0.227 C  
ENDBRANCH  18  19
ENDBRANCH  17  18
ENDBRANCH  10  17
ENDBRANCH   9  10
ENDBRANCH   6   9
ENDBRANCH   2   3
TORSDOF 7
ENDMDL
MODEL      167
REMARK 921   NORMALIZED FREE ENERGY PREDICTED BY IDOCK:   -3.79 KCAL/MOL
REMARK 922        TOTAL FREE ENERGY PREDICTED BY IDOCK:   -6.18 KCAL/MOL
REMARK 923 INTER-LIGAND FREE ENERGY PREDICTED BY IDOCK:   -5.51 KCAL/MOL
REMARK 924 INTRA-LIGAND FREE ENERGY PREDICTED BY IDOCK:   -0.67 KCAL/MOL
REMARK 927      BINDING AFFINITY PREDICTED BY RF-SCORE:    0.00 PKD
ROOT
HETATM    1  C   UNL     1     -10.598  11.177  63.916  1.00  0.00    -0.364 C  
HETATM    2  O   UNL     1     -11.383  12.361  63.879  1.00  0.00    -0.362 OA 
ENDROOT
BRANCH   2   3
HETATM    3  C   UNL     1     -11.133  13.289  64.853  1.00  0.00    -0.328 A  
HETATM    4  C   UNL     1     -10.744  14.610  64.643  1.00  0.00    -0.309 A  
HETATM    5  C   UNL     1     -10.426  15.431  65.732  1.00  0.00    -0.371 A  
HETATM    6  C   UNL     1     -10.498  14.953  67.053  1.00  0.00    -0.272 A  
HETATM    7  C   UNL     1     -10.974  13.650  67.248  1.00  0.00    -0.299 A  
HETATM    8  C   UNL     1     -11.290  12.828  66.161  1.00  0.00    -0.371 A  
BRANCH   6   9
HETATM    9  C   UNL     1      -9.888  15.699  68.233  1.00  0.00    -0.209 C  
BRANCH   9  10
HETATM   10  N   UNL     1      -8.481  16.028  68.125  1.00  0.00    -0.167 NA 
BRANCH  10  11
HETATM   11  C   UNL     1      -7.541  15.041  68.375  1.00  0.00    -0.115 A  
HETATM   12  N   UNL     1      -7.248  14.730  69.652  1.00  0.00    -0.162 NA 
HETATM   13  N   UNL     1      -6.909  14.454  67.344  1.00  0.00    -0.256 NA 
HETATM   14  C   UNL     1      -6.261  13.844  69.879  1.00  0.00    -0.136 A  
HETATM   15  C   UNL     1      -5.523  13.261  68.884  1.00  0.00    -0.073 A  
HETATM   16  C   UNL     1      -5.901  13.605  67.614  1.00  0.00    -0.053 A  
ENDBRANCH  10  11
BRANCH  10  17
HETATM   17  C   UNL     1      -7.948  17.350  67.778  1.00  0.00    -0.205 C  
BRANCH  17  18
HETATM   18  C   UNL     1      -8.808  18.231  66.844  1.00  0.00    -0.275 C  
BRANCH  18  19
HETATM   19  N   UNL     1      -9.269  19.502  67.463  1.00  0.00    -0.306 NA 
HETATM   20  C   UNL     1      -9.852  19.319  68.796  1.00  0.00    -0.447 C  
HETATM   21  C   UNL     1     -10.249  20.164  66.596  1.00  0.00    -0.427 C  
ENDBRANCH  18  19
ENDBRANCH  17  18
ENDBRANCH  10  17
ENDBRANCH   9  10
ENDBRANCH   6   9
ENDBRANCH   2   3
TORSDOF 7
ENDMDL
MODEL      168
REMARK 921   NORMALIZED FREE ENERGY PREDICTED BY IDOCK:   -3.78 KCAL/MOL
REMARK 922        TOTAL FREE ENERGY PREDICTED BY IDOCK:   -6.17 KCAL/MOL
REMARK 923 INTER-LIGAND FREE ENERGY PREDICTED BY IDOCK:   -5.66 KCAL/MOL
REMARK 924 INTRA-LIGAND FREE ENERGY PREDICTED BY IDOCK:   -0.51 KCAL/MOL
REMARK 927      BINDING AFFINITY PREDICTED BY RF-SCORE:    0.00 PKD
ROOT
HETATM    1  C   UNL     1     -11.835  15.966  64.406  1.00  0.00    -0.101 C  
HETATM    2  O   UNL     1     -12.452  14.803  63.872  1.00  0.00    -0.811 OA 
ENDROOT
BRANCH   2   3
HETATM    3  C   UNL     1     -11.752  13.633  63.987  1.00  0.00    -0.364 A  
HETATM    4  C   UNL     1     -12.139  12.395  63.478  1.00  0.00    -0.651 A  
HETATM    5  C   UNL     1     -11.375  11.253  63.750  1.00  0.00    -0.153 A  
HETATM    6  C   UNL     1     -10.206  11.325  64.528  1.00  0.00    -0.370 A  
HETATM    7  C   UNL     1      -9.787  12.591  64.959  1.00  0.00    -0.111 A  
HETATM    8  C   UNL     1     -10.550  13.731  64.690  1.00  0.00    -0.443 A  
BRANCH   6   9
HETATM    9  C   UNL     1      -9.515  10.089  65.092  1.00  0.00    -0.270 C  
BRANCH   9  10
HETATM   10  N   UNL     1     -10.003   9.610  66.370  1.00  0.00    -0.241 NA 
BRANCH  10  11
HETATM   11  C   UNL     1     -10.338  10.533  67.348  1.00  0.00    -0.224 A  
HETATM   12  N   UNL     1     -11.636  10.712  67.657  1.00  0.00    -0.447 NA 
HETATM   13  N   UNL     1      -9.369  11.262  67.927  1.00  0.00    -0.156 NA 
HETATM   14  C   UNL     1     -11.951  11.683  68.533  1.00  0.00    -0.217 A  
HETATM   15  C   UNL     1     -11.028  12.514  69.108  1.00  0.00    -0.198 A  
HETATM   16  C   UNL     1      -9.729  12.250  68.766  1.00  0.00     0.030 A  
ENDBRANCH  10  11
BRANCH  10  17
HETATM   17  C   UNL     1     -10.164   8.198  66.736  1.00  0.00    -0.302 C  
BRANCH  17  18
HETATM   18  C   UNL     1      -9.243   7.652  67.850  1.00  0.00    -0.136 C  
BRANCH  18  19
HETATM   19  N   UNL     1      -9.964   7.221  69.076  1.00  0.00    -0.172 NA 
HETATM   20  C   UNL     1      -9.850   8.177  70.182  1.00  0.00    -0.184 C  
HETATM   21  C   UNL     1      -9.476   5.912  69.520  1.00  0.00    -0.138 C  
ENDBRANCH  18  19
ENDBRANCH  17  18
ENDBRANCH  10  17
ENDBRANCH   9  10
ENDBRANCH   6   9
ENDBRANCH   2   3
TORSDOF 7
ENDMDL
MODEL      169
REMARK 921   NORMALIZED FREE ENERGY PREDICTED BY IDOCK:   -3.77 KCAL/MOL
REMARK 922        TOTAL FREE ENERGY PREDICTED BY IDOCK:   -6.16 KCAL/MOL
REMARK 923 INTER-LIGAND FREE ENERGY PREDICTED BY IDOCK:   -5.43 KCAL/MOL
REMARK 924 INTRA-LIGAND FREE ENERGY PREDICTED BY IDOCK:   -0.73 KCAL/MOL
REMARK 927      BINDING AFFINITY PREDICTED BY RF-SCORE:    0.00 PKD
ROOT
HETATM    1  C   UNL     1     -11.323  12.109  63.473  1.00  0.00    -0.453 C  
HETATM    2  O   UNL     1     -11.877  12.337  64.761  1.00  0.00    -0.368 OA 
ENDROOT
BRANCH   2   3
HETATM    3  C   UNL     1     -11.201  11.796  65.822  1.00  0.00    -0.281 A  
HETATM    4  C   UNL     1     -10.375  10.676  65.779  1.00  0.00    -0.287 A  
HETATM    5  C   UNL     1      -9.817  10.168  66.959  1.00  0.00    -0.238 A  
HETATM    6  C   UNL     1     -10.067  10.773  68.204  1.00  0.00    -0.183 A  
HETATM    7  C   UNL     1     -10.830  11.948  68.215  1.00  0.00    -0.261 A  
HETATM    8  C   UNL     1     -11.389  12.455  67.038  1.00  0.00    -0.388 A  
BRANCH   6   9
HETATM    9  C   UNL     1      -9.734  10.098  69.529  1.00  0.00    -0.229 C  
BRANCH   9  10
HETATM   10  N   UNL     1     -10.465   8.883  69.830  1.00  0.00    -0.208 NA 
BRANCH  10  11
HETATM   11  C   UNL     1     -11.615   8.966  70.599  1.00  0.00    -0.215 A  
HETATM   12  N   UNL     1     -11.941  10.146  71.157  1.00  0.00    -0.364 NA 
HETATM   13  N   UNL     1     -12.348   7.859  70.810  1.00  0.00    -0.069 NA 
HETATM   14  C   UNL     1     -13.002  10.185  71.983  1.00  0.00    -0.409 A  
HETATM   15  C   UNL     1     -13.753   9.087  72.305  1.00  0.00    -0.550 A  
HETATM   16  C   UNL     1     -13.377   7.932  71.675  1.00  0.00    -0.337 A  
ENDBRANCH  10  11
BRANCH  10  17
HETATM   17  C   UNL     1     -10.078   7.537  69.395  1.00  0.00    -0.190 C  
BRANCH  17  18
HETATM   18  C   UNL     1      -8.619   7.104  69.664  1.00  0.00    -0.137 C  
BRANCH  18  19
HETATM   19  N   UNL     1      -7.938   6.499  68.490  1.00  0.00    -0.109 NA 
HETATM   20  C   UNL     1      -7.033   5.401  68.846  1.00  0.00    -0.056 C  
HETATM   21  C   UNL     1      -7.188   7.521  67.753  1.00  0.00    -0.094 C  
ENDBRANCH  18  19
ENDBRANCH  17  18
ENDBRANCH  10  17
ENDBRANCH   9  10
ENDBRANCH   6   9
ENDBRANCH   2   3
TORSDOF 7
ENDMDL
MODEL      170
REMARK 921   NORMALIZED FREE ENERGY PREDICTED BY IDOCK:   -3.76 KCAL/MOL
REMARK 922        TOTAL FREE ENERGY PREDICTED BY IDOCK:   -6.15 KCAL/MOL
REMARK 923 INTER-LIGAND FREE ENERGY PREDICTED BY IDOCK:   -5.56 KCAL/MOL
REMARK 924 INTRA-LIGAND FREE ENERGY PREDICTED BY IDOCK:   -0.59 KCAL/MOL
REMARK 927      BINDING AFFINITY PREDICTED BY RF-SCORE:    0.00 PKD
ROOT
HETATM    1  C   UNL     1     -12.042  12.977  63.262  1.00  0.00    -0.422 C  
HETATM    2  O   UNL     1     -11.629  13.625  64.458  1.00  0.00    -0.360 OA 
ENDROOT
BRANCH   2   3
HETATM    3  C   UNL     1     -11.399  12.820  65.541  1.00  0.00    -0.312 A  
HETATM    4  C   UNL     1     -11.984  12.955  66.798  1.00  0.00    -0.418 A  
HETATM    5  C   UNL     1     -11.588  12.120  67.851  1.00  0.00    -0.413 A  
HETATM    6  C   UNL     1     -10.606  11.130  67.667  1.00  0.00    -0.250 A  
HETATM    7  C   UNL     1     -10.092  10.954  66.376  1.00  0.00    -0.280 A  
HETATM    8  C   UNL     1     -10.486  11.788  65.325  1.00  0.00    -0.320 A  
BRANCH   6   9
HETATM    9  C   UNL     1      -9.937  10.408  68.831  1.00  0.00    -0.199 C  
BRANCH   9  10
HETATM   10  N   UNL     1     -10.309   9.019  69.021  1.00  0.00    -0.215 NA 
BRANCH  10  11
HETATM   11  C   UNL     1     -10.475   8.541  70.310  1.00  0.00    -0.220 A  
HETATM   12  N   UNL     1     -11.599   7.866  70.615  1.00  0.00    -0.248 NA 
HETATM   13  N   UNL     1      -9.538   8.803  71.238  1.00  0.00    -0.227 NA 
HETATM   14  C   UNL     1     -11.792   7.498  71.894  1.00  0.00    -0.296 A  
HETATM   15  C   UNL     1     -10.919   7.793  72.907  1.00  0.00    -0.467 A  
HETATM   16  C   UNL     1      -9.787   8.454  72.513  1.00  0.00    -0.289 A  
ENDBRANCH  10  11
BRANCH  10  17
HETATM   17  C   UNL     1     -10.515   8.047  67.942  1.00  0.00    -0.197 C  
BRANCH  17  18
HETATM   18  C   UNL     1      -9.285   7.228  67.490  1.00  0.00    -0.130 C  
BRANCH  18  19
HETATM   19  N   UNL     1      -7.981   7.873  67.793  1.00  0.00    -0.122 NA 
HETATM   20  C   UNL     1      -7.217   8.228  66.592  1.00  0.00    -0.081 C  
HETATM   21  C   UNL     1      -7.164   7.000  68.641  1.00  0.00    -0.094 C  
ENDBRANCH  18  19
ENDBRANCH  17  18
ENDBRANCH  10  17
ENDBRANCH   9  10
ENDBRANCH   6   9
ENDBRANCH   2   3
TORSDOF 7
ENDMDL
MODEL      171
REMARK 921   NORMALIZED FREE ENERGY PREDICTED BY IDOCK:   -3.75 KCAL/MOL
REMARK 922        TOTAL FREE ENERGY PREDICTED BY IDOCK:   -6.13 KCAL/MOL
REMARK 923 INTER-LIGAND FREE ENERGY PREDICTED BY IDOCK:   -5.47 KCAL/MOL
REMARK 924 INTRA-LIGAND FREE ENERGY PREDICTED BY IDOCK:   -0.66 KCAL/MOL
REMARK 927      BINDING AFFINITY PREDICTED BY RF-SCORE:    0.00 PKD
ROOT
HETATM    1  C   UNL     1     -11.076   4.430  73.376  1.00  0.00    -0.305 C  
HETATM    2  O   UNL     1     -11.979   5.422  72.905  1.00  0.00    -0.225 OA 
ENDROOT
BRANCH   2   3
HETATM    3  C   UNL     1     -11.450   6.401  72.109  1.00  0.00    -0.301 A  
HETATM    4  C   UNL     1     -10.771   6.201  70.909  1.00  0.00    -0.316 A  
HETATM    5  C   UNL     1     -10.193   7.287  70.238  1.00  0.00    -0.205 A  
HETATM    6  C   UNL     1     -10.289   8.594  70.748  1.00  0.00    -0.249 A  
HETATM    7  C   UNL     1     -11.049   8.786  71.909  1.00  0.00    -0.434 A  
HETATM    8  C   UNL     1     -11.624   7.703  72.581  1.00  0.00    -0.371 A  
BRANCH   6   9
HETATM    9  C   UNL     1      -9.441   9.747  70.223  1.00  0.00    -0.195 C  
BRANCH   9  10
HETATM   10  N   UNL     1      -9.841  10.306  68.947  1.00  0.00    -0.185 NA 
BRANCH  10  11
HETATM   11  C   UNL     1     -10.636  11.441  68.932  1.00  0.00    -0.202 A  
HETATM   12  N   UNL     1     -10.494  12.322  67.925  1.00  0.00    -0.208 NA 
HETATM   13  N   UNL     1     -11.490  11.662  69.946  1.00  0.00    -0.262 NA 
HETATM   14  C   UNL     1     -11.198  13.467  67.979  1.00  0.00    -0.271 A  
HETATM   15  C   UNL     1     -12.031  13.796  69.015  1.00  0.00    -0.399 A  
HETATM   16  C   UNL     1     -12.144  12.837  69.985  1.00  0.00    -0.285 A  
ENDBRANCH  10  11
BRANCH  10  17
HETATM   17  C   UNL     1      -9.483   9.754  67.636  1.00  0.00    -0.144 C  
BRANCH  17  18
HETATM   18  C   UNL     1     -10.498   8.793  66.977  1.00  0.00    -0.268 C  
BRANCH  18  19
HETATM   19  N   UNL     1      -9.902   7.522  66.490  1.00  0.00    -0.191 NA 
HETATM   20  C   UNL     1     -10.668   6.334  66.882  1.00  0.00    -0.339 C  
HETATM   21  C   UNL     1      -8.525   7.386  66.974  1.00  0.00    -0.118 C  
ENDBRANCH  18  19
ENDBRANCH  17  18
ENDBRANCH  10  17
ENDBRANCH   9  10
ENDBRANCH   6   9
ENDBRANCH   2   3
TORSDOF 7
ENDMDL
MODEL      172
REMARK 921   NORMALIZED FREE ENERGY PREDICTED BY IDOCK:   -3.75 KCAL/MOL
REMARK 922        TOTAL FREE ENERGY PREDICTED BY IDOCK:   -6.13 KCAL/MOL
REMARK 923 INTER-LIGAND FREE ENERGY PREDICTED BY IDOCK:   -5.58 KCAL/MOL
REMARK 924 INTRA-LIGAND FREE ENERGY PREDICTED BY IDOCK:   -0.55 KCAL/MOL
REMARK 927      BINDING AFFINITY PREDICTED BY RF-SCORE:    0.00 PKD
ROOT
HETATM    1  C   UNL     1     -11.211  12.912  63.839  1.00  0.00    -0.423 C  
HETATM    2  O   UNL     1     -10.855  13.352  65.143  1.00  0.00    -0.291 OA 
ENDROOT
BRANCH   2   3
HETATM    3  C   UNL     1     -10.298  12.416  65.973  1.00  0.00    -0.251 A  
HETATM    4  C   UNL     1     -10.420  11.035  65.845  1.00  0.00    -0.300 A  
HETATM    5  C   UNL     1      -9.878  10.188  66.821  1.00  0.00    -0.247 A  
HETATM    6  C   UNL     1      -9.199  10.704  67.939  1.00  0.00    -0.150 A  
HETATM    7  C   UNL     1      -9.013  12.091  68.005  1.00  0.00    -0.187 A  
HETATM    8  C   UNL     1      -9.555  12.937  67.032  1.00  0.00    -0.231 A  
BRANCH   6   9
HETATM    9  C   UNL     1      -8.857   9.856  69.158  1.00  0.00    -0.164 C  
BRANCH   9  10
HETATM   10  N   UNL     1      -9.962   9.522  70.036  1.00  0.00    -0.221 NA 
BRANCH  10  11
HETATM   11  C   UNL     1      -9.701   8.834  71.210  1.00  0.00    -0.265 A  
HETATM   12  N   UNL     1     -10.686   8.112  71.774  1.00  0.00    -0.237 NA 
HETATM   13  N   UNL     1      -8.491   8.945  71.784  1.00  0.00    -0.359 NA 
HETATM   14  C   UNL     1     -10.448   7.534  72.965  1.00  0.00    -0.342 A  
HETATM   15  C   UNL     1      -9.267   7.662  73.646  1.00  0.00    -0.339 A  
HETATM   16  C   UNL     1      -8.306   8.387  72.995  1.00  0.00    -0.130 A  
ENDBRANCH  10  11
BRANCH  10  17
HETATM   17  C   UNL     1     -11.370   9.843  69.777  1.00  0.00    -0.193 C  
BRANCH  17  18
HETATM   18  C   UNL     1     -11.905  11.174  70.354  1.00  0.00    -0.369 C  
BRANCH  18  19
HETATM   19  N   UNL     1     -12.688  11.021  71.608  1.00  0.00    -0.401 NA 
HETATM   20  C   UNL     1     -13.631   9.898  71.568  1.00  0.00    -0.241 C  
HETATM   21  C   UNL     1     -13.422  12.255  71.904  1.00  0.00    -0.240 C  
ENDBRANCH  18  19
ENDBRANCH  17  18
ENDBRANCH  10  17
ENDBRANCH   9  10
ENDBRANCH   6   9
ENDBRANCH   2   3
TORSDOF 7
ENDMDL
MODEL      173
REMARK 921   NORMALIZED FREE ENERGY PREDICTED BY IDOCK:   -3.74 KCAL/MOL
REMARK 922        TOTAL FREE ENERGY PREDICTED BY IDOCK:   -6.11 KCAL/MOL
REMARK 923 INTER-LIGAND FREE ENERGY PREDICTED BY IDOCK:   -5.53 KCAL/MOL
REMARK 924 INTRA-LIGAND FREE ENERGY PREDICTED BY IDOCK:   -0.59 KCAL/MOL
REMARK 927      BINDING AFFINITY PREDICTED BY RF-SCORE:    0.00 PKD
ROOT
HETATM    1  C   UNL     1      -8.837   8.505  70.146  1.00  0.00    -0.138 C  
HETATM    2  O   UNL     1      -8.855   8.614  68.730  1.00  0.00    -0.137 OA 
ENDROOT
BRANCH   2   3
HETATM    3  C   UNL     1      -8.860   9.883  68.215  1.00  0.00    -0.119 A  
HETATM    4  C   UNL     1      -8.151  10.314  67.096  1.00  0.00    -0.121 A  
HETATM    5  C   UNL     1      -8.169  11.666  66.731  1.00  0.00    -0.161 A  
HETATM    6  C   UNL     1      -8.901  12.613  67.471  1.00  0.00    -0.186 A  
HETATM    7  C   UNL     1      -9.675  12.145  68.541  1.00  0.00    -0.153 A  
HETATM    8  C   UNL     1      -9.657  10.796  68.907  1.00  0.00    -0.204 A  
BRANCH   6   9
HETATM    9  C   UNL     1      -8.717  14.115  67.295  1.00  0.00    -0.218 C  
BRANCH   9  10
HETATM   10  N   UNL     1      -9.855  14.841  66.767  1.00  0.00    -0.247 NA 
BRANCH  10  11
HETATM   11  C   UNL     1     -10.727  14.189  65.910  1.00  0.00    -0.298 A  
HETATM   12  N   UNL     1     -11.985  13.946  66.321  1.00  0.00    -0.411 NA 
HETATM   13  N   UNL     1     -10.284  13.770  64.712  1.00  0.00    -0.387 NA 
HETATM   14  C   UNL     1     -12.787  13.223  65.519  1.00  0.00    -0.224 A  
HETATM   15  C   UNL     1     -12.385  12.700  64.320  1.00  0.00    -0.517 A  
HETATM   16  C   UNL     1     -11.103  13.015  63.957  1.00  0.00    -0.395 A  
ENDBRANCH  10  11
BRANCH  10  17
HETATM   17  C   UNL     1     -10.166  16.246  67.055  1.00  0.00    -0.280 C  
BRANCH  17  18
HETATM   18  C   UNL     1     -10.085  17.240  65.874  1.00  0.00    -0.211 C  
BRANCH  18  19
HETATM   19  N   UNL     1      -9.374  18.505  66.194  1.00  0.00    -0.493 NA 
HETATM   20  C   UNL     1      -8.003  18.295  66.671  1.00  0.00    -0.251 C  
HETATM   21  C   UNL     1     -10.121  19.269  67.197  1.00  0.00    -0.377 C  
ENDBRANCH  18  19
ENDBRANCH  17  18
ENDBRANCH  10  17
ENDBRANCH   9  10
ENDBRANCH   6   9
ENDBRANCH   2   3
TORSDOF 7
ENDMDL
MODEL      174
REMARK 921   NORMALIZED FREE ENERGY PREDICTED BY IDOCK:   -3.74 KCAL/MOL
REMARK 922        TOTAL FREE ENERGY PREDICTED BY IDOCK:   -6.11 KCAL/MOL
REMARK 923 INTER-LIGAND FREE ENERGY PREDICTED BY IDOCK:   -5.73 KCAL/MOL
REMARK 924 INTRA-LIGAND FREE ENERGY PREDICTED BY IDOCK:   -0.38 KCAL/MOL
REMARK 927      BINDING AFFINITY PREDICTED BY RF-SCORE:    0.00 PKD
ROOT
HETATM    1  C   UNL     1     -11.864  12.952  63.415  1.00  0.00    -0.507 C  
HETATM    2  O   UNL     1     -11.543  13.107  64.790  1.00  0.00    -0.312 OA 
ENDROOT
BRANCH   2   3
HETATM    3  C   UNL     1     -11.113  11.986  65.448  1.00  0.00    -0.320 A  
HETATM    4  C   UNL     1     -10.295  10.991  64.918  1.00  0.00    -0.378 A  
HETATM    5  C   UNL     1     -10.006   9.844  65.669  1.00  0.00    -0.353 A  
HETATM    6  C   UNL     1     -10.523   9.672  66.965  1.00  0.00    -0.302 A  
HETATM    7  C   UNL     1     -11.273  10.721  67.512  1.00  0.00    -0.346 A  
HETATM    8  C   UNL     1     -11.563  11.866  66.763  1.00  0.00    -0.341 A  
BRANCH   6   9
HETATM    9  C   UNL     1     -10.485   8.335  67.695  1.00  0.00    -0.235 C  
BRANCH   9  10
HETATM   10  N   UNL     1      -9.876   8.341  69.011  1.00  0.00    -0.172 NA 
BRANCH  10  11
HETATM   11  C   UNL     1      -9.408   7.148  69.539  1.00  0.00    -0.148 A  
HETATM   12  N   UNL     1     -10.293   6.187  69.859  1.00  0.00    -0.196 NA 
HETATM   13  N   UNL     1      -8.091   6.999  69.765  1.00  0.00    -0.124 NA 
HETATM   14  C   UNL     1      -9.832   5.077  70.465  1.00  0.00    -0.219 A  
HETATM   15  C   UNL     1      -8.518   4.884  70.794  1.00  0.00    -0.115 A  
HETATM   16  C   UNL     1      -7.677   5.893  70.409  1.00  0.00    -0.096 A  
ENDBRANCH  10  11
BRANCH  10  17
HETATM   17  C   UNL     1      -9.721   9.526  69.862  1.00  0.00    -0.224 C  
BRANCH  17  18
HETATM   18  C   UNL     1     -10.574   9.583  71.150  1.00  0.00    -0.318 C  
BRANCH  18  19
HETATM   19  N   UNL     1     -12.026   9.360  70.926  1.00  0.00    -0.291 NA 
HETATM   20  C   UNL     1     -12.808  10.601  70.922  1.00  0.00    -0.382 C  
HETATM   21  C   UNL     1     -12.566   8.455  71.945  1.00  0.00    -0.349 C  
ENDBRANCH  18  19
ENDBRANCH  17  18
ENDBRANCH  10  17
ENDBRANCH   9  10
ENDBRANCH   6   9
ENDBRANCH   2   3
TORSDOF 7
ENDMDL
MODEL      175
REMARK 921   NORMALIZED FREE ENERGY PREDICTED BY IDOCK:   -3.73 KCAL/MOL
REMARK 922        TOTAL FREE ENERGY PREDICTED BY IDOCK:   -6.11 KCAL/MOL
REMARK 923 INTER-LIGAND FREE ENERGY PREDICTED BY IDOCK:   -5.63 KCAL/MOL
REMARK 924 INTRA-LIGAND FREE ENERGY PREDICTED BY IDOCK:   -0.48 KCAL/MOL
REMARK 927      BINDING AFFINITY PREDICTED BY RF-SCORE:    0.00 PKD
ROOT
HETATM    1  C   UNL     1      -7.901  20.188  67.414  1.00  0.00    -0.313 C  
HETATM    2  O   UNL     1      -9.206  19.672  67.643  1.00  0.00    -0.314 OA 
ENDROOT
BRANCH   2   3
HETATM    3  C   UNL     1      -9.322  18.310  67.709  1.00  0.00    -0.271 A  
HETATM    4  C   UNL     1      -8.589  17.390  66.962  1.00  0.00    -0.250 A  
HETATM    5  C   UNL     1      -8.874  16.022  67.056  1.00  0.00    -0.235 A  
HETATM    6  C   UNL     1      -9.891  15.545  67.903  1.00  0.00    -0.216 A  
HETATM    7  C   UNL     1     -10.557  16.477  68.710  1.00  0.00    -0.322 A  
HETATM    8  C   UNL     1     -10.275  17.843  68.615  1.00  0.00    -0.387 A  
BRANCH   6   9
HETATM    9  C   UNL     1     -10.430  14.122  67.821  1.00  0.00    -0.246 C  
BRANCH   9  10
HETATM   10  N   UNL     1      -9.827  13.266  66.818  1.00  0.00    -0.257 NA 
BRANCH  10  11
HETATM   11  C   UNL     1     -10.466  13.110  65.598  1.00  0.00    -0.282 A  
HETATM   12  N   UNL     1     -11.162  14.144  65.091  1.00  0.00    -0.322 NA 
HETATM   13  N   UNL     1     -10.420  11.919  64.977  1.00  0.00    -0.277 NA 
HETATM   14  C   UNL     1     -11.860  13.944  63.958  1.00  0.00    -0.337 A  
HETATM   15  C   UNL     1     -11.921  12.741  63.308  1.00  0.00    -0.522 A  
HETATM   16  C   UNL     1     -11.164  11.748  63.870  1.00  0.00    -0.414 A  
ENDBRANCH  10  11
BRANCH  10  17
HETATM   17  C   UNL     1      -8.576  12.519  66.990  1.00  0.00    -0.188 C  
BRANCH  17  18
HETATM   18  C   UNL     1      -8.438  11.665  68.270  1.00  0.00    -0.160 C  
BRANCH  18  19
HETATM   19  N   UNL     1      -7.145  11.842  68.981  1.00  0.00    -0.111 NA 
HETATM   20  C   UNL     1      -5.998  11.969  68.075  1.00  0.00    -0.058 C  
HETATM   21  C   UNL     1      -6.911  10.722  69.899  1.00  0.00    -0.146 C  
ENDBRANCH  18  19
ENDBRANCH  17  18
ENDBRANCH  10  17
ENDBRANCH   9  10
ENDBRANCH   6   9
ENDBRANCH   2   3
TORSDOF 7
ENDMDL
MODEL      176
REMARK 921   NORMALIZED FREE ENERGY PREDICTED BY IDOCK:   -3.73 KCAL/MOL
REMARK 922        TOTAL FREE ENERGY PREDICTED BY IDOCK:   -6.10 KCAL/MOL
REMARK 923 INTER-LIGAND FREE ENERGY PREDICTED BY IDOCK:   -5.89 KCAL/MOL
REMARK 924 INTRA-LIGAND FREE ENERGY PREDICTED BY IDOCK:   -0.22 KCAL/MOL
REMARK 927      BINDING AFFINITY PREDICTED BY RF-SCORE:    0.00 PKD
ROOT
HETATM    1  C   UNL     1     -12.649  11.874  63.302  1.00  0.00    -0.344 C  
HETATM    2  O   UNL     1     -11.646  11.586  64.267  1.00  0.00    -0.265 OA 
ENDROOT
BRANCH   2   3
HETATM    3  C   UNL     1     -11.000  12.660  64.816  1.00  0.00    -0.302 A  
HETATM    4  C   UNL     1     -11.077  13.977  64.369  1.00  0.00    -0.300 A  
HETATM    5  C   UNL     1     -10.287  14.969  64.964  1.00  0.00    -0.390 A  
HETATM    6  C   UNL     1      -9.411  14.667  66.022  1.00  0.00    -0.216 A  
HETATM    7  C   UNL     1      -9.411  13.355  66.514  1.00  0.00    -0.252 A  
HETATM    8  C   UNL     1     -10.198  12.364  65.919  1.00  0.00    -0.273 A  
BRANCH   6   9
HETATM    9  C   UNL     1      -8.331  15.632  66.497  1.00  0.00    -0.241 C  
BRANCH   9  10
HETATM   10  N   UNL     1      -8.559  17.036  66.217  1.00  0.00    -0.388 NA 
BRANCH  10  11
HETATM   11  C   UNL     1      -7.471  17.853  65.956  1.00  0.00    -0.244 A  
HETATM   12  N   UNL     1      -7.686  19.084  65.457  1.00  0.00    -0.376 NA 
HETATM   13  N   UNL     1      -6.229  17.381  66.158  1.00  0.00    -0.207 NA 
HETATM   14  C   UNL     1      -6.617  19.825  65.113  1.00  0.00    -0.280 A  
HETATM   15  C   UNL     1      -5.325  19.385  65.220  1.00  0.00    -0.190 A  
HETATM   16  C   UNL     1      -5.187  18.136  65.762  1.00  0.00    -0.191 A  
ENDBRANCH  10  11
BRANCH  10  17
HETATM   17  C   UNL     1      -9.873  17.689  66.200  1.00  0.00    -0.242 C  
BRANCH  17  18
HETATM   18  C   UNL     1     -10.623  17.793  67.547  1.00  0.00    -0.359 C  
BRANCH  18  19
HETATM   19  N   UNL     1     -10.402  19.074  68.268  1.00  0.00    -0.367 NA 
HETATM   20  C   UNL     1     -10.480  20.251  67.395  1.00  0.00    -0.184 C  
HETATM   21  C   UNL     1      -9.099  19.061  68.941  1.00  0.00    -0.280 C  
ENDBRANCH  18  19
ENDBRANCH  17  18
ENDBRANCH  10  17
ENDBRANCH   9  10
ENDBRANCH   6   9
ENDBRANCH   2   3
TORSDOF 7
ENDMDL
MODEL      177
REMARK 921   NORMALIZED FREE ENERGY PREDICTED BY IDOCK:   -3.72 KCAL/MOL
REMARK 922        TOTAL FREE ENERGY PREDICTED BY IDOCK:   -6.09 KCAL/MOL
REMARK 923 INTER-LIGAND FREE ENERGY PREDICTED BY IDOCK:   -5.35 KCAL/MOL
REMARK 924 INTRA-LIGAND FREE ENERGY PREDICTED BY IDOCK:   -0.74 KCAL/MOL
REMARK 927      BINDING AFFINITY PREDICTED BY RF-SCORE:    0.00 PKD
ROOT
HETATM    1  C   UNL     1      -8.525   6.857  71.967  1.00  0.00    -0.110 C  
HETATM    2  O   UNL     1      -9.810   7.374  71.649  1.00  0.00    -0.166 OA 
ENDROOT
BRANCH   2   3
HETATM    3  C   UNL     1      -9.840   8.543  70.938  1.00  0.00    -0.189 A  
HETATM    4  C   UNL     1     -10.950   9.366  70.763  1.00  0.00    -0.371 A  
HETATM    5  C   UNL     1     -10.869  10.488  69.929  1.00  0.00    -0.334 A  
HETATM    6  C   UNL     1      -9.676  10.815  69.259  1.00  0.00    -0.142 A  
HETATM    7  C   UNL     1      -8.548  10.024  69.515  1.00  0.00    -0.197 A  
HETATM    8  C   UNL     1      -8.628   8.903  70.346  1.00  0.00    -0.198 A  
BRANCH   6   9
HETATM    9  C   UNL     1      -9.620  11.835  68.128  1.00  0.00    -0.193 C  
BRANCH   9  10
HETATM   10  N   UNL     1     -10.370  11.505  66.931  1.00  0.00    -0.216 NA 
BRANCH  10  11
HETATM   11  C   UNL     1     -10.943  12.531  66.196  1.00  0.00    -0.284 A  
HETATM   12  N   UNL     1     -12.281  12.674  66.212  1.00  0.00    -0.566 NA 
HETATM   13  N   UNL     1     -10.158  13.324  65.447  1.00  0.00    -0.281 NA 
HETATM   14  C   UNL     1     -12.829  13.608  65.413  1.00  0.00    -0.389 A  
HETATM   15  C   UNL     1     -12.102  14.402  64.568  1.00  0.00    -0.498 A  
HETATM   16  C   UNL     1     -10.747  14.217  64.632  1.00  0.00    -0.365 A  
ENDBRANCH  10  11
BRANCH  10  17
HETATM   17  C   UNL     1     -10.594  10.147  66.425  1.00  0.00    -0.085 C  
BRANCH  17  18
HETATM   18  C   UNL     1      -9.376   9.414  65.817  1.00  0.00    -0.239 C  
BRANCH  18  19
HETATM   19  N   UNL     1      -8.513  10.274  64.966  1.00  0.00    -0.167 NA 
HETATM   20  C   UNL     1      -8.806  10.154  63.534  1.00  0.00    -0.231 C  
HETATM   21  C   UNL     1      -7.099   9.961  65.196  1.00  0.00    -0.129 C  
ENDBRANCH  18  19
ENDBRANCH  17  18
ENDBRANCH  10  17
ENDBRANCH   9  10
ENDBRANCH   6   9
ENDBRANCH   2   3
TORSDOF 7
ENDMDL
MODEL      178
REMARK 921   NORMALIZED FREE ENERGY PREDICTED BY IDOCK:   -3.66 KCAL/MOL
REMARK 922        TOTAL FREE ENERGY PREDICTED BY IDOCK:   -6.00 KCAL/MOL
REMARK 923 INTER-LIGAND FREE ENERGY PREDICTED BY IDOCK:   -5.16 KCAL/MOL
REMARK 924 INTRA-LIGAND FREE ENERGY PREDICTED BY IDOCK:   -0.85 KCAL/MOL
REMARK 927      BINDING AFFINITY PREDICTED BY RF-SCORE:    0.00 PKD
ROOT
HETATM    1  C   UNL     1     -10.963  16.583  69.119  1.00  0.00    -0.303 C  
HETATM    2  O   UNL     1     -11.784  15.803  68.259  1.00  0.00    -0.345 OA 
ENDROOT
BRANCH   2   3
HETATM    3  C   UNL     1     -11.537  14.457  68.234  1.00  0.00    -0.328 A  
HETATM    4  C   UNL     1     -11.133  13.721  67.123  1.00  0.00    -0.315 A  
HETATM    5  C   UNL     1     -11.009  12.328  67.211  1.00  0.00    -0.301 A  
HETATM    6  C   UNL     1     -11.278  11.645  68.411  1.00  0.00    -0.307 A  
HETATM    7  C   UNL     1     -11.599  12.412  69.539  1.00  0.00    -0.353 A  
HETATM    8  C   UNL     1     -11.726  13.802  69.452  1.00  0.00    -0.379 A  
BRANCH   6   9
HETATM    9  C   UNL     1     -11.443  10.131  68.477  1.00  0.00    -0.029 C  
BRANCH   9  10
HETATM   10  N   UNL     1     -10.494   9.420  69.310  1.00  0.00    -0.213 NA 
BRANCH  10  11
HETATM   11  C   UNL     1     -10.967   8.485  70.217  1.00  0.00    -0.235 A  
HETATM   12  N   UNL     1     -11.747   8.900  71.232  1.00  0.00    -0.290 NA 
HETATM   13  N   UNL     1     -10.597   7.199  70.093  1.00  0.00    -0.223 NA 
HETATM   14  C   UNL     1     -12.113   7.998  72.161  1.00  0.00    -0.343 A  
HETATM   15  C   UNL     1     -11.715   6.688  72.143  1.00  0.00    -0.342 A  
HETATM   16  C   UNL     1     -10.949   6.337  71.064  1.00  0.00    -0.283 A  
ENDBRANCH  10  11
BRANCH  10  17
HETATM   17  C   UNL     1      -9.040   9.617  69.289  1.00  0.00    -0.172 C  
BRANCH  17  18
HETATM   18  C   UNL     1      -8.335   9.496  67.919  1.00  0.00    -0.115 C  
BRANCH  18  19
HETATM   19  N   UNL     1      -7.437  10.635  67.596  1.00  0.00    -0.091 NA 
HETATM   20  C   UNL     1      -6.016  10.276  67.611  1.00  0.00    -0.052 C  
HETATM   21  C   UNL     1      -7.663  11.743  68.530  1.00  0.00    -0.137 C  
ENDBRANCH  18  19
ENDBRANCH  17  18
ENDBRANCH  10  17
ENDBRANCH   9  10
ENDBRANCH   6   9
ENDBRANCH   2   3
TORSDOF 7
ENDMDL
MODEL      179
REMARK 921   NORMALIZED FREE ENERGY PREDICTED BY IDOCK:   -3.66 KCAL/MOL
REMARK 922        TOTAL FREE ENERGY PREDICTED BY IDOCK:   -6.00 KCAL/MOL
REMARK 923 INTER-LIGAND FREE ENERGY PREDICTED BY IDOCK:   -5.32 KCAL/MOL
REMARK 924 INTRA-LIGAND FREE ENERGY PREDICTED BY IDOCK:   -0.68 KCAL/MOL
REMARK 927      BINDING AFFINITY PREDICTED BY RF-SCORE:    0.00 PKD
ROOT
HETATM    1  C   UNL     1     -10.244   6.626  73.495  1.00  0.00    -0.277 C  
HETATM    2  O   UNL     1     -11.046   6.549  72.325  1.00  0.00    -0.241 OA 
ENDROOT
BRANCH   2   3
HETATM    3  C   UNL     1     -11.064   7.657  71.522  1.00  0.00    -0.236 A  
HETATM    4  C   UNL     1     -11.455   8.938  71.906  1.00  0.00    -0.442 A  
HETATM    5  C   UNL     1     -11.518   9.967  70.958  1.00  0.00    -0.463 A  
HETATM    6  C   UNL     1     -11.186   9.740  69.610  1.00  0.00    -0.216 A  
HETATM    7  C   UNL     1     -10.713   8.468  69.262  1.00  0.00    -0.147 A  
HETATM    8  C   UNL     1     -10.651   7.439  70.207  1.00  0.00    -0.241 A  
BRANCH   6   9
HETATM    9  C   UNL     1     -11.517  10.732  68.502  1.00  0.00    -0.292 C  
BRANCH   9  10
HETATM   10  N   UNL     1     -10.387  11.321  67.812  1.00  0.00    -0.178 NA 
BRANCH  10  11
HETATM   11  C   UNL     1     -10.495  11.588  66.456  1.00  0.00    -0.244 A  
HETATM   12  N   UNL     1     -10.188  10.618  65.575  1.00  0.00    -0.271 NA 
HETATM   13  N   UNL     1     -10.854  12.819  66.052  1.00  0.00    -0.272 NA 
HETATM   14  C   UNL     1     -10.199  10.923  64.265  1.00  0.00    -0.364 A  
HETATM   15  C   UNL     1     -10.481  12.172  63.781  1.00  0.00    -0.470 A  
HETATM   16  C   UNL     1     -10.812  13.095  64.736  1.00  0.00    -0.352 A  
ENDBRANCH  10  11
BRANCH  10  17
HETATM   17  C   UNL     1      -9.101  11.656  68.432  1.00  0.00    -0.180 C  
BRANCH  17  18
HETATM   18  C   UNL     1      -7.963  10.620  68.292  1.00  0.00    -0.116 C  
BRANCH  18  19
HETATM   19  N   UNL     1      -7.375  10.184  69.586  1.00  0.00    -0.120 NA 
HETATM   20  C   UNL     1      -6.318  11.077  70.072  1.00  0.00    -0.146 C  
HETATM   21  C   UNL     1      -6.841   8.824  69.471  1.00  0.00    -0.048 C  
ENDBRANCH  18  19
ENDBRANCH  17  18
ENDBRANCH  10  17
ENDBRANCH   9  10
ENDBRANCH   6   9
ENDBRANCH   2   3
TORSDOF 7
ENDMDL
MODEL      180
REMARK 921   NORMALIZED FREE ENERGY PREDICTED BY IDOCK:   -3.65 KCAL/MOL
REMARK 922        TOTAL FREE ENERGY PREDICTED BY IDOCK:   -5.99 KCAL/MOL
REMARK 923 INTER-LIGAND FREE ENERGY PREDICTED BY IDOCK:   -5.46 KCAL/MOL
REMARK 924 INTRA-LIGAND FREE ENERGY PREDICTED BY IDOCK:   -0.53 KCAL/MOL
REMARK 927      BINDING AFFINITY PREDICTED BY RF-SCORE:    0.00 PKD
ROOT
HETATM    1  C   UNL     1      -7.460  18.247  68.224  1.00  0.00    -0.279 C  
HETATM    2  O   UNL     1      -8.878  18.339  68.250  1.00  0.00    -0.274 OA 
ENDROOT
BRANCH   2   3
HETATM    3  C   UNL     1      -9.569  17.287  67.713  1.00  0.00    -0.262 A  
HETATM    4  C   UNL     1     -10.636  16.619  68.309  1.00  0.00    -0.338 A  
HETATM    5  C   UNL     1     -11.194  15.492  67.692  1.00  0.00    -0.291 A  
HETATM    6  C   UNL     1     -10.702  15.014  66.463  1.00  0.00    -0.312 A  
HETATM    7  C   UNL     1      -9.686  15.749  65.838  1.00  0.00    -0.389 A  
HETATM    8  C   UNL     1      -9.127  16.873  66.455  1.00  0.00    -0.315 A  
BRANCH   6   9
HETATM    9  C   UNL     1     -11.070  13.644  65.907  1.00  0.00    -0.284 C  
BRANCH   9  10
HETATM   10  N   UNL     1     -10.685  12.502  66.713  1.00  0.00    -0.233 NA 
BRANCH  10  11
HETATM   11  C   UNL     1      -9.416  11.969  66.556  1.00  0.00    -0.228 A  
HETATM   12  N   UNL     1      -9.251  10.909  65.744  1.00  0.00    -0.194 NA 
HETATM   13  N   UNL     1      -8.392  12.487  67.255  1.00  0.00    -0.179 NA 
HETATM   14  C   UNL     1      -8.033  10.339  65.683  1.00  0.00    -0.150 A  
HETATM   15  C   UNL     1      -6.961  10.764  66.419  1.00  0.00    -0.134 A  
HETATM   16  C   UNL     1      -7.200  11.864  67.198  1.00  0.00    -0.144 A  
ENDBRANCH  10  11
BRANCH  10  17
HETATM   17  C   UNL     1     -11.547  11.834  67.694  1.00  0.00    -0.294 C  
BRANCH  17  18
HETATM   18  C   UNL     1     -10.868  11.289  68.970  1.00  0.00    -0.222 C  
BRANCH  18  19
HETATM   19  N   UNL     1     -11.817  10.913  70.050  1.00  0.00    -0.315 NA 
HETATM   20  C   UNL     1     -12.380  12.069  70.756  1.00  0.00    -0.308 C  
HETATM   21  C   UNL     1     -11.162  10.029  71.019  1.00  0.00    -0.314 C  
ENDBRANCH  18  19
ENDBRANCH  17  18
ENDBRANCH  10  17
ENDBRANCH   9  10
ENDBRANCH   6   9
ENDBRANCH   2   3
TORSDOF 7
ENDMDL
MODEL      181
REMARK 921   NORMALIZED FREE ENERGY PREDICTED BY IDOCK:   -3.65 KCAL/MOL
REMARK 922        TOTAL FREE ENERGY PREDICTED BY IDOCK:   -5.99 KCAL/MOL
REMARK 923 INTER-LIGAND FREE ENERGY PREDICTED BY IDOCK:   -5.93 KCAL/MOL
REMARK 924 INTRA-LIGAND FREE ENERGY PREDICTED BY IDOCK:   -0.05 KCAL/MOL
REMARK 927      BINDING AFFINITY PREDICTED BY RF-SCORE:    0.00 PKD
ROOT
HETATM    1  C   UNL     1     -12.889  11.687  63.209  1.00  0.00     0.064 C  
HETATM    2  O   UNL     1     -13.068  12.743  64.142  1.00  0.00    -0.645 OA 
ENDROOT
BRANCH   2   3
HETATM    3  C   UNL     1     -11.935  13.380  64.569  1.00  0.00    -0.407 A  
HETATM    4  C   UNL     1     -10.760  12.762  64.993  1.00  0.00    -0.321 A  
HETATM    5  C   UNL     1      -9.704  13.532  65.498  1.00  0.00    -0.072 A  
HETATM    6  C   UNL     1      -9.797  14.933  65.582  1.00  0.00    -0.372 A  
HETATM    7  C   UNL     1     -10.952  15.541  65.072  1.00  0.00    -0.454 A  
HETATM    8  C   UNL     1     -12.007  14.773  64.570  1.00  0.00    -0.451 A  
BRANCH   6   9
HETATM    9  C   UNL     1      -8.813  15.776  66.384  1.00  0.00    -0.336 C  
BRANCH   9  10
HETATM   10  N   UNL     1      -9.288  16.272  67.661  1.00  0.00    -0.217 NA 
BRANCH  10  11
HETATM   11  C   UNL     1     -10.269  15.561  68.333  1.00  0.00    -0.215 A  
HETATM   12  N   UNL     1     -11.388  16.200  68.719  1.00  0.00    -0.362 NA 
HETATM   13  N   UNL     1     -10.060  14.266  68.628  1.00  0.00    -0.237 NA 
HETATM   14  C   UNL     1     -12.284  15.522  69.460  1.00  0.00    -0.236 A  
HETATM   15  C   UNL     1     -12.107  14.226  69.862  1.00  0.00    -0.404 A  
HETATM   16  C   UNL     1     -10.960  13.636  69.405  1.00  0.00    -0.069 A  
ENDBRANCH  10  11
BRANCH  10  17
HETATM   17  C   UNL     1      -8.821  17.499  68.315  1.00  0.00    -0.274 C  
BRANCH  17  18
HETATM   18  C   UNL     1      -7.416  18.012  67.925  1.00  0.00    -0.222 C  
BRANCH  18  19
HETATM   19  N   UNL     1      -6.548  18.343  69.085  1.00  0.00    -0.267 NA 
HETATM   20  C   UNL     1      -6.834  19.659  69.666  1.00  0.00    -0.273 C  
HETATM   21  C   UNL     1      -5.135  18.286  68.696  1.00  0.00    -0.165 C  
ENDBRANCH  18  19
ENDBRANCH  17  18
ENDBRANCH  10  17
ENDBRANCH   9  10
ENDBRANCH   6   9
ENDBRANCH   2   3
TORSDOF 7
ENDMDL
MODEL      182
REMARK 921   NORMALIZED FREE ENERGY PREDICTED BY IDOCK:   -3.64 KCAL/MOL
REMARK 922        TOTAL FREE ENERGY PREDICTED BY IDOCK:   -5.98 KCAL/MOL
REMARK 923 INTER-LIGAND FREE ENERGY PREDICTED BY IDOCK:   -5.65 KCAL/MOL
REMARK 924 INTRA-LIGAND FREE ENERGY PREDICTED BY IDOCK:   -0.32 KCAL/MOL
REMARK 927      BINDING AFFINITY PREDICTED BY RF-SCORE:    0.00 PKD
ROOT
HETATM    1  C   UNL     1     -10.482  18.149  65.552  1.00  0.00     0.057 C  
HETATM    2  O   UNL     1     -10.754  16.921  64.890  1.00  0.00    -0.725 OA 
ENDROOT
BRANCH   2   3
HETATM    3  C   UNL     1     -10.324  15.782  65.514  1.00  0.00    -0.404 A  
HETATM    4  C   UNL     1     -10.442  14.485  65.019  1.00  0.00    -0.454 A  
HETATM    5  C   UNL     1     -10.045  13.394  65.804  1.00  0.00    -0.297 A  
HETATM    6  C   UNL     1      -9.515  13.578  67.094  1.00  0.00    -0.244 A  
HETATM    7  C   UNL     1      -9.325  14.893  67.539  1.00  0.00    -0.193 A  
HETATM    8  C   UNL     1      -9.723  15.982  66.757  1.00  0.00    -0.253 A  
BRANCH   6   9
HETATM    9  C   UNL     1      -9.349  12.433  68.086  1.00  0.00    -0.209 C  
BRANCH   9  10
HETATM   10  N   UNL     1     -10.555  11.710  68.437  1.00  0.00    -0.202 NA 
BRANCH  10  11
HETATM   11  C   UNL     1     -10.447  10.401  68.880  1.00  0.00    -0.212 A  
HETATM   12  N   UNL     1     -10.497   9.402  67.980  1.00  0.00    -0.220 NA 
HETATM   13  N   UNL     1     -10.347  10.158  70.199  1.00  0.00    -0.263 NA 
HETATM   14  C   UNL     1     -10.494   8.137  68.436  1.00  0.00    -0.161 A  
HETATM   15  C   UNL     1     -10.468   7.810  69.765  1.00  0.00    -0.233 A  
HETATM   16  C   UNL     1     -10.388   8.880  70.616  1.00  0.00    -0.215 A  
ENDBRANCH  10  11
BRANCH  10  17
HETATM   17  C   UNL     1     -11.917  12.248  68.347  1.00  0.00    -0.210 C  
BRANCH  17  18
HETATM   18  C   UNL     1     -12.160  13.649  68.955  1.00  0.00    -0.309 C  
BRANCH  18  19
HETATM   19  N   UNL     1     -11.793  13.759  70.391  1.00  0.00    -0.287 NA 
HETATM   20  C   UNL     1     -12.841  13.276  71.296  1.00  0.00    -0.312 C  
HETATM   21  C   UNL     1     -11.468  15.148  70.729  1.00  0.00    -0.309 C  
ENDBRANCH  18  19
ENDBRANCH  17  18
ENDBRANCH  10  17
ENDBRANCH   9  10
ENDBRANCH   6   9
ENDBRANCH   2   3
TORSDOF 7
ENDMDL
MODEL      183
REMARK 921   NORMALIZED FREE ENERGY PREDICTED BY IDOCK:   -3.62 KCAL/MOL
REMARK 922        TOTAL FREE ENERGY PREDICTED BY IDOCK:   -5.95 KCAL/MOL
REMARK 923 INTER-LIGAND FREE ENERGY PREDICTED BY IDOCK:   -5.54 KCAL/MOL
REMARK 924 INTRA-LIGAND FREE ENERGY PREDICTED BY IDOCK:   -0.41 KCAL/MOL
REMARK 927      BINDING AFFINITY PREDICTED BY RF-SCORE:    0.00 PKD
ROOT
HETATM    1  C   UNL     1      -7.932   8.318  65.312  1.00  0.00    -0.128 C  
HETATM    2  O   UNL     1      -8.799   8.585  66.406  1.00  0.00    -0.133 OA 
ENDROOT
BRANCH   2   3
HETATM    3  C   UNL     1      -8.963   9.900  66.749  1.00  0.00    -0.138 A  
HETATM    4  C   UNL     1      -8.153  10.958  66.343  1.00  0.00    -0.164 A  
HETATM    5  C   UNL     1      -8.375  12.247  66.845  1.00  0.00    -0.137 A  
HETATM    6  C   UNL     1      -9.414  12.505  67.757  1.00  0.00    -0.197 A  
HETATM    7  C   UNL     1     -10.270  11.446  68.087  1.00  0.00    -0.200 A  
HETATM    8  C   UNL     1     -10.048  10.159  67.587  1.00  0.00    -0.231 A  
BRANCH   6   9
HETATM    9  C   UNL     1      -9.510  13.804  68.548  1.00  0.00    -0.162 C  
BRANCH   9  10
HETATM   10  N   UNL     1     -10.430  14.800  68.034  1.00  0.00    -0.243 NA 
BRANCH  10  11
HETATM   11  C   UNL     1     -10.985  14.614  66.778  1.00  0.00    -0.323 A  
HETATM   12  N   UNL     1     -10.338  15.099  65.702  1.00  0.00    -0.328 NA 
HETATM   13  N   UNL     1     -12.176  14.002  66.666  1.00  0.00    -0.448 NA 
HETATM   14  C   UNL     1     -10.938  15.001  64.502  1.00  0.00    -0.191 A  
HETATM   15  C   UNL     1     -12.181  14.458  64.320  1.00  0.00    -0.450 A  
HETATM   16  C   UNL     1     -12.762  13.961  65.455  1.00  0.00    -0.499 A  
ENDBRANCH  10  11
BRANCH  10  17
HETATM   17  C   UNL     1     -10.826  16.025  68.737  1.00  0.00    -0.302 C  
BRANCH  17  18
HETATM   18  C   UNL     1      -9.720  17.072  68.999  1.00  0.00    -0.216 C  
BRANCH  18  19
HETATM   19  N   UNL     1      -9.973  18.393  68.367  1.00  0.00    -0.362 NA 
HETATM   20  C   UNL     1     -10.565  18.292  67.029  1.00  0.00    -0.349 C  
HETATM   21  C   UNL     1      -8.730  19.166  68.286  1.00  0.00    -0.338 C  
ENDBRANCH  18  19
ENDBRANCH  17  18
ENDBRANCH  10  17
ENDBRANCH   9  10
ENDBRANCH   6   9
ENDBRANCH   2   3
TORSDOF 7
ENDMDL
MODEL      184
REMARK 921   NORMALIZED FREE ENERGY PREDICTED BY IDOCK:   -3.61 KCAL/MOL
REMARK 922        TOTAL FREE ENERGY PREDICTED BY IDOCK:   -5.93 KCAL/MOL
REMARK 923 INTER-LIGAND FREE ENERGY PREDICTED BY IDOCK:   -5.32 KCAL/MOL
REMARK 924 INTRA-LIGAND FREE ENERGY PREDICTED BY IDOCK:   -0.61 KCAL/MOL
REMARK 927      BINDING AFFINITY PREDICTED BY RF-SCORE:    0.00 PKD
ROOT
HETATM    1  C   UNL     1      -7.380   8.746  63.035  1.00  0.00    -0.099 C  
HETATM    2  O   UNL     1      -7.615   8.314  64.369  1.00  0.00    -0.099 OA 
ENDROOT
BRANCH   2   3
HETATM    3  C   UNL     1      -8.489   9.064  65.108  1.00  0.00    -0.167 A  
HETATM    4  C   UNL     1      -9.310   8.592  66.130  1.00  0.00    -0.291 A  
HETATM    5  C   UNL     1     -10.232   9.450  66.744  1.00  0.00    -0.320 A  
HETATM    6  C   UNL     1     -10.346  10.798  66.356  1.00  0.00    -0.306 A  
HETATM    7  C   UNL     1      -9.453  11.274  65.388  1.00  0.00    -0.251 A  
HETATM    8  C   UNL     1      -8.534  10.418  64.773  1.00  0.00    -0.176 A  
BRANCH   6   9
HETATM    9  C   UNL     1     -11.515  11.679  66.778  1.00  0.00    -0.225 C  
BRANCH   9  10
HETATM   10  N   UNL     1     -11.566  12.047  68.179  1.00  0.00    -0.322 NA 
BRANCH  10  11
HETATM   11  C   UNL     1     -10.988  13.241  68.580  1.00  0.00    -0.266 A  
HETATM   12  N   UNL     1     -11.770  14.193  69.123  1.00  0.00    -0.304 NA 
HETATM   13  N   UNL     1      -9.675  13.442  68.372  1.00  0.00    -0.220 NA 
HETATM   14  C   UNL     1     -11.213  15.383  69.411  1.00  0.00    -0.296 A  
HETATM   15  C   UNL     1      -9.902  15.687  69.160  1.00  0.00    -0.247 A  
HETATM   16  C   UNL     1      -9.166  14.659  68.635  1.00  0.00    -0.194 A  
ENDBRANCH  10  11
BRANCH  10  17
HETATM   17  C   UNL     1     -12.177  11.240  69.241  1.00  0.00    -0.222 C  
BRANCH  17  18
HETATM   18  C   UNL     1     -11.227  10.380  70.105  1.00  0.00    -0.321 C  
BRANCH  18  19
HETATM   19  N   UNL     1     -11.907   9.294  70.858  1.00  0.00    -0.288 NA 
HETATM   20  C   UNL     1     -13.262   9.652  71.293  1.00  0.00    -0.355 C  
HETATM   21  C   UNL     1     -11.112   8.910  72.028  1.00  0.00    -0.351 C  
ENDBRANCH  18  19
ENDBRANCH  17  18
ENDBRANCH  10  17
ENDBRANCH   9  10
ENDBRANCH   6   9
ENDBRANCH   2   3
TORSDOF 7
ENDMDL
MODEL      185
REMARK 921   NORMALIZED FREE ENERGY PREDICTED BY IDOCK:   -3.61 KCAL/MOL
REMARK 922        TOTAL FREE ENERGY PREDICTED BY IDOCK:   -5.93 KCAL/MOL
REMARK 923 INTER-LIGAND FREE ENERGY PREDICTED BY IDOCK:   -5.51 KCAL/MOL
REMARK 924 INTRA-LIGAND FREE ENERGY PREDICTED BY IDOCK:   -0.42 KCAL/MOL
REMARK 927      BINDING AFFINITY PREDICTED BY RF-SCORE:    0.00 PKD
ROOT
HETATM    1  C   UNL     1     -11.785  16.208  64.339  1.00  0.00    -0.059 C  
HETATM    2  O   UNL     1     -12.536  15.051  63.999  1.00  0.00    -0.817 OA 
ENDROOT
BRANCH   2   3
HETATM    3  C   UNL     1     -11.873  13.855  64.052  1.00  0.00    -0.337 A  
HETATM    4  C   UNL     1     -12.133  12.740  63.258  1.00  0.00    -0.524 A  
HETATM    5  C   UNL     1     -11.443  11.542  63.481  1.00  0.00    -0.334 A  
HETATM    6  C   UNL     1     -10.475  11.435  64.496  1.00  0.00    -0.381 A  
HETATM    7  C   UNL     1     -10.167  12.590  65.227  1.00  0.00    -0.302 A  
HETATM    8  C   UNL     1     -10.857  13.786  65.006  1.00  0.00    -0.377 A  
BRANCH   6   9
HETATM    9  C   UNL     1      -9.920  10.096  64.966  1.00  0.00    -0.305 C  
BRANCH   9  10
HETATM   10  N   UNL     1      -9.560  10.009  66.368  1.00  0.00    -0.185 NA 
BRANCH  10  11
HETATM   11  C   UNL     1      -8.326  10.491  66.774  1.00  0.00    -0.128 A  
HETATM   12  N   UNL     1      -8.223  11.087  67.976  1.00  0.00    -0.119 NA 
HETATM   13  N   UNL     1      -7.275  10.399  65.941  1.00  0.00    -0.131 NA 
HETATM   14  C   UNL     1      -7.044  11.640  68.312  1.00  0.00    -0.078 A  
HETATM   15  C   UNL     1      -5.951  11.651  67.488  1.00  0.00    -0.079 A  
HETATM   16  C   UNL     1      -6.125  11.000  66.296  1.00  0.00    -0.136 A  
ENDBRANCH  10  11
BRANCH  10  17
HETATM   17  C   UNL     1     -10.402   9.428  67.419  1.00  0.00    -0.263 C  
BRANCH  17  18
HETATM   18  C   UNL     1     -10.172   7.938  67.760  1.00  0.00    -0.216 C  
BRANCH  18  19
HETATM   19  N   UNL     1     -10.484   7.582  69.169  1.00  0.00    -0.216 NA 
HETATM   20  C   UNL     1      -9.289   7.424  70.005  1.00  0.00    -0.151 C  
HETATM   21  C   UNL     1     -11.272   6.347  69.219  1.00  0.00    -0.375 C  
ENDBRANCH  18  19
ENDBRANCH  17  18
ENDBRANCH  10  17
ENDBRANCH   9  10
ENDBRANCH   6   9
ENDBRANCH   2   3
TORSDOF 7
ENDMDL
MODEL      186
REMARK 921   NORMALIZED FREE ENERGY PREDICTED BY IDOCK:   -3.57 KCAL/MOL
REMARK 922        TOTAL FREE ENERGY PREDICTED BY IDOCK:   -5.87 KCAL/MOL
REMARK 923 INTER-LIGAND FREE ENERGY PREDICTED BY IDOCK:   -5.60 KCAL/MOL
REMARK 924 INTRA-LIGAND FREE ENERGY PREDICTED BY IDOCK:   -0.27 KCAL/MOL
REMARK 927      BINDING AFFINITY PREDICTED BY RF-SCORE:    0.00 PKD
ROOT
HETATM    1  C   UNL     1     -13.979   8.914  72.341  1.00  0.00    -0.448 C  
HETATM    2  O   UNL     1     -12.567   8.767  72.400  1.00  0.00    -0.385 OA 
ENDROOT
BRANCH   2   3
HETATM    3  C   UNL     1     -11.860   9.217  71.318  1.00  0.00    -0.343 A  
HETATM    4  C   UNL     1     -10.702   8.642  70.801  1.00  0.00    -0.260 A  
HETATM    5  C   UNL     1     -10.020   9.261  69.745  1.00  0.00    -0.213 A  
HETATM    6  C   UNL     1     -10.487  10.461  69.179  1.00  0.00    -0.248 A  
HETATM    7  C   UNL     1     -11.699  10.977  69.655  1.00  0.00    -0.401 A  
HETATM    8  C   UNL     1     -12.379  10.362  70.711  1.00  0.00    -0.463 A  
BRANCH   6   9
HETATM    9  C   UNL     1      -9.638  11.316  68.246  1.00  0.00    -0.193 C  
BRANCH   9  10
HETATM   10  N   UNL     1      -9.330  10.738  66.952  1.00  0.00    -0.159 NA 
BRANCH  10  11
HETATM   11  C   UNL     1      -8.745   9.483  66.901  1.00  0.00    -0.128 A  
HETATM   12  N   UNL     1      -9.414   8.477  66.308  1.00  0.00    -0.224 NA 
HETATM   13  N   UNL     1      -7.551   9.287  67.487  1.00  0.00    -0.088 NA 
HETATM   14  C   UNL     1      -8.879   7.243  66.358  1.00  0.00    -0.149 A  
HETATM   15  C   UNL     1      -7.705   6.952  66.999  1.00  0.00    -0.103 A  
HETATM   16  C   UNL     1      -7.070   8.032  67.551  1.00  0.00    -0.080 A  
ENDBRANCH  10  11
BRANCH  10  17
HETATM   17  C   UNL     1      -9.575  11.387  65.660  1.00  0.00    -0.231 C  
BRANCH  17  18
HETATM   18  C   UNL     1     -10.946  12.074  65.467  1.00  0.00    -0.298 C  
BRANCH  18  19
HETATM   19  N   UNL     1     -10.911  13.254  64.563  1.00  0.00    -0.362 NA 
HETATM   20  C   UNL     1     -11.256  14.510  65.237  1.00  0.00    -0.352 C  
HETATM   21  C   UNL     1     -11.818  13.053  63.429  1.00  0.00    -0.476 C  
ENDBRANCH  18  19
ENDBRANCH  17  18
ENDBRANCH  10  17
ENDBRANCH   9  10
ENDBRANCH   6   9
ENDBRANCH   2   3
TORSDOF 7
ENDMDL
MODEL      187
REMARK 921   NORMALIZED FREE ENERGY PREDICTED BY IDOCK:   -3.55 KCAL/MOL
REMARK 922        TOTAL FREE ENERGY PREDICTED BY IDOCK:   -5.85 KCAL/MOL
REMARK 923 INTER-LIGAND FREE ENERGY PREDICTED BY IDOCK:   -5.15 KCAL/MOL
REMARK 924 INTRA-LIGAND FREE ENERGY PREDICTED BY IDOCK:   -0.70 KCAL/MOL
REMARK 927      BINDING AFFINITY PREDICTED BY RF-SCORE:    0.00 PKD
ROOT
HETATM    1  C   UNL     1      -5.894  10.683  67.076  1.00  0.00    -0.054 C  
HETATM    2  O   UNL     1      -7.005  11.461  66.650  1.00  0.00    -0.138 OA 
ENDROOT
BRANCH   2   3
HETATM    3  C   UNL     1      -7.286  12.579  67.387  1.00  0.00    -0.147 A  
HETATM    4  C   UNL     1      -8.541  12.946  67.869  1.00  0.00    -0.185 A  
HETATM    5  C   UNL     1      -8.710  14.169  68.530  1.00  0.00    -0.166 A  
HETATM    6  C   UNL     1      -7.629  15.047  68.729  1.00  0.00    -0.137 A  
HETATM    7  C   UNL     1      -6.360  14.622  68.313  1.00  0.00    -0.124 A  
HETATM    8  C   UNL     1      -6.191  13.402  67.651  1.00  0.00    -0.145 A  
BRANCH   6   9
HETATM    9  C   UNL     1      -7.814  16.494  69.170  1.00  0.00    -0.192 C  
BRANCH   9  10
HETATM   10  N   UNL     1      -8.030  17.462  68.112  1.00  0.00    -0.224 NA 
BRANCH  10  11
HETATM   11  C   UNL     1      -7.222  18.586  68.058  1.00  0.00    -0.245 A  
HETATM   12  N   UNL     1      -6.861  19.185  69.208  1.00  0.00    -0.314 NA 
HETATM   13  N   UNL     1      -6.862  19.083  66.862  1.00  0.00    -0.198 NA 
HETATM   14  C   UNL     1      -6.164  20.333  69.135  1.00  0.00    -0.327 A  
HETATM   15  C   UNL     1      -5.823  20.938  67.955  1.00  0.00    -0.375 A  
HETATM   16  C   UNL     1      -6.200  20.254  66.831  1.00  0.00    -0.187 A  
ENDBRANCH  10  11
BRANCH  10  17
HETATM   17  C   UNL     1      -9.064  17.362  67.077  1.00  0.00    -0.242 C  
BRANCH  17  18
HETATM   18  C   UNL     1     -10.512  17.708  67.493  1.00  0.00    -0.365 C  
BRANCH  18  19
HETATM   19  N   UNL     1     -10.883  19.130  67.274  1.00  0.00    -0.480 NA 
HETATM   20  C   UNL     1     -10.370  19.675  66.012  1.00  0.00    -0.523 C  
HETATM   21  C   UNL     1     -10.405  19.959  68.385  1.00  0.00    -0.378 C  
ENDBRANCH  18  19
ENDBRANCH  17  18
ENDBRANCH  10  17
ENDBRANCH   9  10
ENDBRANCH   6   9
ENDBRANCH   2   3
TORSDOF 7
ENDMDL
MODEL      188
REMARK 921   NORMALIZED FREE ENERGY PREDICTED BY IDOCK:   -3.55 KCAL/MOL
REMARK 922        TOTAL FREE ENERGY PREDICTED BY IDOCK:   -5.84 KCAL/MOL
REMARK 923 INTER-LIGAND FREE ENERGY PREDICTED BY IDOCK:   -5.30 KCAL/MOL
REMARK 924 INTRA-LIGAND FREE ENERGY PREDICTED BY IDOCK:   -0.54 KCAL/MOL
REMARK 927      BINDING AFFINITY PREDICTED BY RF-SCORE:    0.00 PKD
ROOT
HETATM    1  C   UNL     1      -5.482  13.231  68.904  1.00  0.00    -0.073 C  
HETATM    2  O   UNL     1      -6.138  13.149  67.646  1.00  0.00    -0.145 OA 
ENDROOT
BRANCH   2   3
HETATM    3  C   UNL     1      -7.469  13.467  67.628  1.00  0.00    -0.181 A  
HETATM    4  C   UNL     1      -8.015  14.711  67.938  1.00  0.00    -0.149 A  
HETATM    5  C   UNL     1      -9.406  14.877  67.974  1.00  0.00    -0.193 A  
HETATM    6  C   UNL     1     -10.277  13.809  67.696  1.00  0.00    -0.242 A  
HETATM    7  C   UNL     1      -9.708  12.590  67.303  1.00  0.00    -0.202 A  
HETATM    8  C   UNL     1      -8.320  12.422  67.268  1.00  0.00    -0.184 A  
BRANCH   6   9
HETATM    9  C   UNL     1     -11.768  13.860  68.007  1.00  0.00    -0.352 C  
BRANCH   9  10
HETATM   10  N   UNL     1     -12.181  13.257  69.259  1.00  0.00    -0.223 NA 
BRANCH  10  11
HETATM   11  C   UNL     1     -12.387  14.073  70.360  1.00  0.00    -0.359 A  
HETATM   12  N   UNL     1     -11.526  15.081  70.594  1.00  0.00    -0.285 NA 
HETATM   13  N   UNL     1     -13.409  13.811  71.193  1.00  0.00    -0.208 NA 
HETATM   14  C   UNL     1     -11.681  15.799  71.721  1.00  0.00    -0.478 A  
HETATM   15  C   UNL     1     -12.650  15.545  72.653  1.00  0.00    -0.504 A  
HETATM   16  C   UNL     1     -13.504  14.526  72.330  1.00  0.00    -0.422 A  
ENDBRANCH  10  11
BRANCH  10  17
HETATM   17  C   UNL     1     -12.391  11.821  69.475  1.00  0.00    -0.058 C  
BRANCH  17  18
HETATM   18  C   UNL     1     -11.308  11.066  70.278  1.00  0.00    -0.203 C  
BRANCH  18  19
HETATM   19  N   UNL     1     -11.516   9.596  70.343  1.00  0.00    -0.265 NA 
HETATM   20  C   UNL     1     -11.373   9.050  71.697  1.00  0.00    -0.360 C  
HETATM   21  C   UNL     1     -10.581   8.909  69.447  1.00  0.00    -0.217 C  
ENDBRANCH  18  19
ENDBRANCH  17  18
ENDBRANCH  10  17
ENDBRANCH   9  10
ENDBRANCH   6   9
ENDBRANCH   2   3
TORSDOF 7
ENDMDL
MODEL      189
REMARK 921   NORMALIZED FREE ENERGY PREDICTED BY IDOCK:   -3.49 KCAL/MOL
REMARK 922        TOTAL FREE ENERGY PREDICTED BY IDOCK:   -5.76 KCAL/MOL
REMARK 923 INTER-LIGAND FREE ENERGY PREDICTED BY IDOCK:   -5.18 KCAL/MOL
REMARK 924 INTRA-LIGAND FREE ENERGY PREDICTED BY IDOCK:   -0.57 KCAL/MOL
REMARK 927      BINDING AFFINITY PREDICTED BY RF-SCORE:    0.00 PKD
ROOT
HETATM    1  C   UNL     1     -11.593   5.832  72.492  1.00  0.00    -0.267 C  
HETATM    2  O   UNL     1     -11.467   7.226  72.246  1.00  0.00    -0.261 OA 
ENDROOT
BRANCH   2   3
HETATM    3  C   UNL     1     -11.212   7.597  70.953  1.00  0.00    -0.268 A  
HETATM    4  C   UNL     1     -11.147   6.743  69.855  1.00  0.00    -0.374 A  
HETATM    5  C   UNL     1     -10.782   7.241  68.598  1.00  0.00    -0.172 A  
HETATM    6  C   UNL     1     -10.482   8.602  68.411  1.00  0.00    -0.220 A  
HETATM    7  C   UNL     1     -10.637   9.459  69.508  1.00  0.00    -0.237 A  
HETATM    8  C   UNL     1     -10.999   8.963  70.764  1.00  0.00    -0.305 A  
BRANCH   6   9
HETATM    9  C   UNL     1      -9.803   9.130  67.153  1.00  0.00    -0.195 C  
BRANCH   9  10
HETATM   10  N   UNL     1      -9.765  10.571  67.003  1.00  0.00    -0.173 NA 
BRANCH  10  11
HETATM   11  C   UNL     1      -8.566  11.235  67.211  1.00  0.00    -0.143 A  
HETATM   12  N   UNL     1      -7.497  10.897  66.466  1.00  0.00    -0.138 NA 
HETATM   13  N   UNL     1      -8.484  12.161  68.182  1.00  0.00    -0.170 NA 
HETATM   14  C   UNL     1      -6.317  11.477  66.750  1.00  0.00    -0.134 A  
HETATM   15  C   UNL     1      -6.139  12.373  67.770  1.00  0.00    -0.111 A  
HETATM   16  C   UNL     1      -7.278  12.687  68.461  1.00  0.00    -0.113 A  
ENDBRANCH  10  11
BRANCH  10  17
HETATM   17  C   UNL     1     -10.915  11.414  66.658  1.00  0.00    -0.285 C  
BRANCH  17  18
HETATM   18  C   UNL     1     -10.771  12.325  65.417  1.00  0.00    -0.284 C  
BRANCH  18  19
HETATM   19  N   UNL     1     -11.108  11.658  64.132  1.00  0.00    -0.361 NA 
HETATM   20  C   UNL     1      -9.967  11.554  63.217  1.00  0.00    -0.409 C  
HETATM   21  C   UNL     1     -12.200  12.370  63.461  1.00  0.00    -0.563 C  
ENDBRANCH  18  19
ENDBRANCH  17  18
ENDBRANCH  10  17
ENDBRANCH   9  10
ENDBRANCH   6   9
ENDBRANCH   2   3
TORSDOF 7
ENDMDL
MODEL      190
REMARK 921   NORMALIZED FREE ENERGY PREDICTED BY IDOCK:   -3.48 KCAL/MOL
REMARK 922        TOTAL FREE ENERGY PREDICTED BY IDOCK:   -5.75 KCAL/MOL
REMARK 923 INTER-LIGAND FREE ENERGY PREDICTED BY IDOCK:   -5.02 KCAL/MOL
REMARK 924 INTRA-LIGAND FREE ENERGY PREDICTED BY IDOCK:   -0.74 KCAL/MOL
REMARK 927      BINDING AFFINITY PREDICTED BY RF-SCORE:    0.00 PKD
ROOT
HETATM    1  C   UNL     1     -10.355  16.622  66.273  1.00  0.00    -0.317 C  
HETATM    2  O   UNL     1     -10.993  15.551  65.592  1.00  0.00    -0.333 OA 
ENDROOT
BRANCH   2   3
HETATM    3  C   UNL     1     -10.902  14.316  66.175  1.00  0.00    -0.310 A  
HETATM    4  C   UNL     1     -10.129  13.251  65.718  1.00  0.00    -0.293 A  
HETATM    5  C   UNL     1     -10.201  12.006  66.356  1.00  0.00    -0.243 A  
HETATM    6  C   UNL     1     -11.040  11.801  67.466  1.00  0.00    -0.330 A  
HETATM    7  C   UNL     1     -11.744  12.906  67.962  1.00  0.00    -0.401 A  
HETATM    8  C   UNL     1     -11.674  14.149  67.326  1.00  0.00    -0.421 A  
BRANCH   6   9
HETATM    9  C   UNL     1     -11.373  10.414  68.001  1.00  0.00    -0.204 C  
BRANCH   9  10
HETATM   10  N   UNL     1     -10.279   9.683  68.609  1.00  0.00    -0.182 NA 
BRANCH  10  11
HETATM   11  C   UNL     1      -9.765   8.577  67.950  1.00  0.00    -0.162 A  
HETATM   12  N   UNL     1     -10.577   7.535  67.695  1.00  0.00    -0.243 NA 
HETATM   13  N   UNL     1      -8.460   8.549  67.628  1.00  0.00    -0.128 NA 
HETATM   14  C   UNL     1     -10.040   6.430  67.148  1.00  0.00    -0.168 A  
HETATM   15  C   UNL     1      -8.708   6.298  66.860  1.00  0.00    -0.113 A  
HETATM   16  C   UNL     1      -7.953   7.410  67.121  1.00  0.00    -0.114 A  
ENDBRANCH  10  11
BRANCH  10  17
HETATM   17  C   UNL     1      -9.661  10.008  69.899  1.00  0.00    -0.203 C  
BRANCH  17  18
HETATM   18  C   UNL     1      -9.836   8.980  71.040  1.00  0.00    -0.282 C  
BRANCH  18  19
HETATM   19  N   UNL     1      -8.607   8.753  71.845  1.00  0.00    -0.348 NA 
HETATM   20  C   UNL     1      -7.371   8.922  71.076  1.00  0.00    -0.106 C  
HETATM   21  C   UNL     1      -8.627   7.412  72.437  1.00  0.00    -0.116 C  
ENDBRANCH  18  19
ENDBRANCH  17  18
ENDBRANCH  10  17
ENDBRANCH   9  10
ENDBRANCH   6   9
ENDBRANCH   2   3
TORSDOF 7
ENDMDL
MODEL      191
REMARK 921   NORMALIZED FREE ENERGY PREDICTED BY IDOCK:   -3.47 KCAL/MOL
REMARK 922        TOTAL FREE ENERGY PREDICTED BY IDOCK:   -5.74 KCAL/MOL
REMARK 923 INTER-LIGAND FREE ENERGY PREDICTED BY IDOCK:   -5.31 KCAL/MOL
REMARK 924 INTRA-LIGAND FREE ENERGY PREDICTED BY IDOCK:   -0.43 KCAL/MOL
REMARK 927      BINDING AFFINITY PREDICTED BY RF-SCORE:    0.00 PKD
ROOT
HETATM    1  C   UNL     1     -11.223  16.273  70.316  1.00  0.00    -0.333 C  
HETATM    2  O   UNL     1     -11.566  16.335  68.939  1.00  0.00    -0.330 OA 
ENDROOT
BRANCH   2   3
HETATM    3  C   UNL     1     -11.367  15.196  68.207  1.00  0.00    -0.327 A  
HETATM    4  C   UNL     1     -10.657  15.106  67.012  1.00  0.00    -0.300 A  
HETATM    5  C   UNL     1     -10.610  13.893  66.312  1.00  0.00    -0.289 A  
HETATM    6  C   UNL     1     -11.263  12.746  66.795  1.00  0.00    -0.338 A  
HETATM    7  C   UNL     1     -11.899  12.834  68.041  1.00  0.00    -0.386 A  
HETATM    8  C   UNL     1     -11.949  14.045  68.739  1.00  0.00    -0.382 A  
BRANCH   6   9
HETATM    9  C   UNL     1     -11.488  11.505  65.940  1.00  0.00    -0.014 C  
BRANCH   9  10
HETATM   10  N   UNL     1     -10.450  10.494  65.993  1.00  0.00    -0.197 NA 
BRANCH  10  11
HETATM   11  C   UNL     1      -9.497  10.458  64.988  1.00  0.00    -0.253 A  
HETATM   12  N   UNL     1      -9.889  10.635  63.713  1.00  0.00    -0.320 NA 
HETATM   13  N   UNL     1      -8.217  10.197  65.302  1.00  0.00    -0.151 NA 
HETATM   14  C   UNL     1      -8.970  10.495  62.741  1.00  0.00    -0.267 A  
HETATM   15  C   UNL     1      -7.664  10.158  62.976  1.00  0.00    -0.149 A  
HETATM   16  C   UNL     1      -7.337  10.025  64.299  1.00  0.00    -0.133 A  
ENDBRANCH  10  11
BRANCH  10  17
HETATM   17  C   UNL     1     -10.324   9.470  67.036  1.00  0.00    -0.250 C  
BRANCH  17  18
HETATM   18  C   UNL     1     -10.188   9.965  68.494  1.00  0.00    -0.177 C  
BRANCH  18  19
HETATM   19  N   UNL     1     -10.549   8.949  69.517  1.00  0.00    -0.232 NA 
HETATM   20  C   UNL     1      -9.909   9.181  70.816  1.00  0.00    -0.270 C  
HETATM   21  C   UNL     1     -10.204   7.605  69.043  1.00  0.00    -0.206 C  
ENDBRANCH  18  19
ENDBRANCH  17  18
ENDBRANCH  10  17
ENDBRANCH   9  10
ENDBRANCH   6   9
ENDBRANCH   2   3
TORSDOF 7
ENDMDL
MODEL      192
REMARK 921   NORMALIZED FREE ENERGY PREDICTED BY IDOCK:   -3.46 KCAL/MOL
REMARK 922        TOTAL FREE ENERGY PREDICTED BY IDOCK:   -5.72 KCAL/MOL
REMARK 923 INTER-LIGAND FREE ENERGY PREDICTED BY IDOCK:   -4.96 KCAL/MOL
REMARK 924 INTRA-LIGAND FREE ENERGY PREDICTED BY IDOCK:   -0.76 KCAL/MOL
REMARK 927      BINDING AFFINITY PREDICTED BY RF-SCORE:    0.00 PKD
ROOT
HETATM    1  C   UNL     1     -11.642  15.485  68.423  1.00  0.00    -0.357 C  
HETATM    2  O   UNL     1     -11.381  14.793  67.210  1.00  0.00    -0.335 OA 
ENDROOT
BRANCH   2   3
HETATM    3  C   UNL     1     -10.843  13.540  67.325  1.00  0.00    -0.276 A  
HETATM    4  C   UNL     1      -9.523  13.245  67.660  1.00  0.00    -0.211 A  
HETATM    5  C   UNL     1      -9.074  11.918  67.649  1.00  0.00    -0.179 A  
HETATM    6  C   UNL     1      -9.937  10.859  67.313  1.00  0.00    -0.216 A  
HETATM    7  C   UNL     1     -11.280  11.167  67.063  1.00  0.00    -0.291 A  
HETATM    8  C   UNL     1     -11.728  12.492  67.072  1.00  0.00    -0.437 A  
BRANCH   6   9
HETATM    9  C   UNL     1      -9.433   9.455  67.002  1.00  0.00    -0.155 C  
BRANCH   9  10
HETATM   10  N   UNL     1     -10.050   8.374  67.746  1.00  0.00    -0.194 NA 
BRANCH  10  11
HETATM   11  C   UNL     1      -9.980   8.389  69.130  1.00  0.00    -0.196 A  
HETATM   12  N   UNL     1     -11.106   8.603  69.837  1.00  0.00    -0.175 NA 
HETATM   13  N   UNL     1      -8.788   8.242  69.733  1.00  0.00    -0.141 NA 
HETATM   14  C   UNL     1     -11.004   8.717  71.173  1.00  0.00    -0.268 A  
HETATM   15  C   UNL     1      -9.817   8.652  71.851  1.00  0.00    -0.384 A  
HETATM   16  C   UNL     1      -8.723   8.403  71.067  1.00  0.00    -0.156 A  
ENDBRANCH  10  11
BRANCH  10  17
HETATM   17  C   UNL     1     -10.746   7.230  67.150  1.00  0.00    -0.343 C  
BRANCH  17  18
HETATM   18  C   UNL     1     -10.635   5.877  67.889  1.00  0.00    -0.251 C  
BRANCH  18  19
HETATM   19  N   UNL     1      -9.562   4.988  67.371  1.00  0.00    -0.137 NA 
HETATM   20  C   UNL     1      -8.344   5.013  68.187  1.00  0.00    -0.096 C  
HETATM   21  C   UNL     1      -9.223   5.350  65.991  1.00  0.00    -0.158 C  
ENDBRANCH  18  19
ENDBRANCH  17  18
ENDBRANCH  10  17
ENDBRANCH   9  10
ENDBRANCH   6   9
ENDBRANCH   2   3
TORSDOF 7
ENDMDL
MODEL      193
REMARK 921   NORMALIZED FREE ENERGY PREDICTED BY IDOCK:   -3.46 KCAL/MOL
REMARK 922        TOTAL FREE ENERGY PREDICTED BY IDOCK:   -5.71 KCAL/MOL
REMARK 923 INTER-LIGAND FREE ENERGY PREDICTED BY IDOCK:   -4.99 KCAL/MOL
REMARK 924 INTRA-LIGAND FREE ENERGY PREDICTED BY IDOCK:   -0.73 KCAL/MOL
REMARK 927      BINDING AFFINITY PREDICTED BY RF-SCORE:    0.00 PKD
ROOT
HETATM    1  C   UNL     1     -13.028  12.746  64.844  1.00  0.00    -0.104 C  
HETATM    2  O   UNL     1     -11.625  12.698  65.068  1.00  0.00    -0.319 OA 
ENDROOT
BRANCH   2   3
HETATM    3  C   UNL     1     -11.072  13.772  65.709  1.00  0.00    -0.289 A  
HETATM    4  C   UNL     1     -10.981  13.943  67.088  1.00  0.00    -0.298 A  
HETATM    5  C   UNL     1     -10.476  15.139  67.617  1.00  0.00    -0.253 A  
HETATM    6  C   UNL     1     -10.045  16.183  66.779  1.00  0.00    -0.275 A  
HETATM    7  C   UNL     1     -10.064  15.958  65.396  1.00  0.00    -0.296 A  
HETATM    8  C   UNL     1     -10.570  14.766  64.867  1.00  0.00    -0.431 A  
BRANCH   6   9
HETATM    9  C   UNL     1      -9.771  17.591  67.293  1.00  0.00    -0.276 C  
BRANCH   9  10
HETATM   10  N   UNL     1      -8.402  17.878  67.675  1.00  0.00    -0.231 NA 
BRANCH  10  11
HETATM   11  C   UNL     1      -7.645  18.716  66.872  1.00  0.00    -0.221 A  
HETATM   12  N   UNL     1      -7.513  20.009  67.223  1.00  0.00    -0.264 NA 
HETATM   13  N   UNL     1      -7.103  18.234  65.740  1.00  0.00    -0.477 NA 
HETATM   14  C   UNL     1      -6.861  20.831  66.381  1.00  0.00    -0.210 A  
HETATM   15  C   UNL     1      -6.347  20.431  65.177  1.00  0.00    -0.316 A  
HETATM   16  C   UNL     1      -6.495  19.097  64.906  1.00  0.00    -0.134 A  
ENDBRANCH  10  11
BRANCH  10  17
HETATM   17  C   UNL     1      -7.725  17.334  68.857  1.00  0.00    -0.221 C  
BRANCH  17  18
HETATM   18  C   UNL     1      -6.429  16.527  68.615  1.00  0.00    -0.142 C  
BRANCH  18  19
HETATM   19  N   UNL     1      -6.655  15.083  68.346  1.00  0.00    -0.096 NA 
HETATM   20  C   UNL     1      -7.495  14.430  69.355  1.00  0.00    -0.022 C  
HETATM   21  C   UNL     1      -5.374  14.376  68.257  1.00  0.00    -0.114 C  
ENDBRANCH  18  19
ENDBRANCH  17  18
ENDBRANCH  10  17
ENDBRANCH   9  10
ENDBRANCH   6   9
ENDBRANCH   2   3
TORSDOF 7
ENDMDL
MODEL      194
REMARK 921   NORMALIZED FREE ENERGY PREDICTED BY IDOCK:   -3.46 KCAL/MOL
REMARK 922        TOTAL FREE ENERGY PREDICTED BY IDOCK:   -5.71 KCAL/MOL
REMARK 923 INTER-LIGAND FREE ENERGY PREDICTED BY IDOCK:   -4.97 KCAL/MOL
REMARK 924 INTRA-LIGAND FREE ENERGY PREDICTED BY IDOCK:   -0.74 KCAL/MOL
REMARK 927      BINDING AFFINITY PREDICTED BY RF-SCORE:    0.00 PKD
ROOT
HETATM    1  C   UNL     1     -11.052  16.114  70.077  1.00  0.00    -0.363 C  
HETATM    2  O   UNL     1     -11.222  15.667  68.739  1.00  0.00    -0.289 OA 
ENDROOT
BRANCH   2   3
HETATM    3  C   UNL     1     -10.994  14.338  68.505  1.00  0.00    -0.252 A  
HETATM    4  C   UNL     1      -9.990  13.812  67.695  1.00  0.00    -0.238 A  
HETATM    5  C   UNL     1      -9.925  12.431  67.464  1.00  0.00    -0.196 A  
HETATM    6  C   UNL     1     -10.856  11.550  68.041  1.00  0.00    -0.259 A  
HETATM    7  C   UNL     1     -11.805  12.089  68.920  1.00  0.00    -0.356 A  
HETATM    8  C   UNL     1     -11.872  13.466  69.150  1.00  0.00    -0.383 A  
BRANCH   6   9
HETATM    9  C   UNL     1     -11.007  10.102  67.591  1.00  0.00    -0.268 C  
BRANCH   9  10
HETATM   10  N   UNL     1     -10.260   9.115  68.346  1.00  0.00    -0.194 NA 
BRANCH  10  11
HETATM   11  C   UNL     1      -9.054   8.657  67.840  1.00  0.00    -0.140 A  
HETATM   12  N   UNL     1      -7.917   9.279  68.203  1.00  0.00    -0.099 NA 
HETATM   13  N   UNL     1      -9.052   7.638  66.963  1.00  0.00    -0.130 NA 
HETATM   14  C   UNL     1      -6.768   8.888  67.624  1.00  0.00    -0.066 A  
HETATM   15  C   UNL     1      -6.695   7.909  66.669  1.00  0.00    -0.063 A  
HETATM   16  C   UNL     1      -7.888   7.305  66.376  1.00  0.00    -0.106 A  
ENDBRANCH  10  11
BRANCH  10  17
HETATM   17  C   UNL     1     -10.685   8.534  69.624  1.00  0.00    -0.197 C  
BRANCH  17  18
HETATM   18  C   UNL     1     -10.308   9.307  70.908  1.00  0.00    -0.296 C  
BRANCH  18  19
HETATM   19  N   UNL     1     -11.187   9.018  72.071  1.00  0.00    -0.356 NA 
HETATM   20  C   UNL     1     -10.794   7.812  72.808  1.00  0.00    -0.379 C  
HETATM   21  C   UNL     1     -12.580   8.882  71.635  1.00  0.00    -0.346 C  
ENDBRANCH  18  19
ENDBRANCH  17  18
ENDBRANCH  10  17
ENDBRANCH   9  10
ENDBRANCH   6   9
ENDBRANCH   2   3
TORSDOF 7
ENDMDL
MODEL      195
REMARK 921   NORMALIZED FREE ENERGY PREDICTED BY IDOCK:   -3.45 KCAL/MOL
REMARK 922        TOTAL FREE ENERGY PREDICTED BY IDOCK:   -5.71 KCAL/MOL
REMARK 923 INTER-LIGAND FREE ENERGY PREDICTED BY IDOCK:   -5.01 KCAL/MOL
REMARK 924 INTRA-LIGAND FREE ENERGY PREDICTED BY IDOCK:   -0.70 KCAL/MOL
REMARK 927      BINDING AFFINITY PREDICTED BY RF-SCORE:    0.00 PKD
ROOT
HETATM    1  C   UNL     1      -6.221   8.986  70.625  1.00  0.00    -0.043 C  
HETATM    2  O   UNL     1      -6.384  10.353  70.975  1.00  0.00    -0.331 OA 
ENDROOT
BRANCH   2   3
HETATM    3  C   UNL     1      -6.686  11.213  69.954  1.00  0.00    -0.097 A  
HETATM    4  C   UNL     1      -6.033  12.412  69.676  1.00  0.00    -0.124 A  
HETATM    5  C   UNL     1      -6.505  13.249  68.656  1.00  0.00    -0.087 A  
HETATM    6  C   UNL     1      -7.632  12.902  67.890  1.00  0.00    -0.138 A  
HETATM    7  C   UNL     1      -8.222  11.654  68.127  1.00  0.00    -0.151 A  
HETATM    8  C   UNL     1      -7.753  10.818  69.146  1.00  0.00    -0.138 A  
BRANCH   6   9
HETATM    9  C   UNL     1      -8.350  13.896  66.985  1.00  0.00    -0.092 C  
BRANCH   9  10
HETATM   10  N   UNL     1      -9.776  14.046  67.204  1.00  0.00    -0.236 NA 
BRANCH  10  11
HETATM   11  C   UNL     1     -10.655  13.566  66.247  1.00  0.00    -0.288 A  
HETATM   12  N   UNL     1     -11.915  14.037  66.225  1.00  0.00    -0.411 NA 
HETATM   13  N   UNL     1     -10.247  12.606  65.399  1.00  0.00    -0.284 NA 
HETATM   14  C   UNL     1     -12.784  13.487  65.358  1.00  0.00    -0.442 A  
HETATM   15  C   UNL     1     -12.463  12.458  64.515  1.00  0.00    -0.519 A  
HETATM   16  C   UNL     1     -11.156  12.054  64.576  1.00  0.00    -0.331 A  
ENDBRANCH  10  11
BRANCH  10  17
HETATM   17  C   UNL     1     -10.385  14.692  68.372  1.00  0.00    -0.237 C  
BRANCH  17  18
HETATM   18  C   UNL     1      -9.824  16.071  68.785  1.00  0.00    -0.223 C  
BRANCH  18  19
HETATM   19  N   UNL     1     -10.243  17.188  67.898  1.00  0.00    -0.314 NA 
HETATM   20  C   UNL     1      -9.327  17.409  66.774  1.00  0.00    -0.268 C  
HETATM   21  C   UNL     1     -10.370  18.430  68.667  1.00  0.00    -0.254 C  
ENDBRANCH  18  19
ENDBRANCH  17  18
ENDBRANCH  10  17
ENDBRANCH   9  10
ENDBRANCH   6   9
ENDBRANCH   2   3
TORSDOF 7
ENDMDL
MODEL      196
REMARK 921   NORMALIZED FREE ENERGY PREDICTED BY IDOCK:   -3.45 KCAL/MOL
REMARK 922        TOTAL FREE ENERGY PREDICTED BY IDOCK:   -5.70 KCAL/MOL
REMARK 923 INTER-LIGAND FREE ENERGY PREDICTED BY IDOCK:   -4.78 KCAL/MOL
REMARK 924 INTRA-LIGAND FREE ENERGY PREDICTED BY IDOCK:   -0.93 KCAL/MOL
REMARK 927      BINDING AFFINITY PREDICTED BY RF-SCORE:    0.00 PKD
ROOT
HETATM    1  C   UNL     1     -12.205  13.880  66.476  1.00  0.00    -0.442 C  
HETATM    2  O   UNL     1     -12.161  13.727  67.888  1.00  0.00    -0.365 OA 
ENDROOT
BRANCH   2   3
HETATM    3  C   UNL     1     -11.538  12.604  68.362  1.00  0.00    -0.328 A  
HETATM    4  C   UNL     1     -12.064  11.709  69.291  1.00  0.00    -0.323 A  
HETATM    5  C   UNL     1     -11.282  10.648  69.766  1.00  0.00    -0.363 A  
HETATM    6  C   UNL     1      -9.962  10.456  69.317  1.00  0.00    -0.246 A  
HETATM    7  C   UNL     1      -9.482  11.316  68.320  1.00  0.00    -0.190 A  
HETATM    8  C   UNL     1     -10.262  12.376  67.847  1.00  0.00    -0.213 A  
BRANCH   6   9
HETATM    9  C   UNL     1      -8.986   9.513  70.010  1.00  0.00    -0.223 C  
BRANCH   9  10
HETATM   10  N   UNL     1      -8.894   8.174  69.465  1.00  0.00    -0.142 NA 
BRANCH  10  11
HETATM   11  C   UNL     1      -9.451   7.121  70.174  1.00  0.00    -0.161 A  
HETATM   12  N   UNL     1     -10.775   7.127  70.414  1.00  0.00    -0.228 NA 
HETATM   13  N   UNL     1      -8.652   6.150  70.648  1.00  0.00    -0.133 NA 
HETATM   14  C   UNL     1     -11.283   6.153  71.191  1.00  0.00    -0.292 A  
HETATM   15  C   UNL     1     -10.523   5.172  71.770  1.00  0.00    -0.268 A  
HETATM   16  C   UNL     1      -9.192   5.217  71.455  1.00  0.00    -0.146 A  
ENDBRANCH  10  11
BRANCH  10  17
HETATM   17  C   UNL     1      -8.234   7.821  68.203  1.00  0.00    -0.124 C  
BRANCH  17  18
HETATM   18  C   UNL     1      -9.148   7.482  67.003  1.00  0.00    -0.135 C  
BRANCH  18  19
HETATM   19  N   UNL     1      -9.136   6.047  66.617  1.00  0.00    -0.132 NA 
HETATM   20  C   UNL     1     -10.276   5.294  67.151  1.00  0.00    -0.220 C  
HETATM   21  C   UNL     1      -7.891   5.411  67.060  1.00  0.00    -0.101 C  
ENDBRANCH  18  19
ENDBRANCH  17  18
ENDBRANCH  10  17
ENDBRANCH   9  10
ENDBRANCH   6   9
ENDBRANCH   2   3
TORSDOF 7
ENDMDL
MODEL      197
REMARK 921   NORMALIZED FREE ENERGY PREDICTED BY IDOCK:   -3.45 KCAL/MOL
REMARK 922        TOTAL FREE ENERGY PREDICTED BY IDOCK:   -5.70 KCAL/MOL
REMARK 923 INTER-LIGAND FREE ENERGY PREDICTED BY IDOCK:   -5.29 KCAL/MOL
REMARK 924 INTRA-LIGAND FREE ENERGY PREDICTED BY IDOCK:   -0.41 KCAL/MOL
REMARK 927      BINDING AFFINITY PREDICTED BY RF-SCORE:    0.00 PKD
ROOT
HETATM    1  C   UNL     1      -5.558  13.148  69.261  1.00  0.00    -0.079 C  
HETATM    2  O   UNL     1      -6.738  13.541  68.575  1.00  0.00    -0.080 OA 
ENDROOT
BRANCH   2   3
HETATM    3  C   UNL     1      -6.667  14.700  67.850  1.00  0.00    -0.162 A  
HETATM    4  C   UNL     1      -5.529  15.484  67.673  1.00  0.00    -0.087 A  
HETATM    5  C   UNL     1      -5.614  16.702  66.985  1.00  0.00    -0.149 A  
HETATM    6  C   UNL     1      -6.835  17.157  66.456  1.00  0.00    -0.295 A  
HETATM    7  C   UNL     1      -7.949  16.315  66.571  1.00  0.00    -0.326 A  
HETATM    8  C   UNL     1      -7.865  15.100  67.258  1.00  0.00    -0.241 A  
BRANCH   6   9
HETATM    9  C   UNL     1      -7.039  18.587  65.969  1.00  0.00    -0.271 C  
BRANCH   9  10
HETATM   10  N   UNL     1      -7.510  19.538  66.957  1.00  0.00    -0.225 NA 
BRANCH  10  11
HETATM   11  C   UNL     1      -6.729  19.786  68.074  1.00  0.00    -0.254 A  
HETATM   12  N   UNL     1      -6.815  18.952  69.127  1.00  0.00    -0.304 NA 
HETATM   13  N   UNL     1      -5.946  20.878  68.102  1.00  0.00    -0.319 NA 
HETATM   14  C   UNL     1      -6.129  19.264  70.241  1.00  0.00    -0.168 A  
HETATM   15  C   UNL     1      -5.369  20.395  70.371  1.00  0.00    -0.331 A  
HETATM   16  C   UNL     1      -5.308  21.176  69.249  1.00  0.00    -0.276 A  
ENDBRANCH  10  11
BRANCH  10  17
HETATM   17  C   UNL     1      -8.780  20.269  66.884  1.00  0.00    -0.295 C  
BRANCH  17  18
HETATM   18  C   UNL     1      -9.858  19.910  67.933  1.00  0.00    -0.404 C  
BRANCH  18  19
HETATM   19  N   UNL     1     -10.871  18.935  67.453  1.00  0.00    -0.441 NA 
HETATM   20  C   UNL     1     -10.768  17.625  68.103  1.00  0.00    -0.307 C  
HETATM   21  C   UNL     1     -10.764  18.762  66.001  1.00  0.00    -0.276 C  
ENDBRANCH  18  19
ENDBRANCH  17  18
ENDBRANCH  10  17
ENDBRANCH   9  10
ENDBRANCH   6   9
ENDBRANCH   2   3
TORSDOF 7
ENDMDL
MODEL      198
REMARK 921   NORMALIZED FREE ENERGY PREDICTED BY IDOCK:   -3.41 KCAL/MOL
REMARK 922        TOTAL FREE ENERGY PREDICTED BY IDOCK:   -5.64 KCAL/MOL
REMARK 923 INTER-LIGAND FREE ENERGY PREDICTED BY IDOCK:   -4.88 KCAL/MOL
REMARK 924 INTRA-LIGAND FREE ENERGY PREDICTED BY IDOCK:   -0.76 KCAL/MOL
REMARK 927      BINDING AFFINITY PREDICTED BY RF-SCORE:    0.00 PKD
ROOT
HETATM    1  C   UNL     1     -14.352   8.634  72.364  1.00  0.00    -0.340 C  
HETATM    2  O   UNL     1     -13.561   7.536  71.933  1.00  0.00    -0.311 OA 
ENDROOT
BRANCH   2   3
HETATM    3  C   UNL     1     -12.363   7.839  71.344  1.00  0.00    -0.323 A  
HETATM    4  C   UNL     1     -11.641   9.017  71.521  1.00  0.00    -0.413 A  
HETATM    5  C   UNL     1     -10.472   9.243  70.782  1.00  0.00    -0.343 A  
HETATM    6  C   UNL     1      -9.998   8.294  69.858  1.00  0.00    -0.190 A  
HETATM    7  C   UNL     1     -10.691   7.081  69.758  1.00  0.00    -0.265 A  
HETATM    8  C   UNL     1     -11.858   6.855  70.493  1.00  0.00    -0.385 A  
BRANCH   6   9
HETATM    9  C   UNL     1      -8.918   8.614  68.832  1.00  0.00    -0.142 C  
BRANCH   9  10
HETATM   10  N   UNL     1      -9.358   8.734  67.456  1.00  0.00    -0.135 NA 
BRANCH  10  11
HETATM   11  C   UNL     1      -8.861   7.848  66.513  1.00  0.00    -0.152 A  
HETATM   12  N   UNL     1      -8.136   8.329  65.486  1.00  0.00    -0.120 NA 
HETATM   13  N   UNL     1      -9.154   6.540  66.618  1.00  0.00    -0.143 NA 
HETATM   14  C   UNL     1      -7.749   7.470  64.526  1.00  0.00    -0.123 A  
HETATM   15  C   UNL     1      -8.071   6.140  64.525  1.00  0.00    -0.118 A  
HETATM   16  C   UNL     1      -8.783   5.722  65.616  1.00  0.00    -0.149 A  
ENDBRANCH  10  11
BRANCH  10  17
HETATM   17  C   UNL     1     -10.296   9.745  66.956  1.00  0.00    -0.239 C  
BRANCH  17  18
HETATM   18  C   UNL     1      -9.995  11.219  67.312  1.00  0.00    -0.183 C  
BRANCH  18  19
HETATM   19  N   UNL     1      -9.949  12.130  66.139  1.00  0.00    -0.228 NA 
HETATM   20  C   UNL     1     -10.584  13.428  66.387  1.00  0.00    -0.285 C  
HETATM   21  C   UNL     1     -10.584  11.498  64.978  1.00  0.00    -0.297 C  
ENDBRANCH  18  19
ENDBRANCH  17  18
ENDBRANCH  10  17
ENDBRANCH   9  10
ENDBRANCH   6   9
ENDBRANCH   2   3
TORSDOF 7
ENDMDL
MODEL      199
REMARK 921   NORMALIZED FREE ENERGY PREDICTED BY IDOCK:   -3.39 KCAL/MOL
REMARK 922        TOTAL FREE ENERGY PREDICTED BY IDOCK:   -5.63 KCAL/MOL
REMARK 923 INTER-LIGAND FREE ENERGY PREDICTED BY IDOCK:   -4.99 KCAL/MOL
REMARK 924 INTRA-LIGAND FREE ENERGY PREDICTED BY IDOCK:   -0.64 KCAL/MOL
REMARK 927      BINDING AFFINITY PREDICTED BY RF-SCORE:    0.00 PKD
ROOT
HETATM    1  C   UNL     1     -12.394   8.810  72.592  1.00  0.00    -0.184 C  
HETATM    2  O   UNL     1     -11.187   8.273  72.069  1.00  0.00    -0.278 OA 
ENDROOT
BRANCH   2   3
HETATM    3  C   UNL     1     -10.566   9.004  71.092  1.00  0.00    -0.290 A  
HETATM    4  C   UNL     1      -9.228   8.898  70.719  1.00  0.00    -0.272 A  
HETATM    5  C   UNL     1      -8.692   9.776  69.767  1.00  0.00    -0.228 A  
HETATM    6  C   UNL     1      -9.484  10.770  69.164  1.00  0.00    -0.151 A  
HETATM    7  C   UNL     1     -10.846  10.804  69.489  1.00  0.00    -0.288 A  
HETATM    8  C   UNL     1     -11.381   9.930  70.440  1.00  0.00    -0.376 A  
BRANCH   6   9
HETATM    9  C   UNL     1      -8.890  11.919  68.358  1.00  0.00    -0.159 C  
BRANCH   9  10
HETATM   10  N   UNL     1      -9.210  11.943  66.945  1.00  0.00    -0.187 NA 
BRANCH  10  11
HETATM   11  C   UNL     1     -10.402  12.522  66.538  1.00  0.00    -0.237 A  
HETATM   12  N   UNL     1     -11.175  11.867  65.653  1.00  0.00    -0.322 NA 
HETATM   13  N   UNL     1     -10.732  13.743  66.995  1.00  0.00    -0.281 NA 
HETATM   14  C   UNL     1     -12.276  12.488  65.191  1.00  0.00    -0.448 A  
HETATM   15  C   UNL     1     -12.638  13.757  65.552  1.00  0.00    -0.551 A  
HETATM   16  C   UNL     1     -11.817  14.346  66.477  1.00  0.00    -0.390 A  
ENDBRANCH  10  11
BRANCH  10  17
HETATM   17  C   UNL     1      -8.372  11.381  65.881  1.00  0.00     0.040 C  
BRANCH  17  18
HETATM   18  C   UNL     1      -7.724  10.004  66.150  1.00  0.00    -0.108 C  
BRANCH  18  19
HETATM   19  N   UNL     1      -6.277   9.938  65.815  1.00  0.00    -0.076 NA 
HETATM   20  C   UNL     1      -5.580  11.215  66.002  1.00  0.00    -0.116 C  
HETATM   21  C   UNL     1      -6.094   9.488  64.432  1.00  0.00    -0.083 C  
ENDBRANCH  18  19
ENDBRANCH  17  18
ENDBRANCH  10  17
ENDBRANCH   9  10
ENDBRANCH   6   9
ENDBRANCH   2   3
TORSDOF 7
ENDMDL
MODEL      200
REMARK 921   NORMALIZED FREE ENERGY PREDICTED BY IDOCK:   -3.38 KCAL/MOL
REMARK 922        TOTAL FREE ENERGY PREDICTED BY IDOCK:   -5.60 KCAL/MOL
REMARK 923 INTER-LIGAND FREE ENERGY PREDICTED BY IDOCK:   -5.07 KCAL/MOL
REMARK 924 INTRA-LIGAND FREE ENERGY PREDICTED BY IDOCK:   -0.53 KCAL/MOL
REMARK 927      BINDING AFFINITY PREDICTED BY RF-SCORE:    0.00 PKD
ROOT
HETATM    1  C   UNL     1      -9.182   5.559  71.600  1.00  0.00    -0.142 C  
HETATM    2  O   UNL     1     -10.005   6.297  72.493  1.00  0.00    -0.171 OA 
ENDROOT
BRANCH   2   3
HETATM    3  C   UNL     1     -10.521   7.473  72.018  1.00  0.00    -0.208 A  
HETATM    4  C   UNL     1     -11.811   7.949  72.242  1.00  0.00    -0.404 A  
HETATM    5  C   UNL     1     -12.244   9.125  71.617  1.00  0.00    -0.433 A  
HETATM    6  C   UNL     1     -11.396   9.853  70.763  1.00  0.00    -0.430 A  
HETATM    7  C   UNL     1     -10.077   9.405  70.619  1.00  0.00    -0.356 A  
HETATM    8  C   UNL     1      -9.644   8.230  71.241  1.00  0.00    -0.219 A  
BRANCH   6   9
HETATM    9  C   UNL     1     -11.905  10.955  69.842  1.00  0.00    -0.349 C  
BRANCH   9  10
HETATM   10  N   UNL     1     -11.414  10.927  68.478  1.00  0.00    -0.296 NA 
BRANCH  10  11
HETATM   11  C   UNL     1     -10.924  12.095  67.918  1.00  0.00    -0.229 A  
HETATM   12  N   UNL     1     -11.584  12.649  66.884  1.00  0.00    -0.353 NA 
HETATM   13  N   UNL     1      -9.777  12.620  68.383  1.00  0.00    -0.214 NA 
HETATM   14  C   UNL     1     -11.040  13.724  66.286  1.00  0.00    -0.302 A  
HETATM   15  C   UNL     1      -9.841  14.270  66.655  1.00  0.00    -0.288 A  
HETATM   16  C   UNL     1      -9.245  13.670  67.732  1.00  0.00    -0.214 A  
ENDBRANCH  10  11
BRANCH  10  17
HETATM   17  C   UNL     1     -11.403   9.744  67.611  1.00  0.00     0.348 C  
BRANCH  17  18
HETATM   18  C   UNL     1     -10.022   9.161  67.234  1.00  0.00    -0.211 C  
BRANCH  18  19
HETATM   19  N   UNL     1     -10.060   7.739  66.804  1.00  0.00    -0.270 NA 
HETATM   20  C   UNL     1     -10.267   6.803  67.914  1.00  0.00    -0.171 C  
HETATM   21  C   UNL     1      -8.822   7.386  66.102  1.00  0.00    -0.160 C  
ENDBRANCH  18  19
ENDBRANCH  17  18
ENDBRANCH  10  17
ENDBRANCH   9  10
ENDBRANCH   6   9
ENDBRANCH   2   3
TORSDOF 7
ENDMDL
MODEL      201
REMARK 921   NORMALIZED FREE ENERGY PREDICTED BY IDOCK:   -3.38 KCAL/MOL
REMARK 922        TOTAL FREE ENERGY PREDICTED BY IDOCK:   -5.60 KCAL/MOL
REMARK 923 INTER-LIGAND FREE ENERGY PREDICTED BY IDOCK:   -4.74 KCAL/MOL
REMARK 924 INTRA-LIGAND FREE ENERGY PREDICTED BY IDOCK:   -0.86 KCAL/MOL
REMARK 927      BINDING AFFINITY PREDICTED BY RF-SCORE:    0.00 PKD
ROOT
HETATM    1  C   UNL     1      -8.207   9.625  63.939  1.00  0.00    -0.159 C  
HETATM    2  O   UNL     1      -7.912   9.909  65.300  1.00  0.00    -0.125 OA 
ENDROOT
BRANCH   2   3
HETATM    3  C   UNL     1      -8.567   9.157  66.237  1.00  0.00    -0.126 A  
HETATM    4  C   UNL     1      -7.968   8.363  67.212  1.00  0.00    -0.105 A  
HETATM    5  C   UNL     1      -8.756   7.565  68.051  1.00  0.00    -0.121 A  
HETATM    6  C   UNL     1     -10.158   7.551  67.939  1.00  0.00    -0.226 A  
HETATM    7  C   UNL     1     -10.746   8.421  67.012  1.00  0.00    -0.204 A  
HETATM    8  C   UNL     1      -9.960   9.216  66.172  1.00  0.00    -0.338 A  
BRANCH   6   9
HETATM    9  C   UNL     1     -11.027   6.497  68.615  1.00  0.00    -0.293 C  
BRANCH   9  10
HETATM   10  N   UNL     1     -11.040   6.512  70.064  1.00  0.00    -0.329 NA 
BRANCH  10  11
HETATM   11  C   UNL     1     -11.827   7.447  70.718  1.00  0.00    -0.258 A  
HETATM   12  N   UNL     1     -11.304   8.653  71.002  1.00  0.00    -0.266 NA 
HETATM   13  N   UNL     1     -13.072   7.111  71.097  1.00  0.00    -0.311 NA 
HETATM   14  C   UNL     1     -12.044   9.511  71.727  1.00  0.00    -0.384 A  
HETATM   15  C   UNL     1     -13.290   9.215  72.211  1.00  0.00    -0.540 A  
HETATM   16  C   UNL     1     -13.764   7.981  71.855  1.00  0.00    -0.323 A  
ENDBRANCH  10  11
BRANCH  10  17
HETATM   17  C   UNL     1     -10.263   5.612  70.923  1.00  0.00    -0.223 C  
BRANCH  17  18
HETATM   18  C   UNL     1      -9.903   4.225  70.344  1.00  0.00    -0.198 C  
BRANCH  18  19
HETATM   19  N   UNL     1      -8.453   4.036  70.079  1.00  0.00    -0.063 NA 
HETATM   20  C   UNL     1      -7.620   5.119  70.611  1.00  0.00    -0.071 C  
HETATM   21  C   UNL     1      -8.211   3.907  68.638  1.00  0.00    -0.074 C  
ENDBRANCH  18  19
ENDBRANCH  17  18
ENDBRANCH  10  17
ENDBRANCH   9  10
ENDBRANCH   6   9
ENDBRANCH   2   3
TORSDOF 7
ENDMDL
MODEL      202
REMARK 921   NORMALIZED FREE ENERGY PREDICTED BY IDOCK:   -3.35 KCAL/MOL
REMARK 922        TOTAL FREE ENERGY PREDICTED BY IDOCK:   -5.56 KCAL/MOL
REMARK 923 INTER-LIGAND FREE ENERGY PREDICTED BY IDOCK:   -4.97 KCAL/MOL
REMARK 924 INTRA-LIGAND FREE ENERGY PREDICTED BY IDOCK:   -0.59 KCAL/MOL
REMARK 927      BINDING AFFINITY PREDICTED BY RF-SCORE:    0.00 PKD
ROOT
HETATM    1  C   UNL     1      -5.543  16.335  67.512  1.00  0.00    -0.148 C  
HETATM    2  O   UNL     1      -6.941  16.255  67.272  1.00  0.00    -0.155 OA 
ENDROOT
BRANCH   2   3
HETATM    3  C   UNL     1      -7.534  15.046  67.513  1.00  0.00    -0.201 A  
HETATM    4  C   UNL     1      -8.883  14.839  67.794  1.00  0.00    -0.175 A  
HETATM    5  C   UNL     1      -9.345  13.556  68.118  1.00  0.00    -0.213 A  
HETATM    6  C   UNL     1      -8.471  12.455  68.160  1.00  0.00    -0.180 A  
HETATM    7  C   UNL     1      -7.136  12.668  67.791  1.00  0.00    -0.126 A  
HETATM    8  C   UNL     1      -6.674  13.948  67.470  1.00  0.00    -0.132 A  
BRANCH   6   9
HETATM    9  C   UNL     1      -8.858  11.120  68.786  1.00  0.00    -0.125 C  
BRANCH   9  10
HETATM   10  N   UNL     1     -10.213  10.668  68.539  1.00  0.00    -0.167 NA 
BRANCH  10  11
HETATM   11  C   UNL     1     -11.089  10.561  69.607  1.00  0.00    -0.283 A  
HETATM   12  N   UNL     1     -11.277   9.357  70.177  1.00  0.00    -0.239 NA 
HETATM   13  N   UNL     1     -11.766  11.648  70.016  1.00  0.00    -0.330 NA 
HETATM   14  C   UNL     1     -12.206   9.250  71.145  1.00  0.00    -0.301 A  
HETATM   15  C   UNL     1     -12.987  10.294  71.563  1.00  0.00    -0.556 A  
HETATM   16  C   UNL     1     -12.715  11.491  70.957  1.00  0.00    -0.328 A  
ENDBRANCH  10  11
BRANCH  10  17
HETATM   17  C   UNL     1     -10.749  10.288  67.227  1.00  0.00    -0.263 C  
BRANCH  17  18
HETATM   18  C   UNL     1     -11.271  11.429  66.325  1.00  0.00    -0.161 C  
BRANCH  18  19
HETATM   19  N   UNL     1     -10.362  11.778  65.201  1.00  0.00    -0.267 NA 
HETATM   20  C   UNL     1     -11.045  11.851  63.905  1.00  0.00    -0.412 C  
HETATM   21  C   UNL     1      -9.266  10.808  65.113  1.00  0.00    -0.209 C  
ENDBRANCH  18  19
ENDBRANCH  17  18
ENDBRANCH  10  17
ENDBRANCH   9  10
ENDBRANCH   6   9
ENDBRANCH   2   3
TORSDOF 7
ENDMDL
MODEL      203
REMARK 921   NORMALIZED FREE ENERGY PREDICTED BY IDOCK:   -3.35 KCAL/MOL
REMARK 922        TOTAL FREE ENERGY PREDICTED BY IDOCK:   -5.56 KCAL/MOL
REMARK 923 INTER-LIGAND FREE ENERGY PREDICTED BY IDOCK:   -4.93 KCAL/MOL
REMARK 924 INTRA-LIGAND FREE ENERGY PREDICTED BY IDOCK:   -0.63 KCAL/MOL
REMARK 927      BINDING AFFINITY PREDICTED BY RF-SCORE:    0.00 PKD
ROOT
HETATM    1  C   UNL     1     -13.734   9.015  72.334  1.00  0.00    -0.479 C  
HETATM    2  O   UNL     1     -12.409   8.536  72.522  1.00  0.00    -0.388 OA 
ENDROOT
BRANCH   2   3
HETATM    3  C   UNL     1     -11.662   8.348  71.391  1.00  0.00    -0.287 A  
HETATM    4  C   UNL     1     -11.554   7.160  70.671  1.00  0.00    -0.354 A  
HETATM    5  C   UNL     1     -10.677   7.075  69.582  1.00  0.00    -0.265 A  
HETATM    6  C   UNL     1      -9.895   8.176  69.187  1.00  0.00    -0.182 A  
HETATM    7  C   UNL     1     -10.081   9.385  69.869  1.00  0.00    -0.243 A  
HETATM    8  C   UNL     1     -10.956   9.471  70.957  1.00  0.00    -0.424 A  
BRANCH   6   9
HETATM    9  C   UNL     1      -8.728   8.050  68.215  1.00  0.00    -0.130 C  
BRANCH   9  10
HETATM   10  N   UNL     1      -9.070   7.735  66.842  1.00  0.00    -0.137 NA 
BRANCH  10  11
HETATM   11  C   UNL     1      -9.255   8.773  65.943  1.00  0.00    -0.220 A  
HETATM   12  N   UNL     1     -10.207   9.691  66.195  1.00  0.00    -0.245 NA 
HETATM   13  N   UNL     1      -8.519   8.812  64.819  1.00  0.00    -0.171 NA 
HETATM   14  C   UNL     1     -10.444  10.632  65.264  1.00  0.00    -0.194 A  
HETATM   15  C   UNL     1      -9.787  10.693  64.064  1.00  0.00    -0.399 A  
HETATM   16  C   UNL     1      -8.815   9.745  63.895  1.00  0.00    -0.233 A  
ENDBRANCH  10  11
BRANCH  10  17
HETATM   17  C   UNL     1      -9.256   6.382  66.309  1.00  0.00    -0.139 C  
BRANCH  17  18
HETATM   18  C   UNL     1      -8.003   5.481  66.225  1.00  0.00    -0.105 C  
BRANCH  18  19
HETATM   19  N   UNL     1      -8.179   4.137  66.834  1.00  0.00    -0.101 NA 
HETATM   20  C   UNL     1      -9.386   4.030  67.661  1.00  0.00    -0.181 C  
HETATM   21  C   UNL     1      -7.009   3.787  67.644  1.00  0.00    -0.055 C  
ENDBRANCH  18  19
ENDBRANCH  17  18
ENDBRANCH  10  17
ENDBRANCH   9  10
ENDBRANCH   6   9
ENDBRANCH   2   3
TORSDOF 7
ENDMDL
MODEL      204
REMARK 921   NORMALIZED FREE ENERGY PREDICTED BY IDOCK:   -3.34 KCAL/MOL
REMARK 922        TOTAL FREE ENERGY PREDICTED BY IDOCK:   -5.55 KCAL/MOL
REMARK 923 INTER-LIGAND FREE ENERGY PREDICTED BY IDOCK:   -4.73 KCAL/MOL
REMARK 924 INTRA-LIGAND FREE ENERGY PREDICTED BY IDOCK:   -0.82 KCAL/MOL
REMARK 927      BINDING AFFINITY PREDICTED BY RF-SCORE:    0.00 PKD
ROOT
HETATM    1  C   UNL     1      -9.862  19.546  66.751  1.00  0.00    -0.382 C  
HETATM    2  O   UNL     1     -10.895  18.668  67.178  1.00  0.00    -0.408 OA 
ENDROOT
BRANCH   2   3
HETATM    3  C   UNL     1     -10.601  17.332  67.177  1.00  0.00    -0.256 A  
HETATM    4  C   UNL     1      -9.998  16.628  66.137  1.00  0.00    -0.356 A  
HETATM    5  C   UNL     1      -9.840  15.239  66.226  1.00  0.00    -0.316 A  
HETATM    6  C   UNL     1     -10.274  14.526  67.359  1.00  0.00    -0.240 A  
HETATM    7  C   UNL     1     -10.799  15.262  68.429  1.00  0.00    -0.257 A  
HETATM    8  C   UNL     1     -10.959  16.648  68.340  1.00  0.00    -0.345 A  
BRANCH   6   9
HETATM    9  C   UNL     1     -10.394  13.007  67.379  1.00  0.00    -0.234 C  
BRANCH   9  10
HETATM   10  N   UNL     1      -9.267  12.269  66.844  1.00  0.00    -0.204 NA 
BRANCH  10  11
HETATM   11  C   UNL     1      -8.094  12.211  67.579  1.00  0.00    -0.163 A  
HETATM   12  N   UNL     1      -8.016  11.353  68.613  1.00  0.00    -0.141 NA 
HETATM   13  N   UNL     1      -7.084  13.044  67.276  1.00  0.00    -0.106 NA 
HETATM   14  C   UNL     1      -6.910  11.382  69.379  1.00  0.00    -0.112 A  
HETATM   15  C   UNL     1      -5.872  12.252  69.179  1.00  0.00    -0.074 A  
HETATM   16  C   UNL     1      -6.013  13.071  68.091  1.00  0.00    -0.092 A  
ENDBRANCH  10  11
BRANCH  10  17
HETATM   17  C   UNL     1      -9.253  11.573  65.553  1.00  0.00    -0.142 C  
BRANCH  17  18
HETATM   18  C   UNL     1     -10.317  10.474  65.335  1.00  0.00    -0.222 C  
BRANCH  18  19
HETATM   19  N   UNL     1      -9.932   9.142  65.870  1.00  0.00    -0.257 NA 
HETATM   20  C   UNL     1     -10.325   8.943  67.269  1.00  0.00    -0.280 C  
HETATM   21  C   UNL     1      -8.485   8.941  65.743  1.00  0.00    -0.145 C  
ENDBRANCH  18  19
ENDBRANCH  17  18
ENDBRANCH  10  17
ENDBRANCH   9  10
ENDBRANCH   6   9
ENDBRANCH   2   3
TORSDOF 7
ENDMDL
MODEL      205
REMARK 921   NORMALIZED FREE ENERGY PREDICTED BY IDOCK:   -3.33 KCAL/MOL
REMARK 922        TOTAL FREE ENERGY PREDICTED BY IDOCK:   -5.53 KCAL/MOL
REMARK 923 INTER-LIGAND FREE ENERGY PREDICTED BY IDOCK:   -5.07 KCAL/MOL
REMARK 924 INTRA-LIGAND FREE ENERGY PREDICTED BY IDOCK:   -0.46 KCAL/MOL
REMARK 927      BINDING AFFINITY PREDICTED BY RF-SCORE:    0.00 PKD
ROOT
HETATM    1  C   UNL     1      -7.001   8.242  62.899  1.00  0.00    -0.090 C  
HETATM    2  O   UNL     1      -6.883   8.077  64.306  1.00  0.00    -0.063 OA 
ENDROOT
BRANCH   2   3
HETATM    3  C   UNL     1      -7.875   8.629  65.070  1.00  0.00    -0.116 A  
HETATM    4  C   UNL     1      -8.806   7.927  65.832  1.00  0.00    -0.183 A  
HETATM    5  C   UNL     1      -9.833   8.612  66.494  1.00  0.00    -0.348 A  
HETATM    6  C   UNL     1      -9.946  10.011  66.415  1.00  0.00    -0.300 A  
HETATM    7  C   UNL     1      -8.951  10.706  65.716  1.00  0.00    -0.200 A  
HETATM    8  C   UNL     1      -7.927  10.023  65.053  1.00  0.00    -0.143 A  
BRANCH   6   9
HETATM    9  C   UNL     1     -11.194  10.763  66.863  1.00  0.00    -0.032 C  
BRANCH   9  10
HETATM   10  N   UNL     1     -11.077  11.521  68.094  1.00  0.00    -0.226 NA 
BRANCH  10  11
HETATM   11  C   UNL     1     -11.252  10.867  69.303  1.00  0.00    -0.265 A  
HETATM   12  N   UNL     1     -10.209  10.211  69.845  1.00  0.00    -0.249 NA 
HETATM   13  N   UNL     1     -12.466  10.858  69.879  1.00  0.00    -0.288 NA 
HETATM   14  C   UNL     1     -10.421   9.497  70.965  1.00  0.00    -0.306 A  
HETATM   15  C   UNL     1     -11.645   9.380  71.568  1.00  0.00    -0.467 A  
HETATM   16  C   UNL     1     -12.647  10.098  70.974  1.00  0.00    -0.381 A  
ENDBRANCH  10  11
BRANCH  10  17
HETATM   17  C   UNL     1     -10.798  12.959  68.175  1.00  0.00    -0.236 C  
BRANCH  17  18
HETATM   18  C   UNL     1     -11.964  13.878  68.606  1.00  0.00    -0.366 C  
BRANCH  18  19
HETATM   19  N   UNL     1     -11.531  15.166  69.206  1.00  0.00    -0.290 NA 
HETATM   20  C   UNL     1     -10.158  15.133  69.721  1.00  0.00    -0.160 C  
HETATM   21  C   UNL     1     -12.441  15.555  70.288  1.00  0.00    -0.367 C  
ENDBRANCH  18  19
ENDBRANCH  17  18
ENDBRANCH  10  17
ENDBRANCH   9  10
ENDBRANCH   6   9
ENDBRANCH   2   3
TORSDOF 7
ENDMDL
MODEL      206
REMARK 921   NORMALIZED FREE ENERGY PREDICTED BY IDOCK:   -3.31 KCAL/MOL
REMARK 922        TOTAL FREE ENERGY PREDICTED BY IDOCK:   -5.50 KCAL/MOL
REMARK 923 INTER-LIGAND FREE ENERGY PREDICTED BY IDOCK:   -4.84 KCAL/MOL
REMARK 924 INTRA-LIGAND FREE ENERGY PREDICTED BY IDOCK:   -0.66 KCAL/MOL
REMARK 927      BINDING AFFINITY PREDICTED BY RF-SCORE:    0.00 PKD
ROOT
HETATM    1  C   UNL     1      -6.602   4.886  67.260  1.00  0.00    -0.050 C  
HETATM    2  O   UNL     1      -6.108   6.216  67.174  1.00  0.00    -0.020 OA 
ENDROOT
BRANCH   2   3
HETATM    3  C   UNL     1      -6.955   7.210  67.582  1.00  0.00    -0.079 A  
HETATM    4  C   UNL     1      -7.076   8.470  67.000  1.00  0.00    -0.075 A  
HETATM    5  C   UNL     1      -7.915   9.433  67.576  1.00  0.00    -0.102 A  
HETATM    6  C   UNL     1      -8.655   9.154  68.740  1.00  0.00    -0.131 A  
HETATM    7  C   UNL     1      -8.585   7.855  69.260  1.00  0.00    -0.138 A  
HETATM    8  C   UNL     1      -7.746   6.894  68.687  1.00  0.00    -0.113 A  
BRANCH   6   9
HETATM    9  C   UNL     1      -9.339  10.241  69.560  1.00  0.00    -0.178 C  
BRANCH   9  10
HETATM   10  N   UNL     1     -10.768  10.387  69.363  1.00  0.00    -0.227 NA 
BRANCH  10  11
HETATM   11  C   UNL     1     -11.623  10.087  70.412  1.00  0.00    -0.302 A  
HETATM   12  N   UNL     1     -11.628   8.837  70.910  1.00  0.00    -0.282 NA 
HETATM   13  N   UNL     1     -12.460  11.033  70.872  1.00  0.00    -0.381 NA 
HETATM   14  C   UNL     1     -12.535   8.535  71.857  1.00  0.00    -0.352 A  
HETATM   15  C   UNL     1     -13.467   9.422  72.323  1.00  0.00    -0.539 A  
HETATM   16  C   UNL     1     -13.378  10.680  71.789  1.00  0.00    -0.334 A  
ENDBRANCH  10  11
BRANCH  10  17
HETATM   17  C   UNL     1     -11.407  10.821  68.116  1.00  0.00    -0.308 C  
BRANCH  17  18
HETATM   18  C   UNL     1     -11.426  12.340  67.829  1.00  0.00    -0.329 C  
BRANCH  18  19
HETATM   19  N   UNL     1     -11.174  12.691  66.407  1.00  0.00    -0.291 NA 
HETATM   20  C   UNL     1      -9.775  12.513  66.005  1.00  0.00    -0.241 C  
HETATM   21  C   UNL     1     -11.577  14.077  66.146  1.00  0.00    -0.367 C  
ENDBRANCH  18  19
ENDBRANCH  17  18
ENDBRANCH  10  17
ENDBRANCH   9  10
ENDBRANCH   6   9
ENDBRANCH   2   3
TORSDOF 7
ENDMDL
MODEL      207
REMARK 921   NORMALIZED FREE ENERGY PREDICTED BY IDOCK:   -3.29 KCAL/MOL
REMARK 922        TOTAL FREE ENERGY PREDICTED BY IDOCK:   -5.48 KCAL/MOL
REMARK 923 INTER-LIGAND FREE ENERGY PREDICTED BY IDOCK:   -4.89 KCAL/MOL
REMARK 924 INTRA-LIGAND FREE ENERGY PREDICTED BY IDOCK:   -0.59 KCAL/MOL
REMARK 927      BINDING AFFINITY PREDICTED BY RF-SCORE:    0.00 PKD
ROOT
HETATM    1  C   UNL     1     -10.344   7.054  73.533  1.00  0.00    -0.356 C  
HETATM    2  O   UNL     1     -11.137   6.852  72.370  1.00  0.00    -0.242 OA 
ENDROOT
BRANCH   2   3
HETATM    3  C   UNL     1     -10.904   7.697  71.319  1.00  0.00    -0.231 A  
HETATM    4  C   UNL     1     -10.880   9.089  71.378  1.00  0.00    -0.400 A  
HETATM    5  C   UNL     1     -10.726   9.840  70.206  1.00  0.00    -0.358 A  
HETATM    6  C   UNL     1     -10.586   9.217  68.953  1.00  0.00    -0.214 A  
HETATM    7  C   UNL     1     -10.528   7.817  68.924  1.00  0.00    -0.208 A  
HETATM    8  C   UNL     1     -10.683   7.066  70.094  1.00  0.00    -0.265 A  
BRANCH   6   9
HETATM    9  C   UNL     1     -10.713   9.976  67.637  1.00  0.00    -0.284 C  
BRANCH   9  10
HETATM   10  N   UNL     1      -9.470  10.391  67.016  1.00  0.00    -0.161 NA 
BRANCH  10  11
HETATM   11  C   UNL     1      -8.605   9.420  66.536  1.00  0.00    -0.134 A  
HETATM   12  N   UNL     1      -7.487   9.143  67.231  1.00  0.00    -0.087 NA 
HETATM   13  N   UNL     1      -8.874   8.817  65.365  1.00  0.00    -0.191 NA 
HETATM   14  C   UNL     1      -6.608   8.274  66.700  1.00  0.00    -0.056 A  
HETATM   15  C   UNL     1      -6.777   7.677  65.480  1.00  0.00    -0.045 A  
HETATM   16  C   UNL     1      -7.951   7.986  64.848  1.00  0.00    -0.138 A  
ENDBRANCH  10  11
BRANCH  10  17
HETATM   17  C   UNL     1      -9.029  11.781  66.859  1.00  0.00    -0.195 C  
BRANCH  17  18
HETATM   18  C   UNL     1      -9.820  12.661  65.865  1.00  0.00    -0.244 C  
BRANCH  18  19
HETATM   19  N   UNL     1     -10.412  13.881  66.473  1.00  0.00    -0.279 NA 
HETATM   20  C   UNL     1     -11.834  13.734  66.802  1.00  0.00    -0.420 C  
HETATM   21  C   UNL     1     -10.242  15.030  65.578  1.00  0.00    -0.378 C  
ENDBRANCH  18  19
ENDBRANCH  17  18
ENDBRANCH  10  17
ENDBRANCH   9  10
ENDBRANCH   6   9
ENDBRANCH   2   3
TORSDOF 7
ENDMDL
MODEL      208
REMARK 921   NORMALIZED FREE ENERGY PREDICTED BY IDOCK:   -3.29 KCAL/MOL
REMARK 922        TOTAL FREE ENERGY PREDICTED BY IDOCK:   -5.48 KCAL/MOL
REMARK 923 INTER-LIGAND FREE ENERGY PREDICTED BY IDOCK:   -4.67 KCAL/MOL
REMARK 924 INTRA-LIGAND FREE ENERGY PREDICTED BY IDOCK:   -0.80 KCAL/MOL
REMARK 927      BINDING AFFINITY PREDICTED BY RF-SCORE:    0.00 PKD
ROOT
HETATM    1  C   UNL     1      -6.457   6.734  70.283  1.00  0.00    -0.043 C  
HETATM    2  O   UNL     1      -6.937   8.028  70.622  1.00  0.00    -0.041 OA 
ENDROOT
BRANCH   2   3
HETATM    3  C   UNL     1      -7.229   8.864  69.578  1.00  0.00    -0.063 A  
HETATM    4  C   UNL     1      -7.366  10.248  69.654  1.00  0.00    -0.150 A  
HETATM    5  C   UNL     1      -7.763  10.978  68.526  1.00  0.00    -0.122 A  
HETATM    6  C   UNL     1      -8.023  10.342  67.299  1.00  0.00    -0.107 A  
HETATM    7  C   UNL     1      -7.797   8.961  67.221  1.00  0.00    -0.096 A  
HETATM    8  C   UNL     1      -7.403   8.231  68.347  1.00  0.00    -0.094 A  
BRANCH   6   9
HETATM    9  C   UNL     1      -8.732  11.039  66.144  1.00  0.00    -0.184 C  
BRANCH   9  10
HETATM   10  N   UNL     1     -10.159  11.242  66.298  1.00  0.00    -0.222 NA 
BRANCH  10  11
HETATM   11  C   UNL     1     -10.780  12.227  65.548  1.00  0.00    -0.279 A  
HETATM   12  N   UNL     1     -10.760  13.496  65.996  1.00  0.00    -0.277 NA 
HETATM   13  N   UNL     1     -11.430  11.888  64.422  1.00  0.00    -0.336 NA 
HETATM   14  C   UNL     1     -11.455  14.422  65.311  1.00  0.00    -0.350 A  
HETATM   15  C   UNL     1     -12.200  14.140  64.198  1.00  0.00    -0.423 A  
HETATM   16  C   UNL     1     -12.146  12.835  63.788  1.00  0.00    -0.517 A  
ENDBRANCH  10  11
BRANCH  10  17
HETATM   17  C   UNL     1     -11.024  10.487  67.211  1.00  0.00    -0.260 C  
BRANCH  17  18
HETATM   18  C   UNL     1     -11.561  11.237  68.451  1.00  0.00    -0.308 C  
BRANCH  18  19
HETATM   19  N   UNL     1     -11.293  10.549  69.741  1.00  0.00    -0.278 NA 
HETATM   20  C   UNL     1     -11.004   9.120  69.586  1.00  0.00    -0.153 C  
HETATM   21  C   UNL     1     -12.429  10.714  70.653  1.00  0.00    -0.371 C  
ENDBRANCH  18  19
ENDBRANCH  17  18
ENDBRANCH  10  17
ENDBRANCH   9  10
ENDBRANCH   6   9
ENDBRANCH   2   3
TORSDOF 7
ENDMDL
MODEL      209
REMARK 921   NORMALIZED FREE ENERGY PREDICTED BY IDOCK:   -3.22 KCAL/MOL
REMARK 922        TOTAL FREE ENERGY PREDICTED BY IDOCK:   -5.39 KCAL/MOL
REMARK 923 INTER-LIGAND FREE ENERGY PREDICTED BY IDOCK:   -4.71 KCAL/MOL
REMARK 924 INTRA-LIGAND FREE ENERGY PREDICTED BY IDOCK:   -0.68 KCAL/MOL
REMARK 927      BINDING AFFINITY PREDICTED BY RF-SCORE:    0.00 PKD
ROOT
HETATM    1  C   UNL     1      -8.246   5.437  71.284  1.00  0.00    -0.120 C  
HETATM    2  O   UNL     1      -8.323   5.470  69.865  1.00  0.00    -0.102 OA 
ENDROOT
BRANCH   2   3
HETATM    3  C   UNL     1      -9.122   6.438  69.319  1.00  0.00    -0.136 A  
HETATM    4  C   UNL     1      -9.664   6.422  68.036  1.00  0.00    -0.122 A  
HETATM    5  C   UNL     1     -10.389   7.525  67.566  1.00  0.00    -0.321 A  
HETATM    6  C   UNL     1     -10.593   8.661  68.370  1.00  0.00    -0.169 A  
HETATM    7  C   UNL     1     -10.115   8.622  69.686  1.00  0.00    -0.201 A  
HETATM    8  C   UNL     1      -9.390   7.523  70.156  1.00  0.00    -0.157 A  
BRANCH   6   9
HETATM    9  C   UNL     1     -11.109   9.982  67.812  1.00  0.00    -0.180 C  
BRANCH   9  10
HETATM   10  N   UNL     1     -10.156  10.775  67.060  1.00  0.00    -0.200 NA 
BRANCH  10  11
HETATM   11  C   UNL     1     -10.606  11.516  65.979  1.00  0.00    -0.261 A  
HETATM   12  N   UNL     1      -9.748  11.803  64.983  1.00  0.00    -0.223 NA 
HETATM   13  N   UNL     1     -11.870  11.974  65.974  1.00  0.00    -0.531 NA 
HETATM   14  C   UNL     1     -10.171  12.609  63.993  1.00  0.00    -0.338 A  
HETATM   15  C   UNL     1     -11.418  13.173  63.956  1.00  0.00    -0.455 A  
HETATM   16  C   UNL     1     -12.242  12.810  64.987  1.00  0.00    -0.473 A  
ENDBRANCH  10  11
BRANCH  10  17
HETATM   17  C   UNL     1      -8.718  10.852  67.339  1.00  0.00    -0.130 C  
BRANCH  17  18
HETATM   18  C   UNL     1      -8.267  11.854  68.426  1.00  0.00    -0.160 C  
BRANCH  18  19
HETATM   19  N   UNL     1      -7.793  13.157  67.892  1.00  0.00    -0.135 NA 
HETATM   20  C   UNL     1      -6.348  13.356  68.047  1.00  0.00    -0.132 C  
HETATM   21  C   UNL     1      -8.503  14.262  68.542  1.00  0.00    -0.164 C  
ENDBRANCH  18  19
ENDBRANCH  17  18
ENDBRANCH  10  17
ENDBRANCH   9  10
ENDBRANCH   6   9
ENDBRANCH   2   3
TORSDOF 7
ENDMDL
MODEL      210
REMARK 921   NORMALIZED FREE ENERGY PREDICTED BY IDOCK:   -3.21 KCAL/MOL
REMARK 922        TOTAL FREE ENERGY PREDICTED BY IDOCK:   -5.37 KCAL/MOL
REMARK 923 INTER-LIGAND FREE ENERGY PREDICTED BY IDOCK:   -4.65 KCAL/MOL
REMARK 924 INTRA-LIGAND FREE ENERGY PREDICTED BY IDOCK:   -0.72 KCAL/MOL
REMARK 927      BINDING AFFINITY PREDICTED BY RF-SCORE:    0.00 PKD
ROOT
HETATM    1  C   UNL     1      -6.485   9.738  64.702  1.00  0.00    -0.111 C  
HETATM    2  O   UNL     1      -7.266  10.418  65.674  1.00  0.00    -0.142 OA 
ENDROOT
BRANCH   2   3
HETATM    3  C   UNL     1      -8.113   9.649  66.425  1.00  0.00    -0.112 A  
HETATM    4  C   UNL     1      -7.748   8.843  67.501  1.00  0.00    -0.100 A  
HETATM    5  C   UNL     1      -8.702   8.028  68.124  1.00  0.00    -0.126 A  
HETATM    6  C   UNL     1     -10.040   8.009  67.691  1.00  0.00    -0.269 A  
HETATM    7  C   UNL     1     -10.406   8.889  66.665  1.00  0.00    -0.294 A  
HETATM    8  C   UNL     1      -9.454   9.701  66.040  1.00  0.00    -0.284 A  
BRANCH   6   9
HETATM    9  C   UNL     1     -11.033   6.940  68.134  1.00  0.00    -0.147 C  
BRANCH   9  10
HETATM   10  N   UNL     1     -10.882   6.448  69.489  1.00  0.00    -0.285 NA 
BRANCH  10  11
HETATM   11  C   UNL     1     -10.202   5.259  69.698  1.00  0.00    -0.278 A  
HETATM   12  N   UNL     1      -9.789   4.549  68.632  1.00  0.00    -0.134 NA 
HETATM   13  N   UNL     1     -10.015   4.818  70.954  1.00  0.00    -0.207 NA 
HETATM   14  C   UNL     1      -9.222   3.349  68.851  1.00  0.00    -0.165 A  
HETATM   15  C   UNL     1      -9.065   2.800  70.095  1.00  0.00    -0.188 A  
HETATM   16  C   UNL     1      -9.482   3.595  71.128  1.00  0.00    -0.164 A  
ENDBRANCH  10  11
BRANCH  10  17
HETATM   17  C   UNL     1     -11.412   7.106  70.688  1.00  0.00    -0.308 C  
BRANCH  17  18
HETATM   18  C   UNL     1     -10.553   8.232  71.309  1.00  0.00    -0.219 C  
BRANCH  18  19
HETATM   19  N   UNL     1     -11.298   9.494  71.561  1.00  0.00    -0.390 NA 
HETATM   20  C   UNL     1     -12.662   9.273  72.053  1.00  0.00    -0.401 C  
HETATM   21  C   UNL     1     -11.352  10.306  70.342  1.00  0.00    -0.332 C  
ENDBRANCH  18  19
ENDBRANCH  17  18
ENDBRANCH  10  17
ENDBRANCH   9  10
ENDBRANCH   6   9
ENDBRANCH   2   3
TORSDOF 7
ENDMDL
MODEL      211
REMARK 921   NORMALIZED FREE ENERGY PREDICTED BY IDOCK:   -3.19 KCAL/MOL
REMARK 922        TOTAL FREE ENERGY PREDICTED BY IDOCK:   -5.33 KCAL/MOL
REMARK 923 INTER-LIGAND FREE ENERGY PREDICTED BY IDOCK:   -4.57 KCAL/MOL
REMARK 924 INTRA-LIGAND FREE ENERGY PREDICTED BY IDOCK:   -0.76 KCAL/MOL
REMARK 927      BINDING AFFINITY PREDICTED BY RF-SCORE:    0.00 PKD
ROOT
HETATM    1  C   UNL     1     -10.653   5.376  73.495  1.00  0.00    -0.270 C  
HETATM    2  O   UNL     1     -10.581   6.795  73.482  1.00  0.00    -0.297 OA 
ENDROOT
BRANCH   2   3
HETATM    3  C   UNL     1     -10.716   7.402  72.263  1.00  0.00    -0.235 A  
HETATM    4  C   UNL     1     -10.742   6.759  71.027  1.00  0.00    -0.265 A  
HETATM    5  C   UNL     1     -10.790   7.509  69.845  1.00  0.00    -0.250 A  
HETATM    6  C   UNL     1     -10.820   8.915  69.873  1.00  0.00    -0.219 A  
HETATM    7  C   UNL     1     -10.880   9.540  71.126  1.00  0.00    -0.425 A  
HETATM    8  C   UNL     1     -10.831   8.793  72.306  1.00  0.00    -0.328 A  
BRANCH   6   9
HETATM    9  C   UNL     1     -10.576   9.768  68.634  1.00  0.00    -0.221 C  
BRANCH   9  10
HETATM   10  N   UNL     1      -9.445  10.673  68.694  1.00  0.00    -0.169 NA 
BRANCH  10  11
HETATM   11  C   UNL     1      -8.168  10.144  68.792  1.00  0.00    -0.113 A  
HETATM   12  N   UNL     1      -7.717   9.343  67.809  1.00  0.00    -0.088 NA 
HETATM   13  N   UNL     1      -7.431  10.399  69.887  1.00  0.00    -0.154 NA 
HETATM   14  C   UNL     1      -6.518   8.756  67.968  1.00  0.00    -0.057 A  
HETATM   15  C   UNL     1      -5.742   8.908  69.086  1.00  0.00    -0.036 A  
HETATM   16  C   UNL     1      -6.255   9.760  70.027  1.00  0.00    -0.059 A  
ENDBRANCH  10  11
BRANCH  10  17
HETATM   17  C   UNL     1      -9.535  12.137  68.673  1.00  0.00    -0.045 C  
BRANCH  17  18
HETATM   18  C   UNL     1      -9.902  12.800  67.326  1.00  0.00    -0.207 C  
BRANCH  18  19
HETATM   19  N   UNL     1     -11.363  12.947  67.100  1.00  0.00    -0.289 NA 
HETATM   20  C   UNL     1     -11.792  12.503  65.770  1.00  0.00    -0.437 C  
HETATM   21  C   UNL     1     -11.770  14.342  67.295  1.00  0.00    -0.404 C  
ENDBRANCH  18  19
ENDBRANCH  17  18
ENDBRANCH  10  17
ENDBRANCH   9  10
ENDBRANCH   6   9
ENDBRANCH   2   3
TORSDOF 7
ENDMDL
MODEL      212
REMARK 921   NORMALIZED FREE ENERGY PREDICTED BY IDOCK:   -3.14 KCAL/MOL
REMARK 922        TOTAL FREE ENERGY PREDICTED BY IDOCK:   -5.27 KCAL/MOL
REMARK 923 INTER-LIGAND FREE ENERGY PREDICTED BY IDOCK:   -4.58 KCAL/MOL
REMARK 924 INTRA-LIGAND FREE ENERGY PREDICTED BY IDOCK:   -0.70 KCAL/MOL
REMARK 927      BINDING AFFINITY PREDICTED BY RF-SCORE:    0.00 PKD
ROOT
HETATM    1  C   UNL     1     -13.573   9.359  72.232  1.00  0.00    -0.462 C  
HETATM    2  O   UNL     1     -12.779   8.183  72.159  1.00  0.00    -0.323 OA 
ENDROOT
BRANCH   2   3
HETATM    3  C   UNL     1     -11.722   8.213  71.290  1.00  0.00    -0.279 A  
HETATM    4  C   UNL     1     -11.224   7.129  70.571  1.00  0.00    -0.321 A  
HETATM    5  C   UNL     1     -10.073   7.275  69.786  1.00  0.00    -0.196 A  
HETATM    6  C   UNL     1      -9.401   8.507  69.698  1.00  0.00    -0.157 A  
HETATM    7  C   UNL     1      -9.966   9.605  70.359  1.00  0.00    -0.330 A  
HETATM    8  C   UNL     1     -11.114   9.460  71.144  1.00  0.00    -0.432 A  
BRANCH   6   9
HETATM    9  C   UNL     1      -8.002   8.642  69.107  1.00  0.00    -0.110 C  
BRANCH   9  10
HETATM   10  N   UNL     1      -7.857   9.583  68.015  1.00  0.00    -0.087 NA 
BRANCH  10  11
HETATM   11  C   UNL     1      -7.193  10.778  68.243  1.00  0.00    -0.084 A  
HETATM   12  N   UNL     1      -6.837  11.094  69.501  1.00  0.00    -0.127 NA 
HETATM   13  N   UNL     1      -6.965  11.613  67.215  1.00  0.00    -0.120 NA 
HETATM   14  C   UNL     1      -6.286  12.302  69.720  1.00  0.00    -0.125 A  
HETATM   15  C   UNL     1      -6.090  13.234  68.738  1.00  0.00    -0.086 A  
HETATM   16  C   UNL     1      -6.450  12.827  67.481  1.00  0.00    -0.160 A  
ENDBRANCH  10  11
BRANCH  10  17
HETATM   17  C   UNL     1      -8.377   9.385  66.657  1.00  0.00    -0.119 C  
BRANCH  17  18
HETATM   18  C   UNL     1      -9.827   9.847  66.386  1.00  0.00    -0.227 C  
BRANCH  18  19
HETATM   19  N   UNL     1     -10.097  10.198  64.968  1.00  0.00    -0.305 NA 
HETATM   20  C   UNL     1      -8.909  10.107  64.112  1.00  0.00    -0.222 C  
HETATM   21  C   UNL     1     -10.654  11.551  64.875  1.00  0.00    -0.303 C  
ENDBRANCH  18  19
ENDBRANCH  17  18
ENDBRANCH  10  17
ENDBRANCH   9  10
ENDBRANCH   6   9
ENDBRANCH   2   3
TORSDOF 7
ENDMDL
MODEL      213
REMARK 921   NORMALIZED FREE ENERGY PREDICTED BY IDOCK:   -3.14 KCAL/MOL
REMARK 922        TOTAL FREE ENERGY PREDICTED BY IDOCK:   -5.27 KCAL/MOL
REMARK 923 INTER-LIGAND FREE ENERGY PREDICTED BY IDOCK:   -4.80 KCAL/MOL
REMARK 924 INTRA-LIGAND FREE ENERGY PREDICTED BY IDOCK:   -0.47 KCAL/MOL
REMARK 927      BINDING AFFINITY PREDICTED BY RF-SCORE:    0.00 PKD
ROOT
HETATM    1  C   UNL     1      -9.519   4.309  69.720  1.00  0.00    -0.190 C  
HETATM    2  O   UNL     1      -8.508   5.011  69.009  1.00  0.00    -0.083 OA 
ENDROOT
BRANCH   2   3
HETATM    3  C   UNL     1      -8.867   6.215  68.466  1.00  0.00    -0.113 A  
HETATM    4  C   UNL     1      -8.050   7.338  68.357  1.00  0.00    -0.125 A  
HETATM    5  C   UNL     1      -8.573   8.542  67.867  1.00  0.00    -0.134 A  
HETATM    6  C   UNL     1      -9.917   8.645  67.467  1.00  0.00    -0.256 A  
HETATM    7  C   UNL     1     -10.698   7.483  67.503  1.00  0.00    -0.296 A  
HETATM    8  C   UNL     1     -10.178   6.281  67.995  1.00  0.00    -0.205 A  
BRANCH   6   9
HETATM    9  C   UNL     1     -10.599   9.984  67.211  1.00  0.00    -0.257 C  
BRANCH   9  10
HETATM   10  N   UNL     1     -10.607  10.920  68.318  1.00  0.00    -0.178 NA 
BRANCH  10  11
HETATM   11  C   UNL     1     -11.177  10.531  69.520  1.00  0.00    -0.271 A  
HETATM   12  N   UNL     1     -10.452   9.781  70.372  1.00  0.00    -0.281 NA 
HETATM   13  N   UNL     1     -12.451  10.866  69.786  1.00  0.00    -0.263 NA 
HETATM   14  C   UNL     1     -11.053   9.326  71.486  1.00  0.00    -0.373 A  
HETATM   15  C   UNL     1     -12.367   9.564  71.789  1.00  0.00    -0.474 A  
HETATM   16  C   UNL     1     -13.027  10.358  70.890  1.00  0.00    -0.387 A  
ENDBRANCH  10  11
BRANCH  10  17
HETATM   17  C   UNL     1     -10.066  12.282  68.274  1.00  0.00    -0.218 C  
BRANCH  17  18
HETATM   18  C   UNL     1      -8.600  12.441  67.810  1.00  0.00    -0.172 C  
BRANCH  18  19
HETATM   19  N   UNL     1      -8.198  13.845  67.538  1.00  0.00    -0.176 NA 
HETATM   20  C   UNL     1      -6.787  14.113  67.838  1.00  0.00    -0.165 C  
HETATM   21  C   UNL     1      -9.036  14.773  68.304  1.00  0.00    -0.183 C  
ENDBRANCH  18  19
ENDBRANCH  17  18
ENDBRANCH  10  17
ENDBRANCH   9  10
ENDBRANCH   6   9
ENDBRANCH   2   3
TORSDOF 7
ENDMDL
MODEL      214
REMARK 921   NORMALIZED FREE ENERGY PREDICTED BY IDOCK:   -3.12 KCAL/MOL
REMARK 922        TOTAL FREE ENERGY PREDICTED BY IDOCK:   -5.25 KCAL/MOL
REMARK 923 INTER-LIGAND FREE ENERGY PREDICTED BY IDOCK:   -4.54 KCAL/MOL
REMARK 924 INTRA-LIGAND FREE ENERGY PREDICTED BY IDOCK:   -0.71 KCAL/MOL
REMARK 927      BINDING AFFINITY PREDICTED BY RF-SCORE:    0.00 PKD
ROOT
HETATM    1  C   UNL     1     -13.409  10.715  71.914  1.00  0.00    -0.349 C  
HETATM    2  O   UNL     1     -13.202   9.357  72.279  1.00  0.00    -0.422 OA 
ENDROOT
BRANCH   2   3
HETATM    3  C   UNL     1     -12.223   8.685  71.600  1.00  0.00    -0.333 A  
HETATM    4  C   UNL     1     -12.345   7.420  71.029  1.00  0.00    -0.303 A  
HETATM    5  C   UNL     1     -11.232   6.802  70.444  1.00  0.00    -0.378 A  
HETATM    6  C   UNL     1      -9.978   7.439  70.410  1.00  0.00    -0.188 A  
HETATM    7  C   UNL     1      -9.896   8.744  70.912  1.00  0.00    -0.278 A  
HETATM    8  C   UNL     1     -11.006   9.360  71.498  1.00  0.00    -0.429 A  
BRANCH   6   9
HETATM    9  C   UNL     1      -8.691   6.702  70.058  1.00  0.00    -0.141 C  
BRANCH   9  10
HETATM   10  N   UNL     1      -8.673   5.278  70.329  1.00  0.00    -0.120 NA 
BRANCH  10  11
HETATM   11  C   UNL     1      -8.603   4.395  69.264  1.00  0.00    -0.082 A  
HETATM   12  N   UNL     1      -9.507   4.496  68.273  1.00  0.00    -0.141 NA 
HETATM   13  N   UNL     1      -7.669   3.428  69.270  1.00  0.00    -0.051 NA 
HETATM   14  C   UNL     1      -9.489   3.568  67.299  1.00  0.00    -0.187 A  
HETATM   15  C   UNL     1      -8.617   2.513  67.276  1.00  0.00    -0.122 A  
HETATM   16  C   UNL     1      -7.711   2.495  68.301  1.00  0.00    -0.055 A  
ENDBRANCH  10  11
BRANCH  10  17
HETATM   17  C   UNL     1      -8.741   4.674  71.664  1.00  0.00    -0.121 C  
BRANCH  17  18
HETATM   18  C   UNL     1      -9.890   3.674  71.925  1.00  0.00    -0.171 C  
BRANCH  18  19
HETATM   19  N   UNL     1     -10.384   3.669  73.327  1.00  0.00    -0.153 NA 
HETATM   20  C   UNL     1     -11.318   2.574  73.608  1.00  0.00    -0.198 C  
HETATM   21  C   UNL     1     -11.030   4.946  73.644  1.00  0.00    -0.318 C  
ENDBRANCH  18  19
ENDBRANCH  17  18
ENDBRANCH  10  17
ENDBRANCH   9  10
ENDBRANCH   6   9
ENDBRANCH   2   3
TORSDOF 7
ENDMDL
MODEL      215
REMARK 921   NORMALIZED FREE ENERGY PREDICTED BY IDOCK:   -3.10 KCAL/MOL
REMARK 922        TOTAL FREE ENERGY PREDICTED BY IDOCK:   -5.21 KCAL/MOL
REMARK 923 INTER-LIGAND FREE ENERGY PREDICTED BY IDOCK:   -4.68 KCAL/MOL
REMARK 924 INTRA-LIGAND FREE ENERGY PREDICTED BY IDOCK:   -0.53 KCAL/MOL
REMARK 927      BINDING AFFINITY PREDICTED BY RF-SCORE:    0.00 PKD
ROOT
HETATM    1  C   UNL     1      -5.536   9.929  70.976  1.00  0.00    -0.077 C  
HETATM    2  O   UNL     1      -5.807  11.311  70.782  1.00  0.00    -0.274 OA 
ENDROOT
BRANCH   2   3
HETATM    3  C   UNL     1      -6.432  11.652  69.614  1.00  0.00    -0.124 A  
HETATM    4  C   UNL     1      -5.933  12.518  68.643  1.00  0.00    -0.064 A  
HETATM    5  C   UNL     1      -6.718  12.859  67.534  1.00  0.00    -0.156 A  
HETATM    6  C   UNL     1      -8.014  12.337  67.369  1.00  0.00    -0.171 A  
HETATM    7  C   UNL     1      -8.464  11.402  68.311  1.00  0.00    -0.154 A  
HETATM    8  C   UNL     1      -7.681  11.062  69.419  1.00  0.00    -0.026 A  
BRANCH   6   9
HETATM    9  C   UNL     1      -9.004  12.897  66.355  1.00  0.00    -0.005 C  
BRANCH   9  10
HETATM   10  N   UNL     1      -9.872  11.933  65.709  1.00  0.00    -0.234 NA 
BRANCH  10  11
HETATM   11  C   UNL     1      -9.337  11.084  64.753  1.00  0.00    -0.209 A  
HETATM   12  N   UNL     1      -9.612  11.310  63.455  1.00  0.00    -0.308 NA 
HETATM   13  N   UNL     1      -8.601  10.030  65.144  1.00  0.00    -0.148 NA 
HETATM   14  C   UNL     1      -9.171  10.419  62.548  1.00  0.00    -0.296 A  
HETATM   15  C   UNL     1      -8.479   9.285  62.876  1.00  0.00    -0.212 A  
HETATM   16  C   UNL     1      -8.213   9.141  64.211  1.00  0.00    -0.161 A  
ENDBRANCH  10  11
BRANCH  10  17
HETATM   17  C   UNL     1     -11.307  11.781  65.973  1.00  0.00    -0.273 C  
BRANCH  17  18
HETATM   18  C   UNL     1     -12.120  13.076  66.203  1.00  0.00    -0.409 C  
BRANCH  18  19
HETATM   19  N   UNL     1     -12.714  13.647  64.967  1.00  0.00    -0.681 NA 
HETATM   20  C   UNL     1     -12.778  12.689  63.858  1.00  0.00    -0.252 C  
HETATM   21  C   UNL     1     -11.961  14.830  64.538  1.00  0.00    -0.440 C  
ENDBRANCH  18  19
ENDBRANCH  17  18
ENDBRANCH  10  17
ENDBRANCH   9  10
ENDBRANCH   6   9
ENDBRANCH   2   3
TORSDOF 7
ENDMDL
MODEL      216
REMARK 921   NORMALIZED FREE ENERGY PREDICTED BY IDOCK:   -3.09 KCAL/MOL
REMARK 922        TOTAL FREE ENERGY PREDICTED BY IDOCK:   -5.19 KCAL/MOL
REMARK 923 INTER-LIGAND FREE ENERGY PREDICTED BY IDOCK:   -4.62 KCAL/MOL
REMARK 924 INTRA-LIGAND FREE ENERGY PREDICTED BY IDOCK:   -0.58 KCAL/MOL
REMARK 927      BINDING AFFINITY PREDICTED BY RF-SCORE:    0.00 PKD
ROOT
HETATM    1  C   UNL     1     -13.324  10.819  71.844  1.00  0.00    -0.340 C  
HETATM    2  O   UNL     1     -13.248   9.505  72.380  1.00  0.00    -0.431 OA 
ENDROOT
BRANCH   2   3
HETATM    3  C   UNL     1     -12.392   8.639  71.756  1.00  0.00    -0.346 A  
HETATM    4  C   UNL     1     -12.689   7.335  71.367  1.00  0.00    -0.427 A  
HETATM    5  C   UNL     1     -11.689   6.519  70.821  1.00  0.00    -0.427 A  
HETATM    6  C   UNL     1     -10.376   6.992  70.647  1.00  0.00    -0.223 A  
HETATM    7  C   UNL     1     -10.119   8.332  70.964  1.00  0.00    -0.230 A  
HETATM    8  C   UNL     1     -11.116   9.147  71.510  1.00  0.00    -0.436 A  
BRANCH   6   9
HETATM    9  C   UNL     1      -9.202   6.069  70.341  1.00  0.00    -0.156 C  
BRANCH   9  10
HETATM   10  N   UNL     1      -9.381   4.672  70.683  1.00  0.00    -0.142 NA 
BRANCH  10  11
HETATM   11  C   UNL     1      -9.291   4.290  72.012  1.00  0.00    -0.129 A  
HETATM   12  N   UNL     1      -8.136   4.495  72.672  1.00  0.00    -0.097 NA 
HETATM   13  N   UNL     1     -10.337   3.681  72.596  1.00  0.00    -0.165 NA 
HETATM   14  C   UNL     1      -8.031   4.026  73.928  1.00  0.00    -0.084 A  
HETATM   15  C   UNL     1      -9.025   3.332  74.564  1.00  0.00    -0.098 A  
HETATM   16  C   UNL     1     -10.178   3.191  73.839  1.00  0.00    -0.141 A  
ENDBRANCH  10  11
BRANCH  10  17
HETATM   17  C   UNL     1      -9.642   3.595  69.721  1.00  0.00    -0.158 C  
BRANCH  17  18
HETATM   18  C   UNL     1      -8.677   3.479  68.519  1.00  0.00    -0.100 C  
BRANCH  18  19
HETATM   19  N   UNL     1      -9.314   2.968  67.277  1.00  0.00    -0.185 NA 
HETATM   20  C   UNL     1      -8.538   1.911  66.620  1.00  0.00    -0.111 C  
HETATM   21  C   UNL     1      -9.532   4.065  66.329  1.00  0.00    -0.190 C  
ENDBRANCH  18  19
ENDBRANCH  17  18
ENDBRANCH  10  17
ENDBRANCH   9  10
ENDBRANCH   6   9
ENDBRANCH   2   3
TORSDOF 7
ENDMDL
MODEL      217
REMARK 921   NORMALIZED FREE ENERGY PREDICTED BY IDOCK:   -3.08 KCAL/MOL
REMARK 922        TOTAL FREE ENERGY PREDICTED BY IDOCK:   -5.19 KCAL/MOL
REMARK 923 INTER-LIGAND FREE ENERGY PREDICTED BY IDOCK:   -4.71 KCAL/MOL
REMARK 924 INTRA-LIGAND FREE ENERGY PREDICTED BY IDOCK:   -0.48 KCAL/MOL
REMARK 927      BINDING AFFINITY PREDICTED BY RF-SCORE:    0.00 PKD
ROOT
HETATM    1  C   UNL     1      -6.917  10.489  65.912  1.00  0.00    -0.131 C  
HETATM    2  O   UNL     1      -6.632  10.617  67.299  1.00  0.00    -0.069 OA 
ENDROOT
BRANCH   2   3
HETATM    3  C   UNL     1      -7.470   9.959  68.158  1.00  0.00    -0.080 A  
HETATM    4  C   UNL     1      -8.678  10.444  68.654  1.00  0.00    -0.138 A  
HETATM    5  C   UNL     1      -9.394   9.706  69.606  1.00  0.00    -0.226 A  
HETATM    6  C   UNL     1      -8.922   8.466  70.074  1.00  0.00    -0.138 A  
HETATM    7  C   UNL     1      -7.750   7.957  69.500  1.00  0.00    -0.104 A  
HETATM    8  C   UNL     1      -7.033   8.693  68.552  1.00  0.00    -0.065 A  
BRANCH   6   9
HETATM    9  C   UNL     1      -9.500   7.777  71.305  1.00  0.00    -0.153 C  
BRANCH   9  10
HETATM   10  N   UNL     1     -10.750   7.070  71.113  1.00  0.00    -0.228 NA 
BRANCH  10  11
HETATM   11  C   UNL     1     -11.931   7.674  71.514  1.00  0.00    -0.303 A  
HETATM   12  N   UNL     1     -13.096   7.040  71.289  1.00  0.00    -0.333 NA 
HETATM   13  N   UNL     1     -11.890   8.897  72.070  1.00  0.00    -0.364 NA 
HETATM   14  C   UNL     1     -14.238   7.685  71.590  1.00  0.00    -0.454 A  
HETATM   15  C   UNL     1     -14.280   8.959  72.090  1.00  0.00    -0.463 A  
HETATM   16  C   UNL     1     -13.054   9.524  72.319  1.00  0.00    -0.408 A  
ENDBRANCH  10  11
BRANCH  10  17
HETATM   17  C   UNL     1     -10.880   5.729  70.531  1.00  0.00    -0.278 C  
BRANCH  17  18
HETATM   18  C   UNL     1      -9.885   5.352  69.409  1.00  0.00    -0.184 C  
BRANCH  18  19
HETATM   19  N   UNL     1     -10.482   5.336  68.049  1.00  0.00    -0.121 NA 
HETATM   20  C   UNL     1      -9.543   4.902  67.009  1.00  0.00    -0.159 C  
HETATM   21  C   UNL     1     -10.999   6.664  67.704  1.00  0.00    -0.309 C  
ENDBRANCH  18  19
ENDBRANCH  17  18
ENDBRANCH  10  17
ENDBRANCH   9  10
ENDBRANCH   6   9
ENDBRANCH   2   3
TORSDOF 7
ENDMDL
MODEL      218
REMARK 921   NORMALIZED FREE ENERGY PREDICTED BY IDOCK:   -3.07 KCAL/MOL
REMARK 922        TOTAL FREE ENERGY PREDICTED BY IDOCK:   -5.17 KCAL/MOL
REMARK 923 INTER-LIGAND FREE ENERGY PREDICTED BY IDOCK:   -4.46 KCAL/MOL
REMARK 924 INTRA-LIGAND FREE ENERGY PREDICTED BY IDOCK:   -0.72 KCAL/MOL
REMARK 927      BINDING AFFINITY PREDICTED BY RF-SCORE:    0.00 PKD
ROOT
HETATM    1  C   UNL     1      -7.166   7.720  64.410  1.00  0.00    -0.078 C  
HETATM    2  O   UNL     1      -6.433   8.276  65.493  1.00  0.00    -0.048 OA 
ENDROOT
BRANCH   2   3
HETATM    3  C   UNL     1      -7.140   8.553  66.631  1.00  0.00    -0.077 A  
HETATM    4  C   UNL     1      -7.579   9.812  67.035  1.00  0.00    -0.092 A  
HETATM    5  C   UNL     1      -8.212   9.971  68.275  1.00  0.00    -0.106 A  
HETATM    6  C   UNL     1      -8.426   8.876  69.131  1.00  0.00    -0.132 A  
HETATM    7  C   UNL     1      -8.055   7.607  68.670  1.00  0.00    -0.127 A  
HETATM    8  C   UNL     1      -7.421   7.447  67.434  1.00  0.00    -0.104 A  
BRANCH   6   9
HETATM    9  C   UNL     1      -8.833   9.041  70.591  1.00  0.00    -0.219 C  
BRANCH   9  10
HETATM   10  N   UNL     1     -10.171   8.600  70.935  1.00  0.00    -0.198 NA 
BRANCH  10  11
HETATM   11  C   UNL     1     -10.323   7.578  71.858  1.00  0.00    -0.193 A  
HETATM   12  N   UNL     1     -10.084   7.832  73.157  1.00  0.00    -0.312 NA 
HETATM   13  N   UNL     1     -10.654   6.347  71.430  1.00  0.00    -0.224 NA 
HETATM   14  C   UNL     1     -10.135   6.806  74.025  1.00  0.00    -0.359 A  
HETATM   15  C   UNL     1     -10.393   5.513  73.655  1.00  0.00    -0.261 A  
HETATM   16  C   UNL     1     -10.655   5.340  72.323  1.00  0.00    -0.222 A  
ENDBRANCH  10  11
BRANCH  10  17
HETATM   17  C   UNL     1     -11.409   9.144  70.368  1.00  0.00    -0.224 C  
BRANCH  17  18
HETATM   18  C   UNL     1     -11.669  10.655  70.567  1.00  0.00    -0.356 C  
BRANCH  18  19
HETATM   19  N   UNL     1     -12.963  10.966  71.229  1.00  0.00    -0.403 NA 
HETATM   20  C   UNL     1     -12.917  12.180  72.049  1.00  0.00    -0.272 C  
HETATM   21  C   UNL     1     -13.393   9.839  72.062  1.00  0.00    -0.451 C  
ENDBRANCH  18  19
ENDBRANCH  17  18
ENDBRANCH  10  17
ENDBRANCH   9  10
ENDBRANCH   6   9
ENDBRANCH   2   3
TORSDOF 7
ENDMDL
MODEL      219
REMARK 921   NORMALIZED FREE ENERGY PREDICTED BY IDOCK:   -3.05 KCAL/MOL
REMARK 922        TOTAL FREE ENERGY PREDICTED BY IDOCK:   -5.15 KCAL/MOL
REMARK 923 INTER-LIGAND FREE ENERGY PREDICTED BY IDOCK:   -4.38 KCAL/MOL
REMARK 924 INTRA-LIGAND FREE ENERGY PREDICTED BY IDOCK:   -0.77 KCAL/MOL
REMARK 927      BINDING AFFINITY PREDICTED BY RF-SCORE:    0.00 PKD
ROOT
HETATM    1  C   UNL     1      -7.861   2.023  67.830  1.00  0.00    -0.059 C  
HETATM    2  O   UNL     1      -7.358   3.030  66.963  1.00  0.00    -0.061 OA 
ENDROOT
BRANCH   2   3
HETATM    3  C   UNL     1      -8.142   4.140  66.798  1.00  0.00    -0.101 A  
HETATM    4  C   UNL     1      -7.733   5.356  66.256  1.00  0.00    -0.099 A  
HETATM    5  C   UNL     1      -8.612   6.447  66.232  1.00  0.00    -0.140 A  
HETATM    6  C   UNL     1      -9.918   6.343  66.742  1.00  0.00    -0.225 A  
HETATM    7  C   UNL     1     -10.339   5.088  67.204  1.00  0.00    -0.217 A  
HETATM    8  C   UNL     1      -9.461   4.000  67.230  1.00  0.00    -0.229 A  
BRANCH   6   9
HETATM    9  C   UNL     1     -10.798   7.558  67.007  1.00  0.00    -0.194 C  
BRANCH   9  10
HETATM   10  N   UNL     1     -10.161   8.675  67.678  1.00  0.00    -0.223 NA 
BRANCH  10  11
HETATM   11  C   UNL     1      -9.965   8.610  69.048  1.00  0.00    -0.192 A  
HETATM   12  N   UNL     1     -11.001   8.273  69.839  1.00  0.00    -0.212 NA 
HETATM   13  N   UNL     1      -8.765   8.933  69.559  1.00  0.00    -0.139 NA 
HETATM   14  C   UNL     1     -10.822   8.314  71.171  1.00  0.00    -0.233 A  
HETATM   15  C   UNL     1      -9.653   8.703  71.767  1.00  0.00    -0.360 A  
HETATM   16  C   UNL     1      -8.639   9.002  70.897  1.00  0.00    -0.215 A  
ENDBRANCH  10  11
BRANCH  10  17
HETATM   17  C   UNL     1      -9.707   9.905  67.021  1.00  0.00    -0.182 C  
BRANCH  17  18
HETATM   18  C   UNL     1     -10.007  10.047  65.511  1.00  0.00    -0.296 C  
BRANCH  18  19
HETATM   19  N   UNL     1     -10.353  11.429  65.088  1.00  0.00    -0.276 NA 
HETATM   20  C   UNL     1     -11.365  12.060  65.943  1.00  0.00    -0.337 C  
HETATM   21  C   UNL     1     -10.826  11.434  63.701  1.00  0.00    -0.384 C  
ENDBRANCH  18  19
ENDBRANCH  17  18
ENDBRANCH  10  17
ENDBRANCH   9  10
ENDBRANCH   6   9
ENDBRANCH   2   3
TORSDOF 7
ENDMDL
MODEL      220
REMARK 921   NORMALIZED FREE ENERGY PREDICTED BY IDOCK:   -3.01 KCAL/MOL
REMARK 922        TOTAL FREE ENERGY PREDICTED BY IDOCK:   -5.09 KCAL/MOL
REMARK 923 INTER-LIGAND FREE ENERGY PREDICTED BY IDOCK:   -4.34 KCAL/MOL
REMARK 924 INTRA-LIGAND FREE ENERGY PREDICTED BY IDOCK:   -0.74 KCAL/MOL
REMARK 927      BINDING AFFINITY PREDICTED BY RF-SCORE:    0.00 PKD
ROOT
HETATM    1  C   UNL     1      -5.266   9.802  71.795  1.00  0.00    -0.076 C  
HETATM    2  O   UNL     1      -5.755  10.914  71.058  1.00  0.00    -0.267 OA 
ENDROOT
BRANCH   2   3
HETATM    3  C   UNL     1      -6.259  10.648  69.814  1.00  0.00    -0.085 A  
HETATM    4  C   UNL     1      -5.756   9.714  68.911  1.00  0.00    -0.036 A  
HETATM    5  C   UNL     1      -6.309   9.608  67.628  1.00  0.00    -0.057 A  
HETATM    6  C   UNL     1      -7.380  10.427  67.225  1.00  0.00    -0.090 A  
HETATM    7  C   UNL     1      -7.927  11.299  68.175  1.00  0.00    -0.131 A  
HETATM    8  C   UNL     1      -7.374  11.407  69.455  1.00  0.00     0.012 A  
BRANCH   6   9
HETATM    9  C   UNL     1      -7.814  10.556  65.769  1.00  0.00    -0.154 C  
BRANCH   9  10
HETATM   10  N   UNL     1      -9.119  10.016  65.441  1.00  0.00    -0.178 NA 
BRANCH  10  11
HETATM   11  C   UNL     1      -9.438   8.734  65.858  1.00  0.00    -0.208 A  
HETATM   12  N   UNL     1     -10.493   8.559  66.675  1.00  0.00    -0.250 NA 
HETATM   13  N   UNL     1      -8.660   7.705  65.481  1.00  0.00    -0.127 NA 
HETATM   14  C   UNL     1     -10.727   7.324  67.153  1.00  0.00    -0.343 A  
HETATM   15  C   UNL     1      -9.938   6.241  66.873  1.00  0.00    -0.215 A  
HETATM   16  C   UNL     1      -8.903   6.493  66.013  1.00  0.00    -0.143 A  
ENDBRANCH  10  11
BRANCH  10  17
HETATM   17  C   UNL     1     -10.152  10.719  64.673  1.00  0.00    -0.344 C  
BRANCH  17  18
HETATM   18  C   UNL     1     -10.669  12.057  65.251  1.00  0.00    -0.288 C  
BRANCH  18  19
HETATM   19  N   UNL     1     -12.038  12.423  64.803  1.00  0.00    -0.419 NA 
HETATM   20  C   UNL     1     -12.335  11.989  63.434  1.00  0.00    -0.523 C  
HETATM   21  C   UNL     1     -12.235  13.873  64.901  1.00  0.00    -0.422 C  
ENDBRANCH  18  19
ENDBRANCH  17  18
ENDBRANCH  10  17
ENDBRANCH   9  10
ENDBRANCH   6   9
ENDBRANCH   2   3
TORSDOF 7
ENDMDL
MODEL      221
REMARK 921   NORMALIZED FREE ENERGY PREDICTED BY IDOCK:   -3.01 KCAL/MOL
REMARK 922        TOTAL FREE ENERGY PREDICTED BY IDOCK:   -5.08 KCAL/MOL
REMARK 923 INTER-LIGAND FREE ENERGY PREDICTED BY IDOCK:   -4.40 KCAL/MOL
REMARK 924 INTRA-LIGAND FREE ENERGY PREDICTED BY IDOCK:   -0.68 KCAL/MOL
REMARK 927      BINDING AFFINITY PREDICTED BY RF-SCORE:    0.00 PKD
ROOT
HETATM    1  C   UNL     1      -8.968   3.032  64.232  1.00  0.00    -0.110 C  
HETATM    2  O   UNL     1      -9.009   4.451  64.300  1.00  0.00    -0.143 OA 
ENDROOT
BRANCH   2   3
HETATM    3  C   UNL     1      -8.946   5.004  65.551  1.00  0.00    -0.151 A  
HETATM    4  C   UNL     1      -9.400   4.416  66.729  1.00  0.00    -0.173 A  
HETATM    5  C   UNL     1      -9.363   5.133  67.932  1.00  0.00    -0.139 A  
HETATM    6  C   UNL     1      -8.866   6.447  67.984  1.00  0.00    -0.113 A  
HETATM    7  C   UNL     1      -8.335   6.989  66.806  1.00  0.00    -0.116 A  
HETATM    8  C   UNL     1      -8.373   6.275  65.604  1.00  0.00    -0.147 A  
BRANCH   6   9
HETATM    9  C   UNL     1      -9.075   7.360  69.186  1.00  0.00    -0.134 C  
BRANCH   9  10
HETATM   10  N   UNL     1     -10.429   7.827  69.406  1.00  0.00    -0.220 NA 
BRANCH  10  11
HETATM   11  C   UNL     1     -10.775   9.101  68.987  1.00  0.00    -0.153 A  
HETATM   12  N   UNL     1     -10.793   9.371  67.668  1.00  0.00    -0.228 NA 
HETATM   13  N   UNL     1     -11.034  10.050  69.903  1.00  0.00    -0.273 NA 
HETATM   14  C   UNL     1     -11.030  10.637  67.282  1.00  0.00    -0.284 A  
HETATM   15  C   UNL     1     -11.229  11.671  68.157  1.00  0.00    -0.325 A  
HETATM   16  C   UNL     1     -11.226  11.312  69.478  1.00  0.00    -0.272 A  
ENDBRANCH  10  11
BRANCH  10  17
HETATM   17  C   UNL     1     -11.490   7.056  70.064  1.00  0.00    -0.215 C  
BRANCH  17  18
HETATM   18  C   UNL     1     -11.129   6.358  71.395  1.00  0.00    -0.277 C  
BRANCH  18  19
HETATM   19  N   UNL     1     -11.373   7.190  72.603  1.00  0.00    -0.282 NA 
HETATM   20  C   UNL     1     -12.364   8.248  72.386  1.00  0.00    -0.327 C  
HETATM   21  C   UNL     1     -10.119   7.792  73.068  1.00  0.00    -0.320 C  
ENDBRANCH  18  19
ENDBRANCH  17  18
ENDBRANCH  10  17
ENDBRANCH   9  10
ENDBRANCH   6   9
ENDBRANCH   2   3
TORSDOF 7
ENDMDL
MODEL      222
REMARK 921   NORMALIZED FREE ENERGY PREDICTED BY IDOCK:   -2.96 KCAL/MOL
REMARK 922        TOTAL FREE ENERGY PREDICTED BY IDOCK:   -5.02 KCAL/MOL
REMARK 923 INTER-LIGAND FREE ENERGY PREDICTED BY IDOCK:   -5.44 KCAL/MOL
REMARK 924 INTRA-LIGAND FREE ENERGY PREDICTED BY IDOCK:    0.42 KCAL/MOL
REMARK 927      BINDING AFFINITY PREDICTED BY RF-SCORE:    0.00 PKD
ROOT
HETATM    1  C   UNL     1      -7.341  19.232  65.549  1.00  0.00    -0.049 C  
HETATM    2  O   UNL     1      -8.697  18.814  65.631  1.00  0.00    -0.303 OA 
ENDROOT
BRANCH   2   3
HETATM    3  C   UNL     1      -9.126  18.366  66.850  1.00  0.00    -0.286 A  
HETATM    4  C   UNL     1      -8.344  18.242  67.997  1.00  0.00    -0.272 A  
HETATM    5  C   UNL     1      -8.886  17.677  69.159  1.00  0.00     0.118 A  
HETATM    6  C   UNL     1     -10.219  17.232  69.202  1.00  0.00    -0.283 A  
HETATM    7  C   UNL     1     -11.013  17.444  68.067  1.00  0.00    -0.164 A  
HETATM    8  C   UNL     1     -10.473  18.006  66.905  1.00  0.00    -0.350 A  
BRANCH   6   9
HETATM    9  C   UNL     1     -10.759  16.355  70.325  1.00  0.00    -0.134 C  
BRANCH   9  10
HETATM   10  N   UNL     1     -11.328  15.083  69.927  1.00  0.00    -0.263 NA 
BRANCH  10  11
HETATM   11  C   UNL     1     -12.355  14.542  70.683  1.00  0.00    -0.339 A  
HETATM   12  N   UNL     1     -13.366  15.340  71.074  1.00  0.00    -0.479 NA 
HETATM   13  N   UNL     1     -12.294  13.251  71.051  1.00  0.00    -0.347 NA 
HETATM   14  C   UNL     1     -14.301  14.825  71.893  1.00  0.00    -0.570 A  
HETATM   15  C   UNL     1     -14.267  13.542  72.369  1.00  0.00    -0.447 A  
HETATM   16  C   UNL     1     -13.225  12.785  71.903  1.00  0.00    -0.412 A  
ENDBRANCH  10  11
BRANCH  10  17
HETATM   17  C   UNL     1     -10.892  14.289  68.773  1.00  0.00    -0.253 C  
BRANCH  17  18
HETATM   18  C   UNL     1     -10.497  12.819  69.040  1.00  0.00     0.014 C  
BRANCH  18  19
HETATM   19  N   UNL     1      -9.952  12.111  67.852  1.00  0.00    -0.194 NA 
HETATM   20  C   UNL     1     -10.882  11.128  67.286  1.00  0.00    -0.274 C  
HETATM   21  C   UNL     1      -8.693  11.442  68.192  1.00  0.00    -0.154 C  
ENDBRANCH  18  19
ENDBRANCH  17  18
ENDBRANCH  10  17
ENDBRANCH   9  10
ENDBRANCH   6   9
ENDBRANCH   2   3
TORSDOF 7
ENDMDL
MODEL      223
REMARK 921   NORMALIZED FREE ENERGY PREDICTED BY IDOCK:   -2.96 KCAL/MOL
REMARK 922        TOTAL FREE ENERGY PREDICTED BY IDOCK:   -5.01 KCAL/MOL
REMARK 923 INTER-LIGAND FREE ENERGY PREDICTED BY IDOCK:   -4.18 KCAL/MOL
REMARK 924 INTRA-LIGAND FREE ENERGY PREDICTED BY IDOCK:   -0.83 KCAL/MOL
REMARK 927      BINDING AFFINITY PREDICTED BY RF-SCORE:    0.00 PKD
ROOT
HETATM    1  C   UNL     1     -10.434   7.492  73.247  1.00  0.00    -0.371 C  
HETATM    2  O   UNL     1     -11.363   7.321  72.185  1.00  0.00    -0.248 OA 
ENDROOT
BRANCH   2   3
HETATM    3  C   UNL     1     -11.160   8.082  71.066  1.00  0.00    -0.253 A  
HETATM    4  C   UNL     1     -11.205   9.473  71.005  1.00  0.00    -0.432 A  
HETATM    5  C   UNL     1     -11.073  10.127  69.773  1.00  0.00    -0.328 A  
HETATM    6  C   UNL     1     -10.886   9.405  68.580  1.00  0.00    -0.149 A  
HETATM    7  C   UNL     1     -10.758   8.013  68.674  1.00  0.00    -0.066 A  
HETATM    8  C   UNL     1     -10.891   7.360  69.903  1.00  0.00    -0.259 A  
BRANCH   6   9
HETATM    9  C   UNL     1     -11.033  10.041  67.202  1.00  0.00    -0.107 C  
BRANCH   9  10
HETATM   10  N   UNL     1      -9.833  10.625  66.636  1.00  0.00    -0.194 NA 
BRANCH  10  11
HETATM   11  C   UNL     1      -9.274  10.045  65.508  1.00  0.00    -0.198 A  
HETATM   12  N   UNL     1      -8.673   8.847  65.622  1.00  0.00    -0.171 NA 
HETATM   13  N   UNL     1      -9.299  10.713  64.342  1.00  0.00    -0.230 NA 
HETATM   14  C   UNL     1      -8.046   8.346  64.543  1.00  0.00    -0.152 A  
HETATM   15  C   UNL     1      -7.965   9.000  63.343  1.00  0.00    -0.149 A  
HETATM   16  C   UNL     1      -8.625  10.198  63.298  1.00  0.00    -0.198 A  
ENDBRANCH  10  11
BRANCH  10  17
HETATM   17  C   UNL     1      -9.132  11.796  67.173  1.00  0.00    -0.175 C  
BRANCH  17  18
HETATM   18  C   UNL     1      -7.721  11.563  67.758  1.00  0.00    -0.124 C  
BRANCH  18  19
HETATM   19  N   UNL     1      -6.631  12.232  67.000  1.00  0.00    -0.102 NA 
HETATM   20  C   UNL     1      -5.707  11.290  66.360  1.00  0.00    -0.145 C  
HETATM   21  C   UNL     1      -5.874  13.127  67.880  1.00  0.00    -0.132 C  
ENDBRANCH  18  19
ENDBRANCH  17  18
ENDBRANCH  10  17
ENDBRANCH   9  10
ENDBRANCH   6   9
ENDBRANCH   2   3
TORSDOF 7
ENDMDL
MODEL      224
REMARK 921   NORMALIZED FREE ENERGY PREDICTED BY IDOCK:   -2.94 KCAL/MOL
REMARK 922        TOTAL FREE ENERGY PREDICTED BY IDOCK:   -4.99 KCAL/MOL
REMARK 923 INTER-LIGAND FREE ENERGY PREDICTED BY IDOCK:   -4.31 KCAL/MOL
REMARK 924 INTRA-LIGAND FREE ENERGY PREDICTED BY IDOCK:   -0.67 KCAL/MOL
REMARK 927      BINDING AFFINITY PREDICTED BY RF-SCORE:    0.00 PKD
ROOT
HETATM    1  C   UNL     1     -10.587  16.546  67.809  1.00  0.00    -0.332 C  
HETATM    2  O   UNL     1     -11.103  15.609  66.873  1.00  0.00    -0.287 OA 
ENDROOT
BRANCH   2   3
HETATM    3  C   UNL     1     -10.839  14.289  67.121  1.00  0.00    -0.296 A  
HETATM    4  C   UNL     1     -11.732  13.233  66.958  1.00  0.00    -0.439 A  
HETATM    5  C   UNL     1     -11.365  11.936  67.341  1.00  0.00    -0.389 A  
HETATM    6  C   UNL     1     -10.097  11.668  67.887  1.00  0.00    -0.198 A  
HETATM    7  C   UNL     1      -9.183  12.728  67.963  1.00  0.00    -0.208 A  
HETATM    8  C   UNL     1      -9.550  14.023  67.583  1.00  0.00    -0.221 A  
BRANCH   6   9
HETATM    9  C   UNL     1      -9.761  10.354  68.582  1.00  0.00    -0.175 C  
BRANCH   9  10
HETATM   10  N   UNL     1      -9.027   9.383  67.795  1.00  0.00    -0.123 NA 
BRANCH  10  11
HETATM   11  C   UNL     1      -9.470   8.070  67.768  1.00  0.00    -0.145 A  
HETATM   12  N   UNL     1      -8.734   7.122  68.376  1.00  0.00    -0.126 NA 
HETATM   13  N   UNL     1     -10.593   7.766  67.095  1.00  0.00    -0.343 NA 
HETATM   14  C   UNL     1      -9.123   5.840  68.253  1.00  0.00    -0.117 A  
HETATM   15  C   UNL     1     -10.212   5.446  67.524  1.00  0.00    -0.243 A  
HETATM   16  C   UNL     1     -10.926   6.470  66.961  1.00  0.00    -0.396 A  
ENDBRANCH  10  11
BRANCH  10  17
HETATM   17  C   UNL     1      -7.818   9.670  67.017  1.00  0.00    -0.098 C  
BRANCH  17  18
HETATM   18  C   UNL     1      -6.596  10.213  67.792  1.00  0.00    -0.067 C  
BRANCH  18  19
HETATM   19  N   UNL     1      -5.430   9.291  67.812  1.00  0.00    -0.037 NA 
HETATM   20  C   UNL     1      -5.552   8.183  66.859  1.00  0.00    -0.037 C  
HETATM   21  C   UNL     1      -5.234   8.747  69.159  1.00  0.00    -0.036 C  
ENDBRANCH  18  19
ENDBRANCH  17  18
ENDBRANCH  10  17
ENDBRANCH   9  10
ENDBRANCH   6   9
ENDBRANCH   2   3
TORSDOF 7
ENDMDL
MODEL      225
REMARK 921   NORMALIZED FREE ENERGY PREDICTED BY IDOCK:   -2.93 KCAL/MOL
REMARK 922        TOTAL FREE ENERGY PREDICTED BY IDOCK:   -4.97 KCAL/MOL
REMARK 923 INTER-LIGAND FREE ENERGY PREDICTED BY IDOCK:   -4.12 KCAL/MOL
REMARK 924 INTRA-LIGAND FREE ENERGY PREDICTED BY IDOCK:   -0.84 KCAL/MOL
REMARK 927      BINDING AFFINITY PREDICTED BY RF-SCORE:    0.00 PKD
ROOT
HETATM    1  C   UNL     1     -10.207  10.974  64.225  1.00  0.00    -0.352 C  
HETATM    2  O   UNL     1     -10.655  11.297  65.534  1.00  0.00    -0.262 OA 
ENDROOT
BRANCH   2   3
HETATM    3  C   UNL     1     -10.189  10.509  66.552  1.00  0.00    -0.231 A  
HETATM    4  C   UNL     1      -9.746  10.956  67.795  1.00  0.00    -0.183 A  
HETATM    5  C   UNL     1      -9.202  10.050  68.714  1.00  0.00    -0.159 A  
HETATM    6  C   UNL     1      -9.095   8.680  68.414  1.00  0.00    -0.138 A  
HETATM    7  C   UNL     1      -9.624   8.238  67.194  1.00  0.00    -0.234 A  
HETATM    8  C   UNL     1     -10.166   9.142  66.275  1.00  0.00    -0.257 A  
BRANCH   6   9
HETATM    9  C   UNL     1      -8.254   7.719  69.245  1.00  0.00    -0.129 C  
BRANCH   9  10
HETATM   10  N   UNL     1      -8.968   6.933  70.232  1.00  0.00    -0.152 NA 
BRANCH  10  11
HETATM   11  C   UNL     1      -8.866   5.552  70.190  1.00  0.00    -0.136 A  
HETATM   12  N   UNL     1      -9.452   4.886  69.178  1.00  0.00    -0.129 NA 
HETATM   13  N   UNL     1      -8.231   4.907  71.184  1.00  0.00    -0.106 NA 
HETATM   14  C   UNL     1      -9.431   3.541  69.208  1.00  0.00    -0.163 A  
HETATM   15  C   UNL     1      -8.870   2.814  70.222  1.00  0.00    -0.147 A  
HETATM   16  C   UNL     1      -8.269   3.562  71.199  1.00  0.00    -0.066 A  
ENDBRANCH  10  11
BRANCH  10  17
HETATM   17  C   UNL     1      -9.823   7.484  71.289  1.00  0.00    -0.179 C  
BRANCH  17  18
HETATM   18  C   UNL     1     -11.185   6.791  71.523  1.00  0.00    -0.260 C  
BRANCH  18  19
HETATM   19  N   UNL     1     -11.393   6.318  72.917  1.00  0.00    -0.201 NA 
HETATM   20  C   UNL     1     -10.386   6.821  73.856  1.00  0.00    -0.368 C  
HETATM   21  C   UNL     1     -11.403   4.852  72.961  1.00  0.00    -0.273 C  
ENDBRANCH  18  19
ENDBRANCH  17  18
ENDBRANCH  10  17
ENDBRANCH   9  10
ENDBRANCH   6   9
ENDBRANCH   2   3
TORSDOF 7
ENDMDL
MODEL      226
REMARK 921   NORMALIZED FREE ENERGY PREDICTED BY IDOCK:   -2.90 KCAL/MOL
REMARK 922        TOTAL FREE ENERGY PREDICTED BY IDOCK:   -4.93 KCAL/MOL
REMARK 923 INTER-LIGAND FREE ENERGY PREDICTED BY IDOCK:   -4.59 KCAL/MOL
REMARK 924 INTRA-LIGAND FREE ENERGY PREDICTED BY IDOCK:   -0.34 KCAL/MOL
REMARK 927      BINDING AFFINITY PREDICTED BY RF-SCORE:    0.00 PKD
ROOT
HETATM    1  C   UNL     1      -6.309   8.519  72.670  1.00  0.00    -0.083 C  
HETATM    2  O   UNL     1      -7.632   8.813  72.243  1.00  0.00    -0.321 OA 
ENDROOT
BRANCH   2   3
HETATM    3  C   UNL     1      -7.783   9.190  70.936  1.00  0.00    -0.126 A  
HETATM    4  C   UNL     1      -6.759   9.325  70.001  1.00  0.00    -0.054 A  
HETATM    5  C   UNL     1      -7.039   9.814  68.718  1.00  0.00    -0.067 A  
HETATM    6  C   UNL     1      -8.346  10.170  68.341  1.00  0.00    -0.113 A  
HETATM    7  C   UNL     1      -9.374   9.946  69.267  1.00  0.00    -0.215 A  
HETATM    8  C   UNL     1      -9.096   9.461  70.549  1.00  0.00    -0.308 A  
BRANCH   6   9
HETATM    9  C   UNL     1      -8.651  10.971  67.081  1.00  0.00    -0.136 C  
BRANCH   9  10
HETATM   10  N   UNL     1      -9.769  10.509  66.284  1.00  0.00    -0.197 NA 
BRANCH  10  11
HETATM   11  C   UNL     1     -10.436  11.416  65.476  1.00  0.00    -0.268 A  
HETATM   12  N   UNL     1     -10.903  12.553  66.023  1.00  0.00    -0.270 NA 
HETATM   13  N   UNL     1     -10.646  11.118  64.182  1.00  0.00    -0.364 NA 
HETATM   14  C   UNL     1     -11.637  13.374  65.250  1.00  0.00    -0.308 A  
HETATM   15  C   UNL     1     -11.955  13.104  63.946  1.00  0.00    -0.550 A  
HETATM   16  C   UNL     1     -11.420  11.944  63.455  1.00  0.00    -0.376 A  
ENDBRANCH  10  11
BRANCH  10  17
HETATM   17  C   UNL     1     -10.280   9.134  66.266  1.00  0.00    -0.187 C  
BRANCH  17  18
HETATM   18  C   UNL     1      -9.259   8.008  65.985  1.00  0.00    -0.120 C  
BRANCH  18  19
HETATM   19  N   UNL     1      -9.205   6.961  67.039  1.00  0.00    -0.137 NA 
HETATM   20  C   UNL     1      -8.507   5.744  66.611  1.00  0.00    -0.113 C  
HETATM   21  C   UNL     1     -10.559   6.610  67.477  1.00  0.00    -0.281 C  
ENDBRANCH  18  19
ENDBRANCH  17  18
ENDBRANCH  10  17
ENDBRANCH   9  10
ENDBRANCH   6   9
ENDBRANCH   2   3
TORSDOF 7
ENDMDL
MODEL      227
REMARK 921   NORMALIZED FREE ENERGY PREDICTED BY IDOCK:   -2.87 KCAL/MOL
REMARK 922        TOTAL FREE ENERGY PREDICTED BY IDOCK:   -4.89 KCAL/MOL
REMARK 923 INTER-LIGAND FREE ENERGY PREDICTED BY IDOCK:   -4.17 KCAL/MOL
REMARK 924 INTRA-LIGAND FREE ENERGY PREDICTED BY IDOCK:   -0.73 KCAL/MOL
REMARK 927      BINDING AFFINITY PREDICTED BY RF-SCORE:    0.00 PKD
ROOT
HETATM    1  C   UNL     1     -10.947  12.515  64.446  1.00  0.00    -0.340 C  
HETATM    2  O   UNL     1     -11.569  12.552  65.723  1.00  0.00    -0.351 OA 
ENDROOT
BRANCH   2   3
HETATM    3  C   UNL     1     -10.960  11.839  66.720  1.00  0.00    -0.288 A  
HETATM    4  C   UNL     1     -11.443  11.670  68.016  1.00  0.00    -0.385 A  
HETATM    5  C   UNL     1     -10.672  10.993  68.970  1.00  0.00    -0.258 A  
HETATM    6  C   UNL     1      -9.408  10.467  68.648  1.00  0.00    -0.167 A  
HETATM    7  C   UNL     1      -8.979  10.572  67.319  1.00  0.00    -0.145 A  
HETATM    8  C   UNL     1      -9.747  11.248  66.366  1.00  0.00    -0.238 A  
BRANCH   6   9
HETATM    9  C   UNL     1      -8.420   9.993  69.707  1.00  0.00    -0.172 C  
BRANCH   9  10
HETATM   10  N   UNL     1      -8.540   8.609  70.120  1.00  0.00    -0.131 NA 
BRANCH  10  11
HETATM   11  C   UNL     1      -7.882   8.193  71.267  1.00  0.00    -0.097 A  
HETATM   12  N   UNL     1      -6.919   7.258  71.163  1.00  0.00    -0.059 NA 
HETATM   13  N   UNL     1      -8.254   8.691  72.459  1.00  0.00    -0.392 NA 
HETATM   14  C   UNL     1      -6.363   6.791  72.295  1.00  0.00    -0.049 A  
HETATM   15  C   UNL     1      -6.740   7.196  73.547  1.00  0.00    -0.065 A  
HETATM   16  C   UNL     1      -7.703   8.169  73.569  1.00  0.00    -0.165 A  
ENDBRANCH  10  11
BRANCH  10  17
HETATM   17  C   UNL     1      -9.303   7.579  69.407  1.00  0.00    -0.152 C  
BRANCH  17  18
HETATM   18  C   UNL     1     -10.607   7.083  70.073  1.00  0.00    -0.230 C  
BRANCH  18  19
HETATM   19  N   UNL     1     -10.819   5.616  69.973  1.00  0.00    -0.325 NA 
HETATM   20  C   UNL     1      -9.922   4.841  70.838  1.00  0.00    -0.213 C  
HETATM   21  C   UNL     1     -10.654   5.170  68.586  1.00  0.00     0.055 C  
ENDBRANCH  18  19
ENDBRANCH  17  18
ENDBRANCH  10  17
ENDBRANCH   9  10
ENDBRANCH   6   9
ENDBRANCH   2   3
TORSDOF 7
ENDMDL
MODEL      228
REMARK 921   NORMALIZED FREE ENERGY PREDICTED BY IDOCK:   -2.86 KCAL/MOL
REMARK 922        TOTAL FREE ENERGY PREDICTED BY IDOCK:   -4.88 KCAL/MOL
REMARK 923 INTER-LIGAND FREE ENERGY PREDICTED BY IDOCK:   -5.29 KCAL/MOL
REMARK 924 INTRA-LIGAND FREE ENERGY PREDICTED BY IDOCK:    0.41 KCAL/MOL
REMARK 927      BINDING AFFINITY PREDICTED BY RF-SCORE:    0.00 PKD
ROOT
HETATM    1  C   UNL     1      -7.025  20.166  65.425  1.00  0.00    -0.296 C  
HETATM    2  O   UNL     1      -8.418  20.394  65.589  1.00  0.00     0.023 OA 
ENDROOT
BRANCH   2   3
HETATM    3  C   UNL     1      -9.065  19.596  66.494  1.00  0.00    -0.373 A  
HETATM    4  C   UNL     1      -8.914  19.641  67.878  1.00  0.00    -0.385 A  
HETATM    5  C   UNL     1      -9.565  18.701  68.687  1.00  0.00    -0.407 A  
HETATM    6  C   UNL     1     -10.385  17.703  68.131  1.00  0.00    -0.386 A  
HETATM    7  C   UNL     1     -10.592  17.728  66.746  1.00  0.00    -0.235 A  
HETATM    8  C   UNL     1      -9.941  18.664  65.937  1.00  0.00    -0.123 A  
BRANCH   6   9
HETATM    9  C   UNL     1     -10.868  16.497  68.928  1.00  0.00    -0.336 C  
BRANCH   9  10
HETATM   10  N   UNL     1     -10.388  15.203  68.485  1.00  0.00    -0.225 NA 
BRANCH  10  11
HETATM   11  C   UNL     1     -11.050  14.062  68.907  1.00  0.00    -0.268 A  
HETATM   12  N   UNL     1     -11.633  14.059  70.120  1.00  0.00    -0.240 NA 
HETATM   13  N   UNL     1     -11.052  12.971  68.122  1.00  0.00    -0.243 NA 
HETATM   14  C   UNL     1     -12.182  12.911  70.557  1.00  0.00    -0.314 A  
HETATM   15  C   UNL     1     -12.159  11.741  69.847  1.00  0.00    -0.359 A  
HETATM   16  C   UNL     1     -11.575  11.833  68.613  1.00  0.00    -0.309 A  
ENDBRANCH  10  11
BRANCH  10  17
HETATM   17  C   UNL     1      -9.224  14.988  67.618  1.00  0.00    -0.182 C  
BRANCH  17  18
HETATM   18  C   UNL     1      -7.987  15.881  67.869  1.00  0.00    -0.138 C  
BRANCH  18  19
HETATM   19  N   UNL     1      -7.555  15.935  69.290  1.00  0.00    -0.216 NA 
HETATM   20  C   UNL     1      -6.446  16.865  69.523  1.00  0.00    -0.223 C  
HETATM   21  C   UNL     1      -7.169  14.599  69.756  1.00  0.00    -0.058 C  
ENDBRANCH  18  19
ENDBRANCH  17  18
ENDBRANCH  10  17
ENDBRANCH   9  10
ENDBRANCH   6   9
ENDBRANCH   2   3
TORSDOF 7
ENDMDL
MODEL      229
REMARK 921   NORMALIZED FREE ENERGY PREDICTED BY IDOCK:   -2.84 KCAL/MOL
REMARK 922        TOTAL FREE ENERGY PREDICTED BY IDOCK:   -4.85 KCAL/MOL
REMARK 923 INTER-LIGAND FREE ENERGY PREDICTED BY IDOCK:   -4.09 KCAL/MOL
REMARK 924 INTRA-LIGAND FREE ENERGY PREDICTED BY IDOCK:   -0.76 KCAL/MOL
REMARK 927      BINDING AFFINITY PREDICTED BY RF-SCORE:    0.00 PKD
ROOT
HETATM    1  C   UNL     1      -5.425   8.932  71.920  1.00  0.00    -0.055 C  
HETATM    2  O   UNL     1      -5.947  10.246  71.774  1.00  0.00    -0.300 OA 
ENDROOT
BRANCH   2   3
HETATM    3  C   UNL     1      -6.332  10.614  70.513  1.00  0.00    -0.074 A  
HETATM    4  C   UNL     1      -5.631  11.462  69.659  1.00  0.00    -0.064 A  
HETATM    5  C   UNL     1      -6.186  11.836  68.428  1.00  0.00    -0.050 A  
HETATM    6  C   UNL     1      -7.447  11.363  68.022  1.00  0.00    -0.100 A  
HETATM    7  C   UNL     1      -8.097  10.444  68.856  1.00  0.00    -0.129 A  
HETATM    8  C   UNL     1      -7.545  10.072  70.086  1.00  0.00    -0.168 A  
BRANCH   6   9
HETATM    9  C   UNL     1      -8.212  11.963  66.849  1.00  0.00    -0.157 C  
BRANCH   9  10
HETATM   10  N   UNL     1      -9.657  11.952  66.954  1.00  0.00    -0.196 NA 
BRANCH  10  11
HETATM   11  C   UNL     1     -10.294  13.027  67.553  1.00  0.00    -0.224 A  
HETATM   12  N   UNL     1     -10.876  12.853  68.754  1.00  0.00    -0.253 NA 
HETATM   13  N   UNL     1     -10.360  14.201  66.902  1.00  0.00    -0.267 NA 
HETATM   14  C   UNL     1     -11.577  13.877  69.274  1.00  0.00    -0.309 A  
HETATM   15  C   UNL     1     -11.750  15.076  68.638  1.00  0.00    -0.363 A  
HETATM   16  C   UNL     1     -11.104  15.186  67.436  1.00  0.00    -0.325 A  
ENDBRANCH  10  11
BRANCH  10  17
HETATM   17  C   UNL     1     -10.528  10.869  66.485  1.00  0.00    -0.253 C  
BRANCH  17  18
HETATM   18  C   UNL     1      -9.913   9.848  65.501  1.00  0.00    -0.292 C  
BRANCH  18  19
HETATM   19  N   UNL     1      -9.870   8.456  66.018  1.00  0.00    -0.116 NA 
HETATM   20  C   UNL     1     -10.558   8.294  67.303  1.00  0.00    -0.265 C  
HETATM   21  C   UNL     1      -8.482   8.005  66.155  1.00  0.00    -0.135 C  
ENDBRANCH  18  19
ENDBRANCH  17  18
ENDBRANCH  10  17
ENDBRANCH   9  10
ENDBRANCH   6   9
ENDBRANCH   2   3
TORSDOF 7
ENDMDL
MODEL      230
REMARK 921   NORMALIZED FREE ENERGY PREDICTED BY IDOCK:   -2.84 KCAL/MOL
REMARK 922        TOTAL FREE ENERGY PREDICTED BY IDOCK:   -4.84 KCAL/MOL
REMARK 923 INTER-LIGAND FREE ENERGY PREDICTED BY IDOCK:   -4.81 KCAL/MOL
REMARK 924 INTRA-LIGAND FREE ENERGY PREDICTED BY IDOCK:   -0.04 KCAL/MOL
REMARK 927      BINDING AFFINITY PREDICTED BY RF-SCORE:    0.00 PKD
ROOT
HETATM    1  C   UNL     1      -5.253  10.271  71.068  1.00  0.00    -0.077 C  
HETATM    2  O   UNL     1      -5.151  11.509  70.377  1.00  0.00    -0.074 OA 
ENDROOT
BRANCH   2   3
HETATM    3  C   UNL     1      -6.263  11.920  69.694  1.00  0.00    -0.129 A  
HETATM    4  C   UNL     1      -7.322  11.109  69.291  1.00  0.00    -0.097 A  
HETATM    5  C   UNL     1      -8.357  11.640  68.511  1.00  0.00    -0.140 A  
HETATM    6  C   UNL     1      -8.360  12.993  68.125  1.00  0.00    -0.164 A  
HETATM    7  C   UNL     1      -7.332  13.811  68.612  1.00  0.00    -0.117 A  
HETATM    8  C   UNL     1      -6.297  13.281  69.388  1.00  0.00    -0.111 A  
BRANCH   6   9
HETATM    9  C   UNL     1      -9.290  13.540  67.049  1.00  0.00    -0.247 C  
BRANCH   9  10
HETATM   10  N   UNL     1     -10.355  12.657  66.615  1.00  0.00    -0.235 NA 
BRANCH  10  11
HETATM   11  C   UNL     1     -10.185  11.923  65.452  1.00  0.00    -0.263 A  
HETATM   12  N   UNL     1      -9.874  10.617  65.546  1.00  0.00    -0.241 NA 
HETATM   13  N   UNL     1     -10.283  12.540  64.262  1.00  0.00    -0.346 NA 
HETATM   14  C   UNL     1      -9.611   9.944  64.411  1.00  0.00    -0.189 A  
HETATM   15  C   UNL     1      -9.619  10.520  63.170  1.00  0.00    -0.375 A  
HETATM   16  C   UNL     1      -9.972  11.842  63.154  1.00  0.00    -0.344 A  
ENDBRANCH  10  11
BRANCH  10  17
HETATM   17  C   UNL     1     -11.636  12.478  67.307  1.00  0.00    -0.367 C  
BRANCH  17  18
HETATM   18  C   UNL     1     -11.712  12.948  68.777  1.00  0.00    -0.323 C  
BRANCH  18  19
HETATM   19  N   UNL     1     -12.280  14.311  68.950  1.00  0.00    -0.267 NA 
HETATM   20  C   UNL     1     -11.422  15.369  68.406  1.00  0.00    -0.355 C  
HETATM   21  C   UNL     1     -12.535  14.580  70.368  1.00  0.00    -0.347 C  
ENDBRANCH  18  19
ENDBRANCH  17  18
ENDBRANCH  10  17
ENDBRANCH   9  10
ENDBRANCH   6   9
ENDBRANCH   2   3
TORSDOF 7
ENDMDL
MODEL      231
REMARK 921   NORMALIZED FREE ENERGY PREDICTED BY IDOCK:   -2.84 KCAL/MOL
REMARK 922        TOTAL FREE ENERGY PREDICTED BY IDOCK:   -4.84 KCAL/MOL
REMARK 923 INTER-LIGAND FREE ENERGY PREDICTED BY IDOCK:   -4.78 KCAL/MOL
REMARK 924 INTRA-LIGAND FREE ENERGY PREDICTED BY IDOCK:   -0.06 KCAL/MOL
REMARK 927      BINDING AFFINITY PREDICTED BY RF-SCORE:    0.00 PKD
ROOT
HETATM    1  C   UNL     1      -8.244   5.479  71.268  1.00  0.00    -0.125 C  
HETATM    2  O   UNL     1      -8.387   5.544  69.856  1.00  0.00    -0.102 OA 
ENDROOT
BRANCH   2   3
HETATM    3  C   UNL     1      -9.165   6.557  69.366  1.00  0.00    -0.144 A  
HETATM    4  C   UNL     1      -9.836   6.556  68.145  1.00  0.00    -0.131 A  
HETATM    5  C   UNL     1     -10.523   7.700  67.719  1.00  0.00    -0.282 A  
HETATM    6  C   UNL     1     -10.561   8.865  68.507  1.00  0.00    -0.183 A  
HETATM    7  C   UNL     1      -9.953   8.817  69.768  1.00  0.00    -0.193 A  
HETATM    8  C   UNL     1      -9.265   7.677  70.194  1.00  0.00    -0.154 A  
BRANCH   6   9
HETATM    9  C   UNL     1     -11.033  10.209  67.967  1.00  0.00    -0.270 C  
BRANCH   9  10
HETATM   10  N   UNL     1     -10.145  10.872  67.033  1.00  0.00    -0.198 NA 
BRANCH  10  11
HETATM   11  C   UNL     1     -10.687  11.507  65.927  1.00  0.00    -0.272 A  
HETATM   12  N   UNL     1      -9.944  11.620  64.811  1.00  0.00    -0.249 NA 
HETATM   13  N   UNL     1     -11.919  12.038  66.010  1.00  0.00    -0.535 NA 
HETATM   14  C   UNL     1     -10.446  12.328  63.783  1.00  0.00    -0.444 A  
HETATM   15  C   UNL     1     -11.659  12.959  63.819  1.00  0.00    -0.538 A  
HETATM   16  C   UNL     1     -12.368  12.773  64.976  1.00  0.00    -0.499 A  
ENDBRANCH  10  11
BRANCH  10  17
HETATM   17  C   UNL     1      -8.683  10.919  67.149  1.00  0.00    -0.132 C  
BRANCH  17  18
HETATM   18  C   UNL     1      -7.866  10.308  65.988  1.00  0.00    -0.133 C  
BRANCH  18  19
HETATM   19  N   UNL     1      -7.045   9.132  66.376  1.00  0.00    -0.083 NA 
HETATM   20  C   UNL     1      -6.585   9.180  67.768  1.00  0.00    -0.060 C  
HETATM   21  C   UNL     1      -5.884   9.006  65.490  1.00  0.00    -0.050 C  
ENDBRANCH  18  19
ENDBRANCH  17  18
ENDBRANCH  10  17
ENDBRANCH   9  10
ENDBRANCH   6   9
ENDBRANCH   2   3
TORSDOF 7
ENDMDL
MODEL      232
REMARK 921   NORMALIZED FREE ENERGY PREDICTED BY IDOCK:   -2.79 KCAL/MOL
REMARK 922        TOTAL FREE ENERGY PREDICTED BY IDOCK:   -4.78 KCAL/MOL
REMARK 923 INTER-LIGAND FREE ENERGY PREDICTED BY IDOCK:   -4.09 KCAL/MOL
REMARK 924 INTRA-LIGAND FREE ENERGY PREDICTED BY IDOCK:   -0.69 KCAL/MOL
REMARK 927      BINDING AFFINITY PREDICTED BY RF-SCORE:    0.00 PKD
ROOT
HETATM    1  C   UNL     1      -9.039   3.192  64.041  1.00  0.00    -0.103 C  
HETATM    2  O   UNL     1      -8.634   4.444  63.505  1.00  0.00    -0.103 OA 
ENDROOT
BRANCH   2   3
HETATM    3  C   UNL     1      -8.422   5.454  64.405  1.00  0.00    -0.106 A  
HETATM    4  C   UNL     1      -8.573   5.362  65.786  1.00  0.00    -0.139 A  
HETATM    5  C   UNL     1      -8.416   6.501  66.588  1.00  0.00    -0.116 A  
HETATM    6  C   UNL     1      -8.099   7.751  66.026  1.00  0.00    -0.117 A  
HETATM    7  C   UNL     1      -7.867   7.804  64.645  1.00  0.00    -0.130 A  
HETATM    8  C   UNL     1      -8.025   6.668  63.844  1.00  0.00    -0.075 A  
BRANCH   6   9
HETATM    9  C   UNL     1      -8.208   9.055  66.806  1.00  0.00    -0.115 C  
BRANCH   9  10
HETATM   10  N   UNL     1      -9.549   9.569  67.008  1.00  0.00    -0.157 NA 
BRANCH  10  11
HETATM   11  C   UNL     1      -9.949  10.694  66.303  1.00  0.00    -0.222 A  
HETATM   12  N   UNL     1     -10.236  10.574  64.994  1.00  0.00    -0.317 NA 
HETATM   13  N   UNL     1      -9.990  11.883  66.928  1.00  0.00    -0.199 NA 
HETATM   14  C   UNL     1     -10.522  11.692  64.303  1.00  0.00    -0.331 A  
HETATM   15  C   UNL     1     -10.513  12.946  64.852  1.00  0.00    -0.351 A  
HETATM   16  C   UNL     1     -10.241  12.982  66.193  1.00  0.00    -0.284 A  
ENDBRANCH  10  11
BRANCH  10  17
HETATM   17  C   UNL     1     -10.541   8.999  67.926  1.00  0.00    -0.196 C  
BRANCH  17  18
HETATM   18  C   UNL     1     -10.133   8.875  69.412  1.00  0.00    -0.202 C  
BRANCH  18  19
HETATM   19  N   UNL     1     -10.516   7.584  70.041  1.00  0.00    -0.222 NA 
HETATM   20  C   UNL     1     -10.925   6.565  69.069  1.00  0.00    -0.321 C  
HETATM   21  C   UNL     1     -11.600   7.790  71.006  1.00  0.00    -0.283 C  
ENDBRANCH  18  19
ENDBRANCH  17  18
ENDBRANCH  10  17
ENDBRANCH   9  10
ENDBRANCH   6   9
ENDBRANCH   2   3
TORSDOF 7
ENDMDL
MODEL      233
REMARK 921   NORMALIZED FREE ENERGY PREDICTED BY IDOCK:   -2.78 KCAL/MOL
REMARK 922        TOTAL FREE ENERGY PREDICTED BY IDOCK:   -4.77 KCAL/MOL
REMARK 923 INTER-LIGAND FREE ENERGY PREDICTED BY IDOCK:   -4.11 KCAL/MOL
REMARK 924 INTRA-LIGAND FREE ENERGY PREDICTED BY IDOCK:   -0.66 KCAL/MOL
REMARK 927      BINDING AFFINITY PREDICTED BY RF-SCORE:    0.00 PKD
ROOT
HETATM    1  C   UNL     1     -11.260   5.531  72.967  1.00  0.00    -0.293 C  
HETATM    2  O   UNL     1     -11.512   6.779  72.337  1.00  0.00    -0.268 OA 
ENDROOT
BRANCH   2   3
HETATM    3  C   UNL     1     -10.694   7.113  71.292  1.00  0.00    -0.226 A  
HETATM    4  C   UNL     1      -9.394   6.655  71.093  1.00  0.00    -0.164 A  
HETATM    5  C   UNL     1      -8.629   7.151  70.029  1.00  0.00    -0.141 A  
HETATM    6  C   UNL     1      -9.150   8.107  69.139  1.00  0.00    -0.148 A  
HETATM    7  C   UNL     1     -10.488   8.490  69.304  1.00  0.00    -0.224 A  
HETATM    8  C   UNL     1     -11.251   7.997  70.367  1.00  0.00    -0.230 A  
BRANCH   6   9
HETATM    9  C   UNL     1      -8.276   8.885  68.162  1.00  0.00    -0.114 C  
BRANCH   9  10
HETATM   10  N   UNL     1      -8.159   8.331  66.828  1.00  0.00    -0.102 NA 
BRANCH  10  11
HETATM   11  C   UNL     1      -8.758   8.997  65.771  1.00  0.00    -0.169 A  
HETATM   12  N   UNL     1      -8.266   8.827  64.530  1.00  0.00    -0.160 NA 
HETATM   13  N   UNL     1      -9.781   9.835  66.014  1.00  0.00    -0.235 NA 
HETATM   14  C   UNL     1      -8.792   9.559  63.532  1.00  0.00    -0.212 A  
HETATM   15  C   UNL     1      -9.784  10.485  63.713  1.00  0.00    -0.385 A  
HETATM   16  C   UNL     1     -10.252  10.579  64.996  1.00  0.00    -0.295 A  
ENDBRANCH  10  11
BRANCH  10  17
HETATM   17  C   UNL     1      -7.457   7.088  66.489  1.00  0.00    -0.081 C  
BRANCH  17  18
HETATM   18  C   UNL     1      -8.206   5.763  66.759  1.00  0.00    -0.105 C  
BRANCH  18  19
HETATM   19  N   UNL     1      -9.173   5.385  65.696  1.00  0.00    -0.146 NA 
HETATM   20  C   UNL     1     -10.522   5.122  66.206  1.00  0.00    -0.289 C  
HETATM   21  C   UNL     1      -8.695   4.204  64.969  1.00  0.00    -0.124 C  
ENDBRANCH  18  19
ENDBRANCH  17  18
ENDBRANCH  10  17
ENDBRANCH   9  10
ENDBRANCH   6   9
ENDBRANCH   2   3
TORSDOF 7
ENDMDL
MODEL      234
REMARK 921   NORMALIZED FREE ENERGY PREDICTED BY IDOCK:   -2.76 KCAL/MOL
REMARK 922        TOTAL FREE ENERGY PREDICTED BY IDOCK:   -4.73 KCAL/MOL
REMARK 923 INTER-LIGAND FREE ENERGY PREDICTED BY IDOCK:   -4.14 KCAL/MOL
REMARK 924 INTRA-LIGAND FREE ENERGY PREDICTED BY IDOCK:   -0.59 KCAL/MOL
REMARK 927      BINDING AFFINITY PREDICTED BY RF-SCORE:    0.00 PKD
ROOT
HETATM    1  C   UNL     1      -5.954   8.694  72.552  1.00  0.00    -0.079 C  
HETATM    2  O   UNL     1      -7.305   8.949  72.191  1.00  0.00    -0.320 OA 
ENDROOT
BRANCH   2   3
HETATM    3  C   UNL     1      -7.521   9.417  70.923  1.00  0.00    -0.072 A  
HETATM    4  C   UNL     1      -6.552   9.934  70.066  1.00  0.00    -0.091 A  
HETATM    5  C   UNL     1      -6.923  10.470  68.827  1.00  0.00    -0.070 A  
HETATM    6  C   UNL     1      -8.268  10.494  68.415  1.00  0.00    -0.121 A  
HETATM    7  C   UNL     1      -9.216   9.892  69.253  1.00  0.00    -0.207 A  
HETATM    8  C   UNL     1      -8.847   9.359  70.491  1.00  0.00    -0.287 A  
BRANCH   6   9
HETATM    9  C   UNL     1      -8.751  11.320  67.229  1.00  0.00    -0.145 C  
BRANCH   9  10
HETATM   10  N   UNL     1      -9.203  10.574  66.071  1.00  0.00    -0.170 NA 
BRANCH  10  11
HETATM   11  C   UNL     1      -8.544   9.404  65.729  1.00  0.00    -0.145 A  
HETATM   12  N   UNL     1      -7.342   9.486  65.129  1.00  0.00    -0.105 NA 
HETATM   13  N   UNL     1      -9.139   8.220  65.955  1.00  0.00    -0.185 NA 
HETATM   14  C   UNL     1      -6.762   8.346  64.711  1.00  0.00    -0.068 A  
HETATM   15  C   UNL     1      -7.339   7.111  64.839  1.00  0.00    -0.084 A  
HETATM   16  C   UNL     1      -8.546   7.108  65.485  1.00  0.00    -0.080 A  
ENDBRANCH  10  11
BRANCH  10  17
HETATM   17  C   UNL     1     -10.316  10.964  65.199  1.00  0.00    -0.278 C  
BRANCH  17  18
HETATM   18  C   UNL     1     -11.312  12.007  65.755  1.00  0.00    -0.331 C  
BRANCH  18  19
HETATM   19  N   UNL     1     -11.797  12.982  64.744  1.00  0.00    -0.343 NA 
HETATM   20  C   UNL     1     -12.802  13.911  65.271  1.00  0.00    -0.398 C  
HETATM   21  C   UNL     1     -12.353  12.279  63.584  1.00  0.00    -0.562 C  
ENDBRANCH  18  19
ENDBRANCH  17  18
ENDBRANCH  10  17
ENDBRANCH   9  10
ENDBRANCH   6   9
ENDBRANCH   2   3
TORSDOF 7
ENDMDL
MODEL      235
REMARK 921   NORMALIZED FREE ENERGY PREDICTED BY IDOCK:   -2.73 KCAL/MOL
REMARK 922        TOTAL FREE ENERGY PREDICTED BY IDOCK:   -4.68 KCAL/MOL
REMARK 923 INTER-LIGAND FREE ENERGY PREDICTED BY IDOCK:   -4.14 KCAL/MOL
REMARK 924 INTRA-LIGAND FREE ENERGY PREDICTED BY IDOCK:   -0.55 KCAL/MOL
REMARK 927      BINDING AFFINITY PREDICTED BY RF-SCORE:    0.00 PKD
ROOT
HETATM    1  C   UNL     1     -13.616   9.670  72.025  1.00  0.00    -0.385 C  
HETATM    2  O   UNL     1     -13.019   8.451  72.448  1.00  0.00    -0.322 OA 
ENDROOT
BRANCH   2   3
HETATM    3  C   UNL     1     -12.030   7.945  71.648  1.00  0.00    -0.294 A  
HETATM    4  C   UNL     1     -11.951   6.638  71.174  1.00  0.00    -0.412 A  
HETATM    5  C   UNL     1     -10.832   6.222  70.441  1.00  0.00    -0.360 A  
HETATM    6  C   UNL     1      -9.774   7.106  70.160  1.00  0.00    -0.171 A  
HETATM    7  C   UNL     1      -9.912   8.438  70.571  1.00  0.00    -0.205 A  
HETATM    8  C   UNL     1     -11.028   8.853  71.305  1.00  0.00    -0.363 A  
BRANCH   6   9
HETATM    9  C   UNL     1      -8.425   6.633  69.633  1.00  0.00    -0.132 C  
BRANCH   9  10
HETATM   10  N   UNL     1      -8.341   6.403  68.204  1.00  0.00    -0.116 NA 
BRANCH  10  11
HETATM   11  C   UNL     1      -8.007   7.461  67.374  1.00  0.00    -0.112 A  
HETATM   12  N   UNL     1      -6.744   7.559  66.920  1.00  0.00    -0.064 NA 
HETATM   13  N   UNL     1      -8.934   8.390  67.083  1.00  0.00    -0.135 NA 
HETATM   14  C   UNL     1      -6.410   8.646  66.201  1.00  0.00    -0.056 A  
HETATM   15  C   UNL     1      -7.278   9.668  65.926  1.00  0.00    -0.099 A  
HETATM   16  C   UNL     1      -8.550   9.481  66.396  1.00  0.00    -0.134 A  
ENDBRANCH  10  11
BRANCH  10  17
HETATM   17  C   UNL     1      -8.599   5.121  67.540  1.00  0.00    -0.104 C  
BRANCH  17  18
HETATM   18  C   UNL     1      -9.429   5.160  66.237  1.00  0.00    -0.156 C  
BRANCH  18  19
HETATM   19  N   UNL     1      -9.176   4.016  65.322  1.00  0.00    -0.141 NA 
HETATM   20  C   UNL     1     -10.231   3.832  64.319  1.00  0.00    -0.235 C  
HETATM   21  C   UNL     1      -9.019   2.776  66.088  1.00  0.00    -0.142 C  
ENDBRANCH  18  19
ENDBRANCH  17  18
ENDBRANCH  10  17
ENDBRANCH   9  10
ENDBRANCH   6   9
ENDBRANCH   2   3
TORSDOF 7
ENDMDL
MODEL      236
REMARK 921   NORMALIZED FREE ENERGY PREDICTED BY IDOCK:   -2.71 KCAL/MOL
REMARK 922        TOTAL FREE ENERGY PREDICTED BY IDOCK:   -4.66 KCAL/MOL
REMARK 923 INTER-LIGAND FREE ENERGY PREDICTED BY IDOCK:   -4.11 KCAL/MOL
REMARK 924 INTRA-LIGAND FREE ENERGY PREDICTED BY IDOCK:   -0.55 KCAL/MOL
REMARK 927      BINDING AFFINITY PREDICTED BY RF-SCORE:    0.00 PKD
ROOT
HETATM    1  C   UNL     1      -6.227   8.204  63.065  1.00  0.00    -0.081 C  
HETATM    2  O   UNL     1      -5.955   7.841  64.411  1.00  0.00    -0.047 OA 
ENDROOT
BRANCH   2   3
HETATM    3  C   UNL     1      -7.024   7.816  65.265  1.00  0.00    -0.059 A  
HETATM    4  C   UNL     1      -7.664   6.674  65.741  1.00  0.00    -0.092 A  
HETATM    5  C   UNL     1      -8.811   6.791  66.537  1.00  0.00    -0.150 A  
HETATM    6  C   UNL     1      -9.336   8.050  66.880  1.00  0.00    -0.209 A  
HETATM    7  C   UNL     1      -8.629   9.186  66.464  1.00  0.00    -0.136 A  
HETATM    8  C   UNL     1      -7.485   9.070  65.668  1.00  0.00    -0.086 A  
BRANCH   6   9
HETATM    9  C   UNL     1     -10.724   8.226  67.483  1.00  0.00    -0.147 C  
BRANCH   9  10
HETATM   10  N   UNL     1     -10.772   8.717  68.847  1.00  0.00    -0.142 NA 
BRANCH  10  11
HETATM   11  C   UNL     1     -10.910   7.806  69.882  1.00  0.00    -0.226 A  
HETATM   12  N   UNL     1     -10.019   6.803  69.990  1.00  0.00    -0.175 NA 
HETATM   13  N   UNL     1     -11.955   7.913  70.720  1.00  0.00    -0.197 NA 
HETATM   14  C   UNL     1     -10.225   5.870  70.936  1.00  0.00    -0.213 A  
HETATM   15  C   UNL     1     -11.305   5.871  71.778  1.00  0.00    -0.289 A  
HETATM   16  C   UNL     1     -12.149   6.937  71.626  1.00  0.00    -0.353 A  
ENDBRANCH  10  11
BRANCH  10  17
HETATM   17  C   UNL     1     -10.700  10.129  69.238  1.00  0.00    -0.231 C  
BRANCH  17  18
HETATM   18  C   UNL     1     -12.000  10.957  69.121  1.00  0.00    -0.288 C  
BRANCH  18  19
HETATM   19  N   UNL     1     -11.904  12.109  68.187  1.00  0.00    -0.436 NA 
HETATM   20  C   UNL     1     -10.707  12.071  67.341  1.00  0.00    -0.229 C  
HETATM   21  C   UNL     1     -11.926  13.371  68.933  1.00  0.00    -0.324 C  
ENDBRANCH  18  19
ENDBRANCH  17  18
ENDBRANCH  10  17
ENDBRANCH   9  10
ENDBRANCH   6   9
ENDBRANCH   2   3
TORSDOF 7
ENDMDL
MODEL      237
REMARK 921   NORMALIZED FREE ENERGY PREDICTED BY IDOCK:   -2.71 KCAL/MOL
REMARK 922        TOTAL FREE ENERGY PREDICTED BY IDOCK:   -4.66 KCAL/MOL
REMARK 923 INTER-LIGAND FREE ENERGY PREDICTED BY IDOCK:   -4.02 KCAL/MOL
REMARK 924 INTRA-LIGAND FREE ENERGY PREDICTED BY IDOCK:   -0.65 KCAL/MOL
REMARK 927      BINDING AFFINITY PREDICTED BY RF-SCORE:    0.00 PKD
ROOT
HETATM    1  C   UNL     1     -11.268   5.637  72.915  1.00  0.00    -0.290 C  
HETATM    2  O   UNL     1     -11.173   7.047  72.763  1.00  0.00    -0.274 OA 
ENDROOT
BRANCH   2   3
HETATM    3  C   UNL     1     -10.515   7.498  71.650  1.00  0.00    -0.200 A  
HETATM    4  C   UNL     1     -10.113   6.720  70.567  1.00  0.00    -0.201 A  
HETATM    5  C   UNL     1      -9.360   7.291  69.532  1.00  0.00    -0.152 A  
HETATM    6  C   UNL     1      -9.001   8.651  69.556  1.00  0.00    -0.145 A  
HETATM    7  C   UNL     1      -9.487   9.435  70.611  1.00  0.00    -0.325 A  
HETATM    8  C   UNL     1     -10.237   8.865  71.645  1.00  0.00    -0.415 A  
BRANCH   6   9
HETATM    9  C   UNL     1      -7.950   9.241  68.623  1.00  0.00    -0.100 C  
BRANCH   9  10
HETATM   10  N   UNL     1      -8.146  10.622  68.231  1.00  0.00    -0.113 NA 
BRANCH  10  11
HETATM   11  C   UNL     1      -7.264  11.583  68.699  1.00  0.00    -0.102 A  
HETATM   12  N   UNL     1      -6.993  12.651  67.926  1.00  0.00    -0.096 NA 
HETATM   13  N   UNL     1      -6.663  11.404  69.888  1.00  0.00    -0.088 NA 
HETATM   14  C   UNL     1      -6.059  13.521  68.350  1.00  0.00    -0.094 A  
HETATM   15  C   UNL     1      -5.352  13.366  69.512  1.00  0.00    -0.086 A  
HETATM   16  C   UNL     1      -5.706  12.274  70.257  1.00  0.00    -0.167 A  
ENDBRANCH  10  11
BRANCH  10  17
HETATM   17  C   UNL     1      -9.231  11.109  67.372  1.00  0.00    -0.153 C  
BRANCH  17  18
HETATM   18  C   UNL     1     -10.366  11.905  68.056  1.00  0.00    -0.196 C  
BRANCH  18  19
HETATM   19  N   UNL     1     -10.441  13.331  67.644  1.00  0.00    -0.227 NA 
HETATM   20  C   UNL     1     -10.699  14.244  68.763  1.00  0.00    -0.254 C  
HETATM   21  C   UNL     1     -11.480  13.513  66.626  1.00  0.00    -0.339 C  
ENDBRANCH  18  19
ENDBRANCH  17  18
ENDBRANCH  10  17
ENDBRANCH   9  10
ENDBRANCH   6   9
ENDBRANCH   2   3
TORSDOF 7
ENDMDL
MODEL      238
REMARK 921   NORMALIZED FREE ENERGY PREDICTED BY IDOCK:   -2.68 KCAL/MOL
REMARK 922        TOTAL FREE ENERGY PREDICTED BY IDOCK:   -4.62 KCAL/MOL
REMARK 923 INTER-LIGAND FREE ENERGY PREDICTED BY IDOCK:   -4.29 KCAL/MOL
REMARK 924 INTRA-LIGAND FREE ENERGY PREDICTED BY IDOCK:   -0.33 KCAL/MOL
REMARK 927      BINDING AFFINITY PREDICTED BY RF-SCORE:    0.00 PKD
ROOT
HETATM    1  C   UNL     1      -7.625  19.789  66.186  1.00  0.00    -0.320 C  
HETATM    2  O   UNL     1      -8.825  19.028  66.172  1.00  0.00    -0.417 OA 
ENDROOT
BRANCH   2   3
HETATM    3  C   UNL     1      -8.748  17.758  66.675  1.00  0.00    -0.261 A  
HETATM    4  C   UNL     1      -7.786  16.805  66.346  1.00  0.00    -0.353 A  
HETATM    5  C   UNL     1      -7.879  15.506  66.861  1.00  0.00    -0.229 A  
HETATM    6  C   UNL     1      -8.928  15.134  67.721  1.00  0.00    -0.178 A  
HETATM    7  C   UNL     1      -9.836  16.129  68.108  1.00  0.00    -0.227 A  
HETATM    8  C   UNL     1      -9.746  17.425  67.592  1.00  0.00    -0.270 A  
BRANCH   6   9
HETATM    9  C   UNL     1      -9.235  13.682  68.065  1.00  0.00    -0.197 C  
BRANCH   9  10
HETATM   10  N   UNL     1      -8.384  12.684  67.447  1.00  0.00    -0.175 NA 
BRANCH  10  11
HETATM   11  C   UNL     1      -8.948  11.776  66.564  1.00  0.00    -0.196 A  
HETATM   12  N   UNL     1      -8.218  10.720  66.162  1.00  0.00    -0.160 NA 
HETATM   13  N   UNL     1     -10.187  11.997  66.093  1.00  0.00    -0.220 NA 
HETATM   14  C   UNL     1      -8.741   9.905  65.228  1.00  0.00    -0.160 A  
HETATM   15  C   UNL     1      -9.964  10.106  64.647  1.00  0.00    -0.304 A  
HETATM   16  C   UNL     1     -10.658  11.183  65.130  1.00  0.00    -0.253 A  
ENDBRANCH  10  11
BRANCH  10  17
HETATM   17  C   UNL     1      -6.945  12.537  67.689  1.00  0.00    -0.139 C  
BRANCH  17  18
HETATM   18  C   UNL     1      -6.521  11.652  68.883  1.00  0.00    -0.071 C  
BRANCH  18  19
HETATM   19  N   UNL     1      -5.559  12.303  69.810  1.00  0.00    -0.090 NA 
HETATM   20  C   UNL     1      -5.572  11.727  71.159  1.00  0.00     0.054 C  
HETATM   21  C   UNL     1      -5.832  13.741  69.899  1.00  0.00    -0.126 C  
ENDBRANCH  18  19
ENDBRANCH  17  18
ENDBRANCH  10  17
ENDBRANCH   9  10
ENDBRANCH   6   9
ENDBRANCH   2   3
TORSDOF 7
ENDMDL
MODEL      239
REMARK 921   NORMALIZED FREE ENERGY PREDICTED BY IDOCK:   -2.66 KCAL/MOL
REMARK 922        TOTAL FREE ENERGY PREDICTED BY IDOCK:   -4.60 KCAL/MOL
REMARK 923 INTER-LIGAND FREE ENERGY PREDICTED BY IDOCK:   -4.12 KCAL/MOL
REMARK 924 INTRA-LIGAND FREE ENERGY PREDICTED BY IDOCK:   -0.48 KCAL/MOL
REMARK 927      BINDING AFFINITY PREDICTED BY RF-SCORE:    0.00 PKD
ROOT
HETATM    1  C   UNL     1      -7.008   7.693  64.324  1.00  0.00    -0.060 C  
HETATM    2  O   UNL     1      -6.309   7.825  65.554  1.00  0.00    -0.041 OA 
ENDROOT
BRANCH   2   3
HETATM    3  C   UNL     1      -7.037   8.263  66.627  1.00  0.00    -0.077 A  
HETATM    4  C   UNL     1      -6.892   9.492  67.267  1.00  0.00    -0.084 A  
HETATM    5  C   UNL     1      -7.637   9.778  68.418  1.00  0.00    -0.080 A  
HETATM    6  C   UNL     1      -8.548   8.846  68.948  1.00  0.00    -0.135 A  
HETATM    7  C   UNL     1      -8.742   7.652  68.242  1.00  0.00    -0.123 A  
HETATM    8  C   UNL     1      -7.997   7.365  67.094  1.00  0.00    -0.114 A  
BRANCH   6   9
HETATM    9  C   UNL     1      -9.152   8.986  70.340  1.00  0.00    -0.210 C  
BRANCH   9  10
HETATM   10  N   UNL     1     -10.598   9.071  70.404  1.00  0.00    -0.207 NA 
BRANCH  10  11
HETATM   11  C   UNL     1     -11.204  10.309  70.260  1.00  0.00    -0.323 A  
HETATM   12  N   UNL     1     -10.799  11.120  69.267  1.00  0.00    -0.233 NA 
HETATM   13  N   UNL     1     -12.143  10.690  71.143  1.00  0.00    -0.353 NA 
HETATM   14  C   UNL     1     -11.324  12.357  69.203  1.00  0.00    -0.269 A  
HETATM   15  C   UNL     1     -12.229  12.843  70.108  1.00  0.00    -0.336 A  
HETATM   16  C   UNL     1     -12.613  11.949  71.071  1.00  0.00    -0.283 A  
ENDBRANCH  10  11
BRANCH  10  17
HETATM   17  C   UNL     1     -11.499   7.935  70.628  1.00  0.00    -0.238 C  
BRANCH  17  18
HETATM   18  C   UNL     1     -11.249   7.078  71.890  1.00  0.00    -0.249 C  
BRANCH  18  19
HETATM   19  N   UNL     1     -11.094   5.626  71.616  1.00  0.00    -0.224 NA 
HETATM   20  C   UNL     1     -10.287   4.929  72.623  1.00  0.00    -0.197 C  
HETATM   21  C   UNL     1     -10.497   5.418  70.293  1.00  0.00    -0.285 C  
ENDBRANCH  18  19
ENDBRANCH  17  18
ENDBRANCH  10  17
ENDBRANCH   9  10
ENDBRANCH   6   9
ENDBRANCH   2   3
TORSDOF 7
ENDMDL
MODEL      240
REMARK 921   NORMALIZED FREE ENERGY PREDICTED BY IDOCK:   -2.65 KCAL/MOL
REMARK 922        TOTAL FREE ENERGY PREDICTED BY IDOCK:   -4.58 KCAL/MOL
REMARK 923 INTER-LIGAND FREE ENERGY PREDICTED BY IDOCK:   -3.69 KCAL/MOL
REMARK 924 INTRA-LIGAND FREE ENERGY PREDICTED BY IDOCK:   -0.89 KCAL/MOL
REMARK 927      BINDING AFFINITY PREDICTED BY RF-SCORE:    0.00 PKD
ROOT
HETATM    1  C   UNL     1     -11.146   5.750  73.047  1.00  0.00    -0.265 C  
HETATM    2  O   UNL     1     -11.291   6.779  72.077  1.00  0.00    -0.251 OA 
ENDROOT
BRANCH   2   3
HETATM    3  C   UNL     1     -10.613   6.608  70.900  1.00  0.00    -0.224 A  
HETATM    4  C   UNL     1      -9.241   6.763  70.716  1.00  0.00    -0.158 A  
HETATM    5  C   UNL     1      -8.686   6.652  69.434  1.00  0.00    -0.135 A  
HETATM    6  C   UNL     1      -9.489   6.377  68.313  1.00  0.00    -0.121 A  
HETATM    7  C   UNL     1     -10.853   6.139  68.531  1.00  0.00    -0.389 A  
HETATM    8  C   UNL     1     -11.408   6.251  69.809  1.00  0.00    -0.506 A  
BRANCH   6   9
HETATM    9  C   UNL     1      -8.988   6.538  66.883  1.00  0.00    -0.126 C  
BRANCH   9  10
HETATM   10  N   UNL     1      -8.382   5.366  66.281  1.00  0.00    -0.113 NA 
BRANCH  10  11
HETATM   11  C   UNL     1      -8.944   4.838  65.130  1.00  0.00    -0.152 A  
HETATM   12  N   UNL     1     -10.125   4.199  65.216  1.00  0.00    -0.214 NA 
HETATM   13  N   UNL     1      -8.275   4.929  63.968  1.00  0.00    -0.116 NA 
HETATM   14  C   UNL     1     -10.606   3.603  64.110  1.00  0.00    -0.237 A  
HETATM   15  C   UNL     1      -9.949   3.590  62.910  1.00  0.00    -0.137 A  
HETATM   16  C   UNL     1      -8.770   4.285  62.895  1.00  0.00    -0.110 A  
ENDBRANCH  10  11
BRANCH  10  17
HETATM   17  C   UNL     1      -7.206   4.664  66.804  1.00  0.00    -0.080 C  
BRANCH  17  18
HETATM   18  C   UNL     1      -7.432   3.247  67.380  1.00  0.00    -0.062 C  
BRANCH  18  19
HETATM   19  N   UNL     1      -8.205   3.224  68.649  1.00  0.00    -0.060 NA 
HETATM   20  C   UNL     1      -7.415   2.775  69.800  1.00  0.00    -0.044 C  
HETATM   21  C   UNL     1      -9.385   2.365  68.511  1.00  0.00    -0.192 C  
ENDBRANCH  18  19
ENDBRANCH  17  18
ENDBRANCH  10  17
ENDBRANCH   9  10
ENDBRANCH   6   9
ENDBRANCH   2   3
TORSDOF 7
ENDMDL
MODEL      241
REMARK 921   NORMALIZED FREE ENERGY PREDICTED BY IDOCK:   -2.62 KCAL/MOL
REMARK 922        TOTAL FREE ENERGY PREDICTED BY IDOCK:   -4.53 KCAL/MOL
REMARK 923 INTER-LIGAND FREE ENERGY PREDICTED BY IDOCK:   -3.59 KCAL/MOL
REMARK 924 INTRA-LIGAND FREE ENERGY PREDICTED BY IDOCK:   -0.95 KCAL/MOL
REMARK 927      BINDING AFFINITY PREDICTED BY RF-SCORE:    0.00 PKD
ROOT
HETATM    1  C   UNL     1     -10.906   5.399  73.452  1.00  0.00    -0.297 C  
HETATM    2  O   UNL     1     -11.582   6.108  72.423  1.00  0.00    -0.295 OA 
ENDROOT
BRANCH   2   3
HETATM    3  C   UNL     1     -11.144   5.894  71.144  1.00  0.00    -0.236 A  
HETATM    4  C   UNL     1     -11.594   6.556  70.004  1.00  0.00    -0.455 A  
HETATM    5  C   UNL     1     -11.131   6.172  68.739  1.00  0.00    -0.398 A  
HETATM    6  C   UNL     1     -10.204   5.125  68.588  1.00  0.00    -0.192 A  
HETATM    7  C   UNL     1      -9.699   4.530  69.751  1.00  0.00    -0.285 A  
HETATM    8  C   UNL     1     -10.163   4.911  71.014  1.00  0.00    -0.262 A  
BRANCH   6   9
HETATM    9  C   UNL     1      -9.900   4.483  67.240  1.00  0.00    -0.175 C  
BRANCH   9  10
HETATM   10  N   UNL     1      -8.842   5.098  66.462  1.00  0.00    -0.116 NA 
BRANCH  10  11
HETATM   11  C   UNL     1      -7.662   4.397  66.265  1.00  0.00    -0.094 A  
HETATM   12  N   UNL     1      -7.401   3.892  65.045  1.00  0.00    -0.067 NA 
HETATM   13  N   UNL     1      -6.834   4.194  67.304  1.00  0.00    -0.047 NA 
HETATM   14  C   UNL     1      -6.304   3.129  64.896  1.00  0.00    -0.024 A  
HETATM   15  C   UNL     1      -5.453   2.817  65.922  1.00  0.00    -0.017 A  
HETATM   16  C   UNL     1      -5.769   3.391  67.123  1.00  0.00    -0.022 A  
ENDBRANCH  10  11
BRANCH  10  17
HETATM   17  C   UNL     1      -8.904   6.435  65.863  1.00  0.00    -0.131 C  
BRANCH  17  18
HETATM   18  C   UNL     1      -7.915   7.493  66.404  1.00  0.00    -0.107 C  
BRANCH  18  19
HETATM   19  N   UNL     1      -8.460   8.325  67.508  1.00  0.00    -0.129 NA 
HETATM   20  C   UNL     1      -8.261   9.763  67.303  1.00  0.00    -0.117 C  
HETATM   21  C   UNL     1      -7.856   7.933  68.786  1.00  0.00    -0.118 C  
ENDBRANCH  18  19
ENDBRANCH  17  18
ENDBRANCH  10  17
ENDBRANCH   9  10
ENDBRANCH   6   9
ENDBRANCH   2   3
TORSDOF 7
ENDMDL
MODEL      242
REMARK 921   NORMALIZED FREE ENERGY PREDICTED BY IDOCK:   -2.56 KCAL/MOL
REMARK 922        TOTAL FREE ENERGY PREDICTED BY IDOCK:   -4.45 KCAL/MOL
REMARK 923 INTER-LIGAND FREE ENERGY PREDICTED BY IDOCK:   -3.66 KCAL/MOL
REMARK 924 INTRA-LIGAND FREE ENERGY PREDICTED BY IDOCK:   -0.78 KCAL/MOL
REMARK 927      BINDING AFFINITY PREDICTED BY RF-SCORE:    0.00 PKD
ROOT
HETATM    1  C   UNL     1     -13.526   9.529  71.531  1.00  0.00    -0.368 C  
HETATM    2  O   UNL     1     -12.552   9.069  72.457  1.00  0.00    -0.359 OA 
ENDROOT
BRANCH   2   3
HETATM    3  C   UNL     1     -11.854   7.947  72.104  1.00  0.00    -0.334 A  
HETATM    4  C   UNL     1     -11.873   7.332  70.854  1.00  0.00    -0.351 A  
HETATM    5  C   UNL     1     -11.186   6.129  70.651  1.00  0.00    -0.387 A  
HETATM    6  C   UNL     1     -10.460   5.519  71.691  1.00  0.00    -0.292 A  
HETATM    7  C   UNL     1     -10.382   6.196  72.915  1.00  0.00    -0.217 A  
HETATM    8  C   UNL     1     -11.070   7.396  73.118  1.00  0.00    -0.357 A  
BRANCH   6   9
HETATM    9  C   UNL     1      -9.950   4.085  71.608  1.00  0.00    -0.162 C  
BRANCH   9  10
HETATM   10  N   UNL     1      -8.585   3.917  71.150  1.00  0.00    -0.075 NA 
BRANCH  10  11
HETATM   11  C   UNL     1      -7.566   3.861  72.088  1.00  0.00    -0.066 A  
HETATM   12  N   UNL     1      -7.149   2.659  72.526  1.00  0.00    -0.030 NA 
HETATM   13  N   UNL     1      -7.055   5.005  72.576  1.00  0.00    -0.079 NA 
HETATM   14  C   UNL     1      -6.232   2.625  73.510  1.00  0.00    -0.012 A  
HETATM   15  C   UNL     1      -5.720   3.746  74.107  1.00  0.00    -0.004 A  
HETATM   16  C   UNL     1      -6.171   4.929  73.587  1.00  0.00    -0.046 A  
ENDBRANCH  10  11
BRANCH  10  17
HETATM   17  C   UNL     1      -8.173   3.812  69.746  1.00  0.00    -0.053 C  
BRANCH  17  18
HETATM   18  C   UNL     1      -7.846   5.131  69.010  1.00  0.00    -0.081 C  
BRANCH  18  19
HETATM   19  N   UNL     1      -8.316   5.172  67.601  1.00  0.00    -0.106 NA 
HETATM   20  C   UNL     1      -8.284   6.517  67.018  1.00  0.00    -0.113 C  
HETATM   21  C   UNL     1      -9.678   4.638  67.503  1.00  0.00    -0.172 C  
ENDBRANCH  18  19
ENDBRANCH  17  18
ENDBRANCH  10  17
ENDBRANCH   9  10
ENDBRANCH   6   9
ENDBRANCH   2   3
TORSDOF 7
ENDMDL
MODEL      243
REMARK 921   NORMALIZED FREE ENERGY PREDICTED BY IDOCK:   -2.55 KCAL/MOL
REMARK 922        TOTAL FREE ENERGY PREDICTED BY IDOCK:   -4.44 KCAL/MOL
REMARK 923 INTER-LIGAND FREE ENERGY PREDICTED BY IDOCK:   -4.15 KCAL/MOL
REMARK 924 INTRA-LIGAND FREE ENERGY PREDICTED BY IDOCK:   -0.30 KCAL/MOL
REMARK 927      BINDING AFFINITY PREDICTED BY RF-SCORE:    0.00 PKD
ROOT
HETATM    1  C   UNL     1      -9.817  16.117  69.110  1.00  0.00    -0.250 C  
HETATM    2  O   UNL     1      -8.434  16.093  68.782  1.00  0.00    -0.208 OA 
ENDROOT
BRANCH   2   3
HETATM    3  C   UNL     1      -7.921  14.888  68.385  1.00  0.00    -0.134 A  
HETATM    4  C   UNL     1      -6.571  14.594  68.203  1.00  0.00    -0.139 A  
HETATM    5  C   UNL     1      -6.185  13.345  67.699  1.00  0.00    -0.145 A  
HETATM    6  C   UNL     1      -7.138  12.363  67.374  1.00  0.00    -0.152 A  
HETATM    7  C   UNL     1      -8.484  12.646  67.645  1.00  0.00    -0.173 A  
HETATM    8  C   UNL     1      -8.870  13.893  68.146  1.00  0.00    -0.184 A  
BRANCH   6   9
HETATM    9  C   UNL     1      -6.796  11.122  66.559  1.00  0.00    -0.126 C  
BRANCH   9  10
HETATM   10  N   UNL     1      -7.899  10.232  66.255  1.00  0.00    -0.113 NA 
BRANCH  10  11
HETATM   11  C   UNL     1      -8.466  10.276  64.991  1.00  0.00    -0.172 A  
HETATM   12  N   UNL     1      -7.827   9.678  63.969  1.00  0.00    -0.129 NA 
HETATM   13  N   UNL     1      -9.611  10.955  64.805  1.00  0.00    -0.234 NA 
HETATM   14  C   UNL     1      -8.337   9.817  62.732  1.00  0.00    -0.160 A  
HETATM   15  C   UNL     1      -9.457  10.554  62.454  1.00  0.00    -0.246 A  
HETATM   16  C   UNL     1     -10.066  11.106  63.548  1.00  0.00    -0.385 A  
ENDBRANCH  10  11
BRANCH  10  17
HETATM   17  C   UNL     1      -8.493   9.275  67.194  1.00  0.00    -0.124 C  
BRANCH  17  18
HETATM   18  C   UNL     1      -9.337   8.130  66.590  1.00  0.00    -0.197 C  
BRANCH  18  19
HETATM   19  N   UNL     1     -10.557   7.798  67.372  1.00  0.00    -0.284 NA 
HETATM   20  C   UNL     1     -10.361   7.899  68.822  1.00  0.00    -0.203 C  
HETATM   21  C   UNL     1     -11.021   6.446  67.042  1.00  0.00    -0.389 C  
ENDBRANCH  18  19
ENDBRANCH  17  18
ENDBRANCH  10  17
ENDBRANCH   9  10
ENDBRANCH   6   9
ENDBRANCH   2   3
TORSDOF 7
ENDMDL
MODEL      244
REMARK 921   NORMALIZED FREE ENERGY PREDICTED BY IDOCK:   -2.52 KCAL/MOL
REMARK 922        TOTAL FREE ENERGY PREDICTED BY IDOCK:   -4.39 KCAL/MOL
REMARK 923 INTER-LIGAND FREE ENERGY PREDICTED BY IDOCK:   -3.61 KCAL/MOL
REMARK 924 INTRA-LIGAND FREE ENERGY PREDICTED BY IDOCK:   -0.78 KCAL/MOL
REMARK 927      BINDING AFFINITY PREDICTED BY RF-SCORE:    0.00 PKD
ROOT
HETATM    1  C   UNL     1      -7.732   7.443  63.643  1.00  0.00    -0.125 C  
HETATM    2  O   UNL     1      -6.824   7.533  64.732  1.00  0.00    -0.046 OA 
ENDROOT
BRANCH   2   3
HETATM    3  C   UNL     1      -7.365   7.450  65.987  1.00  0.00    -0.075 A  
HETATM    4  C   UNL     1      -7.774   8.525  66.773  1.00  0.00    -0.091 A  
HETATM    5  C   UNL     1      -8.224   8.308  68.082  1.00  0.00    -0.128 A  
HETATM    6  C   UNL     1      -8.281   7.014  68.628  1.00  0.00    -0.122 A  
HETATM    7  C   UNL     1      -7.948   5.939  67.794  1.00  0.00    -0.098 A  
HETATM    8  C   UNL     1      -7.497   6.155  66.488  1.00  0.00    -0.086 A  
BRANCH   6   9
HETATM    9  C   UNL     1      -8.476   6.757  70.118  1.00  0.00    -0.139 C  
BRANCH   9  10
HETATM   10  N   UNL     1      -9.740   6.162  70.505  1.00  0.00    -0.171 NA 
BRANCH  10  11
HETATM   11  C   UNL     1      -9.732   4.941  71.161  1.00  0.00    -0.179 A  
HETATM   12  N   UNL     1     -10.535   4.770  72.227  1.00  0.00    -0.204 NA 
HETATM   13  N   UNL     1      -8.889   3.977  70.752  1.00  0.00    -0.080 NA 
HETATM   14  C   UNL     1     -10.441   3.618  72.915  1.00  0.00    -0.156 A  
HETATM   15  C   UNL     1      -9.556   2.621  72.604  1.00  0.00    -0.171 A  
HETATM   16  C   UNL     1      -8.795   2.856  71.491  1.00  0.00    -0.077 A  
ENDBRANCH  10  11
BRANCH  10  17
HETATM   17  C   UNL     1     -11.061   6.743  70.243  1.00  0.00    -0.310 C  
BRANCH  17  18
HETATM   18  C   UNL     1     -11.330   8.157  70.807  1.00  0.00    -0.270 C  
BRANCH  18  19
HETATM   19  N   UNL     1     -12.364   8.197  71.874  1.00  0.00    -0.316 NA 
HETATM   20  C   UNL     1     -13.467   7.257  71.649  1.00  0.00    -0.354 C  
HETATM   21  C   UNL     1     -12.907   9.553  72.006  1.00  0.00    -0.414 C  
ENDBRANCH  18  19
ENDBRANCH  17  18
ENDBRANCH  10  17
ENDBRANCH   9  10
ENDBRANCH   6   9
ENDBRANCH   2   3
TORSDOF 7
ENDMDL
MODEL      245
REMARK 921   NORMALIZED FREE ENERGY PREDICTED BY IDOCK:   -2.49 KCAL/MOL
REMARK 922        TOTAL FREE ENERGY PREDICTED BY IDOCK:   -4.35 KCAL/MOL
REMARK 923 INTER-LIGAND FREE ENERGY PREDICTED BY IDOCK:   -3.64 KCAL/MOL
REMARK 924 INTRA-LIGAND FREE ENERGY PREDICTED BY IDOCK:   -0.71 KCAL/MOL
REMARK 927      BINDING AFFINITY PREDICTED BY RF-SCORE:    0.00 PKD
ROOT
HETATM    1  C   UNL     1     -10.177   1.722  63.216  1.00  0.00    -0.126 C  
HETATM    2  O   UNL     1     -10.137   3.142  63.246  1.00  0.00    -0.117 OA 
ENDROOT
BRANCH   2   3
HETATM    3  C   UNL     1      -9.524   3.714  64.327  1.00  0.00    -0.152 A  
HETATM    4  C   UNL     1      -9.649   3.299  65.651  1.00  0.00    -0.043 A  
HETATM    5  C   UNL     1      -9.042   4.034  66.678  1.00  0.00    -0.149 A  
HETATM    6  C   UNL     1      -8.292   5.191  66.403  1.00  0.00    -0.108 A  
HETATM    7  C   UNL     1      -8.107   5.543  65.059  1.00  0.00    -0.119 A  
HETATM    8  C   UNL     1      -8.714   4.812  64.034  1.00  0.00    -0.138 A  
BRANCH   6   9
HETATM    9  C   UNL     1      -7.868   6.175  67.487  1.00  0.00    -0.102 C  
BRANCH   9  10
HETATM   10  N   UNL     1      -8.756   7.298  67.715  1.00  0.00    -0.126 NA 
BRANCH  10  11
HETATM   11  C   UNL     1      -9.686   7.220  68.740  1.00  0.00    -0.151 A  
HETATM   12  N   UNL     1      -9.397   7.787  69.925  1.00  0.00    -0.157 NA 
HETATM   13  N   UNL     1     -10.828   6.540  68.544  1.00  0.00    -0.274 NA 
HETATM   14  C   UNL     1     -10.263   7.614  70.940  1.00  0.00    -0.199 A  
HETATM   15  C   UNL     1     -11.410   6.874  70.838  1.00  0.00    -0.348 A  
HETATM   16  C   UNL     1     -11.649   6.355  69.594  1.00  0.00    -0.282 A  
ENDBRANCH  10  11
BRANCH  10  17
HETATM   17  C   UNL     1      -8.769   8.535  66.927  1.00  0.00    -0.128 C  
BRANCH  17  18
HETATM   18  C   UNL     1     -10.093   8.905  66.221  1.00  0.00    -0.214 C  
BRANCH  18  19
HETATM   19  N   UNL     1     -10.501  10.323  66.399  1.00  0.00    -0.199 NA 
HETATM   20  C   UNL     1      -9.471  11.279  65.977  1.00  0.00    -0.216 C  
HETATM   21  C   UNL     1     -10.852  10.580  67.799  1.00  0.00    -0.294 C  
ENDBRANCH  18  19
ENDBRANCH  17  18
ENDBRANCH  10  17
ENDBRANCH   9  10
ENDBRANCH   6   9
ENDBRANCH   2   3
TORSDOF 7
ENDMDL
MODEL      246
REMARK 921   NORMALIZED FREE ENERGY PREDICTED BY IDOCK:   -2.45 KCAL/MOL
REMARK 922        TOTAL FREE ENERGY PREDICTED BY IDOCK:   -4.30 KCAL/MOL
REMARK 923 INTER-LIGAND FREE ENERGY PREDICTED BY IDOCK:   -3.74 KCAL/MOL
REMARK 924 INTRA-LIGAND FREE ENERGY PREDICTED BY IDOCK:   -0.56 KCAL/MOL
REMARK 927      BINDING AFFINITY PREDICTED BY RF-SCORE:    0.00 PKD
ROOT
HETATM    1  C   UNL     1      -9.078   4.156  71.991  1.00  0.00    -0.121 C  
HETATM    2  O   UNL     1      -9.004   4.604  70.645  1.00  0.00    -0.110 OA 
ENDROOT
BRANCH   2   3
HETATM    3  C   UNL     1      -9.580   5.815  70.371  1.00  0.00    -0.168 A  
HETATM    4  C   UNL     1     -10.639   6.037  69.494  1.00  0.00    -0.363 A  
HETATM    5  C   UNL     1     -11.073   7.343  69.231  1.00  0.00    -0.012 A  
HETATM    6  C   UNL     1     -10.463   8.452  69.845  1.00  0.00    -0.222 A  
HETATM    7  C   UNL     1      -9.457   8.202  70.788  1.00  0.00    -0.180 A  
HETATM    8  C   UNL     1      -9.023   6.899  71.050  1.00  0.00    -0.151 A  
BRANCH   6   9
HETATM    9  C   UNL     1     -10.695   9.883  69.376  1.00  0.00    -0.232 C  
BRANCH   9  10
HETATM   10  N   UNL     1      -9.831  10.355  68.312  1.00  0.00    -0.151 NA 
BRANCH  10  11
HETATM   11  C   UNL     1      -9.953  11.667  67.882  1.00  0.00    -0.182 A  
HETATM   12  N   UNL     1      -8.849  12.432  67.803  1.00  0.00    -0.167 NA 
HETATM   13  N   UNL     1     -11.173  12.159  67.603  1.00  0.00    -0.266 NA 
HETATM   14  C   UNL     1      -8.998  13.730  67.483  1.00  0.00    -0.201 A  
HETATM   15  C   UNL     1     -10.213  14.320  67.258  1.00  0.00    -0.252 A  
HETATM   16  C   UNL     1     -11.284  13.471  67.328  1.00  0.00    -0.298 A  
ENDBRANCH  10  11
BRANCH  10  17
HETATM   17  C   UNL     1      -8.823   9.543  67.621  1.00  0.00    -0.118 C  
BRANCH  17  18
HETATM   18  C   UNL     1      -9.228   8.924  66.265  1.00  0.00    -0.207 C  
BRANCH  18  19
HETATM   19  N   UNL     1      -8.078   8.517  65.416  1.00  0.00    -0.119 NA 
HETATM   20  C   UNL     1      -6.819   9.166  65.795  1.00  0.00    -0.077 C  
HETATM   21  C   UNL     1      -8.360   8.801  64.005  1.00  0.00    -0.141 C  
ENDBRANCH  18  19
ENDBRANCH  17  18
ENDBRANCH  10  17
ENDBRANCH   9  10
ENDBRANCH   6   9
ENDBRANCH   2   3
TORSDOF 7
ENDMDL
MODEL      247
REMARK 921   NORMALIZED FREE ENERGY PREDICTED BY IDOCK:   -2.45 KCAL/MOL
REMARK 922        TOTAL FREE ENERGY PREDICTED BY IDOCK:   -4.29 KCAL/MOL
REMARK 923 INTER-LIGAND FREE ENERGY PREDICTED BY IDOCK:   -4.03 KCAL/MOL
REMARK 924 INTRA-LIGAND FREE ENERGY PREDICTED BY IDOCK:   -0.26 KCAL/MOL
REMARK 927      BINDING AFFINITY PREDICTED BY RF-SCORE:    0.00 PKD
ROOT
HETATM    1  C   UNL     1      -9.821  10.264  64.903  1.00  0.00    -0.336 C  
HETATM    2  O   UNL     1     -10.171  10.757  66.188  1.00  0.00    -0.237 OA 
ENDROOT
BRANCH   2   3
HETATM    3  C   UNL     1      -9.703  10.050  67.262  1.00  0.00    -0.167 A  
HETATM    4  C   UNL     1      -9.299  10.588  68.482  1.00  0.00    -0.168 A  
HETATM    5  C   UNL     1      -8.747   9.760  69.468  1.00  0.00    -0.193 A  
HETATM    6  C   UNL     1      -8.594   8.377  69.258  1.00  0.00    -0.130 A  
HETATM    7  C   UNL     1      -9.085   7.843  68.059  1.00  0.00    -0.132 A  
HETATM    8  C   UNL     1      -9.634   8.669  67.074  1.00  0.00    -0.240 A  
BRANCH   6   9
HETATM    9  C   UNL     1      -7.742   7.497  70.164  1.00  0.00    -0.089 C  
BRANCH   9  10
HETATM   10  N   UNL     1      -8.447   6.469  70.904  1.00  0.00    -0.133 NA 
BRANCH  10  11
HETATM   11  C   UNL     1      -9.754   6.706  71.300  1.00  0.00    -0.173 A  
HETATM   12  N   UNL     1     -10.758   6.349  70.479  1.00  0.00    -0.240 NA 
HETATM   13  N   UNL     1      -9.986   7.330  72.467  1.00  0.00    -0.170 NA 
HETATM   14  C   UNL     1     -12.014   6.678  70.831  1.00  0.00    -0.355 A  
HETATM   15  C   UNL     1     -12.323   7.377  71.967  1.00  0.00    -0.301 A  
HETATM   16  C   UNL     1     -11.252   7.678  72.764  1.00  0.00    -0.377 A  
ENDBRANCH  10  11
BRANCH  10  17
HETATM   17  C   UNL     1      -7.882   5.173  71.294  1.00  0.00    -0.106 C  
BRANCH  17  18
HETATM   18  C   UNL     1      -8.447   4.516  72.574  1.00  0.00    -0.114 C  
BRANCH  18  19
HETATM   19  N   UNL     1      -8.963   3.137  72.371  1.00  0.00    -0.089 NA 
HETATM   20  C   UNL     1      -9.432   2.889  71.003  1.00  0.00    -0.157 C  
HETATM   21  C   UNL     1     -10.053   2.857  73.310  1.00  0.00    -0.121 C  
ENDBRANCH  18  19
ENDBRANCH  17  18
ENDBRANCH  10  17
ENDBRANCH   9  10
ENDBRANCH   6   9
ENDBRANCH   2   3
TORSDOF 7
ENDMDL
MODEL      248
REMARK 921   NORMALIZED FREE ENERGY PREDICTED BY IDOCK:   -2.42 KCAL/MOL
REMARK 922        TOTAL FREE ENERGY PREDICTED BY IDOCK:   -4.26 KCAL/MOL
REMARK 923 INTER-LIGAND FREE ENERGY PREDICTED BY IDOCK:   -3.75 KCAL/MOL
REMARK 924 INTRA-LIGAND FREE ENERGY PREDICTED BY IDOCK:   -0.51 KCAL/MOL
REMARK 927      BINDING AFFINITY PREDICTED BY RF-SCORE:    0.00 PKD
ROOT
HETATM    1  C   UNL     1      -9.564   3.944  72.594  1.00  0.00    -0.136 C  
HETATM    2  O   UNL     1      -9.506   4.062  71.179  1.00  0.00    -0.134 OA 
ENDROOT
BRANCH   2   3
HETATM    3  C   UNL     1      -9.984   5.228  70.644  1.00  0.00    -0.218 A  
HETATM    4  C   UNL     1     -10.600   5.365  69.402  1.00  0.00    -0.295 A  
HETATM    5  C   UNL     1     -10.958   6.635  68.931  1.00  0.00    -0.325 A  
HETATM    6  C   UNL     1     -10.714   7.791  69.693  1.00  0.00    -0.223 A  
HETATM    7  C   UNL     1     -10.172   7.625  70.974  1.00  0.00    -0.200 A  
HETATM    8  C   UNL     1      -9.813   6.358  71.445  1.00  0.00    -0.195 A  
BRANCH   6   9
HETATM    9  C   UNL     1     -10.810   9.196  69.110  1.00  0.00    -0.110 C  
BRANCH   9  10
HETATM   10  N   UNL     1      -9.593   9.735  68.536  1.00  0.00    -0.147 NA 
BRANCH  10  11
HETATM   11  C   UNL     1      -8.708   8.872  67.910  1.00  0.00    -0.129 A  
HETATM   12  N   UNL     1      -9.058   8.321  66.733  1.00  0.00    -0.147 NA 
HETATM   13  N   UNL     1      -7.547   8.565  68.514  1.00  0.00    -0.094 NA 
HETATM   14  C   UNL     1      -8.234   7.407  66.190  1.00  0.00    -0.130 A  
HETATM   15  C   UNL     1      -7.072   6.989  66.780  1.00  0.00    -0.082 A  
HETATM   16  C   UNL     1      -6.770   7.616  67.959  1.00  0.00    -0.063 A  
ENDBRANCH  10  11
BRANCH  10  17
HETATM   17  C   UNL     1      -9.197  11.147  68.572  1.00  0.00    -0.183 C  
BRANCH  17  18
HETATM   18  C   UNL     1      -8.698  11.771  67.249  1.00  0.00    -0.163 C  
BRANCH  18  19
HETATM   19  N   UNL     1      -9.681  12.674  66.596  1.00  0.00    -0.243 NA 
HETATM   20  C   UNL     1     -10.087  13.799  67.444  1.00  0.00    -0.244 C  
HETATM   21  C   UNL     1     -10.873  11.922  66.192  1.00  0.00    -0.292 C  
ENDBRANCH  18  19
ENDBRANCH  17  18
ENDBRANCH  10  17
ENDBRANCH   9  10
ENDBRANCH   6   9
ENDBRANCH   2   3
TORSDOF 7
ENDMDL
MODEL      249
REMARK 921   NORMALIZED FREE ENERGY PREDICTED BY IDOCK:   -2.40 KCAL/MOL
REMARK 922        TOTAL FREE ENERGY PREDICTED BY IDOCK:   -4.22 KCAL/MOL
REMARK 923 INTER-LIGAND FREE ENERGY PREDICTED BY IDOCK:   -3.58 KCAL/MOL
REMARK 924 INTRA-LIGAND FREE ENERGY PREDICTED BY IDOCK:   -0.64 KCAL/MOL
REMARK 927      BINDING AFFINITY PREDICTED BY RF-SCORE:    0.00 PKD
ROOT
HETATM    1  C   UNL     1     -13.661   9.929  72.233  1.00  0.00    -0.165 C  
HETATM    2  O   UNL     1     -13.353   8.542  72.241  1.00  0.00    -0.347 OA 
ENDROOT
BRANCH   2   3
HETATM    3  C   UNL     1     -12.270   8.152  71.501  1.00  0.00    -0.301 A  
HETATM    4  C   UNL     1     -12.221   7.064  70.633  1.00  0.00    -0.289 A  
HETATM    5  C   UNL     1     -11.016   6.716  70.008  1.00  0.00    -0.363 A  
HETATM    6  C   UNL     1      -9.839   7.453  70.231  1.00  0.00    -0.187 A  
HETATM    7  C   UNL     1      -9.929   8.594  71.039  1.00  0.00    -0.272 A  
HETATM    8  C   UNL     1     -11.130   8.941  71.665  1.00  0.00    -0.420 A  
BRANCH   6   9
HETATM    9  C   UNL     1      -8.462   6.949  69.818  1.00  0.00    -0.133 C  
BRANCH   9  10
HETATM   10  N   UNL     1      -8.308   6.579  68.424  1.00  0.00    -0.117 NA 
BRANCH  10  11
HETATM   11  C   UNL     1      -8.007   7.566  67.499  1.00  0.00    -0.116 A  
HETATM   12  N   UNL     1      -8.889   7.827  66.517  1.00  0.00    -0.146 NA 
HETATM   13  N   UNL     1      -6.825   8.202  67.572  1.00  0.00    -0.069 NA 
HETATM   14  C   UNL     1      -8.539   8.714  65.568  1.00  0.00    -0.175 A  
HETATM   15  C   UNL     1      -7.325   9.346  65.534  1.00  0.00    -0.088 A  
HETATM   16  C   UNL     1      -6.495   9.051  66.581  1.00  0.00    -0.067 A  
ENDBRANCH  10  11
BRANCH  10  17
HETATM   17  C   UNL     1      -8.459   5.222  67.891  1.00  0.00    -0.101 C  
BRANCH  17  18
HETATM   18  C   UNL     1      -7.197   4.330  67.869  1.00  0.00    -0.064 C  
BRANCH  18  19
HETATM   19  N   UNL     1      -7.367   3.020  68.550  1.00  0.00    -0.049 NA 
HETATM   20  C   UNL     1      -6.217   2.126  68.381  1.00  0.00    -0.025 C  
HETATM   21  C   UNL     1      -8.575   2.346  68.064  1.00  0.00    -0.084 C  
ENDBRANCH  18  19
ENDBRANCH  17  18
ENDBRANCH  10  17
ENDBRANCH   9  10
ENDBRANCH   6   9
ENDBRANCH   2   3
TORSDOF 7
ENDMDL
MODEL      250
REMARK 921   NORMALIZED FREE ENERGY PREDICTED BY IDOCK:   -2.20 KCAL/MOL
REMARK 922        TOTAL FREE ENERGY PREDICTED BY IDOCK:   -3.94 KCAL/MOL
REMARK 923 INTER-LIGAND FREE ENERGY PREDICTED BY IDOCK:   -3.24 KCAL/MOL
REMARK 924 INTRA-LIGAND FREE ENERGY PREDICTED BY IDOCK:   -0.70 KCAL/MOL
REMARK 927      BINDING AFFINITY PREDICTED BY RF-SCORE:    0.00 PKD
ROOT
HETATM    1  C   UNL     1     -14.188   8.879  72.108  1.00  0.00    -0.388 C  
HETATM    2  O   UNL     1     -12.935   8.591  72.714  1.00  0.00    -0.259 OA 
ENDROOT
BRANCH   2   3
HETATM    3  C   UNL     1     -11.893   8.324  71.868  1.00  0.00    -0.324 A  
HETATM    4  C   UNL     1     -11.972   7.613  70.673  1.00  0.00    -0.122 A  
HETATM    5  C   UNL     1     -10.809   7.327  69.947  1.00  0.00    -0.264 A  
HETATM    6  C   UNL     1      -9.545   7.752  70.396  1.00  0.00    -0.175 A  
HETATM    7  C   UNL     1      -9.496   8.539  71.554  1.00  0.00    -0.290 A  
HETATM    8  C   UNL     1     -10.657   8.823  72.280  1.00  0.00    -0.319 A  
BRANCH   6   9
HETATM    9  C   UNL     1      -8.243   7.221  69.810  1.00  0.00    -0.130 C  
BRANCH   9  10
HETATM   10  N   UNL     1      -7.877   7.726  68.501  1.00  0.00    -0.118 NA 
BRANCH  10  11
HETATM   11  C   UNL     1      -7.407   9.026  68.392  1.00  0.00    -0.078 A  
HETATM   12  N   UNL     1      -8.292  10.027  68.233  1.00  0.00    -0.109 NA 
HETATM   13  N   UNL     1      -6.082   9.251  68.396  1.00  0.00    -0.045 NA 
HETATM   14  C   UNL     1      -7.817  11.268  68.026  1.00  0.00    -0.115 A  
HETATM   15  C   UNL     1      -6.483  11.564  67.943  1.00  0.00    -0.056 A  
HETATM   16  C   UNL     1      -5.646  10.499  68.144  1.00  0.00    -0.036 A  
ENDBRANCH  10  11
BRANCH  10  17
HETATM   17  C   UNL     1      -7.976   6.971  67.248  1.00  0.00    -0.111 C  
BRANCH  17  18
HETATM   18  C   UNL     1      -8.281   7.776  65.964  1.00  0.00    -0.123 C  
BRANCH  18  19
HETATM   19  N   UNL     1      -7.172   7.785  64.975  1.00  0.00    -0.063 NA 
HETATM   20  C   UNL     1      -6.037   6.944  65.370  1.00  0.00    -0.036 C  
HETATM   21  C   UNL     1      -6.700   9.155  64.752  1.00  0.00    -0.078 C  
ENDBRANCH  18  19
ENDBRANCH  17  18
ENDBRANCH  10  17
ENDBRANCH   9  10
ENDBRANCH   6   9
ENDBRANCH   2   3
TORSDOF 7
ENDMDL
MODEL      251
REMARK 921   NORMALIZED FREE ENERGY PREDICTED BY IDOCK:   -2.15 KCAL/MOL
REMARK 922        TOTAL FREE ENERGY PREDICTED BY IDOCK:   -3.88 KCAL/MOL
REMARK 923 INTER-LIGAND FREE ENERGY PREDICTED BY IDOCK:   -3.19 KCAL/MOL
REMARK 924 INTRA-LIGAND FREE ENERGY PREDICTED BY IDOCK:   -0.69 KCAL/MOL
REMARK 927      BINDING AFFINITY PREDICTED BY RF-SCORE:    0.00 PKD
ROOT
HETATM    1  C   UNL     1     -10.985   6.879  67.157  1.00  0.00    -0.357 C  
HETATM    2  O   UNL     1      -9.598   7.112  67.362  1.00  0.00    -0.129 OA 
ENDROOT
BRANCH   2   3
HETATM    3  C   UNL     1      -9.052   6.586  68.502  1.00  0.00    -0.127 A  
HETATM    4  C   UNL     1      -7.855   6.984  69.093  1.00  0.00    -0.114 A  
HETATM    5  C   UNL     1      -7.359   6.296  70.208  1.00  0.00    -0.089 A  
HETATM    6  C   UNL     1      -8.052   5.203  70.759  1.00  0.00    -0.104 A  
HETATM    7  C   UNL     1      -9.295   4.873  70.203  1.00  0.00    -0.217 A  
HETATM    8  C   UNL     1      -9.790   5.557  69.088  1.00  0.00    -0.227 A  
BRANCH   6   9
HETATM    9  C   UNL     1      -7.420   4.252  71.768  1.00  0.00    -0.069 C  
BRANCH   9  10
HETATM   10  N   UNL     1      -7.746   4.487  73.160  1.00  0.00    -0.086 NA 
BRANCH  10  11
HETATM   11  C   UNL     1      -7.635   5.772  73.667  1.00  0.00    -0.097 A  
HETATM   12  N   UNL     1      -8.704   6.587  73.617  1.00  0.00    -0.122 NA 
HETATM   13  N   UNL     1      -6.452   6.190  74.149  1.00  0.00    -0.070 NA 
HETATM   14  C   UNL     1      -8.550   7.861  74.018  1.00  0.00    -0.264 A  
HETATM   15  C   UNL     1      -7.360   8.381  74.451  1.00  0.00    -0.240 A  
HETATM   16  C   UNL     1      -6.328   7.483  74.501  1.00  0.00    -0.089 A  
ENDBRANCH  10  11
BRANCH  10  17
HETATM   17  C   UNL     1      -8.182   3.456  74.109  1.00  0.00    -0.070 C  
BRANCH  17  18
HETATM   18  C   UNL     1      -9.664   3.487  74.548  1.00  0.00    -0.122 C  
BRANCH  18  19
HETATM   19  N   UNL     1     -10.631   3.372  73.427  1.00  0.00    -0.176 NA 
HETATM   20  C   UNL     1     -11.518   4.534  73.305  1.00  0.00    -0.219 C  
HETATM   21  C   UNL     1     -11.444   2.161  73.577  1.00  0.00    -0.200 C  
ENDBRANCH  18  19
ENDBRANCH  17  18
ENDBRANCH  10  17
ENDBRANCH   9  10
ENDBRANCH   6   9
ENDBRANCH   2   3
TORSDOF 7
ENDMDL
MODEL      252
REMARK 921   NORMALIZED FREE ENERGY PREDICTED BY IDOCK:   -2.05 KCAL/MOL
REMARK 922        TOTAL FREE ENERGY PREDICTED BY IDOCK:   -3.74 KCAL/MOL
REMARK 923 INTER-LIGAND FREE ENERGY PREDICTED BY IDOCK:   -2.80 KCAL/MOL
REMARK 924 INTRA-LIGAND FREE ENERGY PREDICTED BY IDOCK:   -0.94 KCAL/MOL
REMARK 927      BINDING AFFINITY PREDICTED BY RF-SCORE:    0.00 PKD
ROOT
HETATM    1  C   UNL     1     -11.533   1.484  62.358  1.00  0.00    -0.239 C  
HETATM    2  O   UNL     1     -11.607   2.653  63.164  1.00  0.00    -0.175 OA 
ENDROOT
BRANCH   2   3
HETATM    3  C   UNL     1     -10.420   3.156  63.621  1.00  0.00    -0.231 A  
HETATM    4  C   UNL     1      -9.646   2.621  64.648  1.00  0.00    -0.099 A  
HETATM    5  C   UNL     1      -8.496   3.291  65.085  1.00  0.00    -0.100 A  
HETATM    6  C   UNL     1      -8.091   4.504  64.499  1.00  0.00    -0.102 A  
HETATM    7  C   UNL     1      -8.834   4.981  63.410  1.00  0.00    -0.030 A  
HETATM    8  C   UNL     1      -9.983   4.314  62.976  1.00  0.00    -0.043 A  
BRANCH   6   9
HETATM    9  C   UNL     1      -7.035   5.408  65.123  1.00  0.00    -0.057 C  
BRANCH   9  10
HETATM   10  N   UNL     1      -7.391   6.033  66.382  1.00  0.00    -0.080 NA 
BRANCH  10  11
HETATM   11  C   UNL     1      -8.339   7.044  66.383  1.00  0.00    -0.125 A  
HETATM   12  N   UNL     1      -8.008   8.247  65.879  1.00  0.00    -0.092 NA 
HETATM   13  N   UNL     1      -9.545   6.817  66.931  1.00  0.00    -0.154 NA 
HETATM   14  C   UNL     1      -8.903   9.246  65.981  1.00  0.00    -0.160 A  
HETATM   15  C   UNL     1     -10.122   9.112  66.591  1.00  0.00    -0.343 A  
HETATM   16  C   UNL     1     -10.396   7.852  67.051  1.00  0.00    -0.341 A  
ENDBRANCH  10  11
BRANCH  10  17
HETATM   17  C   UNL     1      -6.812   5.692  67.686  1.00  0.00    -0.060 C  
BRANCH  17  18
HETATM   18  C   UNL     1      -6.979   4.233  68.169  1.00  0.00    -0.055 C  
BRANCH  18  19
HETATM   19  N   UNL     1      -8.065   4.044  69.165  1.00  0.00    -0.062 NA 
HETATM   20  C   UNL     1      -9.349   3.678  68.560  1.00  0.00    -0.164 C  
HETATM   21  C   UNL     1      -8.240   5.261  69.965  1.00  0.00    -0.084 C  
ENDBRANCH  18  19
ENDBRANCH  17  18
ENDBRANCH  10  17
ENDBRANCH   9  10
ENDBRANCH   6   9
ENDBRANCH   2   3
TORSDOF 7
ENDMDL
MODEL      253
REMARK 921   NORMALIZED FREE ENERGY PREDICTED BY IDOCK:   -0.37 KCAL/MOL
REMARK 922        TOTAL FREE ENERGY PREDICTED BY IDOCK:   -1.37 KCAL/MOL
REMARK 923 INTER-LIGAND FREE ENERGY PREDICTED BY IDOCK:   -1.03 KCAL/MOL
REMARK 924 INTRA-LIGAND FREE ENERGY PREDICTED BY IDOCK:   -0.34 KCAL/MOL
REMARK 927      BINDING AFFINITY PREDICTED BY RF-SCORE:    0.00 PKD
ROOT
HETATM    1  C   UNL     1     -13.860  16.415  72.014  1.00  0.00     1.683 C  
HETATM    2  O   UNL     1     -13.642  15.031  72.254  1.00  0.00    -0.367 OA 
ENDROOT
BRANCH   2   3
HETATM    3  C   UNL     1     -12.866  14.368  71.343  1.00  0.00    -0.339 A  
HETATM    4  C   UNL     1     -13.120  13.102  70.819  1.00  0.00     0.042 A  
HETATM    5  C   UNL     1     -12.191  12.495  69.964  1.00  0.00    -0.262 A  
HETATM    6  C   UNL     1     -10.994  13.143  69.610  1.00  0.00     0.119 A  
HETATM    7  C   UNL     1     -10.797  14.449  70.077  1.00  0.00     0.036 A  
HETATM    8  C   UNL     1     -11.723  15.055  70.932  1.00  0.00    -0.376 A  
BRANCH   6   9
HETATM    9  C   UNL     1      -9.835  12.419  68.935  1.00  0.00     0.122 C  
BRANCH   9  10
HETATM   10  N   UNL     1      -9.545  12.809  67.569  1.00  0.00    -0.187 NA 
BRANCH  10  11
HETATM   11  C   UNL     1      -8.896  11.909  66.739  1.00  0.00    -0.193 A  
HETATM   12  N   UNL     1      -7.877  11.184  67.235  1.00  0.00    -0.130 NA 
HETATM   13  N   UNL     1      -9.264  11.818  65.449  1.00  0.00    -0.088 NA 
HETATM   14  C   UNL     1      -7.192  10.392  66.390  1.00  0.00    -0.119 A  
HETATM   15  C   UNL     1      -7.459  10.302  65.051  1.00  0.00    -0.120 A  
HETATM   16  C   UNL     1      -8.528  11.046  64.629  1.00  0.00     0.171 A  
ENDBRANCH  10  11
BRANCH  10  17
HETATM   17  C   UNL     1      -9.872  14.111  66.977  1.00  0.00    -0.258 C  
BRANCH  17  18
HETATM   18  C   UNL     1      -8.686  15.007  66.552  1.00  0.00    -0.208 C  
BRANCH  18  19
HETATM   19  N   UNL     1      -8.048  15.741  67.676  1.00  0.00    -0.140 NA 
HETATM   20  C   UNL     1      -8.931  16.736  68.293  1.00  0.00    -0.228 C  
HETATM   21  C   UNL     1      -6.822  16.403  67.220  1.00  0.00    -0.187 C  
ENDBRANCH  18  19
ENDBRANCH  17  18
ENDBRANCH  10  17
ENDBRANCH   9  10
ENDBRANCH   6   9
ENDBRANCH   2   3
TORSDOF 7
ENDMDL
MODEL      254
REMARK 921   NORMALIZED FREE ENERGY PREDICTED BY IDOCK:    3.47 KCAL/MOL
REMARK 922        TOTAL FREE ENERGY PREDICTED BY IDOCK:    4.05 KCAL/MOL
REMARK 923 INTER-LIGAND FREE ENERGY PREDICTED BY IDOCK:    3.92 KCAL/MOL
REMARK 924 INTRA-LIGAND FREE ENERGY PREDICTED BY IDOCK:    0.14 KCAL/MOL
REMARK 927      BINDING AFFINITY PREDICTED BY RF-SCORE:    0.00 PKD
ROOT
HETATM    1  C   UNL     1     -13.878  16.559  71.913  1.00  0.00     2.680 C  
HETATM    2  O   UNL     1     -14.088  15.190  72.234  1.00  0.00    -0.473 OA 
ENDROOT
BRANCH   2   3
HETATM    3  C   UNL     1     -13.404  14.274  71.482  1.00  0.00    -0.354 A  
HETATM    4  C   UNL     1     -13.964  13.210  70.780  1.00  0.00     1.747 A  
HETATM    5  C   UNL     1     -13.139  12.286  70.127  1.00  0.00     0.836 A  
HETATM    6  C   UNL     1     -11.738  12.411  70.155  1.00  0.00    -0.266 A  
HETATM    7  C   UNL     1     -11.197  13.535  70.793  1.00  0.00     1.093 A  
HETATM    8  C   UNL     1     -12.021  14.456  71.448  1.00  0.00    -0.337 A  
BRANCH   6   9
HETATM    9  C   UNL     1     -10.803  11.289  69.720  1.00  0.00    -0.026 C  
BRANCH   9  10
HETATM   10  N   UNL     1      -9.991  11.551  68.548  1.00  0.00    -0.202 NA 
BRANCH  10  11
HETATM   11  C   UNL     1      -9.644  10.493  67.723  1.00  0.00    -0.156 A  
HETATM   12  N   UNL     1      -8.342  10.194  67.560  1.00  0.00    -0.118 NA 
HETATM   13  N   UNL     1     -10.608   9.824  67.068  1.00  0.00    -0.225 NA 
HETATM   14  C   UNL     1      -8.018   9.232  66.677  1.00  0.00    -0.108 A  
HETATM   15  C   UNL     1      -8.937   8.559  65.919  1.00  0.00    -0.235 A  
HETATM   16  C   UNL     1     -10.241   8.898  66.164  1.00  0.00    -0.022 A  
ENDBRANCH  10  11
BRANCH  10  17
HETATM   17  C   UNL     1      -9.477  12.868  68.156  1.00  0.00    -0.218 C  
BRANCH  17  18
HETATM   18  C   UNL     1      -7.945  13.009  68.009  1.00  0.00    -0.155 C  
BRANCH  18  19
HETATM   19  N   UNL     1      -7.218  13.107  69.301  1.00  0.00     0.073 NA 
HETATM   20  C   UNL     1      -7.533  14.326  70.053  1.00  0.00     0.460 C  
HETATM   21  C   UNL     1      -5.770  13.041  69.077  1.00  0.00    -0.076 C  
ENDBRANCH  18  19
ENDBRANCH  17  18
ENDBRANCH  10  17
ENDBRANCH   9  10
ENDBRANCH   6   9
ENDBRANCH   2   3
TORSDOF 7
ENDMDL
MODEL      255
REMARK 921   NORMALIZED FREE ENERGY PREDICTED BY IDOCK:   22.03 KCAL/MOL
REMARK 922        TOTAL FREE ENERGY PREDICTED BY IDOCK:   30.19 KCAL/MOL
REMARK 923 INTER-LIGAND FREE ENERGY PREDICTED BY IDOCK:   27.20 KCAL/MOL
REMARK 924 INTRA-LIGAND FREE ENERGY PREDICTED BY IDOCK:    3.00 KCAL/MOL
REMARK 927      BINDING AFFINITY PREDICTED BY RF-SCORE:    0.00 PKD
ROOT
HETATM    1  C   UNL     1      -8.193  19.666  65.442  1.00  0.00     0.578 C  
HETATM    2  O   UNL     1      -9.530  19.191  65.354  1.00  0.00     0.017 OA 
ENDROOT
BRANCH   2   3
HETATM    3  C   UNL     1     -10.021  18.541  66.453  1.00  0.00    -0.379 A  
HETATM    4  C   UNL     1      -9.411  18.473  67.704  1.00  0.00    -0.295 A  
HETATM    5  C   UNL     1      -9.975  17.691  68.720  1.00  0.00    -0.358 A  
HETATM    6  C   UNL     1     -11.163  16.968  68.510  1.00  0.00    -0.037 A  
HETATM    7  C   UNL     1     -11.807  17.117  67.275  1.00  0.00     1.661 A  
HETATM    8  C   UNL     1     -11.243  17.896  66.259  1.00  0.00     0.831 A  
BRANCH   6   9
HETATM    9  C   UNL     1     -11.648  15.886  69.468  1.00  0.00    -0.335 C  
BRANCH   9  10
HETATM   10  N   UNL     1     -10.759  14.759  69.663  1.00  0.00    -0.223 NA 
BRANCH  10  11
HETATM   11  C   UNL     1     -11.305  13.510  69.914  1.00  0.00    -0.031 A  
HETATM   12  N   UNL     1     -12.632  13.408  70.116  1.00  0.00    -0.151 NA 
HETATM   13  N   UNL     1     -10.495  12.441  69.999  1.00  0.00     1.264 NA 
HETATM   14  C   UNL     1     -13.131  12.207  70.458  1.00  0.00     0.487 A  
HETATM   15  C   UNL     1     -12.361  11.089  70.637  1.00  0.00    -0.480 A  
HETATM   16  C   UNL     1     -11.028  11.266  70.385  1.00  0.00     0.561 A  
ENDBRANCH  10  11
BRANCH  10  17
HETATM   17  C   UNL     1      -9.294  14.826  69.634  1.00  0.00     0.202 C  
BRANCH  17  18
HETATM   18  C   UNL     1      -8.597  15.502  70.837  1.00  0.00     2.685 C  
BRANCH  18  19
HETATM   19  N   UNL     1      -9.292  15.297  72.135  1.00  0.00     4.599 NA 
HETATM   20  C   UNL     1     -10.754  15.339  72.022  1.00  0.00     0.720 C  
HETATM   21  C   UNL     1      -8.856  16.300  73.110  1.00  0.00    15.881 C  
ENDBRANCH  18  19
ENDBRANCH  17  18
ENDBRANCH  10  17
ENDBRANCH   9  10
ENDBRANCH   6   9
ENDBRANCH   2   3
TORSDOF 7
ENDMDL
