MODEL        1
REMARK 921   NORMALIZED FREE ENERGY PREDICTED BY IDOCK:   -5.27 KCAL/MOL
REMARK 922        TOTAL FREE ENERGY PREDICTED BY IDOCK:  -16.49 KCAL/MOL
REMARK 923 INTER-LIGAND FREE ENERGY PREDICTED BY IDOCK:  -12.04 KCAL/MOL
REMARK 924 INTRA-LIGAND FREE ENERGY PREDICTED BY IDOCK:   -4.45 KCAL/MOL
REMARK 927      BINDING AFFINITY PREDICTED BY RF-SCORE:    0.00 PKD
ROOT
HETATM    1  C   UNL     1      -6.511   9.713  67.682  1.00  0.00    -0.061 C  
HETATM    2  C   UNL     1      -7.472  10.312  68.694  1.00  0.00    -0.086 C  
ENDROOT
BRANCH   2   3
HETATM    3  C   UNL     1      -8.393  11.334  68.037  1.00  0.00    -0.136 C  
BRANCH   3   4
HETATM    4  C   UNL     1      -8.874  10.836  66.681  1.00  0.00    -0.151 C  
BRANCH   4   5
HETATM    5  C   UNL     1     -10.165  10.040  66.827  1.00  0.00    -0.295 C  
BRANCH   5   6
HETATM    6  C   UNL     1      -9.986   8.631  66.282  1.00  0.00    -0.287 C  
BRANCH   6   7
HETATM    7  C   UNL     1     -10.483   7.608  67.291  1.00  0.00    -0.396 C  
BRANCH   7   8
HETATM    8  C   UNL     1      -9.331   7.108  68.148  1.00  0.00    -0.129 C  
BRANCH   8   9
HETATM    9  C   UNL     1      -9.542   7.530  69.591  1.00  0.00    -0.159 C  
BRANCH   9  10
HETATM   10  C   UNL     1     -11.021   7.524  69.937  1.00  0.00    -0.223 C  
BRANCH  10  11
HETATM   11  C   UNL     1     -11.310   8.573  71.001  1.00  0.00    -0.313 C  
BRANCH  11  12
HETATM   12  C   UNL     1     -10.808   9.934  70.541  1.00  0.00    -0.391 C  
BRANCH  12  13
HETATM   13  C   UNL     1     -11.965  10.888  70.294  1.00  0.00    -0.448 C  
BRANCH  13  14
HETATM   14  C   UNL     1     -12.994  10.850  71.430  1.00  0.00    -0.527 C  
BRANCH  14  15
HETATM   15  C   UNL     1     -13.297  12.219  72.057  1.00  0.00    -0.491 C  
BRANCH  15  16
HETATM   16  C   UNL     1     -12.599  13.329  71.277  1.00  0.00    -0.308 C  
BRANCH  16  17
HETATM   17  N   UNL     1     -12.879  14.742  71.769  1.00  0.00    -0.309 N  
HETATM   18  C   UNL     1     -12.764  14.819  73.298  1.00  0.00    -0.482 C  
HETATM   19  C   UNL     1     -14.257  15.243  71.362  1.00  0.00    -0.485 C  
BRANCH  17  20
HETATM   20  C   UNL     1     -11.777  15.686  71.197  1.00  0.00    -0.413 C  
BRANCH  20  21
HETATM   21  C   UNL     1     -11.775  15.876  69.648  1.00  0.00    -0.317 C  
BRANCH  21  22
HETATM   22  N   UNL     1     -10.398  15.948  69.170  1.00  0.00    -0.221 NA 
BRANCH  22  23
HETATM   23  C   UNL     1      -9.731  14.744  68.656  1.00  0.00    -0.225 C  
BRANCH  23  24
HETATM   24  C   UNL     1     -10.345  14.232  67.367  1.00  0.00    -0.259 A  
HETATM   25  C   UNL     1      -9.785  14.582  66.133  1.00  0.00    -0.340 A  
HETATM   26  C   UNL     1     -11.620  13.516  64.951  1.00  0.00    -0.335 A  
HETATM   27  C   UNL     1     -12.136  13.080  66.170  1.00  0.00    -0.473 A  
HETATM   28  C   UNL     1     -11.503  13.438  67.372  1.00  0.00    -0.368 A  
HETATM   29  C   UNL     1     -10.425  14.236  64.941  1.00  0.00    -0.454 A  
BRANCH  26  30
HETATM   30  O   UNL     1     -12.195  13.371  63.722  1.00  0.00    -0.581 OA 
HETATM   31  C   UNL     1     -12.571  12.070  63.293  1.00  0.00    -0.385 C  
ENDBRANCH  26  30
ENDBRANCH  23  24
ENDBRANCH  22  23
BRANCH  22  32
HETATM   32  C   UNL     1     -10.059  17.117  68.508  1.00  0.00    -0.329 A  
HETATM   33  N   UNL     1     -11.007  17.755  67.797  1.00  0.00    -0.217 NA 
HETATM   34  N   UNL     1      -8.850  17.638  68.743  1.00  0.00    -0.252 NA 
HETATM   35  C   UNL     1      -8.585  18.851  68.221  1.00  0.00    -0.330 A  
HETATM   36  C   UNL     1     -10.674  18.943  67.239  1.00  0.00    -0.449 A  
HETATM   37  C   UNL     1      -9.464  19.552  67.437  1.00  0.00    -0.415 A  
ENDBRANCH  22  32
ENDBRANCH  21  22
ENDBRANCH  20  21
ENDBRANCH  17  20
ENDBRANCH  16  17
ENDBRANCH  15  16
ENDBRANCH  14  15
ENDBRANCH  13  14
ENDBRANCH  12  13
ENDBRANCH  11  12
ENDBRANCH  10  11
ENDBRANCH   9  10
ENDBRANCH   8   9
ENDBRANCH   7   8
ENDBRANCH   6   7
ENDBRANCH   5   6
ENDBRANCH   4   5
ENDBRANCH   3   4
ENDBRANCH   2   3
TORSDOF 22
ENDMDL
MODEL        2
REMARK 921   NORMALIZED FREE ENERGY PREDICTED BY IDOCK:   -5.27 KCAL/MOL
REMARK 922        TOTAL FREE ENERGY PREDICTED BY IDOCK:  -16.49 KCAL/MOL
REMARK 923 INTER-LIGAND FREE ENERGY PREDICTED BY IDOCK:  -13.17 KCAL/MOL
REMARK 924 INTRA-LIGAND FREE ENERGY PREDICTED BY IDOCK:   -3.32 KCAL/MOL
REMARK 927      BINDING AFFINITY PREDICTED BY RF-SCORE:    0.00 PKD
ROOT
HETATM    1  C   UNL     1      -8.952  19.962  67.470  1.00  0.00    -0.422 C  
HETATM    2  C   UNL     1      -8.435  18.949  68.477  1.00  0.00    -0.384 C  
ENDROOT
BRANCH   2   3
HETATM    3  C   UNL     1      -8.841  17.532  68.086  1.00  0.00    -0.263 C  
BRANCH   3   4
HETATM    4  C   UNL     1     -10.251  17.513  67.509  1.00  0.00    -0.340 C  
BRANCH   4   5
HETATM    5  C   UNL     1     -10.326  16.585  66.303  1.00  0.00    -0.327 C  
BRANCH   5   6
HETATM    6  C   UNL     1      -9.281  15.485  66.412  1.00  0.00    -0.339 C  
BRANCH   6   7
HETATM    7  C   UNL     1      -9.952  14.142  66.648  1.00  0.00    -0.280 C  
BRANCH   7   8
HETATM    8  C   UNL     1     -11.457  14.317  66.773  1.00  0.00    -0.380 C  
BRANCH   8   9
HETATM    9  C   UNL     1     -12.166  13.392  65.799  1.00  0.00    -0.507 C  
BRANCH   9  10
HETATM   10  C   UNL     1     -12.247  14.030  64.422  1.00  0.00    -0.457 C  
BRANCH  10  11
HETATM   11  C   UNL     1     -12.033  12.975  63.347  1.00  0.00    -0.592 C  
BRANCH  11  12
HETATM   12  C   UNL     1     -11.388  11.736  63.953  1.00  0.00    -0.494 C  
BRANCH  12  13
HETATM   13  C   UNL     1     -10.024  11.474  63.337  1.00  0.00    -0.445 C  
BRANCH  13  14
HETATM   14  C   UNL     1      -9.210  10.463  64.153  1.00  0.00    -0.298 C  
BRANCH  14  15
HETATM   15  C   UNL     1      -9.838  10.087  65.504  1.00  0.00    -0.373 C  
BRANCH  15  16
HETATM   16  C   UNL     1      -9.270   8.762  66.004  1.00  0.00    -0.222 C  
BRANCH  16  17
HETATM   17  N   UNL     1      -9.611   8.414  67.446  1.00  0.00    -0.150 N  
HETATM   18  C   UNL     1      -8.355   7.982  68.215  1.00  0.00    -0.123 C  
HETATM   19  C   UNL     1     -10.649   7.307  67.553  1.00  0.00    -0.274 C  
BRANCH  17  20
HETATM   20  C   UNL     1     -10.134   9.705  68.150  1.00  0.00    -0.175 C  
BRANCH  20  21
HETATM   21  C   UNL     1      -9.473  10.054  69.520  1.00  0.00    -0.226 C  
BRANCH  21  22
HETATM   22  N   UNL     1     -10.475   9.964  70.578  1.00  0.00    -0.291 NA 
BRANCH  22  23
HETATM   23  C   UNL     1     -11.895  10.175  70.270  1.00  0.00    -0.261 C  
BRANCH  23  24
HETATM   24  C   UNL     1     -12.397  11.541  70.697  1.00  0.00    -0.457 A  
HETATM   25  C   UNL     1     -11.951  12.693  70.038  1.00  0.00    -0.377 A  
HETATM   26  C   UNL     1     -13.104  14.108  71.641  1.00  0.00    -0.351 A  
HETATM   27  C   UNL     1     -13.632  12.970  72.248  1.00  0.00    -0.643 A  
HETATM   28  C   UNL     1     -13.278  11.694  71.780  1.00  0.00    -0.438 A  
HETATM   29  C   UNL     1     -12.293  13.959  70.515  1.00  0.00    -0.439 A  
BRANCH  26  30
HETATM   30  O   UNL     1     -13.239  15.397  72.065  1.00  0.00    -0.367 OA 
HETATM   31  C   UNL     1     -12.134  16.029  72.696  1.00  0.00    -0.538 C  
ENDBRANCH  26  30
ENDBRANCH  23  24
ENDBRANCH  22  23
BRANCH  22  32
HETATM   32  C   UNL     1     -10.234   8.999  71.542  1.00  0.00    -0.344 A  
HETATM   33  N   UNL     1      -8.972   8.811  71.968  1.00  0.00    -0.369 NA 
HETATM   34  N   UNL     1     -11.291   8.414  72.116  1.00  0.00    -0.341 NA 
HETATM   35  C   UNL     1     -11.057   7.592  73.157  1.00  0.00    -0.326 A  
HETATM   36  C   UNL     1      -8.779   7.928  72.977  1.00  0.00    -0.202 A  
HETATM   37  C   UNL     1      -9.804   7.295  73.627  1.00  0.00    -0.353 A  
ENDBRANCH  22  32
ENDBRANCH  21  22
ENDBRANCH  20  21
ENDBRANCH  17  20
ENDBRANCH  16  17
ENDBRANCH  15  16
ENDBRANCH  14  15
ENDBRANCH  13  14
ENDBRANCH  12  13
ENDBRANCH  11  12
ENDBRANCH  10  11
ENDBRANCH   9  10
ENDBRANCH   8   9
ENDBRANCH   7   8
ENDBRANCH   6   7
ENDBRANCH   5   6
ENDBRANCH   4   5
ENDBRANCH   3   4
ENDBRANCH   2   3
TORSDOF 22
ENDMDL
MODEL        3
REMARK 921   NORMALIZED FREE ENERGY PREDICTED BY IDOCK:   -5.24 KCAL/MOL
REMARK 922        TOTAL FREE ENERGY PREDICTED BY IDOCK:  -16.43 KCAL/MOL
REMARK 923 INTER-LIGAND FREE ENERGY PREDICTED BY IDOCK:  -12.88 KCAL/MOL
REMARK 924 INTRA-LIGAND FREE ENERGY PREDICTED BY IDOCK:   -3.54 KCAL/MOL
REMARK 927      BINDING AFFINITY PREDICTED BY RF-SCORE:    0.00 PKD
ROOT
HETATM    1  C   UNL     1      -6.871  16.709  66.783  1.00  0.00    -0.252 C  
HETATM    2  C   UNL     1      -7.157  16.824  68.269  1.00  0.00    -0.167 C  
ENDROOT
BRANCH   2   3
HETATM    3  C   UNL     1      -6.415  18.008  68.879  1.00  0.00    -0.229 C  
BRANCH   3   4
HETATM    4  C   UNL     1      -7.334  19.217  69.001  1.00  0.00    -0.360 C  
BRANCH   4   5
HETATM    5  C   UNL     1      -6.994  20.260  67.944  1.00  0.00    -0.326 C  
BRANCH   5   6
HETATM    6  C   UNL     1      -8.154  20.431  66.974  1.00  0.00    -0.351 C  
BRANCH   6   7
HETATM    7  C   UNL     1      -9.474  20.151  67.675  1.00  0.00    -0.514 C  
BRANCH   7   8
HETATM    8  C   UNL     1     -10.534  19.744  66.664  1.00  0.00    -0.615 C  
BRANCH   8   9
HETATM    9  C   UNL     1     -10.320  18.299  66.247  1.00  0.00    -0.422 C  
BRANCH   9  10
HETATM   10  C   UNL     1     -10.549  17.366  67.424  1.00  0.00    -0.308 C  
BRANCH  10  11
HETATM   11  C   UNL     1     -10.658  15.930  66.934  1.00  0.00    -0.309 C  
BRANCH  11  12
HETATM   12  C   UNL     1     -10.659  15.895  65.413  1.00  0.00    -0.439 C  
BRANCH  12  13
HETATM   13  C   UNL     1     -11.180  14.565  64.897  1.00  0.00    -0.395 C  
BRANCH  13  14
HETATM   14  C   UNL     1     -12.131  13.894  65.895  1.00  0.00    -0.459 C  
BRANCH  14  15
HETATM   15  C   UNL     1     -11.774  12.438  66.231  1.00  0.00    -0.457 C  
BRANCH  15  16
HETATM   16  C   UNL     1     -10.362  12.355  66.804  1.00  0.00    -0.221 C  
BRANCH  16  17
HETATM   17  N   UNL     1      -9.671  11.010  66.631  1.00  0.00    -0.191 N  
HETATM   18  C   UNL     1      -8.174  11.121  66.953  1.00  0.00    -0.149 C  
HETATM   19  C   UNL     1      -9.821  10.450  65.224  1.00  0.00    -0.297 C  
BRANCH  17  20
HETATM   20  C   UNL     1     -10.272  10.014  67.670  1.00  0.00    -0.204 C  
BRANCH  20  21
HETATM   21  C   UNL     1      -9.781  10.182  69.142  1.00  0.00    -0.215 C  
BRANCH  21  22
HETATM   22  N   UNL     1     -10.932  10.186  70.040  1.00  0.00    -0.286 NA 
BRANCH  22  23
HETATM   23  C   UNL     1     -12.147  10.928  69.679  1.00  0.00    -0.329 C  
BRANCH  23  24
HETATM   24  C   UNL     1     -12.283  12.240  70.427  1.00  0.00    -0.371 A  
HETATM   25  C   UNL     1     -12.949  12.283  71.658  1.00  0.00    -0.416 A  
HETATM   26  C   UNL     1     -12.785  14.705  71.710  1.00  0.00    -0.336 A  
HETATM   27  C   UNL     1     -12.039  14.669  70.534  1.00  0.00    -0.388 A  
HETATM   28  C   UNL     1     -11.791  13.443  69.895  1.00  0.00    -0.385 A  
HETATM   29  C   UNL     1     -13.205  13.504  72.283  1.00  0.00    -0.571 A  
BRANCH  26  30
HETATM   30  O   UNL     1     -13.224  15.820  72.364  1.00  0.00    -0.442 OA 
HETATM   31  C   UNL     1     -12.724  16.089  73.666  1.00  0.00    -0.600 C  
ENDBRANCH  26  30
ENDBRANCH  23  24
ENDBRANCH  22  23
BRANCH  22  32
HETATM   32  C   UNL     1     -11.165   8.996  70.711  1.00  0.00    -0.275 A  
HETATM   33  N   UNL     1     -11.440   9.040  72.028  1.00  0.00    -0.367 NA 
HETATM   34  N   UNL     1     -11.262   7.878  69.983  1.00  0.00    -0.165 NA 
HETATM   35  C   UNL     1     -11.640   6.754  70.620  1.00  0.00    -0.370 A  
HETATM   36  C   UNL     1     -11.755   7.872  72.638  1.00  0.00    -0.341 A  
HETATM   37  C   UNL     1     -11.887   6.687  71.967  1.00  0.00    -0.365 A  
ENDBRANCH  22  32
ENDBRANCH  21  22
ENDBRANCH  20  21
ENDBRANCH  17  20
ENDBRANCH  16  17
ENDBRANCH  15  16
ENDBRANCH  14  15
ENDBRANCH  13  14
ENDBRANCH  12  13
ENDBRANCH  11  12
ENDBRANCH  10  11
ENDBRANCH   9  10
ENDBRANCH   8   9
ENDBRANCH   7   8
ENDBRANCH   6   7
ENDBRANCH   5   6
ENDBRANCH   4   5
ENDBRANCH   3   4
ENDBRANCH   2   3
TORSDOF 22
ENDMDL
MODEL        4
REMARK 921   NORMALIZED FREE ENERGY PREDICTED BY IDOCK:   -5.22 KCAL/MOL
REMARK 922        TOTAL FREE ENERGY PREDICTED BY IDOCK:  -16.39 KCAL/MOL
REMARK 923 INTER-LIGAND FREE ENERGY PREDICTED BY IDOCK:  -12.45 KCAL/MOL
REMARK 924 INTRA-LIGAND FREE ENERGY PREDICTED BY IDOCK:   -3.95 KCAL/MOL
REMARK 927      BINDING AFFINITY PREDICTED BY RF-SCORE:    0.00 PKD
ROOT
HETATM    1  C   UNL     1     -13.192   9.307  71.709  1.00  0.00    -0.472 C  
HETATM    2  C   UNL     1     -12.143   8.562  72.516  1.00  0.00    -0.395 C  
ENDROOT
BRANCH   2   3
HETATM    3  C   UNL     1     -11.956   7.142  71.991  1.00  0.00    -0.332 C  
BRANCH   3   4
HETATM    4  C   UNL     1     -12.220   7.080  70.492  1.00  0.00    -0.222 C  
BRANCH   4   5
HETATM    5  C   UNL     1     -11.243   6.129  69.813  1.00  0.00    -0.494 C  
BRANCH   5   6
HETATM    6  C   UNL     1     -10.427   5.374  70.851  1.00  0.00    -0.307 C  
BRANCH   6   7
HETATM    7  C   UNL     1      -8.941   5.523  70.565  1.00  0.00    -0.153 C  
BRANCH   7   8
HETATM    8  C   UNL     1      -8.352   6.649  71.400  1.00  0.00    -0.120 C  
BRANCH   8   9
HETATM    9  C   UNL     1      -8.169   7.887  70.539  1.00  0.00    -0.118 C  
BRANCH   9  10
HETATM   10  C   UNL     1      -8.960   9.053  71.109  1.00  0.00    -0.303 C  
BRANCH  10  11
HETATM   11  C   UNL     1      -9.543   9.888  69.979  1.00  0.00    -0.260 C  
BRANCH  11  12
HETATM   12  C   UNL     1      -9.363   9.166  68.651  1.00  0.00    -0.135 C  
BRANCH  12  13
HETATM   13  C   UNL     1     -10.632   9.233  67.818  1.00  0.00    -0.307 C  
BRANCH  13  14
HETATM   14  C   UNL     1     -11.277  10.622  67.863  1.00  0.00    -0.376 C  
BRANCH  14  15
HETATM   15  C   UNL     1     -10.611  11.661  66.947  1.00  0.00    -0.276 C  
BRANCH  15  16
HETATM   16  C   UNL     1     -11.668  12.476  66.208  1.00  0.00    -0.404 C  
BRANCH  16  17
HETATM   17  N   UNL     1     -11.142  13.335  65.067  1.00  0.00    -0.300 N  
HETATM   18  C   UNL     1     -12.279  14.143  64.424  1.00  0.00    -0.439 C  
HETATM   19  C   UNL     1     -10.458  12.516  63.983  1.00  0.00    -0.422 C  
BRANCH  17  20
HETATM   20  C   UNL     1     -10.143  14.377  65.659  1.00  0.00    -0.353 C  
BRANCH  20  21
HETATM   21  C   UNL     1     -10.726  15.795  65.950  1.00  0.00    -0.313 C  
BRANCH  21  22
HETATM   22  N   UNL     1     -10.452  16.157  67.338  1.00  0.00    -0.305 NA 
BRANCH  22  23
HETATM   23  C   UNL     1     -10.024  15.131  68.298  1.00  0.00    -0.223 C  
BRANCH  23  24
HETATM   24  C   UNL     1     -10.955  15.010  69.489  1.00  0.00    -0.281 A  
HETATM   25  C   UNL     1     -10.998  16.023  70.454  1.00  0.00    -0.347 A  
HETATM   26  C   UNL     1     -12.476  14.690  71.847  1.00  0.00    -0.341 A  
HETATM   27  C   UNL     1     -12.518  13.717  70.851  1.00  0.00    -0.448 A  
HETATM   28  C   UNL     1     -11.760  13.875  69.679  1.00  0.00    -0.370 A  
HETATM   29  C   UNL     1     -11.742  15.856  71.624  1.00  0.00    -0.563 A  
BRANCH  26  30
HETATM   30  O   UNL     1     -13.040  14.614  73.087  1.00  0.00    -0.499 OA 
HETATM   31  C   UNL     1     -12.477  15.381  74.142  1.00  0.00    -0.642 C  
ENDBRANCH  26  30
ENDBRANCH  23  24
ENDBRANCH  22  23
BRANCH  22  32
HETATM   32  C   UNL     1      -9.860  17.397  67.521  1.00  0.00    -0.277 A  
HETATM   33  N   UNL     1     -10.649  18.462  67.749  1.00  0.00    -0.411 NA 
HETATM   34  N   UNL     1      -8.527  17.442  67.622  1.00  0.00    -0.210 NA 
HETATM   35  C   UNL     1      -7.969  18.622  67.954  1.00  0.00    -0.259 A  
HETATM   36  C   UNL     1     -10.040  19.643  68.018  1.00  0.00    -0.437 A  
HETATM   37  C   UNL     1      -8.685  19.775  68.151  1.00  0.00    -0.333 A  
ENDBRANCH  22  32
ENDBRANCH  21  22
ENDBRANCH  20  21
ENDBRANCH  17  20
ENDBRANCH  16  17
ENDBRANCH  15  16
ENDBRANCH  14  15
ENDBRANCH  13  14
ENDBRANCH  12  13
ENDBRANCH  11  12
ENDBRANCH  10  11
ENDBRANCH   9  10
ENDBRANCH   8   9
ENDBRANCH   7   8
ENDBRANCH   6   7
ENDBRANCH   5   6
ENDBRANCH   4   5
ENDBRANCH   3   4
ENDBRANCH   2   3
TORSDOF 22
ENDMDL
MODEL        5
REMARK 921   NORMALIZED FREE ENERGY PREDICTED BY IDOCK:   -5.21 KCAL/MOL
REMARK 922        TOTAL FREE ENERGY PREDICTED BY IDOCK:  -16.37 KCAL/MOL
REMARK 923 INTER-LIGAND FREE ENERGY PREDICTED BY IDOCK:  -13.00 KCAL/MOL
REMARK 924 INTRA-LIGAND FREE ENERGY PREDICTED BY IDOCK:   -3.37 KCAL/MOL
REMARK 927      BINDING AFFINITY PREDICTED BY RF-SCORE:    0.00 PKD
ROOT
HETATM    1  C   UNL     1      -9.171  20.222  67.091  1.00  0.00    -0.519 C  
HETATM    2  C   UNL     1     -10.571  19.635  67.110  1.00  0.00    -0.611 C  
ENDROOT
BRANCH   2   3
HETATM    3  C   UNL     1     -10.533  18.135  67.381  1.00  0.00    -0.414 C  
BRANCH   3   4
HETATM    4  C   UNL     1     -10.474  17.351  66.077  1.00  0.00    -0.278 C  
BRANCH   4   5
HETATM    5  C   UNL     1      -9.313  16.365  66.094  1.00  0.00    -0.360 C  
BRANCH   5   6
HETATM    6  C   UNL     1      -9.822  14.941  65.927  1.00  0.00    -0.362 C  
BRANCH   6   7
HETATM    7  C   UNL     1     -10.705  14.555  67.103  1.00  0.00    -0.286 C  
BRANCH   7   8
HETATM    8  C   UNL     1     -12.046  14.036  66.610  1.00  0.00    -0.487 C  
BRANCH   8   9
HETATM    9  C   UNL     1     -12.009  13.864  65.101  1.00  0.00    -0.394 C  
BRANCH   9  10
HETATM   10  C   UNL     1     -12.749  12.602  64.690  1.00  0.00    -0.458 C  
BRANCH  10  11
HETATM   11  C   UNL     1     -12.138  12.032  63.420  1.00  0.00    -0.597 C  
BRANCH  11  12
HETATM   12  C   UNL     1     -10.620  12.128  63.482  1.00  0.00    -0.501 C  
BRANCH  12  13
HETATM   13  C   UNL     1      -9.985  10.748  63.487  1.00  0.00    -0.403 C  
BRANCH  13  14
HETATM   14  C   UNL     1      -9.869  10.174  64.904  1.00  0.00    -0.390 C  
BRANCH  14  15
HETATM   15  C   UNL     1      -9.565  11.219  65.989  1.00  0.00    -0.245 C  
BRANCH  15  16
HETATM   16  C   UNL     1      -8.111  11.112  66.440  1.00  0.00    -0.159 C  
BRANCH  16  17
HETATM   17  N   UNL     1      -7.897  11.139  67.947  1.00  0.00    -0.108 N  
HETATM   18  C   UNL     1      -7.285  12.477  68.386  1.00  0.00    -0.111 C  
HETATM   19  C   UNL     1      -6.998  10.013  68.433  1.00  0.00    -0.067 C  
BRANCH  17  20
HETATM   20  C   UNL     1      -9.292  11.046  68.640  1.00  0.00    -0.194 C  
BRANCH  20  21
HETATM   21  C   UNL     1      -9.376  10.108  69.885  1.00  0.00    -0.093 C  
BRANCH  21  22
HETATM   22  N   UNL     1     -10.759  10.035  70.345  1.00  0.00    -0.303 NA 
BRANCH  22  23
HETATM   23  C   UNL     1     -11.807  10.804  69.660  1.00  0.00    -0.320 C  
BRANCH  23  24
HETATM   24  C   UNL     1     -12.324  11.965  70.487  1.00  0.00    -0.372 A  
HETATM   25  C   UNL     1     -11.948  13.277  70.172  1.00  0.00    -0.388 A  
HETATM   26  C   UNL     1     -13.053  14.117  72.165  1.00  0.00    -0.401 A  
HETATM   27  C   UNL     1     -13.514  12.831  72.438  1.00  0.00    -0.512 A  
HETATM   28  C   UNL     1     -13.149  11.760  71.605  1.00  0.00    -0.443 A  
HETATM   29  C   UNL     1     -12.301  14.336  71.011  1.00  0.00    -0.431 A  
BRANCH  26  30
HETATM   30  O   UNL     1     -13.203  15.222  72.951  1.00  0.00    -0.423 OA 
HETATM   31  C   UNL     1     -12.235  15.482  73.958  1.00  0.00    -0.615 C  
ENDBRANCH  26  30
ENDBRANCH  23  24
ENDBRANCH  22  23
BRANCH  22  32
HETATM   32  C   UNL     1     -11.167   8.793  70.804  1.00  0.00    -0.266 A  
HETATM   33  N   UNL     1     -11.304   7.790  69.917  1.00  0.00    -0.068 NA 
HETATM   34  N   UNL     1     -11.249   8.613  72.127  1.00  0.00    -0.364 NA 
HETATM   35  C   UNL     1     -11.494   7.365  72.569  1.00  0.00    -0.301 A  
HETATM   36  C   UNL     1     -11.612   6.564  70.406  1.00  0.00    -0.407 A  
HETATM   37  C   UNL     1     -11.704   6.290  71.744  1.00  0.00    -0.355 A  
ENDBRANCH  22  32
ENDBRANCH  21  22
ENDBRANCH  20  21
ENDBRANCH  17  20
ENDBRANCH  16  17
ENDBRANCH  15  16
ENDBRANCH  14  15
ENDBRANCH  13  14
ENDBRANCH  12  13
ENDBRANCH  11  12
ENDBRANCH  10  11
ENDBRANCH   9  10
ENDBRANCH   8   9
ENDBRANCH   7   8
ENDBRANCH   6   7
ENDBRANCH   5   6
ENDBRANCH   4   5
ENDBRANCH   3   4
ENDBRANCH   2   3
TORSDOF 22
ENDMDL
MODEL        6
REMARK 921   NORMALIZED FREE ENERGY PREDICTED BY IDOCK:   -5.07 KCAL/MOL
REMARK 922        TOTAL FREE ENERGY PREDICTED BY IDOCK:  -16.04 KCAL/MOL
REMARK 923 INTER-LIGAND FREE ENERGY PREDICTED BY IDOCK:  -12.60 KCAL/MOL
REMARK 924 INTRA-LIGAND FREE ENERGY PREDICTED BY IDOCK:   -3.44 KCAL/MOL
REMARK 927      BINDING AFFINITY PREDICTED BY RF-SCORE:    0.00 PKD
ROOT
HETATM    1  C   UNL     1     -13.652  14.001  72.360  1.00  0.00    -0.658 C  
HETATM    2  C   UNL     1     -13.674  15.235  71.475  1.00  0.00    -0.610 C  
ENDROOT
BRANCH   2   3
HETATM    3  C   UNL     1     -12.259  15.723  71.181  1.00  0.00    -0.473 C  
BRANCH   3   4
HETATM    4  C   UNL     1     -11.972  15.681  69.686  1.00  0.00    -0.367 C  
BRANCH   4   5
HETATM    5  C   UNL     1     -10.565  16.187  69.394  1.00  0.00    -0.300 C  
BRANCH   5   6
HETATM    6  C   UNL     1     -10.541  16.969  68.089  1.00  0.00    -0.369 C  
BRANCH   6   7
HETATM    7  C   UNL     1     -10.375  18.454  68.368  1.00  0.00    -0.357 C  
BRANCH   7   8
HETATM    8  C   UNL     1     -10.618  19.260  67.102  1.00  0.00    -0.575 C  
BRANCH   8   9
HETATM    9  C   UNL     1      -9.732  20.494  67.099  1.00  0.00    -0.581 C  
BRANCH   9  10
HETATM   10  C   UNL     1      -8.285  20.111  67.358  1.00  0.00    -0.385 C  
BRANCH  10  11
HETATM   11  C   UNL     1      -7.690  19.462  66.118  1.00  0.00    -0.314 C  
BRANCH  11  12
HETATM   12  C   UNL     1      -7.106  18.101  66.470  1.00  0.00    -0.260 C  
BRANCH  12  13
HETATM   13  C   UNL     1      -6.628  18.068  67.912  1.00  0.00    -0.193 C  
BRANCH  13  14
HETATM   14  C   UNL     1      -6.982  16.747  68.605  1.00  0.00    -0.180 C  
BRANCH  14  15
HETATM   15  C   UNL     1      -7.120  15.549  67.653  1.00  0.00    -0.199 C  
BRANCH  15  16
HETATM   16  C   UNL     1      -6.036  14.514  67.938  1.00  0.00    -0.150 C  
BRANCH  16  17
HETATM   17  N   UNL     1      -6.537  13.091  68.141  1.00  0.00    -0.089 N  
HETATM   18  C   UNL     1      -6.284  12.623  69.581  1.00  0.00    -0.122 C  
HETATM   19  C   UNL     1      -5.885  12.099  67.189  1.00  0.00    -0.139 C  
BRANCH  17  20
HETATM   20  C   UNL     1      -8.084  13.084  67.942  1.00  0.00    -0.158 C  
BRANCH  20  21
HETATM   21  C   UNL     1      -8.651  11.960  67.019  1.00  0.00    -0.176 C  
BRANCH  21  22
HETATM   22  N   UNL     1     -10.108  11.944  67.113  1.00  0.00    -0.203 NA 
BRANCH  22  23
HETATM   23  C   UNL     1     -10.775  12.438  68.325  1.00  0.00    -0.230 C  
BRANCH  23  24
HETATM   24  C   UNL     1     -11.118  11.332  69.304  1.00  0.00    -0.314 A  
HETATM   25  C   UNL     1     -12.274  11.420  70.089  1.00  0.00    -0.401 A  
HETATM   26  C   UNL     1     -11.639   9.425  71.322  1.00  0.00    -0.364 A  
HETATM   27  C   UNL     1     -10.536   9.274  70.485  1.00  0.00    -0.312 A  
HETATM   28  C   UNL     1     -10.275  10.223  69.484  1.00  0.00    -0.261 A  
HETATM   29  C   UNL     1     -12.522  10.482  71.093  1.00  0.00    -0.517 A  
BRANCH  26  30
HETATM   30  O   UNL     1     -11.943   8.672  72.419  1.00  0.00    -0.375 OA 
HETATM   31  C   UNL     1     -10.963   7.778  72.926  1.00  0.00    -0.407 C  
ENDBRANCH  26  30
ENDBRANCH  23  24
ENDBRANCH  22  23
BRANCH  22  32
HETATM   32  C   UNL     1     -10.781  12.220  65.934  1.00  0.00    -0.258 A  
HETATM   33  N   UNL     1     -10.126  12.080  64.768  1.00  0.00    -0.265 NA 
HETATM   34  N   UNL     1     -12.095  12.458  66.008  1.00  0.00    -0.638 NA 
HETATM   35  C   UNL     1     -12.772  12.573  64.850  1.00  0.00    -0.287 A  
HETATM   36  C   UNL     1     -10.835  12.266  63.628  1.00  0.00    -0.469 A  
HETATM   37  C   UNL     1     -12.183  12.502  63.613  1.00  0.00    -0.642 A  
ENDBRANCH  22  32
ENDBRANCH  21  22
ENDBRANCH  20  21
ENDBRANCH  17  20
ENDBRANCH  16  17
ENDBRANCH  15  16
ENDBRANCH  14  15
ENDBRANCH  13  14
ENDBRANCH  12  13
ENDBRANCH  11  12
ENDBRANCH  10  11
ENDBRANCH   9  10
ENDBRANCH   8   9
ENDBRANCH   7   8
ENDBRANCH   6   7
ENDBRANCH   5   6
ENDBRANCH   4   5
ENDBRANCH   3   4
ENDBRANCH   2   3
TORSDOF 22
ENDMDL
MODEL        7
REMARK 921   NORMALIZED FREE ENERGY PREDICTED BY IDOCK:   -5.07 KCAL/MOL
REMARK 922        TOTAL FREE ENERGY PREDICTED BY IDOCK:  -16.03 KCAL/MOL
REMARK 923 INTER-LIGAND FREE ENERGY PREDICTED BY IDOCK:  -12.83 KCAL/MOL
REMARK 924 INTRA-LIGAND FREE ENERGY PREDICTED BY IDOCK:   -3.21 KCAL/MOL
REMARK 927      BINDING AFFINITY PREDICTED BY RF-SCORE:    0.00 PKD
ROOT
HETATM    1  C   UNL     1      -5.642  19.843  70.731  1.00  0.00    -0.312 C  
HETATM    2  C   UNL     1      -6.795  19.900  69.744  1.00  0.00    -0.252 C  
ENDROOT
BRANCH   2   3
HETATM    3  C   UNL     1      -6.291  19.798  68.308  1.00  0.00    -0.286 C  
BRANCH   3   4
HETATM    4  C   UNL     1      -7.164  20.621  67.369  1.00  0.00    -0.391 C  
BRANCH   4   5
HETATM    5  C   UNL     1      -8.341  19.795  66.866  1.00  0.00    -0.348 C  
BRANCH   5   6
HETATM    6  C   UNL     1      -9.657  20.446  67.265  1.00  0.00    -0.592 C  
BRANCH   6   7
HETATM    7  C   UNL     1     -10.610  19.405  67.830  1.00  0.00    -0.538 C  
BRANCH   7   8
HETATM    8  C   UNL     1      -9.834  18.297  68.523  1.00  0.00    -0.400 C  
BRANCH   8   9
HETATM    9  C   UNL     1     -10.513  16.960  68.277  1.00  0.00    -0.352 C  
BRANCH   9  10
HETATM   10  C   UNL     1      -9.676  16.101  67.346  1.00  0.00    -0.233 C  
BRANCH  10  11
HETATM   11  C   UNL     1     -10.200  16.214  65.923  1.00  0.00    -0.381 C  
BRANCH  11  12
HETATM   12  C   UNL     1     -10.546  14.834  65.382  1.00  0.00    -0.395 C  
BRANCH  12  13
HETATM   13  C   UNL     1     -11.889  14.361  65.910  1.00  0.00    -0.371 C  
BRANCH  13  14
HETATM   14  C   UNL     1     -12.030  12.837  65.842  1.00  0.00    -0.506 C  
BRANCH  14  15
HETATM   15  C   UNL     1     -10.720  12.092  65.541  1.00  0.00    -0.321 C  
BRANCH  15  16
HETATM   16  C   UNL     1     -10.660  10.783  66.324  1.00  0.00    -0.192 C  
BRANCH  16  17
HETATM   17  N   UNL     1      -9.313  10.472  66.962  1.00  0.00    -0.154 N  
HETATM   18  C   UNL     1      -8.707  11.731  67.599  1.00  0.00    -0.159 C  
HETATM   19  C   UNL     1      -8.311   9.902  65.970  1.00  0.00    -0.122 C  
BRANCH  17  20
HETATM   20  C   UNL     1      -9.547   9.460  68.126  1.00  0.00    -0.142 C  
BRANCH  20  21
HETATM   21  C   UNL     1      -9.103   9.935  69.545  1.00  0.00    -0.223 C  
BRANCH  21  22
HETATM   22  N   UNL     1     -10.262   9.959  70.433  1.00  0.00    -0.275 NA 
BRANCH  22  23
HETATM   23  C   UNL     1     -11.598  10.246  69.895  1.00  0.00    -0.256 C  
BRANCH  23  24
HETATM   24  C   UNL     1     -12.140  11.590  70.341  1.00  0.00    -0.471 A  
HETATM   25  C   UNL     1     -11.835  12.748  69.615  1.00  0.00    -0.384 A  
HETATM   26  C   UNL     1     -12.910  14.134  71.296  1.00  0.00    -0.359 A  
HETATM   27  C   UNL     1     -13.302  12.984  71.977  1.00  0.00    -0.588 A  
HETATM   28  C   UNL     1     -12.917  11.719  71.504  1.00  0.00    -0.446 A  
HETATM   29  C   UNL     1     -12.208  14.004  70.097  1.00  0.00    -0.425 A  
BRANCH  26  30
HETATM   30  O   UNL     1     -13.084  15.425  71.704  1.00  0.00    -0.392 OA 
HETATM   31  C   UNL     1     -12.049  16.051  72.448  1.00  0.00    -0.535 C  
ENDBRANCH  26  30
ENDBRANCH  23  24
ENDBRANCH  22  23
BRANCH  22  32
HETATM   32  C   UNL     1     -10.243   9.027  71.458  1.00  0.00    -0.344 A  
HETATM   33  N   UNL     1      -9.090   8.813  72.117  1.00  0.00    -0.383 NA 
HETATM   34  N   UNL     1     -11.412   8.504  71.845  1.00  0.00    -0.311 NA 
HETATM   35  C   UNL     1     -11.409   7.718  72.939  1.00  0.00    -0.349 A  
HETATM   36  C   UNL     1      -9.124   7.966  73.174  1.00  0.00    -0.260 A  
HETATM   37  C   UNL     1     -10.277   7.397  73.643  1.00  0.00    -0.380 A  
ENDBRANCH  22  32
ENDBRANCH  21  22
ENDBRANCH  20  21
ENDBRANCH  17  20
ENDBRANCH  16  17
ENDBRANCH  15  16
ENDBRANCH  14  15
ENDBRANCH  13  14
ENDBRANCH  12  13
ENDBRANCH  11  12
ENDBRANCH  10  11
ENDBRANCH   9  10
ENDBRANCH   8   9
ENDBRANCH   7   8
ENDBRANCH   6   7
ENDBRANCH   5   6
ENDBRANCH   4   5
ENDBRANCH   3   4
ENDBRANCH   2   3
TORSDOF 22
ENDMDL
MODEL        8
REMARK 921   NORMALIZED FREE ENERGY PREDICTED BY IDOCK:   -5.06 KCAL/MOL
REMARK 922        TOTAL FREE ENERGY PREDICTED BY IDOCK:  -16.01 KCAL/MOL
REMARK 923 INTER-LIGAND FREE ENERGY PREDICTED BY IDOCK:  -12.61 KCAL/MOL
REMARK 924 INTRA-LIGAND FREE ENERGY PREDICTED BY IDOCK:   -3.40 KCAL/MOL
REMARK 927      BINDING AFFINITY PREDICTED BY RF-SCORE:    0.00 PKD
ROOT
HETATM    1  C   UNL     1     -10.118   4.282  71.812  1.00  0.00    -0.227 C  
HETATM    2  C   UNL     1     -10.302   5.054  70.517  1.00  0.00    -0.285 C  
ENDROOT
BRANCH   2   3
HETATM    3  C   UNL     1     -11.026   6.373  70.765  1.00  0.00    -0.346 C  
BRANCH   3   4
HETATM    4  C   UNL     1     -10.621   6.969  72.107  1.00  0.00    -0.240 C  
BRANCH   4   5
HETATM    5  C   UNL     1     -11.701   7.909  72.627  1.00  0.00    -0.398 C  
BRANCH   5   6
HETATM    6  C   UNL     1     -12.896   7.917  71.686  1.00  0.00    -0.357 C  
BRANCH   6   7
HETATM    7  C   UNL     1     -13.404   9.337  71.490  1.00  0.00    -0.436 C  
BRANCH   7   8
HETATM    8  C   UNL     1     -12.237  10.302  71.352  1.00  0.00    -0.481 C  
BRANCH   8   9
HETATM    9  C   UNL     1     -11.721  10.285  69.924  1.00  0.00    -0.298 C  
BRANCH   9  10
HETATM   10  C   UNL     1     -10.211  10.119  69.905  1.00  0.00    -0.284 C  
BRANCH  10  11
HETATM   11  C   UNL     1      -9.807   9.160  68.796  1.00  0.00    -0.175 C  
BRANCH  11  12
HETATM   12  C   UNL     1     -10.681   9.382  67.570  1.00  0.00    -0.290 C  
BRANCH  12  13
HETATM   13  C   UNL     1      -9.907   9.114  66.291  1.00  0.00    -0.359 C  
BRANCH  13  14
HETATM   14  C   UNL     1      -9.843  10.351  65.388  1.00  0.00    -0.347 C  
BRANCH  14  15
HETATM   15  C   UNL     1      -9.958  11.688  66.135  1.00  0.00    -0.252 C  
BRANCH  15  16
HETATM   16  C   UNL     1     -10.075  12.843  65.145  1.00  0.00    -0.223 C  
BRANCH  16  17
HETATM   17  N   UNL     1     -11.488  13.365  64.922  1.00  0.00    -0.315 N  
HETATM   18  C   UNL     1     -12.454  12.784  65.964  1.00  0.00    -0.005 C  
HETATM   19  C   UNL     1     -12.021  13.040  63.535  1.00  0.00    -0.545 C  
BRANCH  17  20
HETATM   20  C   UNL     1     -11.479  14.909  65.143  1.00  0.00    -0.357 C  
BRANCH  20  21
HETATM   21  C   UNL     1     -10.095  15.544  65.486  1.00  0.00    -0.373 C  
BRANCH  21  22
HETATM   22  N   UNL     1     -10.178  16.218  66.779  1.00  0.00    -0.274 NA 
BRANCH  22  23
HETATM   23  C   UNL     1      -9.649  15.568  67.985  1.00  0.00    -0.203 C  
BRANCH  23  24
HETATM   24  C   UNL     1     -10.706  15.346  69.049  1.00  0.00    -0.242 A  
HETATM   25  C   UNL     1     -10.877  16.280  70.078  1.00  0.00    -0.329 A  
HETATM   26  C   UNL     1     -12.477  14.827  71.187  1.00  0.00    -0.329 A  
HETATM   27  C   UNL     1     -12.388  13.934  70.122  1.00  0.00    -0.400 A  
HETATM   28  C   UNL     1     -11.505  14.191  69.060  1.00  0.00    -0.322 A  
HETATM   29  C   UNL     1     -11.745  16.014  71.139  1.00  0.00    -0.487 A  
BRANCH  26  30
HETATM   30  O   UNL     1     -13.176  14.649  72.346  1.00  0.00    -0.346 OA 
HETATM   31  C   UNL     1     -13.409  15.773  73.183  1.00  0.00    -0.587 C  
ENDBRANCH  26  30
ENDBRANCH  23  24
ENDBRANCH  22  23
BRANCH  22  32
HETATM   32  C   UNL     1     -10.003  17.592  66.743  1.00  0.00    -0.313 A  
HETATM   33  N   UNL     1     -10.887  18.373  67.392  1.00  0.00    -0.355 NA 
HETATM   34  N   UNL     1      -8.875  18.063  66.201  1.00  0.00    -0.493 NA 
HETATM   35  C   UNL     1      -8.639  19.384  66.308  1.00  0.00    -0.345 A  
HETATM   36  C   UNL     1     -10.639  19.705  67.419  1.00  0.00    -0.460 A  
HETATM   37  C   UNL     1      -9.505  20.268  66.899  1.00  0.00    -0.531 A  
ENDBRANCH  22  32
ENDBRANCH  21  22
ENDBRANCH  20  21
ENDBRANCH  17  20
ENDBRANCH  16  17
ENDBRANCH  15  16
ENDBRANCH  14  15
ENDBRANCH  13  14
ENDBRANCH  12  13
ENDBRANCH  11  12
ENDBRANCH  10  11
ENDBRANCH   9  10
ENDBRANCH   8   9
ENDBRANCH   7   8
ENDBRANCH   6   7
ENDBRANCH   5   6
ENDBRANCH   4   5
ENDBRANCH   3   4
ENDBRANCH   2   3
TORSDOF 22
ENDMDL
MODEL        9
REMARK 921   NORMALIZED FREE ENERGY PREDICTED BY IDOCK:   -5.04 KCAL/MOL
REMARK 922        TOTAL FREE ENERGY PREDICTED BY IDOCK:  -15.97 KCAL/MOL
REMARK 923 INTER-LIGAND FREE ENERGY PREDICTED BY IDOCK:  -12.42 KCAL/MOL
REMARK 924 INTRA-LIGAND FREE ENERGY PREDICTED BY IDOCK:   -3.55 KCAL/MOL
REMARK 927      BINDING AFFINITY PREDICTED BY RF-SCORE:    0.00 PKD
ROOT
HETATM    1  C   UNL     1      -9.544   6.309  66.441  1.00  0.00    -0.159 C  
HETATM    2  C   UNL     1     -10.898   6.486  67.105  1.00  0.00    -0.472 C  
ENDROOT
BRANCH   2   3
HETATM    3  C   UNL     1     -10.869   5.989  68.547  1.00  0.00    -0.363 C  
BRANCH   3   4
HETATM    4  C   UNL     1      -9.545   6.339  69.212  1.00  0.00    -0.147 C  
BRANCH   4   5
HETATM    5  C   UNL     1      -9.751   6.652  70.689  1.00  0.00    -0.183 C  
BRANCH   5   6
HETATM    6  C   UNL     1     -11.104   6.137  71.158  1.00  0.00    -0.360 C  
BRANCH   6   7
HETATM    7  C   UNL     1     -11.790   7.175  72.030  1.00  0.00    -0.333 C  
BRANCH   7   8
HETATM    8  C   UNL     1     -13.232   7.368  71.589  1.00  0.00    -0.416 C  
BRANCH   8   9
HETATM    9  C   UNL     1     -13.708   8.757  71.977  1.00  0.00    -0.491 C  
BRANCH   9  10
HETATM   10  C   UNL     1     -12.602   9.777  71.766  1.00  0.00    -0.506 C  
BRANCH  10  11
HETATM   11  C   UNL     1     -12.980  10.728  70.640  1.00  0.00    -0.313 C  
BRANCH  11  12
HETATM   12  C   UNL     1     -11.731  11.178  69.896  1.00  0.00    -0.433 C  
BRANCH  12  13
HETATM   13  C   UNL     1     -10.945   9.986  69.376  1.00  0.00    -0.280 C  
BRANCH  13  14
HETATM   14  C   UNL     1     -10.770  10.033  67.854  1.00  0.00    -0.322 C  
BRANCH  14  15
HETATM   15  C   UNL     1     -11.218  11.352  67.204  1.00  0.00    -0.363 C  
BRANCH  15  16
HETATM   16  C   UNL     1     -10.487  11.570  65.883  1.00  0.00    -0.255 C  
BRANCH  16  17
HETATM   17  N   UNL     1     -11.032  12.700  65.021  1.00  0.00    -0.281 N  
HETATM   18  C   UNL     1     -12.433  13.117  65.490  1.00  0.00    -0.458 C  
HETATM   19  C   UNL     1     -11.106  12.331  63.547  1.00  0.00    -0.464 C  
BRANCH  17  20
HETATM   20  C   UNL     1     -10.115  13.947  65.213  1.00  0.00    -0.303 C  
BRANCH  20  21
HETATM   21  C   UNL     1     -10.843  15.324  65.312  1.00  0.00    -0.403 C  
BRANCH  21  22
HETATM   22  N   UNL     1     -10.545  15.939  66.602  1.00  0.00    -0.316 NA 
BRANCH  22  23
HETATM   23  C   UNL     1      -9.965  15.137  67.686  1.00  0.00    -0.229 C  
BRANCH  23  24
HETATM   24  C   UNL     1     -10.839  15.095  68.925  1.00  0.00    -0.241 A  
HETATM   25  C   UNL     1     -10.367  15.612  70.137  1.00  0.00    -0.268 A  
HETATM   26  C   UNL     1     -12.334  14.791  71.301  1.00  0.00    -0.327 A  
HETATM   27  C   UNL     1     -12.859  14.357  70.085  1.00  0.00    -0.152 A  
HETATM   28  C   UNL     1     -12.114  14.506  68.904  1.00  0.00    -0.272 A  
HETATM   29  C   UNL     1     -11.104  15.449  71.311  1.00  0.00    -0.341 A  
BRANCH  26  30
HETATM   30  O   UNL     1     -12.871  14.590  72.540  1.00  0.00    -0.355 OA 
HETATM   31  C   UNL     1     -13.551  15.664  73.173  1.00  0.00    -0.473 C  
ENDBRANCH  26  30
ENDBRANCH  23  24
ENDBRANCH  22  23
BRANCH  22  32
HETATM   32  C   UNL     1     -10.083  17.244  66.543  1.00  0.00    -0.309 A  
HETATM   33  N   UNL     1     -10.895  18.237  66.949  1.00  0.00    -0.230 NA 
HETATM   34  N   UNL     1      -8.794  17.436  66.238  1.00  0.00    -0.427 NA 
HETATM   35  C   UNL     1      -8.314  18.690  66.333  1.00  0.00    -0.276 A  
HETATM   36  C   UNL     1     -10.385  19.492  66.970  1.00  0.00    -0.453 A  
HETATM   37  C   UNL     1      -9.077  19.774  66.683  1.00  0.00    -0.452 A  
ENDBRANCH  22  32
ENDBRANCH  21  22
ENDBRANCH  20  21
ENDBRANCH  17  20
ENDBRANCH  16  17
ENDBRANCH  15  16
ENDBRANCH  14  15
ENDBRANCH  13  14
ENDBRANCH  12  13
ENDBRANCH  11  12
ENDBRANCH  10  11
ENDBRANCH   9  10
ENDBRANCH   8   9
ENDBRANCH   7   8
ENDBRANCH   6   7
ENDBRANCH   5   6
ENDBRANCH   4   5
ENDBRANCH   3   4
ENDBRANCH   2   3
TORSDOF 22
ENDMDL
MODEL       10
REMARK 921   NORMALIZED FREE ENERGY PREDICTED BY IDOCK:   -5.04 KCAL/MOL
REMARK 922        TOTAL FREE ENERGY PREDICTED BY IDOCK:  -15.97 KCAL/MOL
REMARK 923 INTER-LIGAND FREE ENERGY PREDICTED BY IDOCK:  -11.91 KCAL/MOL
REMARK 924 INTRA-LIGAND FREE ENERGY PREDICTED BY IDOCK:   -4.06 KCAL/MOL
REMARK 927      BINDING AFFINITY PREDICTED BY RF-SCORE:    0.00 PKD
ROOT
HETATM    1  C   UNL     1      -7.033   7.861  72.451  1.00  0.00    -0.080 C  
HETATM    2  C   UNL     1      -8.299   7.216  72.987  1.00  0.00    -0.125 C  
ENDROOT
BRANCH   2   3
HETATM    3  C   UNL     1      -9.465   8.199  72.965  1.00  0.00    -0.333 C  
BRANCH   3   4
HETATM    4  C   UNL     1     -10.785   7.477  73.204  1.00  0.00    -0.452 C  
BRANCH   4   5
HETATM    5  C   UNL     1     -11.892   8.083  72.351  1.00  0.00    -0.429 C  
BRANCH   5   6
HETATM    6  C   UNL     1     -12.519   7.021  71.460  1.00  0.00    -0.426 C  
BRANCH   6   7
HETATM    7  C   UNL     1     -11.450   6.074  70.937  1.00  0.00    -0.230 C  
BRANCH   7   8
HETATM    8  C   UNL     1     -11.266   6.259  69.439  1.00  0.00    -0.489 C  
BRANCH   8   9
HETATM    9  C   UNL     1      -9.786   6.269  69.099  1.00  0.00    -0.168 C  
BRANCH   9  10
HETATM   10  C   UNL     1      -9.174   7.621  69.423  1.00  0.00    -0.149 C  
BRANCH  10  11
HETATM   11  C   UNL     1      -9.943   8.723  68.710  1.00  0.00    -0.197 C  
BRANCH  11  12
HETATM   12  C   UNL     1     -10.179   9.891  69.657  1.00  0.00    -0.261 C  
BRANCH  12  13
HETATM   13  C   UNL     1     -11.489  10.594  69.341  1.00  0.00    -0.356 C  
BRANCH  13  14
HETATM   14  C   UNL     1     -12.064  11.315  70.566  1.00  0.00    -0.481 C  
BRANCH  14  15
HETATM   15  C   UNL     1     -12.273  12.825  70.372  1.00  0.00    -0.371 C  
BRANCH  15  16
HETATM   16  C   UNL     1     -12.902  13.439  71.619  1.00  0.00    -0.321 C  
BRANCH  16  17
HETATM   17  N   UNL     1     -12.814  14.956  71.708  1.00  0.00    -0.312 N  
HETATM   18  C   UNL     1     -11.607  15.383  72.557  1.00  0.00    -0.425 C  
HETATM   19  C   UNL     1     -14.067  15.584  72.300  1.00  0.00    -0.544 C  
BRANCH  17  20
HETATM   20  C   UNL     1     -12.563  15.517  70.274  1.00  0.00    -0.323 C  
BRANCH  20  21
HETATM   21  C   UNL     1     -11.109  15.998  69.972  1.00  0.00    -0.362 C  
BRANCH  21  22
HETATM   22  N   UNL     1     -10.918  16.089  68.528  1.00  0.00    -0.308 NA 
BRANCH  22  23
HETATM   23  C   UNL     1     -11.867  15.438  67.615  1.00  0.00     0.013 C  
BRANCH  23  24
HETATM   24  C   UNL     1     -11.297  14.198  66.954  1.00  0.00    -0.343 A  
HETATM   25  C   UNL     1     -12.046  13.503  65.996  1.00  0.00    -0.489 A  
HETATM   26  C   UNL     1     -10.374  11.743  65.906  1.00  0.00    -0.241 A  
HETATM   27  C   UNL     1      -9.576  12.472  66.786  1.00  0.00    -0.231 A  
HETATM   28  C   UNL     1     -10.036  13.691  67.309  1.00  0.00    -0.240 A  
HETATM   29  C   UNL     1     -11.591  12.284  65.490  1.00  0.00    -0.422 A  
BRANCH  26  30
HETATM   30  O   UNL     1     -10.129  10.488  65.429  1.00  0.00    -0.271 OA 
HETATM   31  C   UNL     1      -9.423  10.349  64.204  1.00  0.00    -0.300 C  
ENDBRANCH  26  30
ENDBRANCH  23  24
ENDBRANCH  22  23
BRANCH  22  32
HETATM   32  C   UNL     1     -10.420  17.298  68.070  1.00  0.00    -0.375 A  
HETATM   33  N   UNL     1     -10.192  17.446  66.752  1.00  0.00    -0.311 NA 
HETATM   34  N   UNL     1     -10.344  18.310  68.941  1.00  0.00    -0.277 NA 
HETATM   35  C   UNL     1     -10.007  19.521  68.458  1.00  0.00    -0.446 A  
HETATM   36  C   UNL     1      -9.794  18.667  66.322  1.00  0.00    -0.342 A  
HETATM   37  C   UNL     1      -9.701  19.759  67.142  1.00  0.00    -0.501 A  
ENDBRANCH  22  32
ENDBRANCH  21  22
ENDBRANCH  20  21
ENDBRANCH  17  20
ENDBRANCH  16  17
ENDBRANCH  15  16
ENDBRANCH  14  15
ENDBRANCH  13  14
ENDBRANCH  12  13
ENDBRANCH  11  12
ENDBRANCH  10  11
ENDBRANCH   9  10
ENDBRANCH   8   9
ENDBRANCH   7   8
ENDBRANCH   6   7
ENDBRANCH   5   6
ENDBRANCH   4   5
ENDBRANCH   3   4
ENDBRANCH   2   3
TORSDOF 22
ENDMDL
MODEL       11
REMARK 921   NORMALIZED FREE ENERGY PREDICTED BY IDOCK:   -5.04 KCAL/MOL
REMARK 922        TOTAL FREE ENERGY PREDICTED BY IDOCK:  -15.97 KCAL/MOL
REMARK 923 INTER-LIGAND FREE ENERGY PREDICTED BY IDOCK:  -12.78 KCAL/MOL
REMARK 924 INTRA-LIGAND FREE ENERGY PREDICTED BY IDOCK:   -3.19 KCAL/MOL
REMARK 927      BINDING AFFINITY PREDICTED BY RF-SCORE:    0.00 PKD
ROOT
HETATM    1  C   UNL     1     -10.910  19.448  67.494  1.00  0.00    -0.521 C  
HETATM    2  C   UNL     1     -10.300  19.596  66.111  1.00  0.00    -0.627 C  
ENDROOT
BRANCH   2   3
HETATM    3  C   UNL     1      -8.781  19.701  66.192  1.00  0.00    -0.361 C  
BRANCH   3   4
HETATM    4  C   UNL     1      -8.307  19.595  67.636  1.00  0.00    -0.343 C  
BRANCH   4   5
HETATM    5  C   UNL     1      -7.551  18.291  67.859  1.00  0.00    -0.246 C  
BRANCH   5   6
HETATM    6  C   UNL     1      -7.473  17.493  66.566  1.00  0.00    -0.309 C  
BRANCH   6   7
HETATM    7  C   UNL     1      -7.977  16.077  66.789  1.00  0.00    -0.302 C  
BRANCH   7   8
HETATM    8  C   UNL     1      -9.440  16.094  67.200  1.00  0.00    -0.231 C  
BRANCH   8   9
HETATM    9  C   UNL     1     -10.233  15.140  66.323  1.00  0.00    -0.300 C  
BRANCH   9  10
HETATM   10  C   UNL     1     -10.923  15.897  65.201  1.00  0.00    -0.389 C  
BRANCH  10  11
HETATM   11  C   UNL     1     -11.954  15.003  64.528  1.00  0.00    -0.379 C  
BRANCH  11  12
HETATM   12  C   UNL     1     -12.441  13.942  65.504  1.00  0.00    -0.541 C  
BRANCH  12  13
HETATM   13  C   UNL     1     -12.449  12.567  64.858  1.00  0.00    -0.524 C  
BRANCH  13  14
HETATM   14  C   UNL     1     -11.114  12.244  64.178  1.00  0.00    -0.423 C  
BRANCH  14  15
HETATM   15  C   UNL     1     -10.049  11.658  65.118  1.00  0.00    -0.304 C  
BRANCH  15  16
HETATM   16  C   UNL     1     -10.269  10.159  65.303  1.00  0.00    -0.191 C  
BRANCH  16  17
HETATM   17  N   UNL     1      -9.953   9.625  66.692  1.00  0.00    -0.220 N  
HETATM   18  C   UNL     1      -8.468   9.825  67.029  1.00  0.00    -0.117 C  
HETATM   19  C   UNL     1     -10.288   8.149  66.844  1.00  0.00    -0.331 C  
BRANCH  17  20
HETATM   20  C   UNL     1     -10.756  10.465  67.733  1.00  0.00    -0.279 C  
BRANCH  20  21
HETATM   21  C   UNL     1     -10.060  10.694  69.111  1.00  0.00    -0.216 C  
BRANCH  21  22
HETATM   22  N   UNL     1     -11.019  10.454  70.185  1.00  0.00    -0.300 NA 
BRANCH  22  23
HETATM   23  C   UNL     1     -12.385  10.985  70.087  1.00  0.00    -0.311 C  
BRANCH  23  24
HETATM   24  C   UNL     1     -12.526  12.371  70.685  1.00  0.00    -0.320 A  
HETATM   25  C   UNL     1     -11.912  13.469  70.071  1.00  0.00    -0.410 A  
HETATM   26  C   UNL     1     -12.547  14.912  71.919  1.00  0.00    -0.331 A  
HETATM   27  C   UNL     1     -13.243  13.850  72.493  1.00  0.00    -0.601 A  
HETATM   28  C   UNL     1     -13.231  12.586  71.881  1.00  0.00    -0.495 A  
HETATM   29  C   UNL     1     -11.914  14.720  70.690  1.00  0.00    -0.371 A  
BRANCH  26  30
HETATM   30  O   UNL     1     -12.350  16.148  72.462  1.00  0.00    -0.460 OA 
HETATM   31  C   UNL     1     -12.419  16.294  73.873  1.00  0.00    -0.553 C  
ENDBRANCH  26  30
ENDBRANCH  23  24
ENDBRANCH  22  23
BRANCH  22  32
HETATM   32  C   UNL     1     -10.929   9.214  70.796  1.00  0.00    -0.270 A  
HETATM   33  N   UNL     1     -12.038   8.676  71.334  1.00  0.00    -0.295 NA 
HETATM   34  N   UNL     1      -9.777   8.543  70.677  1.00  0.00    -0.170 NA 
HETATM   35  C   UNL     1      -9.745   7.279  71.138  1.00  0.00    -0.171 A  
HETATM   36  C   UNL     1     -11.941   7.423  71.841  1.00  0.00    -0.302 A  
HETATM   37  C   UNL     1     -10.806   6.664  71.752  1.00  0.00    -0.265 A  
ENDBRANCH  22  32
ENDBRANCH  21  22
ENDBRANCH  20  21
ENDBRANCH  17  20
ENDBRANCH  16  17
ENDBRANCH  15  16
ENDBRANCH  14  15
ENDBRANCH  13  14
ENDBRANCH  12  13
ENDBRANCH  11  12
ENDBRANCH  10  11
ENDBRANCH   9  10
ENDBRANCH   8   9
ENDBRANCH   7   8
ENDBRANCH   6   7
ENDBRANCH   5   6
ENDBRANCH   4   5
ENDBRANCH   3   4
ENDBRANCH   2   3
TORSDOF 22
ENDMDL
MODEL       12
REMARK 921   NORMALIZED FREE ENERGY PREDICTED BY IDOCK:   -5.00 KCAL/MOL
REMARK 922        TOTAL FREE ENERGY PREDICTED BY IDOCK:  -15.87 KCAL/MOL
REMARK 923 INTER-LIGAND FREE ENERGY PREDICTED BY IDOCK:  -12.68 KCAL/MOL
REMARK 924 INTRA-LIGAND FREE ENERGY PREDICTED BY IDOCK:   -3.19 KCAL/MOL
REMARK 927      BINDING AFFINITY PREDICTED BY RF-SCORE:    0.00 PKD
ROOT
HETATM    1  C   UNL     1     -12.085  16.078  72.513  1.00  0.00    -0.635 C  
HETATM    2  C   UNL     1     -13.530  15.801  72.892  1.00  0.00    -0.666 C  
ENDROOT
BRANCH   2   3
HETATM    3  C   UNL     1     -14.168  14.808  71.927  1.00  0.00    -0.632 C  
BRANCH   3   4
HETATM    4  C   UNL     1     -13.136  13.810  71.417  1.00  0.00    -0.413 C  
BRANCH   4   5
HETATM    5  C   UNL     1     -13.370  12.434  72.027  1.00  0.00    -0.511 C  
BRANCH   5   6
HETATM    6  C   UNL     1     -12.468  11.400  71.371  1.00  0.00    -0.370 C  
BRANCH   6   7
HETATM    7  C   UNL     1     -13.288  10.214  70.889  1.00  0.00    -0.272 C  
BRANCH   7   8
HETATM    8  C   UNL     1     -13.591   9.276  72.046  1.00  0.00    -0.519 C  
BRANCH   8   9
HETATM    9  C   UNL     1     -14.249   8.010  71.524  1.00  0.00    -0.513 C  
BRANCH   9  10
HETATM   10  C   UNL     1     -13.381   6.799  71.817  1.00  0.00    -0.185 C  
BRANCH  10  11
HETATM   11  C   UNL     1     -12.188   6.774  70.873  1.00  0.00    -0.386 C  
BRANCH  11  12
HETATM   12  C   UNL     1     -10.942   6.317  71.618  1.00  0.00    -0.310 C  
BRANCH  12  13
HETATM   13  C   UNL     1     -10.573   7.297  72.718  1.00  0.00    -0.322 C  
BRANCH  13  14
HETATM   14  C   UNL     1      -9.320   8.109  72.368  1.00  0.00    -0.308 C  
BRANCH  14  15
HETATM   15  C   UNL     1      -9.489   9.048  71.164  1.00  0.00    -0.348 C  
BRANCH  15  16
HETATM   16  C   UNL     1      -8.398   8.788  70.129  1.00  0.00    -0.131 C  
BRANCH  16  17
HETATM   17  N   UNL     1      -8.584   9.506  68.799  1.00  0.00    -0.121 N  
HETATM   18  C   UNL     1      -9.013   8.520  67.703  1.00  0.00    -0.135 C  
HETATM   19  C   UNL     1      -7.324  10.223  68.338  1.00  0.00    -0.084 C  
BRANCH  17  20
HETATM   20  C   UNL     1      -9.753  10.527  68.954  1.00  0.00    -0.199 C  
BRANCH  20  21
HETATM   21  C   UNL     1     -10.730  10.638  67.742  1.00  0.00    -0.257 C  
BRANCH  21  22
HETATM   22  N   UNL     1     -10.663  11.986  67.186  1.00  0.00    -0.231 NA 
BRANCH  22  23
HETATM   23  C   UNL     1      -9.589  12.901  67.596  1.00  0.00    -0.196 C  
BRANCH  23  24
HETATM   24  C   UNL     1     -10.030  14.351  67.635  1.00  0.00    -0.224 A  
HETATM   25  C   UNL     1      -9.426  15.294  66.794  1.00  0.00    -0.264 A  
HETATM   26  C   UNL     1     -10.642  17.098  67.875  1.00  0.00    -0.376 A  
HETATM   27  C   UNL     1     -11.320  16.161  68.652  1.00  0.00    -0.365 A  
HETATM   28  C   UNL     1     -11.014  14.795  68.534  1.00  0.00    -0.265 A  
HETATM   29  C   UNL     1      -9.723  16.652  66.924  1.00  0.00    -0.261 A  
BRANCH  26  30
HETATM   30  O   UNL     1     -10.726  18.456  67.976  1.00  0.00    -0.357 OA 
HETATM   31  C   UNL     1      -9.904  19.124  68.923  1.00  0.00    -0.424 C  
ENDBRANCH  26  30
ENDBRANCH  23  24
ENDBRANCH  22  23
BRANCH  22  32
HETATM   32  C   UNL     1     -11.037  12.099  65.857  1.00  0.00    -0.318 A  
HETATM   33  N   UNL     1     -10.146  11.764  64.905  1.00  0.00    -0.253 NA 
HETATM   34  N   UNL     1     -12.317  12.381  65.591  1.00  0.00    -0.621 NA 
HETATM   35  C   UNL     1     -12.708  12.337  64.303  1.00  0.00    -0.315 A  
HETATM   36  C   UNL     1     -10.569  11.794  63.618  1.00  0.00    -0.439 A  
HETATM   37  C   UNL     1     -11.862  12.062  63.259  1.00  0.00    -0.450 A  
ENDBRANCH  22  32
ENDBRANCH  21  22
ENDBRANCH  20  21
ENDBRANCH  17  20
ENDBRANCH  16  17
ENDBRANCH  15  16
ENDBRANCH  14  15
ENDBRANCH  13  14
ENDBRANCH  12  13
ENDBRANCH  11  12
ENDBRANCH  10  11
ENDBRANCH   9  10
ENDBRANCH   8   9
ENDBRANCH   7   8
ENDBRANCH   6   7
ENDBRANCH   5   6
ENDBRANCH   4   5
ENDBRANCH   3   4
ENDBRANCH   2   3
TORSDOF 22
ENDMDL
MODEL       13
REMARK 921   NORMALIZED FREE ENERGY PREDICTED BY IDOCK:   -4.99 KCAL/MOL
REMARK 922        TOTAL FREE ENERGY PREDICTED BY IDOCK:  -15.87 KCAL/MOL
REMARK 923 INTER-LIGAND FREE ENERGY PREDICTED BY IDOCK:  -11.99 KCAL/MOL
REMARK 924 INTRA-LIGAND FREE ENERGY PREDICTED BY IDOCK:   -3.88 KCAL/MOL
REMARK 927      BINDING AFFINITY PREDICTED BY RF-SCORE:    0.00 PKD
ROOT
HETATM    1  C   UNL     1      -8.667   2.617  70.072  1.00  0.00    -0.126 C  
HETATM    2  C   UNL     1      -9.517   3.487  69.163  1.00  0.00    -0.224 C  
ENDROOT
BRANCH   2   3
HETATM    3  C   UNL     1      -9.492   4.942  69.619  1.00  0.00    -0.216 C  
BRANCH   3   4
HETATM    4  C   UNL     1     -10.446   5.787  68.784  1.00  0.00    -0.312 C  
BRANCH   4   5
HETATM    5  C   UNL     1     -11.435   6.523  69.678  1.00  0.00    -0.417 C  
BRANCH   5   6
HETATM    6  C   UNL     1     -10.869   6.680  71.082  1.00  0.00    -0.284 C  
BRANCH   6   7
HETATM    7  C   UNL     1     -11.988   6.947  72.075  1.00  0.00    -0.342 C  
BRANCH   7   8
HETATM    8  C   UNL     1     -13.338   6.890  71.379  1.00  0.00    -0.267 C  
BRANCH   8   9
HETATM    9  C   UNL     1     -14.093   8.188  71.611  1.00  0.00    -0.504 C  
BRANCH   9  10
HETATM   10  C   UNL     1     -13.305   9.104  72.532  1.00  0.00    -0.481 C  
BRANCH  10  11
HETATM   11  C   UNL     1     -13.164  10.480  71.899  1.00  0.00    -0.526 C  
BRANCH  11  12
HETATM   12  C   UNL     1     -12.844  10.343  70.417  1.00  0.00    -0.249 C  
BRANCH  12  13
HETATM   13  C   UNL     1     -11.345  10.255  70.187  1.00  0.00    -0.388 C  
BRANCH  13  14
HETATM   14  C   UNL     1     -10.998  10.118  68.700  1.00  0.00    -0.273 C  
BRANCH  14  15
HETATM   15  C   UNL     1      -9.571   9.620  68.425  1.00  0.00    -0.154 C  
BRANCH  15  16
HETATM   16  C   UNL     1      -8.876  10.527  67.414  1.00  0.00    -0.132 C  
BRANCH  16  17
HETATM   17  N   UNL     1      -7.884  11.518  68.009  1.00  0.00    -0.119 N  
HETATM   18  C   UNL     1      -6.788  11.867  66.993  1.00  0.00    -0.122 C  
HETATM   19  C   UNL     1      -7.221  10.997  69.275  1.00  0.00    -0.124 C  
BRANCH  17  20
HETATM   20  C   UNL     1      -8.643  12.847  68.311  1.00  0.00    -0.170 C  
BRANCH  20  21
HETATM   21  C   UNL     1      -9.042  13.705  67.070  1.00  0.00    -0.248 C  
BRANCH  21  22
HETATM   22  N   UNL     1     -10.497  13.777  66.977  1.00  0.00    -0.272 NA 
BRANCH  22  23
HETATM   23  C   UNL     1     -11.208  14.975  67.442  1.00  0.00    -0.335 C  
BRANCH  23  24
HETATM   24  C   UNL     1     -11.485  14.957  68.933  1.00  0.00    -0.320 A  
HETATM   25  C   UNL     1     -12.127  13.859  69.517  1.00  0.00    -0.393 A  
HETATM   26  C   UNL     1     -12.251  15.012  71.651  1.00  0.00    -0.347 A  
HETATM   27  C   UNL     1     -11.528  16.072  71.107  1.00  0.00    -0.470 A  
HETATM   28  C   UNL     1     -11.149  16.046  69.755  1.00  0.00    -0.337 A  
HETATM   29  C   UNL     1     -12.514  13.895  70.858  1.00  0.00    -0.447 A  
BRANCH  26  30
HETATM   30  O   UNL     1     -12.807  14.957  72.896  1.00  0.00    -0.385 OA 
HETATM   31  C   UNL     1     -12.540  16.009  73.812  1.00  0.00    -0.610 C  
ENDBRANCH  26  30
ENDBRANCH  23  24
ENDBRANCH  22  23
BRANCH  22  32
HETATM   32  C   UNL     1     -11.050  13.182  65.854  1.00  0.00    -0.278 A  
HETATM   33  N   UNL     1     -12.389  13.143  65.737  1.00  0.00    -0.450 NA 
HETATM   34  N   UNL     1     -10.220  12.819  64.869  1.00  0.00    -0.291 NA 
HETATM   35  C   UNL     1     -10.773  12.385  63.721  1.00  0.00    -0.451 A  
HETATM   36  C   UNL     1     -12.900  12.640  64.587  1.00  0.00    -0.275 A  
HETATM   37  C   UNL     1     -12.125  12.257  63.526  1.00  0.00    -0.649 A  
ENDBRANCH  22  32
ENDBRANCH  21  22
ENDBRANCH  20  21
ENDBRANCH  17  20
ENDBRANCH  16  17
ENDBRANCH  15  16
ENDBRANCH  14  15
ENDBRANCH  13  14
ENDBRANCH  12  13
ENDBRANCH  11  12
ENDBRANCH  10  11
ENDBRANCH   9  10
ENDBRANCH   8   9
ENDBRANCH   7   8
ENDBRANCH   6   7
ENDBRANCH   5   6
ENDBRANCH   4   5
ENDBRANCH   3   4
ENDBRANCH   2   3
TORSDOF 22
ENDMDL
MODEL       14
REMARK 921   NORMALIZED FREE ENERGY PREDICTED BY IDOCK:   -4.99 KCAL/MOL
REMARK 922        TOTAL FREE ENERGY PREDICTED BY IDOCK:  -15.85 KCAL/MOL
REMARK 923 INTER-LIGAND FREE ENERGY PREDICTED BY IDOCK:  -12.03 KCAL/MOL
REMARK 924 INTRA-LIGAND FREE ENERGY PREDICTED BY IDOCK:   -3.82 KCAL/MOL
REMARK 927      BINDING AFFINITY PREDICTED BY RF-SCORE:    0.00 PKD
ROOT
HETATM    1  C   UNL     1      -7.640   6.203  70.488  1.00  0.00    -0.096 C  
HETATM    2  C   UNL     1      -9.060   5.666  70.489  1.00  0.00    -0.164 C  
ENDROOT
BRANCH   2   3
HETATM    3  C   UNL     1      -9.589   5.516  69.066  1.00  0.00    -0.180 C  
BRANCH   3   4
HETATM    4  C   UNL     1     -11.029   6.005  68.970  1.00  0.00    -0.409 C  
BRANCH   4   5
HETATM    5  C   UNL     1     -11.263   6.733  67.652  1.00  0.00    -0.220 C  
BRANCH   5   6
HETATM    6  C   UNL     1      -9.950   7.266  67.099  1.00  0.00    -0.279 C  
BRANCH   6   7
HETATM    7  C   UNL     1     -10.129   8.690  66.598  1.00  0.00    -0.364 C  
BRANCH   7   8
HETATM    8  C   UNL     1      -8.983   9.568  67.077  1.00  0.00    -0.150 C  
BRANCH   8   9
HETATM    9  C   UNL     1      -8.549   9.136  68.467  1.00  0.00    -0.129 C  
BRANCH   9  10
HETATM   10  C   UNL     1      -9.020  10.138  69.507  1.00  0.00    -0.205 C  
BRANCH  10  11
HETATM   11  C   UNL     1      -9.961   9.462  70.492  1.00  0.00    -0.328 C  
BRANCH  11  12
HETATM   12  C   UNL     1     -11.351  10.074  70.389  1.00  0.00    -0.392 C  
BRANCH  12  13
HETATM   13  C   UNL     1     -12.228   9.636  71.551  1.00  0.00    -0.483 C  
BRANCH  13  14
HETATM   14  C   UNL     1     -13.281  10.691  71.905  1.00  0.00    -0.528 C  
BRANCH  14  15
HETATM   15  C   UNL     1     -13.006  12.084  71.320  1.00  0.00    -0.315 C  
BRANCH  15  16
HETATM   16  C   UNL     1     -13.419  13.169  72.310  1.00  0.00    -0.568 C  
BRANCH  16  17
HETATM   17  N   UNL     1     -13.049  14.589  71.906  1.00  0.00    -0.330 N  
HETATM   18  C   UNL     1     -12.627  15.412  73.131  1.00  0.00    -0.465 C  
HETATM   19  C   UNL     1     -14.187  15.316  71.205  1.00  0.00    -0.402 C  
BRANCH  17  20
HETATM   20  C   UNL     1     -11.802  14.522  70.971  1.00  0.00    -0.290 C  
BRANCH  20  21
HETATM   21  C   UNL     1     -11.658  15.684  69.939  1.00  0.00    -0.347 C  
BRANCH  21  22
HETATM   22  N   UNL     1     -10.273  15.758  69.482  1.00  0.00    -0.253 NA 
BRANCH  22  23
HETATM   23  C   UNL     1      -9.614  14.569  68.925  1.00  0.00    -0.158 C  
BRANCH  23  24
HETATM   24  C   UNL     1     -10.377  13.959  67.765  1.00  0.00    -0.240 A  
HETATM   25  C   UNL     1     -10.609  14.707  66.604  1.00  0.00    -0.289 A  
HETATM   26  C   UNL     1     -12.020  12.947  65.702  1.00  0.00    -0.440 A  
HETATM   27  C   UNL     1     -11.718  12.155  66.808  1.00  0.00    -0.377 A  
HETATM   28  C   UNL     1     -10.904  12.659  67.835  1.00  0.00    -0.244 A  
HETATM   29  C   UNL     1     -11.432  14.208  65.593  1.00  0.00    -0.325 A  
BRANCH  26  30
HETATM   30  O   UNL     1     -12.901  12.653  64.703  1.00  0.00    -0.704 OA 
HETATM   31  C   UNL     1     -12.394  12.195  63.458  1.00  0.00    -0.574 C  
ENDBRANCH  26  30
ENDBRANCH  23  24
ENDBRANCH  22  23
BRANCH  22  32
HETATM   32  C   UNL     1      -9.911  16.951  68.876  1.00  0.00    -0.267 A  
HETATM   33  N   UNL     1     -10.880  17.753  68.400  1.00  0.00    -0.187 NA 
HETATM   34  N   UNL     1      -8.626  17.317  68.940  1.00  0.00    -0.222 NA 
HETATM   35  C   UNL     1      -8.307  18.545  68.488  1.00  0.00    -0.334 A  
HETATM   36  C   UNL     1     -10.503  18.954  67.898  1.00  0.00    -0.388 A  
HETATM   37  C   UNL     1      -9.214  19.412  67.934  1.00  0.00    -0.383 A  
ENDBRANCH  22  32
ENDBRANCH  21  22
ENDBRANCH  20  21
ENDBRANCH  17  20
ENDBRANCH  16  17
ENDBRANCH  15  16
ENDBRANCH  14  15
ENDBRANCH  13  14
ENDBRANCH  12  13
ENDBRANCH  11  12
ENDBRANCH  10  11
ENDBRANCH   9  10
ENDBRANCH   8   9
ENDBRANCH   7   8
ENDBRANCH   6   7
ENDBRANCH   5   6
ENDBRANCH   4   5
ENDBRANCH   3   4
ENDBRANCH   2   3
TORSDOF 22
ENDMDL
MODEL       15
REMARK 921   NORMALIZED FREE ENERGY PREDICTED BY IDOCK:   -4.97 KCAL/MOL
REMARK 922        TOTAL FREE ENERGY PREDICTED BY IDOCK:  -15.82 KCAL/MOL
REMARK 923 INTER-LIGAND FREE ENERGY PREDICTED BY IDOCK:  -12.26 KCAL/MOL
REMARK 924 INTRA-LIGAND FREE ENERGY PREDICTED BY IDOCK:   -3.56 KCAL/MOL
REMARK 927      BINDING AFFINITY PREDICTED BY RF-SCORE:    0.00 PKD
ROOT
HETATM    1  C   UNL     1     -14.354   8.308  71.478  1.00  0.00    -0.525 C  
HETATM    2  C   UNL     1     -13.411   9.303  72.132  1.00  0.00    -0.539 C  
ENDROOT
BRANCH   2   3
HETATM    3  C   UNL     1     -11.958   8.976  71.805  1.00  0.00    -0.438 C  
BRANCH   3   4
HETATM    4  C   UNL     1     -11.567   7.619  72.377  1.00  0.00    -0.386 C  
BRANCH   4   5
HETATM    5  C   UNL     1     -10.722   6.838  71.379  1.00  0.00    -0.253 C  
BRANCH   5   6
HETATM    6  C   UNL     1     -11.556   6.447  70.168  1.00  0.00    -0.449 C  
BRANCH   6   7
HETATM    7  C   UNL     1     -10.667   5.869  69.079  1.00  0.00    -0.379 C  
BRANCH   7   8
HETATM    8  C   UNL     1     -10.874   6.619  67.773  1.00  0.00    -0.372 C  
BRANCH   8   9
HETATM    9  C   UNL     1      -9.530   7.021  67.191  1.00  0.00    -0.176 C  
BRANCH   9  10
HETATM   10  C   UNL     1      -8.466   7.046  68.275  1.00  0.00    -0.123 C  
BRANCH  10  11
HETATM   11  C   UNL     1      -7.929   8.459  68.444  1.00  0.00    -0.118 C  
BRANCH  11  12
HETATM   12  C   UNL     1      -8.623   9.145  69.612  1.00  0.00    -0.143 C  
BRANCH  12  13
HETATM   13  C   UNL     1      -9.299  10.431  69.167  1.00  0.00    -0.211 C  
BRANCH  13  14
HETATM   14  C   UNL     1     -10.764  10.206  68.779  1.00  0.00    -0.247 C  
BRANCH  14  15
HETATM   15  C   UNL     1     -11.118  10.650  67.351  1.00  0.00    -0.341 C  
BRANCH  15  16
HETATM   16  C   UNL     1     -10.089  11.652  66.835  1.00  0.00    -0.211 C  
BRANCH  16  17
HETATM   17  N   UNL     1     -10.619  13.059  66.597  1.00  0.00    -0.265 N  
HETATM   18  C   UNL     1     -12.132  13.122  66.848  1.00  0.00    -0.316 C  
HETATM   19  C   UNL     1     -10.342  13.560  65.188  1.00  0.00    -0.353 C  
BRANCH  17  20
HETATM   20  C   UNL     1      -9.960  14.013  67.642  1.00  0.00    -0.237 C  
BRANCH  20  21
HETATM   21  C   UNL     1     -10.663  14.094  69.033  1.00  0.00    -0.231 C  
BRANCH  21  22
HETATM   22  N   UNL     1     -11.076  15.471  69.289  1.00  0.00    -0.264 NA 
BRANCH  22  23
HETATM   23  C   UNL     1     -11.379  16.371  68.168  1.00  0.00    -0.205 C  
BRANCH  23  24
HETATM   24  C   UNL     1     -10.429  17.549  68.081  1.00  0.00    -0.386 A  
HETATM   25  C   UNL     1     -10.838  18.740  67.470  1.00  0.00    -0.396 A  
HETATM   26  C   UNL     1      -8.599  19.660  67.667  1.00  0.00    -0.320 A  
HETATM   27  C   UNL     1      -8.204  18.519  68.362  1.00  0.00    -0.351 A  
HETATM   28  C   UNL     1      -9.113  17.468  68.566  1.00  0.00    -0.277 A  
HETATM   29  C   UNL     1      -9.927  19.776  67.257  1.00  0.00    -0.530 A  
BRANCH  26  30
HETATM   30  O   UNL     1      -7.799  20.693  67.271  1.00  0.00    -0.332 OA 
HETATM   31  C   UNL     1      -6.506  20.400  66.764  1.00  0.00    -0.219 C  
ENDBRANCH  26  30
ENDBRANCH  23  24
ENDBRANCH  22  23
BRANCH  22  32
HETATM   32  C   UNL     1     -11.878  15.652  70.404  1.00  0.00    -0.370 A  
HETATM   33  N   UNL     1     -13.157  15.237  70.354  1.00  0.00    -0.268 NA 
HETATM   34  N   UNL     1     -11.296  16.085  71.527  1.00  0.00    -0.337 NA 
HETATM   35  C   UNL     1     -12.046  16.112  72.645  1.00  0.00    -0.554 A  
HETATM   36  C   UNL     1     -13.891  15.341  71.488  1.00  0.00    -0.525 A  
HETATM   37  C   UNL     1     -13.371  15.763  72.682  1.00  0.00    -0.607 A  
ENDBRANCH  22  32
ENDBRANCH  21  22
ENDBRANCH  20  21
ENDBRANCH  17  20
ENDBRANCH  16  17
ENDBRANCH  15  16
ENDBRANCH  14  15
ENDBRANCH  13  14
ENDBRANCH  12  13
ENDBRANCH  11  12
ENDBRANCH  10  11
ENDBRANCH   9  10
ENDBRANCH   8   9
ENDBRANCH   7   8
ENDBRANCH   6   7
ENDBRANCH   5   6
ENDBRANCH   4   5
ENDBRANCH   3   4
ENDBRANCH   2   3
TORSDOF 22
ENDMDL
MODEL       16
REMARK 921   NORMALIZED FREE ENERGY PREDICTED BY IDOCK:   -4.94 KCAL/MOL
REMARK 922        TOTAL FREE ENERGY PREDICTED BY IDOCK:  -15.75 KCAL/MOL
REMARK 923 INTER-LIGAND FREE ENERGY PREDICTED BY IDOCK:  -11.64 KCAL/MOL
REMARK 924 INTRA-LIGAND FREE ENERGY PREDICTED BY IDOCK:   -4.11 KCAL/MOL
REMARK 927      BINDING AFFINITY PREDICTED BY RF-SCORE:    0.00 PKD
ROOT
HETATM    1  C   UNL     1      -6.667  14.559  67.698  1.00  0.00    -0.194 C  
HETATM    2  C   UNL     1      -7.545  14.711  68.928  1.00  0.00    -0.139 C  
ENDROOT
BRANCH   2   3
HETATM    3  C   UNL     1      -7.697  16.178  69.313  1.00  0.00    -0.210 C  
BRANCH   3   4
HETATM    4  C   UNL     1      -6.905  17.071  68.367  1.00  0.00    -0.170 C  
BRANCH   4   5
HETATM    5  C   UNL     1      -6.432  18.330  69.085  1.00  0.00    -0.267 C  
BRANCH   5   6
HETATM    6  C   UNL     1      -5.712  19.255  68.116  1.00  0.00    -0.211 C  
BRANCH   6   7
HETATM    7  C   UNL     1      -6.604  20.429  67.745  1.00  0.00    -0.319 C  
BRANCH   7   8
HETATM    8  C   UNL     1      -7.099  20.287  66.315  1.00  0.00    -0.306 C  
BRANCH   8   9
HETATM    9  C   UNL     1      -8.556  19.857  66.313  1.00  0.00    -0.377 C  
BRANCH   9  10
HETATM   10  C   UNL     1      -9.241  20.295  67.597  1.00  0.00    -0.449 C  
BRANCH  10  11
HETATM   11  C   UNL     1     -10.212  19.220  68.061  1.00  0.00    -0.507 C  
BRANCH  11  12
HETATM   12  C   UNL     1     -10.628  18.349  66.883  1.00  0.00    -0.381 C  
BRANCH  12  13
HETATM   13  C   UNL     1     -10.484  16.874  67.217  1.00  0.00    -0.301 C  
BRANCH  13  14
HETATM   14  C   UNL     1      -9.897  16.075  66.048  1.00  0.00    -0.365 C  
BRANCH  14  15
HETATM   15  C   UNL     1     -10.937  15.595  65.023  1.00  0.00    -0.445 C  
BRANCH  15  16
HETATM   16  C   UNL     1     -10.653  14.154  64.611  1.00  0.00    -0.368 C  
BRANCH  16  17
HETATM   17  N   UNL     1     -11.729  13.147  64.994  1.00  0.00    -0.323 N  
HETATM   18  C   UNL     1     -12.288  12.446  63.748  1.00  0.00    -0.528 C  
HETATM   19  C   UNL     1     -12.886  13.784  65.749  1.00  0.00    -0.379 C  
BRANCH  17  20
HETATM   20  C   UNL     1     -11.070  12.035  65.866  1.00  0.00    -0.324 C  
BRANCH  20  21
HETATM   21  C   UNL     1      -9.972  12.511  66.868  1.00  0.00    -0.224 C  
BRANCH  21  22
HETATM   22  N   UNL     1     -10.321  12.070  68.215  1.00  0.00    -0.198 NA 
BRANCH  22  23
HETATM   23  C   UNL     1     -11.728  12.011  68.632  1.00  0.00    -0.326 C  
BRANCH  23  24
HETATM   24  C   UNL     1     -12.080  13.054  69.675  1.00  0.00    -0.304 A  
HETATM   25  C   UNL     1     -12.616  12.664  70.908  1.00  0.00    -0.338 A  
HETATM   26  C   UNL     1     -12.992  14.983  71.526  1.00  0.00    -0.358 A  
HETATM   27  C   UNL     1     -12.374  15.386  70.344  1.00  0.00    -0.443 A  
HETATM   28  C   UNL     1     -11.922  14.427  69.422  1.00  0.00    -0.370 A  
HETATM   29  C   UNL     1     -13.077  13.620  71.815  1.00  0.00    -0.468 A  
BRANCH  26  30
HETATM   30  O   UNL     1     -13.603  15.787  72.443  1.00  0.00    -0.489 OA 
HETATM   31  C   UNL     1     -12.902  16.125  73.631  1.00  0.00    -0.558 C  
ENDBRANCH  26  30
ENDBRANCH  23  24
ENDBRANCH  22  23
BRANCH  22  32
HETATM   32  C   UNL     1      -9.527  11.058  68.732  1.00  0.00    -0.183 A  
HETATM   33  N   UNL     1      -8.212  11.060  68.448  1.00  0.00    -0.130 NA 
HETATM   34  N   UNL     1     -10.081  10.222  69.618  1.00  0.00    -0.236 NA 
HETATM   35  C   UNL     1      -9.268   9.341  70.231  1.00  0.00    -0.237 A  
HETATM   36  C   UNL     1      -7.444  10.114  69.043  1.00  0.00    -0.091 A  
HETATM   37  C   UNL     1      -7.927   9.229  69.968  1.00  0.00    -0.124 A  
ENDBRANCH  22  32
ENDBRANCH  21  22
ENDBRANCH  20  21
ENDBRANCH  17  20
ENDBRANCH  16  17
ENDBRANCH  15  16
ENDBRANCH  14  15
ENDBRANCH  13  14
ENDBRANCH  12  13
ENDBRANCH  11  12
ENDBRANCH  10  11
ENDBRANCH   9  10
ENDBRANCH   8   9
ENDBRANCH   7   8
ENDBRANCH   6   7
ENDBRANCH   5   6
ENDBRANCH   4   5
ENDBRANCH   3   4
ENDBRANCH   2   3
TORSDOF 22
ENDMDL
MODEL       17
REMARK 921   NORMALIZED FREE ENERGY PREDICTED BY IDOCK:   -4.90 KCAL/MOL
REMARK 922        TOTAL FREE ENERGY PREDICTED BY IDOCK:  -15.66 KCAL/MOL
REMARK 923 INTER-LIGAND FREE ENERGY PREDICTED BY IDOCK:  -12.30 KCAL/MOL
REMARK 924 INTRA-LIGAND FREE ENERGY PREDICTED BY IDOCK:   -3.36 KCAL/MOL
REMARK 927      BINDING AFFINITY PREDICTED BY RF-SCORE:    0.00 PKD
ROOT
HETATM    1  C   UNL     1      -9.812   4.419  72.206  1.00  0.00    -0.231 C  
HETATM    2  C   UNL     1     -10.416   5.527  71.362  1.00  0.00    -0.305 C  
ENDROOT
BRANCH   2   3
HETATM    3  C   UNL     1     -11.339   6.410  72.196  1.00  0.00    -0.332 C  
BRANCH   3   4
HETATM    4  C   UNL     1     -12.567   6.819  71.393  1.00  0.00    -0.348 C  
BRANCH   4   5
HETATM    5  C   UNL     1     -13.022   8.220  71.782  1.00  0.00    -0.367 C  
BRANCH   5   6
HETATM    6  C   UNL     1     -11.827   9.154  71.897  1.00  0.00    -0.439 C  
BRANCH   6   7
HETATM    7  C   UNL     1     -11.952  10.295  70.901  1.00  0.00    -0.473 C  
BRANCH   7   8
HETATM    8  C   UNL     1     -10.871  10.189  69.836  1.00  0.00    -0.347 C  
BRANCH   8   9
HETATM    9  C   UNL     1      -9.786   9.230  70.297  1.00  0.00    -0.265 C  
BRANCH   9  10
HETATM   10  C   UNL     1      -9.267   8.412  69.127  1.00  0.00    -0.150 C  
BRANCH  10  11
HETATM   11  C   UNL     1     -10.391   7.574  68.539  1.00  0.00    -0.224 C  
BRANCH  11  12
HETATM   12  C   UNL     1     -10.527   7.853  67.049  1.00  0.00    -0.419 C  
BRANCH  12  13
HETATM   13  C   UNL     1      -9.452   8.816  66.574  1.00  0.00    -0.281 C  
BRANCH  13  14
HETATM   14  C   UNL     1     -10.003   9.850  65.586  1.00  0.00    -0.353 C  
BRANCH  14  15
HETATM   15  C   UNL     1      -9.600  11.300  65.895  1.00  0.00    -0.249 C  
BRANCH  15  16
HETATM   16  C   UNL     1     -10.797  12.086  66.423  1.00  0.00    -0.278 C  
BRANCH  16  17
HETATM   17  N   UNL     1     -11.145  13.341  65.636  1.00  0.00    -0.281 N  
HETATM   18  C   UNL     1     -12.623  13.710  65.825  1.00  0.00    -0.461 C  
HETATM   19  C   UNL     1     -10.870  13.196  64.147  1.00  0.00    -0.380 C  
BRANCH  17  20
HETATM   20  C   UNL     1     -10.318  14.529  66.219  1.00  0.00    -0.294 C  
BRANCH  20  21
HETATM   21  C   UNL     1      -9.979  14.445  67.741  1.00  0.00    -0.226 C  
BRANCH  21  22
HETATM   22  N   UNL     1     -10.591  15.574  68.436  1.00  0.00    -0.245 NA 
BRANCH  22  23
HETATM   23  C   UNL     1     -11.150  16.697  67.672  1.00  0.00    -0.107 C  
BRANCH  23  24
HETATM   24  C   UNL     1     -10.286  17.942  67.731  1.00  0.00    -0.393 A  
HETATM   25  C   UNL     1     -10.565  19.033  66.899  1.00  0.00    -0.518 A  
HETATM   26  C   UNL     1      -8.540  20.159  67.628  1.00  0.00    -0.303 A  
HETATM   27  C   UNL     1      -8.303  19.124  68.530  1.00  0.00    -0.399 A  
HETATM   28  C   UNL     1      -9.169  18.020  68.579  1.00  0.00    -0.296 A  
HETATM   29  C   UNL     1      -9.693  20.121  66.843  1.00  0.00    -0.582 A  
BRANCH  26  30
HETATM   30  O   UNL     1      -7.721  21.218  67.366  1.00  0.00    -0.361 OA 
HETATM   31  C   UNL     1      -6.332  20.981  67.190  1.00  0.00    -0.329 C  
ENDBRANCH  26  30
ENDBRANCH  23  24
ENDBRANCH  22  23
BRANCH  22  32
HETATM   32  C   UNL     1     -11.299  15.251  69.582  1.00  0.00    -0.290 A  
HETATM   33  N   UNL     1     -12.127  14.191  69.553  1.00  0.00    -0.333 NA 
HETATM   34  N   UNL     1     -11.002  15.913  70.706  1.00  0.00    -0.298 NA 
HETATM   35  C   UNL     1     -11.580  15.492  71.846  1.00  0.00    -0.442 A  
HETATM   36  C   UNL     1     -12.735  13.842  70.713  1.00  0.00    -0.313 A  
HETATM   37  C   UNL     1     -12.480  14.458  71.909  1.00  0.00    -0.387 A  
ENDBRANCH  22  32
ENDBRANCH  21  22
ENDBRANCH  20  21
ENDBRANCH  17  20
ENDBRANCH  16  17
ENDBRANCH  15  16
ENDBRANCH  14  15
ENDBRANCH  13  14
ENDBRANCH  12  13
ENDBRANCH  11  12
ENDBRANCH  10  11
ENDBRANCH   9  10
ENDBRANCH   8   9
ENDBRANCH   7   8
ENDBRANCH   6   7
ENDBRANCH   5   6
ENDBRANCH   4   5
ENDBRANCH   3   4
ENDBRANCH   2   3
TORSDOF 22
ENDMDL
MODEL       18
REMARK 921   NORMALIZED FREE ENERGY PREDICTED BY IDOCK:   -4.86 KCAL/MOL
REMARK 922        TOTAL FREE ENERGY PREDICTED BY IDOCK:  -15.56 KCAL/MOL
REMARK 923 INTER-LIGAND FREE ENERGY PREDICTED BY IDOCK:  -12.43 KCAL/MOL
REMARK 924 INTRA-LIGAND FREE ENERGY PREDICTED BY IDOCK:   -3.13 KCAL/MOL
REMARK 927      BINDING AFFINITY PREDICTED BY RF-SCORE:    0.00 PKD
ROOT
HETATM    1  C   UNL     1     -12.872  15.575  73.615  1.00  0.00    -0.697 C  
HETATM    2  C   UNL     1     -13.996  15.571  72.593  1.00  0.00    -0.617 C  
ENDROOT
BRANCH   2   3
HETATM    3  C   UNL     1     -13.470  15.226  71.204  1.00  0.00    -0.559 C  
BRANCH   3   4
HETATM    4  C   UNL     1     -12.199  14.392  71.298  1.00  0.00    -0.429 C  
BRANCH   4   5
HETATM    5  C   UNL     1     -12.401  13.027  70.652  1.00  0.00    -0.391 C  
BRANCH   5   6
HETATM    6  C   UNL     1     -12.908  12.024  71.678  1.00  0.00    -0.399 C  
BRANCH   6   7
HETATM    7  C   UNL     1     -13.034  10.646  71.049  1.00  0.00    -0.456 C  
BRANCH   7   8
HETATM    8  C   UNL     1     -12.618   9.571  72.041  1.00  0.00    -0.456 C  
BRANCH   8   9
HETATM    9  C   UNL     1     -11.192   9.133  71.757  1.00  0.00    -0.451 C  
BRANCH   9  10
HETATM   10  C   UNL     1     -10.779   8.019  72.704  1.00  0.00    -0.426 C  
BRANCH  10  11
HETATM   11  C   UNL     1     -10.403   6.776  71.912  1.00  0.00    -0.217 C  
BRANCH  11  12
HETATM   12  C   UNL     1     -11.620   6.242  71.169  1.00  0.00    -0.339 C  
BRANCH  12  13
HETATM   13  C   UNL     1     -11.412   6.301  69.665  1.00  0.00    -0.425 C  
BRANCH  13  14
HETATM   14  C   UNL     1      -9.936   6.138  69.283  1.00  0.00    -0.196 C  
BRANCH  14  15
HETATM   15  C   UNL     1      -9.503   6.961  68.059  1.00  0.00    -0.124 C  
BRANCH  15  16
HETATM   16  C   UNL     1     -10.035   8.387  68.162  1.00  0.00    -0.191 C  
BRANCH  16  17
HETATM   17  N   UNL     1      -8.987   9.449  68.462  1.00  0.00    -0.128 N  
HETATM   18  C   UNL     1      -8.106   9.709  67.232  1.00  0.00    -0.110 C  
HETATM   19  C   UNL     1      -8.087   9.072  69.629  1.00  0.00    -0.103 C  
BRANCH  17  20
HETATM   20  C   UNL     1      -9.723  10.790  68.766  1.00  0.00    -0.192 C  
BRANCH  20  21
HETATM   21  C   UNL     1     -10.955  11.115  67.865  1.00  0.00    -0.253 C  
BRANCH  21  22
HETATM   22  N   UNL     1     -10.708  12.353  67.133  1.00  0.00    -0.231 NA 
BRANCH  22  23
HETATM   23  C   UNL     1      -9.460  13.098  67.342  1.00  0.00    -0.214 C  
BRANCH  23  24
HETATM   24  C   UNL     1      -9.656  14.602  67.315  1.00  0.00    -0.221 A  
HETATM   25  C   UNL     1      -8.973  15.384  66.375  1.00  0.00    -0.351 A  
HETATM   26  C   UNL     1      -9.795  17.421  67.412  1.00  0.00    -0.281 A  
HETATM   27  C   UNL     1     -10.554  16.653  68.292  1.00  0.00    -0.338 A  
HETATM   28  C   UNL     1     -10.484  15.251  68.245  1.00  0.00    -0.244 A  
HETATM   29  C   UNL     1      -9.035  16.777  66.435  1.00  0.00    -0.325 A  
BRANCH  26  30
HETATM   30  O   UNL     1      -9.650  18.778  67.428  1.00  0.00    -0.299 OA 
HETATM   31  C   UNL     1     -10.552  19.570  66.669  1.00  0.00    -0.478 C  
ENDBRANCH  26  30
ENDBRANCH  23  24
ENDBRANCH  22  23
BRANCH  22  32
HETATM   32  C   UNL     1     -11.177  12.375  65.829  1.00  0.00    -0.333 A  
HETATM   33  N   UNL     1     -10.527  11.655  64.896  1.00  0.00    -0.274 NA 
HETATM   34  N   UNL     1     -12.346  12.983  65.597  1.00  0.00    -0.471 NA 
HETATM   35  C   UNL     1     -12.871  12.868  64.362  1.00  0.00    -0.155 A  
HETATM   36  C   UNL     1     -11.061  11.620  63.651  1.00  0.00    -0.425 A  
HETATM   37  C   UNL     1     -12.257  12.204  63.331  1.00  0.00    -0.635 A  
ENDBRANCH  22  32
ENDBRANCH  21  22
ENDBRANCH  20  21
ENDBRANCH  17  20
ENDBRANCH  16  17
ENDBRANCH  15  16
ENDBRANCH  14  15
ENDBRANCH  13  14
ENDBRANCH  12  13
ENDBRANCH  11  12
ENDBRANCH  10  11
ENDBRANCH   9  10
ENDBRANCH   8   9
ENDBRANCH   7   8
ENDBRANCH   6   7
ENDBRANCH   5   6
ENDBRANCH   4   5
ENDBRANCH   3   4
ENDBRANCH   2   3
TORSDOF 22
ENDMDL
MODEL       19
REMARK 921   NORMALIZED FREE ENERGY PREDICTED BY IDOCK:   -4.84 KCAL/MOL
REMARK 922        TOTAL FREE ENERGY PREDICTED BY IDOCK:  -15.51 KCAL/MOL
REMARK 923 INTER-LIGAND FREE ENERGY PREDICTED BY IDOCK:  -11.69 KCAL/MOL
REMARK 924 INTRA-LIGAND FREE ENERGY PREDICTED BY IDOCK:   -3.82 KCAL/MOL
REMARK 927      BINDING AFFINITY PREDICTED BY RF-SCORE:    0.00 PKD
ROOT
HETATM    1  C   UNL     1      -8.345   7.869  73.647  1.00  0.00    -0.282 C  
HETATM    2  C   UNL     1      -9.843   7.666  73.510  1.00  0.00    -0.357 C  
ENDROOT
BRANCH   2   3
HETATM    3  C   UNL     1     -10.212   6.193  73.659  1.00  0.00    -0.252 C  
BRANCH   3   4
HETATM    4  C   UNL     1     -11.422   5.849  72.800  1.00  0.00    -0.274 C  
BRANCH   4   5
HETATM    5  C   UNL     1     -11.164   6.205  71.341  1.00  0.00    -0.346 C  
BRANCH   5   6
HETATM    6  C   UNL     1     -12.355   6.952  70.758  1.00  0.00    -0.314 C  
BRANCH   6   7
HETATM    7  C   UNL     1     -12.873   7.977  71.753  1.00  0.00    -0.353 C  
BRANCH   7   8
HETATM    8  C   UNL     1     -12.384   9.368  71.384  1.00  0.00    -0.439 C  
BRANCH   8   9
HETATM    9  C   UNL     1     -13.382  10.409  71.861  1.00  0.00    -0.469 C  
BRANCH   9  10
HETATM   10  C   UNL     1     -12.819  11.808  71.682  1.00  0.00    -0.433 C  
BRANCH  10  11
HETATM   11  C   UNL     1     -13.833  12.841  72.150  1.00  0.00    -0.326 C  
BRANCH  11  12
HETATM   12  C   UNL     1     -13.124  14.132  72.533  1.00  0.00    -0.554 C  
BRANCH  12  13
HETATM   13  C   UNL     1     -13.472  15.253  71.567  1.00  0.00    -0.577 C  
BRANCH  13  14
HETATM   14  C   UNL     1     -12.256  15.704  70.749  1.00  0.00    -0.463 C  
BRANCH  14  15
HETATM   15  C   UNL     1     -11.914  14.789  69.564  1.00  0.00    -0.351 C  
BRANCH  15  16
HETATM   16  C   UNL     1     -11.654  15.617  68.309  1.00  0.00    -0.319 C  
BRANCH  16  17
HETATM   17  N   UNL     1     -10.212  15.616  67.820  1.00  0.00    -0.248 N  
HETATM   18  C   UNL     1      -9.407  16.734  68.497  1.00  0.00    -0.246 C  
HETATM   19  C   UNL     1     -10.104  15.787  66.312  1.00  0.00    -0.303 C  
BRANCH  17  20
HETATM   20  C   UNL     1      -9.549  14.272  68.254  1.00  0.00    -0.221 C  
BRANCH  20  21
HETATM   21  C   UNL     1      -9.058  13.346  67.098  1.00  0.00    -0.235 C  
BRANCH  21  22
HETATM   22  N   UNL     1     -10.005  12.249  66.920  1.00  0.00    -0.210 NA 
BRANCH  22  23
HETATM   23  C   UNL     1     -10.722  11.698  68.078  1.00  0.00    -0.208 C  
BRANCH  23  24
HETATM   24  C   UNL     1     -10.229  10.321  68.478  1.00  0.00    -0.192 A  
HETATM   25  C   UNL     1      -9.431  10.163  69.618  1.00  0.00    -0.226 A  
HETATM   26  C   UNL     1      -9.077   7.817  69.095  1.00  0.00    -0.145 A  
HETATM   27  C   UNL     1      -9.946   7.939  68.013  1.00  0.00    -0.213 A  
HETATM   28  C   UNL     1     -10.517   9.184  67.705  1.00  0.00    -0.323 A  
HETATM   29  C   UNL     1      -8.854   8.926  69.912  1.00  0.00    -0.154 A  
BRANCH  26  30
HETATM   30  O   UNL     1      -8.342   6.718  69.433  1.00  0.00    -0.129 OA 
HETATM   31  C   UNL     1      -6.940   6.738  69.208  1.00  0.00    -0.074 C  
ENDBRANCH  26  30
ENDBRANCH  23  24
ENDBRANCH  22  23
BRANCH  22  32
HETATM   32  C   UNL     1     -10.749  12.291  65.752  1.00  0.00    -0.263 A  
HETATM   33  N   UNL     1     -10.228  11.751  64.635  1.00  0.00    -0.271 NA 
HETATM   34  N   UNL     1     -12.012  12.722  65.832  1.00  0.00    -0.439 NA 
HETATM   35  C   UNL     1     -12.776  12.615  64.728  1.00  0.00    -0.379 A  
HETATM   36  C   UNL     1     -11.013  11.722  63.531  1.00  0.00    -0.424 A  
HETATM   37  C   UNL     1     -12.319  12.132  63.529  1.00  0.00    -0.682 A  
ENDBRANCH  22  32
ENDBRANCH  21  22
ENDBRANCH  20  21
ENDBRANCH  17  20
ENDBRANCH  16  17
ENDBRANCH  15  16
ENDBRANCH  14  15
ENDBRANCH  13  14
ENDBRANCH  12  13
ENDBRANCH  11  12
ENDBRANCH  10  11
ENDBRANCH   9  10
ENDBRANCH   8   9
ENDBRANCH   7   8
ENDBRANCH   6   7
ENDBRANCH   5   6
ENDBRANCH   4   5
ENDBRANCH   3   4
ENDBRANCH   2   3
TORSDOF 22
ENDMDL
MODEL       20
REMARK 921   NORMALIZED FREE ENERGY PREDICTED BY IDOCK:   -4.82 KCAL/MOL
REMARK 922        TOTAL FREE ENERGY PREDICTED BY IDOCK:  -15.47 KCAL/MOL
REMARK 923 INTER-LIGAND FREE ENERGY PREDICTED BY IDOCK:  -11.53 KCAL/MOL
REMARK 924 INTRA-LIGAND FREE ENERGY PREDICTED BY IDOCK:   -3.94 KCAL/MOL
REMARK 927      BINDING AFFINITY PREDICTED BY RF-SCORE:    0.00 PKD
ROOT
HETATM    1  C   UNL     1     -12.810  15.690  73.638  1.00  0.00    -0.704 C  
HETATM    2  C   UNL     1     -13.217  14.452  72.859  1.00  0.00    -0.613 C  
ENDROOT
BRANCH   2   3
HETATM    3  C   UNL     1     -13.661  14.816  71.446  1.00  0.00    -0.504 C  
BRANCH   3   4
HETATM    4  C   UNL     1     -12.611  15.675  70.754  1.00  0.00    -0.482 C  
BRANCH   4   5
HETATM    5  C   UNL     1     -11.529  14.802  70.130  1.00  0.00    -0.313 C  
BRANCH   5   6
HETATM    6  C   UNL     1     -12.151  13.599  69.436  1.00  0.00    -0.364 C  
BRANCH   6   7
HETATM    7  C   UNL     1     -11.266  12.375  69.609  1.00  0.00    -0.106 C  
BRANCH   7   8
HETATM    8  C   UNL     1     -12.117  11.126  69.767  1.00  0.00    -0.414 C  
BRANCH   8   9
HETATM    9  C   UNL     1     -12.752  11.106  71.147  1.00  0.00    -0.510 C  
BRANCH   9  10
HETATM   10  C   UNL     1     -13.659   9.897  71.299  1.00  0.00    -0.265 C  
BRANCH  10  11
HETATM   11  C   UNL     1     -13.049   8.911  72.284  1.00  0.00    -0.491 C  
BRANCH  11  12
HETATM   12  C   UNL     1     -12.835   7.564  71.610  1.00  0.00    -0.392 C  
BRANCH  12  13
HETATM   13  C   UNL     1     -11.367   7.172  71.625  1.00  0.00    -0.282 C  
BRANCH  13  14
HETATM   14  C   UNL     1     -10.471   8.320  72.105  1.00  0.00    -0.371 C  
BRANCH  14  15
HETATM   15  C   UNL     1      -9.464   8.818  71.058  1.00  0.00    -0.287 C  
BRANCH  15  16
HETATM   16  C   UNL     1      -9.600   8.019  69.765  1.00  0.00    -0.171 C  
BRANCH  16  17
HETATM   17  N   UNL     1      -8.636   8.414  68.655  1.00  0.00    -0.131 N  
HETATM   18  C   UNL     1      -8.896   7.588  67.387  1.00  0.00    -0.127 C  
HETATM   19  C   UNL     1      -7.178   8.241  69.054  1.00  0.00    -0.073 C  
BRANCH  17  20
HETATM   20  C   UNL     1      -8.912   9.902  68.274  1.00  0.00    -0.119 C  
BRANCH  20  21
HETATM   21  C   UNL     1      -9.998  10.138  67.177  1.00  0.00    -0.196 C  
BRANCH  21  22
HETATM   22  N   UNL     1      -9.859  11.488  66.641  1.00  0.00    -0.199 NA 
BRANCH  22  23
HETATM   23  C   UNL     1      -8.540  12.132  66.591  1.00  0.00    -0.122 C  
BRANCH  23  24
HETATM   24  C   UNL     1      -8.561  13.564  67.087  1.00  0.00    -0.203 A  
HETATM   25  C   UNL     1      -7.980  13.891  68.319  1.00  0.00    -0.148 A  
HETATM   26  C   UNL     1      -8.820  16.165  68.158  1.00  0.00    -0.184 A  
HETATM   27  C   UNL     1      -9.320  15.878  66.889  1.00  0.00    -0.244 A  
HETATM   28  C   UNL     1      -9.193  14.584  66.358  1.00  0.00    -0.264 A  
HETATM   29  C   UNL     1      -8.121  15.175  68.849  1.00  0.00    -0.178 A  
BRANCH  26  30
HETATM   30  O   UNL     1      -8.989  17.323  68.860  1.00  0.00    -0.256 OA 
HETATM   31  C   UNL     1     -10.238  17.995  68.779  1.00  0.00    -0.354 C  
ENDBRANCH  26  30
ENDBRANCH  23  24
ENDBRANCH  22  23
BRANCH  22  32
HETATM   32  C   UNL     1     -10.684  11.787  65.568  1.00  0.00    -0.279 A  
HETATM   33  N   UNL     1     -11.888  12.338  65.812  1.00  0.00    -0.510 NA 
HETATM   34  N   UNL     1     -10.176  11.662  64.337  1.00  0.00    -0.280 NA 
HETATM   35  C   UNL     1     -10.927  12.100  63.308  1.00  0.00    -0.330 A  
HETATM   36  C   UNL     1     -12.633  12.706  64.743  1.00  0.00    -0.454 A  
HETATM   37  C   UNL     1     -12.186  12.623  63.452  1.00  0.00    -0.610 A  
ENDBRANCH  22  32
ENDBRANCH  21  22
ENDBRANCH  20  21
ENDBRANCH  17  20
ENDBRANCH  16  17
ENDBRANCH  15  16
ENDBRANCH  14  15
ENDBRANCH  13  14
ENDBRANCH  12  13
ENDBRANCH  11  12
ENDBRANCH  10  11
ENDBRANCH   9  10
ENDBRANCH   8   9
ENDBRANCH   7   8
ENDBRANCH   6   7
ENDBRANCH   5   6
ENDBRANCH   4   5
ENDBRANCH   3   4
ENDBRANCH   2   3
TORSDOF 22
ENDMDL
MODEL       21
REMARK 921   NORMALIZED FREE ENERGY PREDICTED BY IDOCK:   -4.81 KCAL/MOL
REMARK 922        TOTAL FREE ENERGY PREDICTED BY IDOCK:  -15.45 KCAL/MOL
REMARK 923 INTER-LIGAND FREE ENERGY PREDICTED BY IDOCK:  -11.68 KCAL/MOL
REMARK 924 INTRA-LIGAND FREE ENERGY PREDICTED BY IDOCK:   -3.77 KCAL/MOL
REMARK 927      BINDING AFFINITY PREDICTED BY RF-SCORE:    0.00 PKD
ROOT
HETATM    1  C   UNL     1      -6.864  11.290  69.449  1.00  0.00    -0.121 C  
HETATM    2  C   UNL     1      -7.952  10.263  69.194  1.00  0.00    -0.135 C  
ENDROOT
BRANCH   2   3
HETATM    3  C   UNL     1      -7.759   9.031  70.073  1.00  0.00    -0.082 C  
BRANCH   3   4
HETATM    4  C   UNL     1      -8.892   8.904  71.083  1.00  0.00    -0.297 C  
BRANCH   4   5
HETATM    5  C   UNL     1     -10.120   9.672  70.612  1.00  0.00    -0.324 C  
BRANCH   5   6
HETATM    6  C   UNL     1     -11.389   8.894  70.931  1.00  0.00    -0.336 C  
BRANCH   6   7
HETATM    7  C   UNL     1     -11.080   7.750  71.883  1.00  0.00    -0.302 C  
BRANCH   7   8
HETATM    8  C   UNL     1     -11.670   6.451  71.357  1.00  0.00    -0.364 C  
BRANCH   8   9
HETATM    9  C   UNL     1     -11.502   6.382  69.849  1.00  0.00    -0.483 C  
BRANCH   9  10
HETATM   10  C   UNL     1     -10.204   5.679  69.490  1.00  0.00    -0.320 C  
BRANCH  10  11
HETATM   11  C   UNL     1      -9.610   6.295  68.233  1.00  0.00    -0.119 C  
BRANCH  11  12
HETATM   12  C   UNL     1     -10.648   7.164  67.537  1.00  0.00    -0.348 C  
BRANCH  12  13
HETATM   13  C   UNL     1      -9.985   8.262  66.722  1.00  0.00    -0.355 C  
BRANCH  13  14
HETATM   14  C   UNL     1     -10.606   9.636  66.996  1.00  0.00    -0.267 C  
BRANCH  14  15
HETATM   15  C   UNL     1     -10.397  10.662  65.871  1.00  0.00    -0.291 C  
BRANCH  15  16
HETATM   16  C   UNL     1      -9.657  11.887  66.400  1.00  0.00    -0.225 C  
BRANCH  16  17
HETATM   17  N   UNL     1     -10.529  13.106  66.664  1.00  0.00    -0.274 N  
HETATM   18  C   UNL     1     -11.987  12.829  66.273  1.00  0.00    -0.395 C  
HETATM   19  C   UNL     1     -10.054  14.342  65.914  1.00  0.00    -0.326 C  
BRANCH  17  20
HETATM   20  C   UNL     1     -10.531  13.382  68.200  1.00  0.00    -0.245 C  
BRANCH  20  21
HETATM   21  C   UNL     1     -11.857  13.953  68.791  1.00  0.00    -0.361 C  
BRANCH  21  22
HETATM   22  N   UNL     1     -11.592  15.245  69.418  1.00  0.00    -0.309 NA 
BRANCH  22  23
HETATM   23  C   UNL     1     -11.544  16.466  68.603  1.00  0.00    -0.127 C  
BRANCH  23  24
HETATM   24  C   UNL     1     -10.209  17.180  68.685  1.00  0.00    -0.336 A  
HETATM   25  C   UNL     1     -10.145  18.572  68.543  1.00  0.00    -0.414 A  
HETATM   26  C   UNL     1      -7.717  18.504  68.566  1.00  0.00    -0.308 A  
HETATM   27  C   UNL     1      -7.769  17.132  68.803  1.00  0.00    -0.259 A  
HETATM   28  C   UNL     1      -9.008  16.473  68.860  1.00  0.00    -0.245 A  
HETATM   29  C   UNL     1      -8.911  19.220  68.473  1.00  0.00    -0.411 A  
BRANCH  26  30
HETATM   30  O   UNL     1      -6.598  19.253  68.345  1.00  0.00    -0.240 OA 
HETATM   31  C   UNL     1      -6.676  20.350  67.446  1.00  0.00    -0.259 C  
ENDBRANCH  26  30
ENDBRANCH  23  24
ENDBRANCH  22  23
BRANCH  22  32
HETATM   32  C   UNL     1     -12.145  15.418  70.677  1.00  0.00    -0.369 A  
HETATM   33  N   UNL     1     -13.475  15.279  70.824  1.00  0.00    -0.365 NA 
HETATM   34  N   UNL     1     -11.308  15.555  71.712  1.00  0.00    -0.407 NA 
HETATM   35  C   UNL     1     -11.844  15.567  72.946  1.00  0.00    -0.457 A  
HETATM   36  C   UNL     1     -13.976  15.360  72.080  1.00  0.00    -0.549 A  
HETATM   37  C   UNL     1     -13.191  15.489  73.194  1.00  0.00    -0.657 A  
ENDBRANCH  22  32
ENDBRANCH  21  22
ENDBRANCH  20  21
ENDBRANCH  17  20
ENDBRANCH  16  17
ENDBRANCH  15  16
ENDBRANCH  14  15
ENDBRANCH  13  14
ENDBRANCH  12  13
ENDBRANCH  11  12
ENDBRANCH  10  11
ENDBRANCH   9  10
ENDBRANCH   8   9
ENDBRANCH   7   8
ENDBRANCH   6   7
ENDBRANCH   5   6
ENDBRANCH   4   5
ENDBRANCH   3   4
ENDBRANCH   2   3
TORSDOF 22
ENDMDL
MODEL       22
REMARK 921   NORMALIZED FREE ENERGY PREDICTED BY IDOCK:   -4.78 KCAL/MOL
REMARK 922        TOTAL FREE ENERGY PREDICTED BY IDOCK:  -15.38 KCAL/MOL
REMARK 923 INTER-LIGAND FREE ENERGY PREDICTED BY IDOCK:  -11.61 KCAL/MOL
REMARK 924 INTRA-LIGAND FREE ENERGY PREDICTED BY IDOCK:   -3.77 KCAL/MOL
REMARK 927      BINDING AFFINITY PREDICTED BY RF-SCORE:    0.00 PKD
ROOT
HETATM    1  C   UNL     1     -12.829  10.110  71.284  1.00  0.00    -0.508 C  
HETATM    2  C   UNL     1     -13.483   9.032  72.131  1.00  0.00    -0.514 C  
ENDROOT
BRANCH   2   3
HETATM    3  C   UNL     1     -12.806   7.682  71.915  1.00  0.00    -0.308 C  
BRANCH   3   4
HETATM    4  C   UNL     1     -11.294   7.807  72.047  1.00  0.00    -0.332 C  
BRANCH   4   5
HETATM    5  C   UNL     1     -10.589   6.897  71.050  1.00  0.00    -0.244 C  
BRANCH   5   6
HETATM    6  C   UNL     1     -11.507   6.581  69.878  1.00  0.00    -0.467 C  
BRANCH   6   7
HETATM    7  C   UNL     1     -10.731   5.879  68.775  1.00  0.00    -0.354 C  
BRANCH   7   8
HETATM    8  C   UNL     1     -10.911   6.608  67.454  1.00  0.00    -0.434 C  
BRANCH   8   9
HETATM    9  C   UNL     1      -9.839   6.169  66.472  1.00  0.00    -0.179 C  
BRANCH   9  10
HETATM   10  C   UNL     1      -9.001   7.357  66.031  1.00  0.00    -0.156 C  
BRANCH  10  11
HETATM   11  C   UNL     1      -8.007   7.725  67.122  1.00  0.00    -0.117 C  
BRANCH  11  12
HETATM   12  C   UNL     1      -8.180   9.185  67.516  1.00  0.00    -0.108 C  
BRANCH  12  13
HETATM   13  C   UNL     1      -8.615   9.312  68.966  1.00  0.00    -0.134 C  
BRANCH  13  14
HETATM   14  C   UNL     1      -9.867  10.182  69.117  1.00  0.00    -0.225 C  
BRANCH  14  15
HETATM   15  C   UNL     1     -10.885  10.032  67.976  1.00  0.00    -0.311 C  
BRANCH  15  16
HETATM   16  C   UNL     1     -11.359  11.403  67.502  1.00  0.00    -0.292 C  
BRANCH  16  17
HETATM   17  N   UNL     1     -10.883  11.809  66.114  1.00  0.00    -0.281 N  
HETATM   18  C   UNL     1     -12.008  12.504  65.334  1.00  0.00    -0.437 C  
HETATM   19  C   UNL     1     -10.385  10.628  65.295  1.00  0.00    -0.251 C  
BRANCH  17  20
HETATM   20  C   UNL     1      -9.745  12.864  66.278  1.00  0.00    -0.268 C  
BRANCH  20  21
HETATM   21  C   UNL     1      -9.724  13.645  67.629  1.00  0.00    -0.228 C  
BRANCH  21  22
HETATM   22  N   UNL     1     -10.378  14.938  67.451  1.00  0.00    -0.242 NA 
BRANCH  22  23
HETATM   23  C   UNL     1     -11.755  15.141  67.921  1.00  0.00    -0.256 C  
BRANCH  23  24
HETATM   24  C   UNL     1     -11.888  15.033  69.427  1.00  0.00    -0.358 A  
HETATM   25  C   UNL     1     -12.480  13.902  70.003  1.00  0.00    -0.325 A  
HETATM   26  C   UNL     1     -12.392  14.925  72.204  1.00  0.00    -0.351 A  
HETATM   27  C   UNL     1     -11.716  16.015  71.658  1.00  0.00    -0.583 A  
HETATM   28  C   UNL     1     -11.468  16.070  70.277  1.00  0.00    -0.369 A  
HETATM   29  C   UNL     1     -12.738  13.858  71.374  1.00  0.00    -0.445 A  
BRANCH  26  30
HETATM   30  O   UNL     1     -12.827  14.795  73.491  1.00  0.00    -0.520 OA 
HETATM   31  C   UNL     1     -12.529  15.826  74.421  1.00  0.00    -0.638 C  
ENDBRANCH  26  30
ENDBRANCH  23  24
ENDBRANCH  22  23
BRANCH  22  32
HETATM   32  C   UNL     1      -9.554  16.043  67.596  1.00  0.00    -0.218 A  
HETATM   33  N   UNL     1      -8.416  15.913  68.302  1.00  0.00    -0.167 NA 
HETATM   34  N   UNL     1      -9.854  17.140  66.891  1.00  0.00    -0.273 NA 
HETATM   35  C   UNL     1      -8.969  18.155  66.915  1.00  0.00    -0.271 A  
HETATM   36  C   UNL     1      -7.585  16.983  68.348  1.00  0.00    -0.220 A  
HETATM   37  C   UNL     1      -7.810  18.138  67.649  1.00  0.00    -0.224 A  
ENDBRANCH  22  32
ENDBRANCH  21  22
ENDBRANCH  20  21
ENDBRANCH  17  20
ENDBRANCH  16  17
ENDBRANCH  15  16
ENDBRANCH  14  15
ENDBRANCH  13  14
ENDBRANCH  12  13
ENDBRANCH  11  12
ENDBRANCH  10  11
ENDBRANCH   9  10
ENDBRANCH   8   9
ENDBRANCH   7   8
ENDBRANCH   6   7
ENDBRANCH   5   6
ENDBRANCH   4   5
ENDBRANCH   3   4
ENDBRANCH   2   3
TORSDOF 22
ENDMDL
MODEL       23
REMARK 921   NORMALIZED FREE ENERGY PREDICTED BY IDOCK:   -4.75 KCAL/MOL
REMARK 922        TOTAL FREE ENERGY PREDICTED BY IDOCK:  -15.31 KCAL/MOL
REMARK 923 INTER-LIGAND FREE ENERGY PREDICTED BY IDOCK:  -11.44 KCAL/MOL
REMARK 924 INTRA-LIGAND FREE ENERGY PREDICTED BY IDOCK:   -3.87 KCAL/MOL
REMARK 927      BINDING AFFINITY PREDICTED BY RF-SCORE:    0.00 PKD
ROOT
HETATM    1  C   UNL     1      -9.708  10.884  63.127  1.00  0.00    -0.396 C  
HETATM    2  C   UNL     1     -10.684  11.361  64.187  1.00  0.00    -0.434 C  
ENDROOT
BRANCH   2   3
HETATM    3  C   UNL     1     -11.945  11.937  63.550  1.00  0.00    -0.567 C  
BRANCH   3   4
HETATM    4  C   UNL     1     -12.146  13.388  63.966  1.00  0.00    -0.506 C  
BRANCH   4   5
HETATM    5  C   UNL     1     -12.500  13.479  65.445  1.00  0.00    -0.540 C  
BRANCH   5   6
HETATM    6  C   UNL     1     -11.686  14.573  66.121  1.00  0.00    -0.355 C  
BRANCH   6   7
HETATM    7  C   UNL     1     -10.720  15.200  65.128  1.00  0.00    -0.442 C  
BRANCH   7   8
HETATM    8  C   UNL     1     -10.840  16.716  65.159  1.00  0.00    -0.199 C  
BRANCH   8   9
HETATM    9  C   UNL     1     -10.303  17.249  66.476  1.00  0.00    -0.308 C  
BRANCH   9  10
HETATM   10  C   UNL     1      -8.821  17.560  66.359  1.00  0.00    -0.269 C  
BRANCH  10  11
HETATM   11  C   UNL     1      -8.015  16.571  67.188  1.00  0.00    -0.211 C  
BRANCH  11  12
HETATM   12  C   UNL     1      -8.819  16.133  68.404  1.00  0.00    -0.188 C  
BRANCH  12  13
HETATM   13  C   UNL     1      -8.750  14.627  68.591  1.00  0.00    -0.174 C  
BRANCH  13  14
HETATM   14  C   UNL     1      -8.031  13.936  67.427  1.00  0.00    -0.184 C  
BRANCH  14  15
HETATM   15  C   UNL     1      -8.615  12.567  67.045  1.00  0.00    -0.188 C  
BRANCH  15  16
HETATM   16  C   UNL     1      -7.623  11.455  67.372  1.00  0.00    -0.124 C  
BRANCH  16  17
HETATM   17  N   UNL     1      -8.214  10.250  68.090  1.00  0.00    -0.113 N  
HETATM   18  C   UNL     1      -7.185   9.620  69.039  1.00  0.00    -0.071 C  
HETATM   19  C   UNL     1      -8.705   9.177  67.129  1.00  0.00    -0.123 C  
BRANCH  17  20
HETATM   20  C   UNL     1      -9.392  10.744  68.986  1.00  0.00    -0.156 C  
BRANCH  20  21
HETATM   21  C   UNL     1     -10.688   9.874  68.954  1.00  0.00    -0.221 C  
BRANCH  21  22
HETATM   22  N   UNL     1     -11.385   9.996  70.231  1.00  0.00    -0.286 NA 
BRANCH  22  23
HETATM   23  C   UNL     1     -12.739  10.562  70.282  1.00  0.00    -0.188 C  
BRANCH  23  24
HETATM   24  C   UNL     1     -12.764  11.992  70.788  1.00  0.00    -0.231 A  
HETATM   25  C   UNL     1     -12.125  13.006  70.064  1.00  0.00    -0.367 A  
HETATM   26  C   UNL     1     -12.565  14.606  71.837  1.00  0.00    -0.339 A  
HETATM   27  C   UNL     1     -13.286  13.631  72.523  1.00  0.00    -0.638 A  
HETATM   28  C   UNL     1     -13.383  12.330  72.002  1.00  0.00    -0.491 A  
HETATM   29  C   UNL     1     -12.019  14.294  70.592  1.00  0.00    -0.392 A  
BRANCH  26  30
HETATM   30  O   UNL     1     -12.265  15.862  72.278  1.00  0.00    -0.407 OA 
HETATM   31  C   UNL     1     -12.553  16.199  73.628  1.00  0.00    -0.575 C  
ENDBRANCH  26  30
ENDBRANCH  23  24
ENDBRANCH  22  23
BRANCH  22  32
HETATM   32  C   UNL     1     -11.159   8.966  71.130  1.00  0.00    -0.285 A  
HETATM   33  N   UNL     1     -10.044   8.997  71.883  1.00  0.00    -0.324 NA 
HETATM   34  N   UNL     1     -12.141   8.077  71.319  1.00  0.00    -0.297 NA 
HETATM   35  C   UNL     1     -11.979   7.172  72.302  1.00  0.00    -0.218 A  
HETATM   36  C   UNL     1      -9.896   8.028  72.819  1.00  0.00    -0.282 A  
HETATM   37  C   UNL     1     -10.855   7.088  73.084  1.00  0.00    -0.350 A  
ENDBRANCH  22  32
ENDBRANCH  21  22
ENDBRANCH  20  21
ENDBRANCH  17  20
ENDBRANCH  16  17
ENDBRANCH  15  16
ENDBRANCH  14  15
ENDBRANCH  13  14
ENDBRANCH  12  13
ENDBRANCH  11  12
ENDBRANCH  10  11
ENDBRANCH   9  10
ENDBRANCH   8   9
ENDBRANCH   7   8
ENDBRANCH   6   7
ENDBRANCH   5   6
ENDBRANCH   4   5
ENDBRANCH   3   4
ENDBRANCH   2   3
TORSDOF 22
ENDMDL
MODEL       24
REMARK 921   NORMALIZED FREE ENERGY PREDICTED BY IDOCK:   -4.75 KCAL/MOL
REMARK 922        TOTAL FREE ENERGY PREDICTED BY IDOCK:  -15.30 KCAL/MOL
REMARK 923 INTER-LIGAND FREE ENERGY PREDICTED BY IDOCK:  -11.92 KCAL/MOL
REMARK 924 INTRA-LIGAND FREE ENERGY PREDICTED BY IDOCK:   -3.38 KCAL/MOL
REMARK 927      BINDING AFFINITY PREDICTED BY RF-SCORE:    0.00 PKD
ROOT
HETATM    1  C   UNL     1      -9.242   5.666  69.149  1.00  0.00    -0.136 C  
HETATM    2  C   UNL     1      -8.545   5.690  70.497  1.00  0.00    -0.129 C  
ENDROOT
BRANCH   2   3
HETATM    3  C   UNL     1      -9.542   5.942  71.624  1.00  0.00    -0.173 C  
BRANCH   3   4
HETATM    4  C   UNL     1     -10.972   5.766  71.130  1.00  0.00    -0.295 C  
BRANCH   4   5
HETATM    5  C   UNL     1     -11.944   6.543  72.009  1.00  0.00    -0.372 C  
BRANCH   5   6
HETATM    6  C   UNL     1     -12.937   7.314  71.152  1.00  0.00    -0.313 C  
BRANCH   6   7
HETATM    7  C   UNL     1     -13.080   8.739  71.663  1.00  0.00    -0.394 C  
BRANCH   7   8
HETATM    8  C   UNL     1     -11.713   9.334  71.960  1.00  0.00    -0.336 C  
BRANCH   8   9
HETATM    9  C   UNL     1     -11.091   9.862  70.679  1.00  0.00    -0.409 C  
BRANCH   9  10
HETATM   10  C   UNL     1      -9.616   9.504  70.617  1.00  0.00    -0.292 C  
BRANCH  10  11
HETATM   11  C   UNL     1      -9.207   9.234  69.177  1.00  0.00    -0.149 C  
BRANCH  11  12
HETATM   12  C   UNL     1     -10.444   9.068  68.306  1.00  0.00    -0.247 C  
BRANCH  12  13
HETATM   13  C   UNL     1     -10.061   8.755  66.869  1.00  0.00    -0.348 C  
BRANCH  13  14
HETATM   14  C   UNL     1      -9.815  10.027  66.049  1.00  0.00    -0.321 C  
BRANCH  14  15
HETATM   15  C   UNL     1     -10.696  11.220  66.451  1.00  0.00    -0.320 C  
BRANCH  15  16
HETATM   16  C   UNL     1     -10.631  12.311  65.387  1.00  0.00    -0.274 C  
BRANCH  16  17
HETATM   17  N   UNL     1     -11.225  13.652  65.798  1.00  0.00    -0.294 N  
HETATM   18  C   UNL     1     -12.716  13.721  65.438  1.00  0.00    -0.472 C  
HETATM   19  C   UNL     1     -10.516  14.831  65.148  1.00  0.00    -0.418 C  
BRANCH  17  20
HETATM   20  C   UNL     1     -11.141  13.768  67.351  1.00  0.00    -0.296 C  
BRANCH  20  21
HETATM   21  C   UNL     1     -12.159  14.744  68.020  1.00  0.00    -0.128 C  
BRANCH  21  22
HETATM   22  N   UNL     1     -11.677  15.111  69.349  1.00  0.00    -0.312 NA 
BRANCH  22  23
HETATM   23  C   UNL     1     -11.120  16.448  69.590  1.00  0.00    -0.306 C  
BRANCH  23  24
HETATM   24  C   UNL     1     -10.292  16.962  68.428  1.00  0.00    -0.338 A  
HETATM   25  C   UNL     1      -8.994  16.479  68.220  1.00  0.00    -0.214 A  
HETATM   26  C   UNL     1      -8.635  18.092  66.439  1.00  0.00    -0.228 A  
HETATM   27  C   UNL     1      -9.955  18.515  66.571  1.00  0.00    -0.401 A  
HETATM   28  C   UNL     1     -10.779  17.955  67.562  1.00  0.00    -0.333 A  
HETATM   29  C   UNL     1      -8.174  17.049  67.244  1.00  0.00    -0.205 A  
BRANCH  26  30
HETATM   30  O   UNL     1      -7.680  18.633  65.628  1.00  0.00    -0.495 OA 
HETATM   31  C   UNL     1      -7.416  20.026  65.719  1.00  0.00    -0.295 C  
ENDBRANCH  26  30
ENDBRANCH  23  24
ENDBRANCH  22  23
BRANCH  22  32
HETATM   32  C   UNL     1     -12.408  14.595  70.407  1.00  0.00    -0.339 A  
HETATM   33  N   UNL     1     -13.314  15.385  71.012  1.00  0.00    -0.497 NA 
HETATM   34  N   UNL     1     -12.289  13.289  70.669  1.00  0.00    -0.360 NA 
HETATM   35  C   UNL     1     -13.114  12.763  71.594  1.00  0.00    -0.331 A  
HETATM   36  C   UNL     1     -14.080  14.827  71.981  1.00  0.00    -0.510 A  
HETATM   37  C   UNL     1     -14.030  13.497  72.304  1.00  0.00    -0.638 A  
ENDBRANCH  22  32
ENDBRANCH  21  22
ENDBRANCH  20  21
ENDBRANCH  17  20
ENDBRANCH  16  17
ENDBRANCH  15  16
ENDBRANCH  14  15
ENDBRANCH  13  14
ENDBRANCH  12  13
ENDBRANCH  11  12
ENDBRANCH  10  11
ENDBRANCH   9  10
ENDBRANCH   8   9
ENDBRANCH   7   8
ENDBRANCH   6   7
ENDBRANCH   5   6
ENDBRANCH   4   5
ENDBRANCH   3   4
ENDBRANCH   2   3
TORSDOF 22
ENDMDL
MODEL       25
REMARK 921   NORMALIZED FREE ENERGY PREDICTED BY IDOCK:   -4.74 KCAL/MOL
REMARK 922        TOTAL FREE ENERGY PREDICTED BY IDOCK:  -15.29 KCAL/MOL
REMARK 923 INTER-LIGAND FREE ENERGY PREDICTED BY IDOCK:  -11.16 KCAL/MOL
REMARK 924 INTRA-LIGAND FREE ENERGY PREDICTED BY IDOCK:   -4.13 KCAL/MOL
REMARK 927      BINDING AFFINITY PREDICTED BY RF-SCORE:    0.00 PKD
ROOT
HETATM    1  C   UNL     1     -12.264  13.003  64.106  1.00  0.00    -0.471 C  
HETATM    2  C   UNL     1     -11.081  13.451  64.947  1.00  0.00    -0.348 C  
ENDROOT
BRANCH   2   3
HETATM    3  C   UNL     1     -11.423  14.702  65.750  1.00  0.00    -0.338 C  
BRANCH   3   4
HETATM    4  C   UNL     1     -10.464  15.837  65.415  1.00  0.00    -0.438 C  
BRANCH   4   5
HETATM    5  C   UNL     1     -10.649  17.000  66.383  1.00  0.00    -0.172 C  
BRANCH   5   6
HETATM    6  C   UNL     1     -10.861  16.484  67.799  1.00  0.00    -0.304 C  
BRANCH   6   7
HETATM    7  C   UNL     1     -10.291  17.468  68.808  1.00  0.00    -0.358 C  
BRANCH   7   8
HETATM    8  C   UNL     1      -9.702  18.675  68.097  1.00  0.00    -0.372 C  
BRANCH   8   9
HETATM    9  C   UNL     1      -8.211  18.761  68.377  1.00  0.00    -0.372 C  
BRANCH   9  10
HETATM   10  C   UNL     1      -7.438  18.963  67.085  1.00  0.00    -0.238 C  
BRANCH  10  11
HETATM   11  C   UNL     1      -7.193  17.621  66.411  1.00  0.00    -0.319 C  
BRANCH  11  12
HETATM   12  C   UNL     1      -6.712  16.603  67.435  1.00  0.00    -0.199 C  
BRANCH  12  13
HETATM   13  C   UNL     1      -7.277  15.224  67.141  1.00  0.00    -0.139 C  
BRANCH  13  14
HETATM   14  C   UNL     1      -7.559  14.433  68.423  1.00  0.00    -0.122 C  
BRANCH  14  15
HETATM   15  C   UNL     1      -8.690  13.401  68.295  1.00  0.00    -0.172 C  
BRANCH  15  16
HETATM   16  C   UNL     1      -8.347  12.364  67.230  1.00  0.00    -0.184 C  
BRANCH  16  17
HETATM   17  N   UNL     1      -8.016  10.976  67.760  1.00  0.00    -0.112 N  
HETATM   18  C   UNL     1      -6.499  10.799  67.917  1.00  0.00    -0.062 C  
HETATM   19  C   UNL     1      -8.542   9.864  66.865  1.00  0.00    -0.128 C  
BRANCH  17  20
HETATM   20  C   UNL     1      -8.624  10.841  69.191  1.00  0.00    -0.088 C  
BRANCH  20  21
HETATM   21  C   UNL     1      -9.345   9.493  69.504  1.00  0.00    -0.190 C  
BRANCH  21  22
HETATM   22  N   UNL     1     -10.316   9.699  70.575  1.00  0.00    -0.281 NA 
BRANCH  22  23
HETATM   23  C   UNL     1     -11.730   9.933  70.254  1.00  0.00    -0.216 C  
BRANCH  23  24
HETATM   24  C   UNL     1     -12.180  11.349  70.556  1.00  0.00    -0.478 A  
HETATM   25  C   UNL     1     -11.761  12.409  69.743  1.00  0.00    -0.361 A  
HETATM   26  C   UNL     1     -12.779  14.021  71.249  1.00  0.00    -0.365 A  
HETATM   27  C   UNL     1     -13.282  12.970  72.014  1.00  0.00    -0.543 A  
HETATM   28  C   UNL     1     -12.982  11.642  71.671  1.00  0.00    -0.483 A  
HETATM   29  C   UNL     1     -12.050  13.729  70.096  1.00  0.00    -0.429 A  
BRANCH  26  30
HETATM   30  O   UNL     1     -12.865  15.352  71.533  1.00  0.00    -0.362 OA 
HETATM   31  C   UNL     1     -13.683  15.769  72.617  1.00  0.00    -0.542 C  
ENDBRANCH  26  30
ENDBRANCH  23  24
ENDBRANCH  22  23
BRANCH  22  32
HETATM   32  C   UNL     1     -10.104   8.949  71.721  1.00  0.00    -0.337 A  
HETATM   33  N   UNL     1     -11.133   8.253  72.236  1.00  0.00    -0.333 NA 
HETATM   34  N   UNL     1      -8.847   8.829  72.163  1.00  0.00    -0.388 NA 
HETATM   35  C   UNL     1      -8.627   7.977  73.182  1.00  0.00    -0.220 A  
HETATM   36  C   UNL     1     -10.874   7.455  73.301  1.00  0.00    -0.368 A  
HETATM   37  C   UNL     1      -9.618   7.266  73.809  1.00  0.00    -0.330 A  
ENDBRANCH  22  32
ENDBRANCH  21  22
ENDBRANCH  20  21
ENDBRANCH  17  20
ENDBRANCH  16  17
ENDBRANCH  15  16
ENDBRANCH  14  15
ENDBRANCH  13  14
ENDBRANCH  12  13
ENDBRANCH  11  12
ENDBRANCH  10  11
ENDBRANCH   9  10
ENDBRANCH   8   9
ENDBRANCH   7   8
ENDBRANCH   6   7
ENDBRANCH   5   6
ENDBRANCH   4   5
ENDBRANCH   3   4
ENDBRANCH   2   3
TORSDOF 22
ENDMDL
MODEL       26
REMARK 921   NORMALIZED FREE ENERGY PREDICTED BY IDOCK:   -4.74 KCAL/MOL
REMARK 922        TOTAL FREE ENERGY PREDICTED BY IDOCK:  -15.28 KCAL/MOL
REMARK 923 INTER-LIGAND FREE ENERGY PREDICTED BY IDOCK:  -10.92 KCAL/MOL
REMARK 924 INTRA-LIGAND FREE ENERGY PREDICTED BY IDOCK:   -4.37 KCAL/MOL
REMARK 927      BINDING AFFINITY PREDICTED BY RF-SCORE:    0.00 PKD
ROOT
HETATM    1  C   UNL     1     -12.592  14.062  65.571  1.00  0.00    -0.543 C  
HETATM    2  C   UNL     1     -11.136  14.385  65.286  1.00  0.00    -0.344 C  
ENDROOT
BRANCH   2   3
HETATM    3  C   UNL     1     -10.535  15.234  66.401  1.00  0.00    -0.307 C  
BRANCH   3   4
HETATM    4  C   UNL     1      -9.770  16.419  65.826  1.00  0.00    -0.271 C  
BRANCH   4   5
HETATM    5  C   UNL     1     -10.372  17.733  66.309  1.00  0.00    -0.358 C  
BRANCH   5   6
HETATM    6  C   UNL     1     -10.527  17.722  67.823  1.00  0.00    -0.402 C  
BRANCH   6   7
HETATM    7  C   UNL     1     -10.068  19.047  68.409  1.00  0.00    -0.471 C  
BRANCH   7   8
HETATM    8  C   UNL     1      -9.573  19.970  67.307  1.00  0.00    -0.527 C  
BRANCH   8   9
HETATM    9  C   UNL     1      -8.066  20.132  67.410  1.00  0.00    -0.372 C  
BRANCH   9  10
HETATM   10  C   UNL     1      -7.432  20.096  66.029  1.00  0.00    -0.300 C  
BRANCH  10  11
HETATM   11  C   UNL     1      -6.856  18.715  65.758  1.00  0.00    -0.307 C  
BRANCH  11  12
HETATM   12  C   UNL     1      -6.054  18.239  66.960  1.00  0.00    -0.179 C  
BRANCH  12  13
HETATM   13  C   UNL     1      -6.391  16.798  67.306  1.00  0.00    -0.213 C  
BRANCH  13  14
HETATM   14  C   UNL     1      -7.189  16.692  68.611  1.00  0.00    -0.192 C  
BRANCH  14  15
HETATM   15  C   UNL     1      -7.725  15.284  68.913  1.00  0.00    -0.167 C  
BRANCH  15  16
HETATM   16  C   UNL     1      -7.353  14.320  67.791  1.00  0.00    -0.174 C  
BRANCH  16  17
HETATM   17  N   UNL     1      -6.727  13.008  68.244  1.00  0.00    -0.084 N  
HETATM   18  C   UNL     1      -5.950  13.200  69.554  1.00  0.00    -0.108 C  
HETATM   19  C   UNL     1      -5.786  12.417  67.206  1.00  0.00    -0.114 C  
BRANCH  17  20
HETATM   20  C   UNL     1      -7.877  12.001  68.558  1.00  0.00    -0.129 C  
BRANCH  20  21
HETATM   21  C   UNL     1      -9.199  12.198  67.753  1.00  0.00    -0.189 C  
BRANCH  21  22
HETATM   22  N   UNL     1     -10.272  11.441  68.389  1.00  0.00    -0.192 NA 
BRANCH  22  23
HETATM   23  C   UNL     1     -11.653  11.940  68.350  1.00  0.00    -0.317 C  
BRANCH  23  24
HETATM   24  C   UNL     1     -12.008  12.792  69.553  1.00  0.00    -0.338 A  
HETATM   25  C   UNL     1     -12.480  12.190  70.726  1.00  0.00    -0.362 A  
HETATM   26  C   UNL     1     -12.930  14.366  71.710  1.00  0.00    -0.345 A  
HETATM   27  C   UNL     1     -12.374  14.975  70.587  1.00  0.00    -0.404 A  
HETATM   28  C   UNL     1     -11.918  14.193  69.513  1.00  0.00    -0.389 A  
HETATM   29  C   UNL     1     -12.946  12.972  71.785  1.00  0.00    -0.420 A  
BRANCH  26  30
HETATM   30  O   UNL     1     -13.539  14.988  72.760  1.00  0.00    -0.449 OA 
HETATM   31  C   UNL     1     -12.767  15.850  73.585  1.00  0.00    -0.604 C  
ENDBRANCH  26  30
ENDBRANCH  23  24
ENDBRANCH  22  23
BRANCH  22  32
HETATM   32  C   UNL     1     -10.158  10.062  68.300  1.00  0.00    -0.158 A  
HETATM   33  N   UNL     1     -10.086   9.346  69.437  1.00  0.00    -0.189 NA 
HETATM   34  N   UNL     1     -10.288   9.503  67.092  1.00  0.00    -0.246 NA 
HETATM   35  C   UNL     1     -10.331   8.158  67.033  1.00  0.00    -0.333 A  
HETATM   36  C   UNL     1     -10.070   7.996  69.322  1.00  0.00    -0.198 A  
HETATM   37  C   UNL     1     -10.209   7.342  68.128  1.00  0.00    -0.223 A  
ENDBRANCH  22  32
ENDBRANCH  21  22
ENDBRANCH  20  21
ENDBRANCH  17  20
ENDBRANCH  16  17
ENDBRANCH  15  16
ENDBRANCH  14  15
ENDBRANCH  13  14
ENDBRANCH  12  13
ENDBRANCH  11  12
ENDBRANCH  10  11
ENDBRANCH   9  10
ENDBRANCH   8   9
ENDBRANCH   7   8
ENDBRANCH   6   7
ENDBRANCH   5   6
ENDBRANCH   4   5
ENDBRANCH   3   4
ENDBRANCH   2   3
TORSDOF 22
ENDMDL
MODEL       27
REMARK 921   NORMALIZED FREE ENERGY PREDICTED BY IDOCK:   -4.74 KCAL/MOL
REMARK 922        TOTAL FREE ENERGY PREDICTED BY IDOCK:  -15.28 KCAL/MOL
REMARK 923 INTER-LIGAND FREE ENERGY PREDICTED BY IDOCK:  -12.15 KCAL/MOL
REMARK 924 INTRA-LIGAND FREE ENERGY PREDICTED BY IDOCK:   -3.13 KCAL/MOL
REMARK 927      BINDING AFFINITY PREDICTED BY RF-SCORE:    0.00 PKD
ROOT
HETATM    1  C   UNL     1      -9.987  20.059  66.126  1.00  0.00    -0.580 C  
HETATM    2  C   UNL     1      -9.568  20.175  67.581  1.00  0.00    -0.534 C  
ENDROOT
BRANCH   2   3
HETATM    3  C   UNL     1     -10.049  18.972  68.386  1.00  0.00    -0.471 C  
BRANCH   3   4
HETATM    4  C   UNL     1     -10.656  17.917  67.471  1.00  0.00    -0.386 C  
BRANCH   4   5
HETATM    5  C   UNL     1      -9.800  16.656  67.462  1.00  0.00    -0.253 C  
BRANCH   5   6
HETATM    6  C   UNL     1      -9.589  16.167  66.037  1.00  0.00    -0.381 C  
BRANCH   6   7
HETATM    7  C   UNL     1     -10.905  16.172  65.277  1.00  0.00    -0.349 C  
BRANCH   7   8
HETATM    8  C   UNL     1     -11.105  14.848  64.557  1.00  0.00    -0.249 C  
BRANCH   8   9
HETATM    9  C   UNL     1     -12.388  14.190  65.035  1.00  0.00    -0.452 C  
BRANCH   9  10
HETATM   10  C   UNL     1     -12.248  13.736  66.478  1.00  0.00    -0.475 C  
BRANCH  10  11
HETATM   11  C   UNL     1     -11.633  12.346  66.528  1.00  0.00    -0.447 C  
BRANCH  11  12
HETATM   12  C   UNL     1     -10.192  12.429  67.012  1.00  0.00    -0.232 C  
BRANCH  12  13
HETATM   13  C   UNL     1      -9.246  11.764  66.027  1.00  0.00    -0.202 C  
BRANCH  13  14
HETATM   14  C   UNL     1      -9.941  10.665  65.215  1.00  0.00    -0.356 C  
BRANCH  14  15
HETATM   15  C   UNL     1      -9.538   9.235  65.607  1.00  0.00    -0.324 C  
BRANCH  15  16
HETATM   16  C   UNL     1     -10.445   8.712  66.717  1.00  0.00    -0.228 C  
BRANCH  16  17
HETATM   17  N   UNL     1      -9.967   7.437  67.397  1.00  0.00    -0.166 N  
HETATM   18  C   UNL     1      -8.540   7.085  66.954  1.00  0.00    -0.120 C  
HETATM   19  C   UNL     1     -10.869   6.245  67.111  1.00  0.00    -0.381 C  
BRANCH  17  20
HETATM   20  C   UNL     1      -9.899   7.698  68.933  1.00  0.00    -0.164 C  
BRANCH  20  21
HETATM   21  C   UNL     1     -11.045   7.070  69.786  1.00  0.00    -0.241 C  
BRANCH  21  22
HETATM   22  N   UNL     1     -11.271   7.889  70.974  1.00  0.00    -0.265 NA 
BRANCH  22  23
HETATM   23  C   UNL     1     -12.604   8.440  71.249  1.00  0.00    -0.217 C  
BRANCH  23  24
HETATM   24  C   UNL     1     -12.658   9.950  71.127  1.00  0.00    -0.464 A  
HETATM   25  C   UNL     1     -11.966  10.598  70.096  1.00  0.00    -0.417 A  
HETATM   26  C   UNL     1     -12.520  12.770  71.033  1.00  0.00    -0.277 A  
HETATM   27  C   UNL     1     -13.291  12.139  72.008  1.00  0.00    -0.470 A  
HETATM   28  C   UNL     1     -13.357  10.737  72.057  1.00  0.00    -0.403 A  
HETATM   29  C   UNL     1     -11.891  11.992  70.061  1.00  0.00    -0.392 A  
BRANCH  26  30
HETATM   30  O   UNL     1     -12.246  14.103  70.945  1.00  0.00    -0.325 OA 
HETATM   31  C   UNL     1     -13.308  15.032  71.109  1.00  0.00    -0.445 C  
ENDBRANCH  26  30
ENDBRANCH  23  24
ENDBRANCH  22  23
BRANCH  22  32
HETATM   32  C   UNL     1     -10.565   7.504  72.102  1.00  0.00    -0.221 A  
HETATM   33  N   UNL     1      -9.612   8.325  72.580  1.00  0.00    -0.276 NA 
HETATM   34  N   UNL     1     -10.978   6.410  72.752  1.00  0.00    -0.249 NA 
HETATM   35  C   UNL     1     -10.388   6.129  73.930  1.00  0.00    -0.294 A  
HETATM   36  C   UNL     1      -9.003   7.967  73.737  1.00  0.00    -0.222 A  
HETATM   37  C   UNL     1      -9.371   6.872  74.470  1.00  0.00    -0.224 A  
ENDBRANCH  22  32
ENDBRANCH  21  22
ENDBRANCH  20  21
ENDBRANCH  17  20
ENDBRANCH  16  17
ENDBRANCH  15  16
ENDBRANCH  14  15
ENDBRANCH  13  14
ENDBRANCH  12  13
ENDBRANCH  11  12
ENDBRANCH  10  11
ENDBRANCH   9  10
ENDBRANCH   8   9
ENDBRANCH   7   8
ENDBRANCH   6   7
ENDBRANCH   5   6
ENDBRANCH   4   5
ENDBRANCH   3   4
ENDBRANCH   2   3
TORSDOF 22
ENDMDL
MODEL       28
REMARK 921   NORMALIZED FREE ENERGY PREDICTED BY IDOCK:   -4.71 KCAL/MOL
REMARK 922        TOTAL FREE ENERGY PREDICTED BY IDOCK:  -15.22 KCAL/MOL
REMARK 923 INTER-LIGAND FREE ENERGY PREDICTED BY IDOCK:  -11.75 KCAL/MOL
REMARK 924 INTRA-LIGAND FREE ENERGY PREDICTED BY IDOCK:   -3.47 KCAL/MOL
REMARK 927      BINDING AFFINITY PREDICTED BY RF-SCORE:    0.00 PKD
ROOT
HETATM    1  C   UNL     1      -6.711   7.143  71.749  1.00  0.00    -0.052 C  
HETATM    2  C   UNL     1      -6.688   8.645  71.969  1.00  0.00    -0.078 C  
ENDROOT
BRANCH   2   3
HETATM    3  C   UNL     1      -7.366   9.377  70.814  1.00  0.00    -0.126 C  
BRANCH   3   4
HETATM    4  C   UNL     1      -8.696   8.722  70.466  1.00  0.00    -0.196 C  
BRANCH   4   5
HETATM    5  C   UNL     1      -9.805   9.242  71.372  1.00  0.00    -0.296 C  
BRANCH   5   6
HETATM    6  C   UNL     1     -10.567   8.083  71.998  1.00  0.00    -0.310 C  
BRANCH   6   7
HETATM    7  C   UNL     1     -10.181   6.775  71.327  1.00  0.00    -0.221 C  
BRANCH   7   8
HETATM    8  C   UNL     1     -11.391   6.148  70.654  1.00  0.00    -0.368 C  
BRANCH   8   9
HETATM    9  C   UNL     1     -11.266   6.278  69.146  1.00  0.00    -0.439 C  
BRANCH   9  10
HETATM   10  C   UNL     1      -9.890   5.830  68.685  1.00  0.00    -0.178 C  
BRANCH  10  11
HETATM   11  C   UNL     1      -9.400   6.730  67.560  1.00  0.00    -0.129 C  
BRANCH  11  12
HETATM   12  C   UNL     1     -10.543   7.598  67.051  1.00  0.00    -0.406 C  
BRANCH  12  13
HETATM   13  C   UNL     1     -10.136   9.061  67.000  1.00  0.00    -0.318 C  
BRANCH  13  14
HETATM   14  C   UNL     1     -10.989   9.928  67.932  1.00  0.00    -0.281 C  
BRANCH  14  15
HETATM   15  C   UNL     1     -11.322  11.320  67.375  1.00  0.00    -0.349 C  
BRANCH  15  16
HETATM   16  C   UNL     1     -10.410  11.655  66.198  1.00  0.00    -0.241 C  
BRANCH  16  17
HETATM   17  N   UNL     1     -10.920  12.754  65.277  1.00  0.00    -0.279 N  
HETATM   18  C   UNL     1     -12.384  13.093  65.589  1.00  0.00    -0.461 C  
HETATM   19  C   UNL     1     -10.813  12.384  63.805  1.00  0.00    -0.454 C  
BRANCH  17  20
HETATM   20  C   UNL     1     -10.099  14.050  65.562  1.00  0.00    -0.320 C  
BRANCH  20  21
HETATM   21  C   UNL     1     -10.931  15.350  65.795  1.00  0.00    -0.309 C  
BRANCH  21  22
HETATM   22  N   UNL     1     -10.607  15.904  67.106  1.00  0.00    -0.315 NA 
BRANCH  22  23
HETATM   23  C   UNL     1     -10.051  15.041  68.156  1.00  0.00    -0.220 C  
BRANCH  23  24
HETATM   24  C   UNL     1     -10.940  14.951  69.381  1.00  0.00    -0.284 A  
HETATM   25  C   UNL     1     -10.759  15.837  70.449  1.00  0.00    -0.305 A  
HETATM   26  C   UNL     1     -12.399  14.635  71.779  1.00  0.00    -0.346 A  
HETATM   27  C   UNL     1     -12.657  13.806  70.689  1.00  0.00    -0.386 A  
HETATM   28  C   UNL     1     -11.930  13.961  69.498  1.00  0.00    -0.396 A  
HETATM   29  C   UNL     1     -11.473  15.670  71.637  1.00  0.00    -0.506 A  
BRANCH  26  30
HETATM   30  O   UNL     1     -12.916  14.518  73.036  1.00  0.00    -0.481 OA 
HETATM   31  C   UNL     1     -12.575  15.494  74.010  1.00  0.00    -0.625 C  
ENDBRANCH  26  30
ENDBRANCH  23  24
ENDBRANCH  22  23
BRANCH  22  32
HETATM   32  C   UNL     1     -10.100  17.194  67.096  1.00  0.00    -0.295 A  
HETATM   33  N   UNL     1      -8.937  17.427  66.461  1.00  0.00    -0.256 NA 
HETATM   34  N   UNL     1     -10.875  18.172  67.580  1.00  0.00    -0.335 NA 
HETATM   35  C   UNL     1     -10.444  19.438  67.427  1.00  0.00    -0.466 A  
HETATM   36  C   UNL     1      -8.513  18.712  66.387  1.00  0.00    -0.272 A  
HETATM   37  C   UNL     1      -9.248  19.772  66.845  1.00  0.00    -0.453 A  
ENDBRANCH  22  32
ENDBRANCH  21  22
ENDBRANCH  20  21
ENDBRANCH  17  20
ENDBRANCH  16  17
ENDBRANCH  15  16
ENDBRANCH  14  15
ENDBRANCH  13  14
ENDBRANCH  12  13
ENDBRANCH  11  12
ENDBRANCH  10  11
ENDBRANCH   9  10
ENDBRANCH   8   9
ENDBRANCH   7   8
ENDBRANCH   6   7
ENDBRANCH   5   6
ENDBRANCH   4   5
ENDBRANCH   3   4
ENDBRANCH   2   3
TORSDOF 22
ENDMDL
MODEL       29
REMARK 921   NORMALIZED FREE ENERGY PREDICTED BY IDOCK:   -4.68 KCAL/MOL
REMARK 922        TOTAL FREE ENERGY PREDICTED BY IDOCK:  -15.15 KCAL/MOL
REMARK 923 INTER-LIGAND FREE ENERGY PREDICTED BY IDOCK:  -12.26 KCAL/MOL
REMARK 924 INTRA-LIGAND FREE ENERGY PREDICTED BY IDOCK:   -2.89 KCAL/MOL
REMARK 927      BINDING AFFINITY PREDICTED BY RF-SCORE:    0.00 PKD
ROOT
HETATM    1  C   UNL     1     -10.980   5.988  69.340  1.00  0.00    -0.455 C  
HETATM    2  C   UNL     1     -11.907   6.605  70.373  1.00  0.00    -0.407 C  
ENDROOT
BRANCH   2   3
HETATM    3  C   UNL     1     -11.218   6.715  71.729  1.00  0.00    -0.299 C  
BRANCH   3   4
HETATM    4  C   UNL     1     -11.209   8.159  72.215  1.00  0.00    -0.425 C  
BRANCH   4   5
HETATM    5  C   UNL     1     -12.620   8.733  72.221  1.00  0.00    -0.460 C  
BRANCH   5   6
HETATM    6  C   UNL     1     -12.604  10.188  71.774  1.00  0.00    -0.500 C  
BRANCH   6   7
HETATM    7  C   UNL     1     -12.712  10.275  70.261  1.00  0.00    -0.167 C  
BRANCH   7   8
HETATM    8  C   UNL     1     -11.410  10.787  69.666  1.00  0.00    -0.362 C  
BRANCH   8   9
HETATM    9  C   UNL     1     -10.894   9.802  68.631  1.00  0.00    -0.223 C  
BRANCH   9  10
HETATM   10  C   UNL     1      -9.409   9.551  68.831  1.00  0.00    -0.149 C  
BRANCH  10  11
HETATM   11  C   UNL     1      -8.835   8.837  67.616  1.00  0.00    -0.138 C  
BRANCH  11  12
HETATM   12  C   UNL     1      -9.854   8.829  66.486  1.00  0.00    -0.349 C  
BRANCH  12  13
HETATM   13  C   UNL     1      -9.322   9.563  65.266  1.00  0.00    -0.317 C  
BRANCH  13  14
HETATM   14  C   UNL     1     -10.282  10.659  64.790  1.00  0.00    -0.401 C  
BRANCH  14  15
HETATM   15  C   UNL     1      -9.840  12.087  65.145  1.00  0.00    -0.223 C  
BRANCH  15  16
HETATM   16  C   UNL     1     -10.456  12.522  66.471  1.00  0.00    -0.238 C  
BRANCH  16  17
HETATM   17  N   UNL     1      -9.659  13.561  67.246  1.00  0.00    -0.228 N  
HETATM   18  C   UNL     1      -9.326  14.768  66.356  1.00  0.00    -0.291 C  
HETATM   19  C   UNL     1      -8.360  13.004  67.810  1.00  0.00    -0.175 C  
BRANCH  17  20
HETATM   20  C   UNL     1     -10.555  14.102  68.403  1.00  0.00    -0.259 C  
BRANCH  20  21
HETATM   21  C   UNL     1      -9.885  15.135  69.362  1.00  0.00    -0.212 C  
BRANCH  21  22
HETATM   22  N   UNL     1     -10.825  16.215  69.645  1.00  0.00    -0.314 NA 
BRANCH  22  23
HETATM   23  C   UNL     1     -11.345  17.047  68.552  1.00  0.00     0.125 C  
BRANCH  23  24
HETATM   24  C   UNL     1     -10.367  18.117  68.106  1.00  0.00    -0.393 A  
HETATM   25  C   UNL     1      -9.027  18.057  68.507  1.00  0.00    -0.297 A  
HETATM   26  C   UNL     1      -8.589  20.230  67.515  1.00  0.00    -0.314 A  
HETATM   27  C   UNL     1      -9.894  20.258  67.028  1.00  0.00    -0.607 A  
HETATM   28  C   UNL     1     -10.779  19.208  67.324  1.00  0.00    -0.585 A  
HETATM   29  C   UNL     1      -8.155  19.109  68.223  1.00  0.00    -0.367 A  
BRANCH  26  30
HETATM   30  O   UNL     1      -7.665  21.231  67.433  1.00  0.00    -0.361 OA 
HETATM   31  C   UNL     1      -6.462  20.993  66.716  1.00  0.00    -0.313 C  
ENDBRANCH  26  30
ENDBRANCH  23  24
ENDBRANCH  22  23
BRANCH  22  32
HETATM   32  C   UNL     1     -11.740  15.956  70.654  1.00  0.00    -0.384 A  
HETATM   33  N   UNL     1     -11.439  16.329  71.911  1.00  0.00    -0.320 NA 
HETATM   34  N   UNL     1     -12.944  15.493  70.299  1.00  0.00    -0.246 NA 
HETATM   35  C   UNL     1     -13.878  15.389  71.263  1.00  0.00    -0.434 A  
HETATM   36  C   UNL     1     -12.389  16.148  72.859  1.00  0.00    -0.511 A  
HETATM   37  C   UNL     1     -13.649  15.691  72.581  1.00  0.00    -0.667 A  
ENDBRANCH  22  32
ENDBRANCH  21  22
ENDBRANCH  20  21
ENDBRANCH  17  20
ENDBRANCH  16  17
ENDBRANCH  15  16
ENDBRANCH  14  15
ENDBRANCH  13  14
ENDBRANCH  12  13
ENDBRANCH  11  12
ENDBRANCH  10  11
ENDBRANCH   9  10
ENDBRANCH   8   9
ENDBRANCH   7   8
ENDBRANCH   6   7
ENDBRANCH   5   6
ENDBRANCH   4   5
ENDBRANCH   3   4
ENDBRANCH   2   3
TORSDOF 22
ENDMDL
MODEL       30
REMARK 921   NORMALIZED FREE ENERGY PREDICTED BY IDOCK:   -4.67 KCAL/MOL
REMARK 922        TOTAL FREE ENERGY PREDICTED BY IDOCK:  -15.13 KCAL/MOL
REMARK 923 INTER-LIGAND FREE ENERGY PREDICTED BY IDOCK:  -11.20 KCAL/MOL
REMARK 924 INTRA-LIGAND FREE ENERGY PREDICTED BY IDOCK:   -3.93 KCAL/MOL
REMARK 927      BINDING AFFINITY PREDICTED BY RF-SCORE:    0.00 PKD
ROOT
HETATM    1  C   UNL     1     -10.892   5.893  69.002  1.00  0.00    -0.383 C  
HETATM    2  C   UNL     1     -11.431   6.751  70.133  1.00  0.00    -0.404 C  
ENDROOT
BRANCH   2   3
HETATM    3  C   UNL     1     -10.435   6.826  71.285  1.00  0.00    -0.237 C  
BRANCH   3   4
HETATM    4  C   UNL     1     -10.944   7.754  72.380  1.00  0.00    -0.368 C  
BRANCH   4   5
HETATM    5  C   UNL     1     -12.414   8.088  72.162  1.00  0.00    -0.335 C  
BRANCH   5   6
HETATM    6  C   UNL     1     -12.662   9.572  72.393  1.00  0.00    -0.313 C  
BRANCH   6   7
HETATM    7  C   UNL     1     -13.134  10.234  71.109  1.00  0.00    -0.481 C  
BRANCH   7   8
HETATM    8  C   UNL     1     -12.109  11.248  70.629  1.00  0.00    -0.480 C  
BRANCH   8   9
HETATM    9  C   UNL     1     -11.421  10.731  69.377  1.00  0.00    -0.366 C  
BRANCH   9  10
HETATM   10  C   UNL     1      -9.953  10.451  69.653  1.00  0.00    -0.209 C  
BRANCH  10  11
HETATM   11  C   UNL     1      -9.435   9.396  68.687  1.00  0.00    -0.147 C  
BRANCH  11  12
HETATM   12  C   UNL     1     -10.301   9.363  67.436  1.00  0.00    -0.325 C  
BRANCH  12  13
HETATM   13  C   UNL     1      -9.465   9.077  66.200  1.00  0.00    -0.318 C  
BRANCH  13  14
HETATM   14  C   UNL     1      -9.662  10.141  65.114  1.00  0.00    -0.370 C  
BRANCH  14  15
HETATM   15  C   UNL     1      -9.738  11.581  65.644  1.00  0.00    -0.261 C  
BRANCH  15  16
HETATM   16  C   UNL     1     -10.162  12.536  64.531  1.00  0.00    -0.307 C  
BRANCH  16  17
HETATM   17  N   UNL     1     -11.207  13.568  64.927  1.00  0.00    -0.328 N  
HETATM   18  C   UNL     1     -11.947  13.135  66.201  1.00  0.00    -0.422 C  
HETATM   19  C   UNL     1     -12.235  13.814  63.832  1.00  0.00    -0.351 C  
BRANCH  17  20
HETATM   20  C   UNL     1     -10.472  14.899  65.278  1.00  0.00    -0.404 C  
BRANCH  20  21
HETATM   21  C   UNL     1     -10.708  15.452  66.718  1.00  0.00    -0.310 C  
BRANCH  21  22
HETATM   22  N   UNL     1      -9.521  16.179  67.159  1.00  0.00    -0.221 NA 
BRANCH  22  23
HETATM   23  C   UNL     1      -8.191  15.782  66.678  1.00  0.00    -0.270 C  
BRANCH  23  24
HETATM   24  C   UNL     1      -7.417  14.961  67.691  1.00  0.00    -0.205 A  
HETATM   25  C   UNL     1      -7.518  13.564  67.691  1.00  0.00    -0.187 A  
HETATM   26  C   UNL     1      -6.202  13.427  69.728  1.00  0.00    -0.113 A  
HETATM   27  C   UNL     1      -6.014  14.806  69.686  1.00  0.00    -0.114 A  
HETATM   28  C   UNL     1      -6.620  15.570  68.675  1.00  0.00    -0.103 A  
HETATM   29  C   UNL     1      -6.926  12.811  68.706  1.00  0.00    -0.096 A  
BRANCH  26  30
HETATM   30  O   UNL     1      -5.800  12.577  70.717  1.00  0.00    -0.261 OA 
HETATM   31  C   UNL     1      -6.104  11.195  70.597  1.00  0.00    -0.017 C  
ENDBRANCH  26  30
ENDBRANCH  23  24
ENDBRANCH  22  23
BRANCH  22  32
HETATM   32  C   UNL     1      -9.688  17.545  67.320  1.00  0.00    -0.276 A  
HETATM   33  N   UNL     1     -10.024  18.286  66.248  1.00  0.00    -0.439 NA 
HETATM   34  N   UNL     1      -9.663  18.034  68.565  1.00  0.00    -0.336 NA 
HETATM   35  C   UNL     1      -9.978  19.332  68.728  1.00  0.00    -0.440 A  
HETATM   36  C   UNL     1     -10.272  19.602  66.453  1.00  0.00    -0.488 A  
HETATM   37  C   UNL     1     -10.279  20.180  67.693  1.00  0.00    -0.516 A  
ENDBRANCH  22  32
ENDBRANCH  21  22
ENDBRANCH  20  21
ENDBRANCH  17  20
ENDBRANCH  16  17
ENDBRANCH  15  16
ENDBRANCH  14  15
ENDBRANCH  13  14
ENDBRANCH  12  13
ENDBRANCH  11  12
ENDBRANCH  10  11
ENDBRANCH   9  10
ENDBRANCH   8   9
ENDBRANCH   7   8
ENDBRANCH   6   7
ENDBRANCH   5   6
ENDBRANCH   4   5
ENDBRANCH   3   4
ENDBRANCH   2   3
TORSDOF 22
ENDMDL
MODEL       31
REMARK 921   NORMALIZED FREE ENERGY PREDICTED BY IDOCK:   -4.66 KCAL/MOL
REMARK 922        TOTAL FREE ENERGY PREDICTED BY IDOCK:  -15.10 KCAL/MOL
REMARK 923 INTER-LIGAND FREE ENERGY PREDICTED BY IDOCK:  -12.44 KCAL/MOL
REMARK 924 INTRA-LIGAND FREE ENERGY PREDICTED BY IDOCK:   -2.66 KCAL/MOL
REMARK 927      BINDING AFFINITY PREDICTED BY RF-SCORE:    0.00 PKD
ROOT
HETATM    1  C   UNL     1     -12.420  15.345  74.112  1.00  0.00    -0.785 C  
HETATM    2  C   UNL     1     -13.303  15.436  72.880  1.00  0.00    -0.636 C  
ENDROOT
BRANCH   2   3
HETATM    3  C   UNL     1     -13.900  14.076  72.533  1.00  0.00    -0.610 C  
BRANCH   3   4
HETATM    4  C   UNL     1     -13.049  13.363  71.490  1.00  0.00    -0.427 C  
BRANCH   4   5
HETATM    5  C   UNL     1     -12.976  11.870  71.785  1.00  0.00    -0.455 C  
BRANCH   5   6
HETATM    6  C   UNL     1     -12.293  11.134  70.641  1.00  0.00    -0.482 C  
BRANCH   6   7
HETATM    7  C   UNL     1     -11.771   9.788  71.117  1.00  0.00    -0.465 C  
BRANCH   7   8
HETATM    8  C   UNL     1     -12.925   8.889  71.530  1.00  0.00    -0.379 C  
BRANCH   8   9
HETATM    9  C   UNL     1     -12.485   7.436  71.493  1.00  0.00    -0.394 C  
BRANCH   9  10
HETATM   10  C   UNL     1     -10.982   7.330  71.688  1.00  0.00    -0.253 C  
BRANCH  10  11
HETATM   11  C   UNL     1     -10.425   6.201  70.834  1.00  0.00    -0.282 C  
BRANCH  11  12
HETATM   12  C   UNL     1     -11.285   6.013  69.592  1.00  0.00    -0.428 C  
BRANCH  12  13
HETATM   13  C   UNL     1     -10.439   6.043  68.331  1.00  0.00    -0.290 C  
BRANCH  13  14
HETATM   14  C   UNL     1     -10.774   7.245  67.442  1.00  0.00    -0.358 C  
BRANCH  14  15
HETATM   15  C   UNL     1     -10.358   8.603  68.028  1.00  0.00    -0.277 C  
BRANCH  15  16
HETATM   16  C   UNL     1      -8.989   9.016  67.494  1.00  0.00    -0.122 C  
BRANCH  16  17
HETATM   17  N   UNL     1      -8.863  10.481  67.101  1.00  0.00    -0.136 N  
HETATM   18  C   UNL     1      -9.646  10.770  65.813  1.00  0.00    -0.208 C  
HETATM   19  C   UNL     1      -7.418  10.911  66.894  1.00  0.00    -0.128 C  
BRANCH  17  20
HETATM   20  C   UNL     1      -9.522  11.346  68.220  1.00  0.00    -0.187 C  
BRANCH  20  21
HETATM   21  C   UNL     1      -9.190  12.871  68.190  1.00  0.00    -0.212 C  
BRANCH  21  22
HETATM   22  N   UNL     1     -10.430  13.639  68.263  1.00  0.00    -0.242 NA 
BRANCH  22  23
HETATM   23  C   UNL     1     -10.589  14.692  69.274  1.00  0.00    -0.226 C  
BRANCH  23  24
HETATM   24  C   UNL     1      -9.791  15.942  68.958  1.00  0.00    -0.234 A  
HETATM   25  C   UNL     1      -8.418  15.988  69.230  1.00  0.00    -0.224 A  
HETATM   26  C   UNL     1      -8.337  18.341  68.630  1.00  0.00    -0.287 A  
HETATM   27  C   UNL     1      -9.680  18.282  68.265  1.00  0.00    -0.350 A  
HETATM   28  C   UNL     1     -10.404  17.090  68.430  1.00  0.00    -0.351 A  
HETATM   29  C   UNL     1      -7.706  17.179  69.078  1.00  0.00    -0.164 A  
BRANCH  26  30
HETATM   30  O   UNL     1      -7.546  19.452  68.661  1.00  0.00    -0.337 OA 
HETATM   31  C   UNL     1      -7.577  20.344  67.555  1.00  0.00    -0.310 C  
ENDBRANCH  26  30
ENDBRANCH  23  24
ENDBRANCH  22  23
BRANCH  22  32
HETATM   32  C   UNL     1     -11.025  13.921  67.043  1.00  0.00    -0.295 A  
HETATM   33  N   UNL     1     -10.242  14.284  66.011  1.00  0.00    -0.303 NA 
HETATM   34  N   UNL     1     -12.331  13.661  66.912  1.00  0.00    -0.330 NA 
HETATM   35  C   UNL     1     -12.869  13.790  65.685  1.00  0.00    -0.408 A  
HETATM   36  C   UNL     1     -10.840  14.462  64.808  1.00  0.00    -0.399 A  
HETATM   37  C   UNL     1     -12.166  14.209  64.584  1.00  0.00    -0.465 A  
ENDBRANCH  22  32
ENDBRANCH  21  22
ENDBRANCH  20  21
ENDBRANCH  17  20
ENDBRANCH  16  17
ENDBRANCH  15  16
ENDBRANCH  14  15
ENDBRANCH  13  14
ENDBRANCH  12  13
ENDBRANCH  11  12
ENDBRANCH  10  11
ENDBRANCH   9  10
ENDBRANCH   8   9
ENDBRANCH   7   8
ENDBRANCH   6   7
ENDBRANCH   5   6
ENDBRANCH   4   5
ENDBRANCH   3   4
ENDBRANCH   2   3
TORSDOF 22
ENDMDL
MODEL       32
REMARK 921   NORMALIZED FREE ENERGY PREDICTED BY IDOCK:   -4.65 KCAL/MOL
REMARK 922        TOTAL FREE ENERGY PREDICTED BY IDOCK:  -15.08 KCAL/MOL
REMARK 923 INTER-LIGAND FREE ENERGY PREDICTED BY IDOCK:  -11.19 KCAL/MOL
REMARK 924 INTRA-LIGAND FREE ENERGY PREDICTED BY IDOCK:   -3.89 KCAL/MOL
REMARK 927      BINDING AFFINITY PREDICTED BY RF-SCORE:    0.00 PKD
ROOT
HETATM    1  C   UNL     1     -14.090   8.546  71.753  1.00  0.00    -0.515 C  
HETATM    2  C   UNL     1     -13.455   9.877  72.115  1.00  0.00    -0.454 C  
ENDROOT
BRANCH   2   3
HETATM    3  C   UNL     1     -12.884  10.565  70.880  1.00  0.00    -0.485 C  
BRANCH   3   4
HETATM    4  C   UNL     1     -12.764  12.067  71.104  1.00  0.00    -0.365 C  
BRANCH   4   5
HETATM    5  C   UNL     1     -13.605  12.502  72.297  1.00  0.00    -0.443 C  
BRANCH   5   6
HETATM    6  C   UNL     1     -13.845  14.004  72.260  1.00  0.00    -0.655 C  
BRANCH   6   7
HETATM    7  C   UNL     1     -12.716  14.736  72.966  1.00  0.00    -0.548 C  
BRANCH   7   8
HETATM    8  C   UNL     1     -12.290  15.953  72.160  1.00  0.00    -0.557 C  
BRANCH   8   9
HETATM    9  C   UNL     1     -11.226  15.557  71.151  1.00  0.00    -0.423 C  
BRANCH   9  10
HETATM   10  C   UNL     1     -11.795  15.579  69.742  1.00  0.00    -0.376 C  
BRANCH  10  11
HETATM   11  C   UNL     1     -10.986  16.527  68.870  1.00  0.00    -0.325 C  
BRANCH  11  12
HETATM   12  C   UNL     1      -9.515  16.138  68.901  1.00  0.00    -0.244 C  
BRANCH  12  13
HETATM   13  C   UNL     1      -9.098  15.474  67.599  1.00  0.00    -0.183 C  
BRANCH  13  14
HETATM   14  C   UNL     1      -7.630  15.031  67.624  1.00  0.00    -0.198 C  
BRANCH  14  15
HETATM   15  C   UNL     1      -7.339  13.854  68.567  1.00  0.00    -0.116 C  
BRANCH  15  16
HETATM   16  C   UNL     1      -7.471  12.529  67.822  1.00  0.00    -0.130 C  
BRANCH  16  17
HETATM   17  N   UNL     1      -6.500  11.441  68.259  1.00  0.00    -0.055 N  
HETATM   18  C   UNL     1      -5.937  11.741  69.655  1.00  0.00    -0.112 C  
HETATM   19  C   UNL     1      -5.336  11.272  67.295  1.00  0.00    -0.055 C  
BRANCH  17  20
HETATM   20  C   UNL     1      -7.291  10.102  68.382  1.00  0.00    -0.081 C  
BRANCH  20  21
HETATM   21  C   UNL     1      -8.429  10.074  69.449  1.00  0.00    -0.170 C  
BRANCH  21  22
HETATM   22  N   UNL     1      -9.644   9.533  68.849  1.00  0.00    -0.153 NA 
BRANCH  22  23
HETATM   23  C   UNL     1      -9.823   9.561  67.391  1.00  0.00    -0.170 C  
BRANCH  23  24
HETATM   24  C   UNL     1     -10.556  10.798  66.908  1.00  0.00    -0.312 A  
HETATM   25  C   UNL     1     -10.496  11.171  65.560  1.00  0.00    -0.317 A  
HETATM   26  C   UNL     1     -11.686  13.235  66.035  1.00  0.00    -0.368 A  
HETATM   27  C   UNL     1     -11.836  12.830  67.360  1.00  0.00    -0.404 A  
HETATM   28  C   UNL     1     -11.272  11.619  67.795  1.00  0.00    -0.333 A  
HETATM   29  C   UNL     1     -11.045  12.382  65.135  1.00  0.00    -0.348 A  
BRANCH  26  30
HETATM   30  O   UNL     1     -12.050  14.437  65.502  1.00  0.00    -0.375 OA 
HETATM   31  C   UNL     1     -11.089  15.175  64.761  1.00  0.00    -0.382 C  
ENDBRANCH  26  30
ENDBRANCH  23  24
ENDBRANCH  22  23
BRANCH  22  32
HETATM   32  C   UNL     1     -10.161   8.407  69.468  1.00  0.00    -0.207 A  
HETATM   33  N   UNL     1     -10.591   7.387  68.702  1.00  0.00    -0.185 NA 
HETATM   34  N   UNL     1     -10.058   8.325  70.800  1.00  0.00    -0.189 NA 
HETATM   35  C   UNL     1     -10.421   7.166  71.380  1.00  0.00    -0.204 A  
HETATM   36  C   UNL     1     -11.004   6.263  69.335  1.00  0.00    -0.375 A  
HETATM   37  C   UNL     1     -10.923   6.092  70.691  1.00  0.00    -0.376 A  
ENDBRANCH  22  32
ENDBRANCH  21  22
ENDBRANCH  20  21
ENDBRANCH  17  20
ENDBRANCH  16  17
ENDBRANCH  15  16
ENDBRANCH  14  15
ENDBRANCH  13  14
ENDBRANCH  12  13
ENDBRANCH  11  12
ENDBRANCH  10  11
ENDBRANCH   9  10
ENDBRANCH   8   9
ENDBRANCH   7   8
ENDBRANCH   6   7
ENDBRANCH   5   6
ENDBRANCH   4   5
ENDBRANCH   3   4
ENDBRANCH   2   3
TORSDOF 22
ENDMDL
MODEL       33
REMARK 921   NORMALIZED FREE ENERGY PREDICTED BY IDOCK:   -4.62 KCAL/MOL
REMARK 922        TOTAL FREE ENERGY PREDICTED BY IDOCK:  -15.01 KCAL/MOL
REMARK 923 INTER-LIGAND FREE ENERGY PREDICTED BY IDOCK:  -11.25 KCAL/MOL
REMARK 924 INTRA-LIGAND FREE ENERGY PREDICTED BY IDOCK:   -3.75 KCAL/MOL
REMARK 927      BINDING AFFINITY PREDICTED BY RF-SCORE:    0.00 PKD
ROOT
HETATM    1  C   UNL     1     -10.502   5.320  69.701  1.00  0.00    -0.320 C  
HETATM    2  C   UNL     1     -10.122   6.237  70.850  1.00  0.00    -0.227 C  
ENDROOT
BRANCH   2   3
HETATM    3  C   UNL     1     -11.068   6.055  72.031  1.00  0.00    -0.325 C  
BRANCH   3   4
HETATM    4  C   UNL     1     -11.908   7.307  72.250  1.00  0.00    -0.287 C  
BRANCH   4   5
HETATM    5  C   UNL     1     -13.233   7.202  71.506  1.00  0.00    -0.419 C  
BRANCH   5   6
HETATM    6  C   UNL     1     -13.926   8.556  71.461  1.00  0.00    -0.410 C  
BRANCH   6   7
HETATM    7  C   UNL     1     -13.259   9.522  72.426  1.00  0.00    -0.451 C  
BRANCH   7   8
HETATM    8  C   UNL     1     -13.112  10.893  71.785  1.00  0.00    -0.564 C  
BRANCH   8   9
HETATM    9  C   UNL     1     -12.764  10.740  70.314  1.00  0.00    -0.286 C  
BRANCH   9  10
HETATM   10  C   UNL     1     -11.310  11.106  70.070  1.00  0.00    -0.326 C  
BRANCH  10  11
HETATM   11  C   UNL     1     -10.467   9.845  69.966  1.00  0.00    -0.331 C  
BRANCH  11  12
HETATM   12  C   UNL     1     -10.888   9.034  68.749  1.00  0.00    -0.067 C  
BRANCH  12  13
HETATM   13  C   UNL     1      -9.678   8.571  67.955  1.00  0.00    -0.180 C  
BRANCH  13  14
HETATM   14  C   UNL     1      -9.920   8.641  66.443  1.00  0.00    -0.331 C  
BRANCH  14  15
HETATM   15  C   UNL     1      -9.263   9.846  65.752  1.00  0.00    -0.228 C  
BRANCH  15  16
HETATM   16  C   UNL     1     -10.307  10.656  64.989  1.00  0.00    -0.271 C  
BRANCH  16  17
HETATM   17  N   UNL     1     -10.563  12.055  65.532  1.00  0.00    -0.263 N  
HETATM   18  C   UNL     1     -11.764  12.058  66.488  1.00  0.00    -0.256 C  
HETATM   19  C   UNL     1     -10.820  13.074  64.432  1.00  0.00    -0.388 C  
BRANCH  17  20
HETATM   20  C   UNL     1      -9.326  12.485  66.379  1.00  0.00    -0.209 C  
BRANCH  20  21
HETATM   21  C   UNL     1      -9.621  13.405  67.605  1.00  0.00    -0.219 C  
BRANCH  21  22
HETATM   22  N   UNL     1      -9.787  14.782  67.150  1.00  0.00    -0.230 NA 
BRANCH  22  23
HETATM   23  C   UNL     1     -11.029  15.511  67.439  1.00  0.00    -0.306 C  
BRANCH  23  24
HETATM   24  C   UNL     1     -11.453  15.405  68.891  1.00  0.00    -0.354 A  
HETATM   25  C   UNL     1     -12.405  14.454  69.279  1.00  0.00    -0.188 A  
HETATM   26  C   UNL     1     -12.456  15.364  71.531  1.00  0.00    -0.384 A  
HETATM   27  C   UNL     1     -11.440  16.252  71.183  1.00  0.00    -0.364 A  
HETATM   28  C   UNL     1     -10.943  16.274  69.870  1.00  0.00    -0.365 A  
HETATM   29  C   UNL     1     -12.906  14.445  70.582  1.00  0.00    -0.390 A  
BRANCH  26  30
HETATM   30  O   UNL     1     -13.133  15.320  72.715  1.00  0.00    -0.379 OA 
HETATM   31  C   UNL     1     -12.391  15.323  73.927  1.00  0.00    -0.626 C  
ENDBRANCH  26  30
ENDBRANCH  23  24
ENDBRANCH  22  23
BRANCH  22  32
HETATM   32  C   UNL     1      -8.642  15.561  67.189  1.00  0.00    -0.215 A  
HETATM   33  N   UNL     1      -7.576  15.110  67.874  1.00  0.00    -0.127 NA 
HETATM   34  N   UNL     1      -8.601  16.648  66.409  1.00  0.00    -0.283 NA 
HETATM   35  C   UNL     1      -7.433  17.313  66.334  1.00  0.00    -0.301 A  
HETATM   36  C   UNL     1      -6.441  15.847  67.818  1.00  0.00    -0.156 A  
HETATM   37  C   UNL     1      -6.309  16.964  67.038  1.00  0.00    -0.229 A  
ENDBRANCH  22  32
ENDBRANCH  21  22
ENDBRANCH  20  21
ENDBRANCH  17  20
ENDBRANCH  16  17
ENDBRANCH  15  16
ENDBRANCH  14  15
ENDBRANCH  13  14
ENDBRANCH  12  13
ENDBRANCH  11  12
ENDBRANCH  10  11
ENDBRANCH   9  10
ENDBRANCH   8   9
ENDBRANCH   7   8
ENDBRANCH   6   7
ENDBRANCH   5   6
ENDBRANCH   4   5
ENDBRANCH   3   4
ENDBRANCH   2   3
TORSDOF 22
ENDMDL
MODEL       34
REMARK 921   NORMALIZED FREE ENERGY PREDICTED BY IDOCK:   -4.60 KCAL/MOL
REMARK 922        TOTAL FREE ENERGY PREDICTED BY IDOCK:  -14.97 KCAL/MOL
REMARK 923 INTER-LIGAND FREE ENERGY PREDICTED BY IDOCK:  -11.31 KCAL/MOL
REMARK 924 INTRA-LIGAND FREE ENERGY PREDICTED BY IDOCK:   -3.66 KCAL/MOL
REMARK 927      BINDING AFFINITY PREDICTED BY RF-SCORE:    0.00 PKD
ROOT
HETATM    1  C   UNL     1      -7.336  14.863  69.476  1.00  0.00    -0.178 C  
HETATM    2  C   UNL     1      -7.172  15.976  68.457  1.00  0.00    -0.138 C  
ENDROOT
BRANCH   2   3
HETATM    3  C   UNL     1      -5.954  16.837  68.778  1.00  0.00    -0.147 C  
BRANCH   3   4
HETATM    4  C   UNL     1      -5.395  17.476  67.513  1.00  0.00    -0.143 C  
BRANCH   4   5
HETATM    5  C   UNL     1      -6.392  17.362  66.367  1.00  0.00    -0.268 C  
BRANCH   5   6
HETATM    6  C   UNL     1      -6.669  18.731  65.765  1.00  0.00    -0.306 C  
BRANCH   6   7
HETATM    7  C   UNL     1      -6.400  19.822  66.789  1.00  0.00    -0.192 C  
BRANCH   7   8
HETATM    8  C   UNL     1      -7.579  20.779  66.865  1.00  0.00    -0.242 C  
BRANCH   8   9
HETATM    9  C   UNL     1      -8.881  19.998  66.811  1.00  0.00    -0.427 C  
BRANCH   9  10
HETATM   10  C   UNL     1      -9.499  19.896  68.196  1.00  0.00    -0.431 C  
BRANCH  10  11
HETATM   11  C   UNL     1      -9.742  18.437  68.551  1.00  0.00    -0.386 C  
BRANCH  11  12
HETATM   12  C   UNL     1     -10.388  17.715  67.377  1.00  0.00    -0.360 C  
BRANCH  12  13
HETATM   13  C   UNL     1     -10.931  16.361  67.801  1.00  0.00    -0.261 C  
BRANCH  13  14
HETATM   14  C   UNL     1     -10.705  16.092  69.293  1.00  0.00    -0.295 C  
BRANCH  14  15
HETATM   15  C   UNL     1     -11.995  15.917  70.109  1.00  0.00    -0.306 C  
BRANCH  15  16
HETATM   16  C   UNL     1     -11.673  15.789  71.595  1.00  0.00    -0.464 C  
BRANCH  16  17
HETATM   17  N   UNL     1     -12.769  15.160  72.443  1.00  0.00    -0.326 N  
HETATM   18  C   UNL     1     -14.152  15.424  71.830  1.00  0.00    -0.537 C  
HETATM   19  C   UNL     1     -12.770  15.673  73.875  1.00  0.00    -0.600 C  
BRANCH  17  20
HETATM   20  C   UNL     1     -12.571  13.613  72.430  1.00  0.00     0.020 C  
BRANCH  20  21
HETATM   21  C   UNL     1     -13.455  12.818  71.418  1.00  0.00     0.115 C  
BRANCH  21  22
HETATM   22  N   UNL     1     -12.609  11.925  70.632  1.00  0.00    -0.232 NA 
BRANCH  22  23
HETATM   23  C   UNL     1     -11.415  12.446  69.953  1.00  0.00    -0.097 C  
BRANCH  23  24
HETATM   24  C   UNL     1     -11.452  12.241  68.451  1.00  0.00    -0.356 A  
HETATM   25  C   UNL     1     -10.738  11.188  67.866  1.00  0.00    -0.261 A  
HETATM   26  C   UNL     1     -11.285  11.997  65.642  1.00  0.00    -0.327 A  
HETATM   27  C   UNL     1     -12.077  12.992  66.211  1.00  0.00    -0.453 A  
HETATM   28  C   UNL     1     -12.158  13.116  67.608  1.00  0.00    -0.281 A  
HETATM   29  C   UNL     1     -10.649  11.078  66.478  1.00  0.00    -0.310 A  
BRANCH  26  30
HETATM   30  O   UNL     1     -10.997  11.840  64.318  1.00  0.00    -0.317 OA 
HETATM   31  C   UNL     1     -11.965  12.233  63.356  1.00  0.00    -0.494 C  
ENDBRANCH  26  30
ENDBRANCH  23  24
ENDBRANCH  22  23
BRANCH  22  32
HETATM   32  C   UNL     1     -12.466  10.644  71.140  1.00  0.00    -0.418 A  
HETATM   33  N   UNL     1     -11.254  10.061  71.093  1.00  0.00    -0.329 NA 
HETATM   34  N   UNL     1     -13.504  10.114  71.797  1.00  0.00    -0.344 NA 
HETATM   35  C   UNL     1     -13.309   8.937  72.420  1.00  0.00    -0.440 A  
HETATM   36  C   UNL     1     -11.122   8.848  71.681  1.00  0.00    -0.350 A  
HETATM   37  C   UNL     1     -12.129   8.240  72.382  1.00  0.00    -0.430 A  
ENDBRANCH  22  32
ENDBRANCH  21  22
ENDBRANCH  20  21
ENDBRANCH  17  20
ENDBRANCH  16  17
ENDBRANCH  15  16
ENDBRANCH  14  15
ENDBRANCH  13  14
ENDBRANCH  12  13
ENDBRANCH  11  12
ENDBRANCH  10  11
ENDBRANCH   9  10
ENDBRANCH   8   9
ENDBRANCH   7   8
ENDBRANCH   6   7
ENDBRANCH   5   6
ENDBRANCH   4   5
ENDBRANCH   3   4
ENDBRANCH   2   3
TORSDOF 22
ENDMDL
MODEL       35
REMARK 921   NORMALIZED FREE ENERGY PREDICTED BY IDOCK:   -4.59 KCAL/MOL
REMARK 922        TOTAL FREE ENERGY PREDICTED BY IDOCK:  -14.94 KCAL/MOL
REMARK 923 INTER-LIGAND FREE ENERGY PREDICTED BY IDOCK:  -11.91 KCAL/MOL
REMARK 924 INTRA-LIGAND FREE ENERGY PREDICTED BY IDOCK:   -3.03 KCAL/MOL
REMARK 927      BINDING AFFINITY PREDICTED BY RF-SCORE:    0.00 PKD
ROOT
HETATM    1  C   UNL     1      -6.950   6.032  66.970  1.00  0.00    -0.068 C  
HETATM    2  C   UNL     1      -7.836   6.951  67.792  1.00  0.00    -0.113 C  
ENDROOT
BRANCH   2   3
HETATM    3  C   UNL     1      -8.902   7.607  66.921  1.00  0.00    -0.142 C  
BRANCH   3   4
HETATM    4  C   UNL     1     -10.186   7.827  67.711  1.00  0.00    -0.271 C  
BRANCH   4   5
HETATM    5  C   UNL     1     -10.909   6.506  67.940  1.00  0.00    -0.383 C  
BRANCH   5   6
HETATM    6  C   UNL     1     -11.177   6.297  69.423  1.00  0.00    -0.489 C  
BRANCH   6   7
HETATM    7  C   UNL     1     -10.247   5.233  69.982  1.00  0.00    -0.358 C  
BRANCH   7   8
HETATM    8  C   UNL     1      -9.827   5.588  71.400  1.00  0.00    -0.218 C  
BRANCH   8   9
HETATM    9  C   UNL     1     -11.048   5.976  72.216  1.00  0.00    -0.324 C  
BRANCH   9  10
HETATM   10  C   UNL     1     -10.841   7.332  72.871  1.00  0.00    -0.380 C  
BRANCH  10  11
HETATM   11  C   UNL     1     -11.884   8.317  72.366  1.00  0.00    -0.461 C  
BRANCH  11  12
HETATM   12  C   UNL     1     -11.231   9.352  71.462  1.00  0.00    -0.457 C  
BRANCH  12  13
HETATM   13  C   UNL     1     -12.272  10.261  70.830  1.00  0.00    -0.465 C  
BRANCH  13  14
HETATM   14  C   UNL     1     -11.675  11.605  70.400  1.00  0.00    -0.292 C  
BRANCH  14  15
HETATM   15  C   UNL     1     -12.660  12.783  70.455  1.00  0.00    -0.191 C  
BRANCH  15  16
HETATM   16  C   UNL     1     -12.590  13.472  71.815  1.00  0.00    -0.168 C  
BRANCH  16  17
HETATM   17  N   UNL     1     -12.839  14.974  71.793  1.00  0.00    -0.317 N  
HETATM   18  C   UNL     1     -12.037  15.675  72.898  1.00  0.00    -0.475 C  
HETATM   19  C   UNL     1     -14.309  15.328  71.964  1.00  0.00    -0.589 C  
BRANCH  17  20
HETATM   20  C   UNL     1     -12.308  15.538  70.439  1.00  0.00    -0.413 C  
BRANCH  20  21
HETATM   21  C   UNL     1     -10.761  15.716  70.331  1.00  0.00    -0.317 C  
BRANCH  21  22
HETATM   22  N   UNL     1     -10.396  15.947  68.937  1.00  0.00    -0.217 NA 
BRANCH  22  23
HETATM   23  C   UNL     1     -11.363  15.675  67.865  1.00  0.00    -0.302 C  
BRANCH  23  24
HETATM   24  C   UNL     1     -11.208  14.291  67.265  1.00  0.00    -0.330 A  
HETATM   25  C   UNL     1     -10.085  13.512  67.572  1.00  0.00    -0.234 A  
HETATM   26  C   UNL     1     -10.762  11.827  65.958  1.00  0.00    -0.279 A  
HETATM   27  C   UNL     1     -11.930  12.546  65.715  1.00  0.00    -0.482 A  
HETATM   28  C   UNL     1     -12.151  13.772  66.363  1.00  0.00    -0.483 A  
HETATM   29  C   UNL     1      -9.863  12.301  66.914  1.00  0.00    -0.216 A  
BRANCH  26  30
HETATM   30  O   UNL     1     -10.343  10.703  65.307  1.00  0.00    -0.290 OA 
HETATM   31  C   UNL     1      -9.398  10.834  64.255  1.00  0.00    -0.245 C  
ENDBRANCH  26  30
ENDBRANCH  23  24
ENDBRANCH  22  23
BRANCH  22  32
HETATM   32  C   UNL     1      -9.584  17.047  68.711  1.00  0.00    -0.269 A  
HETATM   33  N   UNL     1     -10.127  18.276  68.780  1.00  0.00    -0.387 NA 
HETATM   34  N   UNL     1      -8.268  16.836  68.594  1.00  0.00    -0.242 NA 
HETATM   35  C   UNL     1      -7.470  17.919  68.530  1.00  0.00    -0.270 A  
HETATM   36  C   UNL     1      -9.291  19.335  68.648  1.00  0.00    -0.392 A  
HETATM   37  C   UNL     1      -7.933  19.209  68.536  1.00  0.00    -0.386 A  
ENDBRANCH  22  32
ENDBRANCH  21  22
ENDBRANCH  20  21
ENDBRANCH  17  20
ENDBRANCH  16  17
ENDBRANCH  15  16
ENDBRANCH  14  15
ENDBRANCH  13  14
ENDBRANCH  12  13
ENDBRANCH  11  12
ENDBRANCH  10  11
ENDBRANCH   9  10
ENDBRANCH   8   9
ENDBRANCH   7   8
ENDBRANCH   6   7
ENDBRANCH   5   6
ENDBRANCH   4   5
ENDBRANCH   3   4
ENDBRANCH   2   3
TORSDOF 22
ENDMDL
MODEL       36
REMARK 921   NORMALIZED FREE ENERGY PREDICTED BY IDOCK:   -4.58 KCAL/MOL
REMARK 922        TOTAL FREE ENERGY PREDICTED BY IDOCK:  -14.93 KCAL/MOL
REMARK 923 INTER-LIGAND FREE ENERGY PREDICTED BY IDOCK:  -12.47 KCAL/MOL
REMARK 924 INTRA-LIGAND FREE ENERGY PREDICTED BY IDOCK:   -2.46 KCAL/MOL
REMARK 927      BINDING AFFINITY PREDICTED BY RF-SCORE:    0.00 PKD
ROOT
HETATM    1  C   UNL     1      -9.040   6.400  66.467  1.00  0.00    -0.162 C  
HETATM    2  C   UNL     1     -10.487   6.770  66.737  1.00  0.00    -0.298 C  
ENDROOT
BRANCH   2   3
HETATM    3  C   UNL     1     -10.899   6.373  68.151  1.00  0.00    -0.386 C  
BRANCH   3   4
HETATM    4  C   UNL     1      -9.736   6.541  69.120  1.00  0.00    -0.143 C  
BRANCH   4   5
HETATM    5  C   UNL     1     -10.241   6.656  70.553  1.00  0.00    -0.215 C  
BRANCH   5   6
HETATM    6  C   UNL     1     -11.737   6.382  70.612  1.00  0.00    -0.377 C  
BRANCH   6   7
HETATM    7  C   UNL     1     -12.356   7.092  71.805  1.00  0.00    -0.391 C  
BRANCH   7   8
HETATM    8  C   UNL     1     -13.809   7.436  71.521  1.00  0.00    -0.483 C  
BRANCH   8   9
HETATM    9  C   UNL     1     -14.137   8.803  72.096  1.00  0.00    -0.519 C  
BRANCH   9  10
HETATM   10  C   UNL     1     -12.946   9.736  71.964  1.00  0.00    -0.515 C  
BRANCH  10  11
HETATM   11  C   UNL     1     -13.046  10.525  70.667  1.00  0.00    -0.278 C  
BRANCH  11  12
HETATM   12  C   UNL     1     -11.680  11.077  70.285  1.00  0.00    -0.445 C  
BRANCH  12  13
HETATM   13  C   UNL     1     -10.871  10.048  69.514  1.00  0.00    -0.283 C  
BRANCH  13  14
HETATM   14  C   UNL     1     -10.930  10.286  68.001  1.00  0.00    -0.345 C  
BRANCH  14  15
HETATM   15  C   UNL     1     -11.614  11.600  67.592  1.00  0.00    -0.349 C  
BRANCH  15  16
HETATM   16  C   UNL     1     -11.240  11.972  66.161  1.00  0.00    -0.343 C  
BRANCH  16  17
HETATM   17  N   UNL     1     -11.306  13.459  65.841  1.00  0.00    -0.305 N  
HETATM   18  C   UNL     1     -12.744  13.981  65.967  1.00  0.00    -0.338 C  
HETATM   19  C   UNL     1     -10.795  13.782  64.444  1.00  0.00    -0.328 C  
BRANCH  17  20
HETATM   20  C   UNL     1     -10.465  14.227  66.907  1.00  0.00    -0.272 C  
BRANCH  20  21
HETATM   21  C   UNL     1     -11.272  15.111  67.908  1.00  0.00    -0.329 C  
BRANCH  21  22
HETATM   22  N   UNL     1     -10.684  14.996  69.240  1.00  0.00    -0.240 NA 
BRANCH  22  23
HETATM   23  C   UNL     1      -9.371  15.593  69.521  1.00  0.00    -0.263 C  
BRANCH  23  24
HETATM   24  C   UNL     1      -9.153  16.910  68.801  1.00  0.00    -0.254 A  
HETATM   25  C   UNL     1      -7.900  17.215  68.256  1.00  0.00    -0.227 A  
HETATM   26  C   UNL     1      -8.644  19.457  67.694  1.00  0.00    -0.305 A  
HETATM   27  C   UNL     1      -9.922  19.134  68.146  1.00  0.00    -0.468 A  
HETATM   28  C   UNL     1     -10.175  17.868  68.699  1.00  0.00    -0.387 A  
HETATM   29  C   UNL     1      -7.650  18.479  67.720  1.00  0.00    -0.243 A  
BRANCH  26  30
HETATM   30  O   UNL     1      -8.214  20.680  67.267  1.00  0.00    -0.336 OA 
HETATM   31  C   UNL     1      -6.844  21.018  67.430  1.00  0.00    -0.371 C  
ENDBRANCH  26  30
ENDBRANCH  23  24
ENDBRANCH  22  23
BRANCH  22  32
HETATM   32  C   UNL     1     -11.582  15.064  70.293  1.00  0.00    -0.288 A  
HETATM   33  N   UNL     1     -11.263  15.806  71.368  1.00  0.00    -0.341 NA 
HETATM   34  N   UNL     1     -12.790  14.516  70.117  1.00  0.00    -0.220 NA 
HETATM   35  C   UNL     1     -13.709  14.718  71.080  1.00  0.00    -0.351 A  
HETATM   36  C   UNL     1     -12.199  15.930  72.340  1.00  0.00    -0.498 A  
HETATM   37  C   UNL     1     -13.461  15.412  72.237  1.00  0.00    -0.573 A  
ENDBRANCH  22  32
ENDBRANCH  21  22
ENDBRANCH  20  21
ENDBRANCH  17  20
ENDBRANCH  16  17
ENDBRANCH  15  16
ENDBRANCH  14  15
ENDBRANCH  13  14
ENDBRANCH  12  13
ENDBRANCH  11  12
ENDBRANCH  10  11
ENDBRANCH   9  10
ENDBRANCH   8   9
ENDBRANCH   7   8
ENDBRANCH   6   7
ENDBRANCH   5   6
ENDBRANCH   4   5
ENDBRANCH   3   4
ENDBRANCH   2   3
TORSDOF 22
ENDMDL
MODEL       37
REMARK 921   NORMALIZED FREE ENERGY PREDICTED BY IDOCK:   -4.57 KCAL/MOL
REMARK 922        TOTAL FREE ENERGY PREDICTED BY IDOCK:  -14.90 KCAL/MOL
REMARK 923 INTER-LIGAND FREE ENERGY PREDICTED BY IDOCK:  -11.89 KCAL/MOL
REMARK 924 INTRA-LIGAND FREE ENERGY PREDICTED BY IDOCK:   -3.01 KCAL/MOL
REMARK 927      BINDING AFFINITY PREDICTED BY RF-SCORE:    0.00 PKD
ROOT
HETATM    1  C   UNL     1     -12.384  16.163  73.742  1.00  0.00    -0.670 C  
HETATM    2  C   UNL     1     -13.510  15.534  72.941  1.00  0.00    -0.641 C  
ENDROOT
BRANCH   2   3
HETATM    3  C   UNL     1     -13.181  15.520  71.452  1.00  0.00    -0.587 C  
BRANCH   3   4
HETATM    4  C   UNL     1     -11.964  14.647  71.176  1.00  0.00    -0.405 C  
BRANCH   4   5
HETATM    5  C   UNL     1     -12.229  13.708  70.006  1.00  0.00    -0.395 C  
BRANCH   5   6
HETATM    6  C   UNL     1     -11.729  14.323  68.707  1.00  0.00    -0.378 C  
BRANCH   6   7
HETATM    7  C   UNL     1     -11.835  13.317  67.572  1.00  0.00    -0.403 C  
BRANCH   7   8
HETATM    8  C   UNL     1     -11.836  14.032  66.230  1.00  0.00    -0.428 C  
BRANCH   8   9
HETATM    9  C   UNL     1     -12.630  13.226  65.217  1.00  0.00    -0.528 C  
BRANCH   9  10
HETATM   10  C   UNL     1     -11.928  13.224  63.870  1.00  0.00    -0.541 C  
BRANCH  10  11
HETATM   11  C   UNL     1     -10.475  12.807  64.041  1.00  0.00    -0.433 C  
BRANCH  11  12
HETATM   12  C   UNL     1     -10.269  11.398  63.505  1.00  0.00    -0.461 C  
BRANCH  12  13
HETATM   13  C   UNL     1      -9.575  10.518  64.531  1.00  0.00    -0.359 C  
BRANCH  13  14
HETATM   14  C   UNL     1     -10.218  10.636  65.918  1.00  0.00    -0.314 C  
BRANCH  14  15
HETATM   15  C   UNL     1      -9.818   9.524  66.899  1.00  0.00    -0.262 C  
BRANCH  15  16
HETATM   16  C   UNL     1      -8.409   9.766  67.432  1.00  0.00    -0.114 C  
BRANCH  16  17
HETATM   17  N   UNL     1      -8.338  10.458  68.786  1.00  0.00    -0.125 N  
HETATM   18  C   UNL     1      -8.074  11.961  68.617  1.00  0.00    -0.086 C  
HETATM   19  C   UNL     1      -7.259   9.876  69.687  1.00  0.00    -0.108 C  
BRANCH  17  20
HETATM   20  C   UNL     1      -9.733  10.331  69.472  1.00  0.00    -0.211 C  
BRANCH  20  21
HETATM   21  C   UNL     1      -9.790   9.428  70.744  1.00  0.00    -0.279 C  
BRANCH  21  22
HETATM   22  N   UNL     1     -10.693   8.307  70.502  1.00  0.00    -0.221 NA 
BRANCH  22  23
HETATM   23  C   UNL     1     -10.181   6.930  70.513  1.00  0.00    -0.192 C  
BRANCH  23  24
HETATM   24  C   UNL     1      -9.881   6.399  69.124  1.00  0.00    -0.158 A  
HETATM   25  C   UNL     1      -8.558   6.167  68.730  1.00  0.00    -0.120 A  
HETATM   26  C   UNL     1      -9.277   5.669  66.464  1.00  0.00    -0.144 A  
HETATM   27  C   UNL     1     -10.603   5.803  66.868  1.00  0.00    -0.377 A  
HETATM   28  C   UNL     1     -10.904   6.169  68.190  1.00  0.00    -0.389 A  
HETATM   29  C   UNL     1      -8.263   5.818  67.411  1.00  0.00    -0.102 A  
BRANCH  26  30
HETATM   30  O   UNL     1      -8.827   5.460  65.193  1.00  0.00    -0.156 OA 
HETATM   31  C   UNL     1      -8.876   4.145  64.658  1.00  0.00    -0.136 C  
ENDBRANCH  26  30
ENDBRANCH  23  24
ENDBRANCH  22  23
BRANCH  22  32
HETATM   32  C   UNL     1     -11.968   8.448  71.026  1.00  0.00    -0.231 A  
HETATM   33  N   UNL     1     -12.783   7.377  71.043  1.00  0.00    -0.256 NA 
HETATM   34  N   UNL     1     -12.268   9.601  71.635  1.00  0.00    -0.383 NA 
HETATM   35  C   UNL     1     -13.449   9.676  72.276  1.00  0.00    -0.400 A  
HETATM   36  C   UNL     1     -13.988   7.520  71.646  1.00  0.00    -0.412 A  
HETATM   37  C   UNL     1     -14.369   8.659  72.301  1.00  0.00    -0.486 A  
ENDBRANCH  22  32
ENDBRANCH  21  22
ENDBRANCH  20  21
ENDBRANCH  17  20
ENDBRANCH  16  17
ENDBRANCH  15  16
ENDBRANCH  14  15
ENDBRANCH  13  14
ENDBRANCH  12  13
ENDBRANCH  11  12
ENDBRANCH  10  11
ENDBRANCH   9  10
ENDBRANCH   8   9
ENDBRANCH   7   8
ENDBRANCH   6   7
ENDBRANCH   5   6
ENDBRANCH   4   5
ENDBRANCH   3   4
ENDBRANCH   2   3
TORSDOF 22
ENDMDL
MODEL       38
REMARK 921   NORMALIZED FREE ENERGY PREDICTED BY IDOCK:   -4.57 KCAL/MOL
REMARK 922        TOTAL FREE ENERGY PREDICTED BY IDOCK:  -14.90 KCAL/MOL
REMARK 923 INTER-LIGAND FREE ENERGY PREDICTED BY IDOCK:  -11.59 KCAL/MOL
REMARK 924 INTRA-LIGAND FREE ENERGY PREDICTED BY IDOCK:   -3.32 KCAL/MOL
REMARK 927      BINDING AFFINITY PREDICTED BY RF-SCORE:    0.00 PKD
ROOT
HETATM    1  C   UNL     1     -12.827  15.472  73.567  1.00  0.00    -0.687 C  
HETATM    2  C   UNL     1     -13.530  14.486  72.650  1.00  0.00    -0.590 C  
ENDROOT
BRANCH   2   3
HETATM    3  C   UNL     1     -13.539  14.989  71.210  1.00  0.00    -0.526 C  
BRANCH   3   4
HETATM    4  C   UNL     1     -12.233  15.698  70.877  1.00  0.00    -0.466 C  
BRANCH   4   5
HETATM    5  C   UNL     1     -11.499  14.974  69.755  1.00  0.00    -0.324 C  
BRANCH   5   6
HETATM    6  C   UNL     1     -12.237  13.700  69.372  1.00  0.00    -0.307 C  
BRANCH   6   7
HETATM    7  C   UNL     1     -11.443  12.479  69.809  1.00  0.00    -0.211 C  
BRANCH   7   8
HETATM    8  C   UNL     1     -12.345  11.257  69.876  1.00  0.00    -0.301 C  
BRANCH   8   9
HETATM    9  C   UNL     1     -12.617  10.896  71.326  1.00  0.00    -0.526 C  
BRANCH   9  10
HETATM   10  C   UNL     1     -13.751   9.889  71.420  1.00  0.00    -0.203 C  
BRANCH  10  11
HETATM   11  C   UNL     1     -13.356   8.747  72.343  1.00  0.00    -0.442 C  
BRANCH  11  12
HETATM   12  C   UNL     1     -13.183   7.464  71.542  1.00  0.00    -0.426 C  
BRANCH  12  13
HETATM   13  C   UNL     1     -11.716   7.081  71.434  1.00  0.00    -0.344 C  
BRANCH  13  14
HETATM   14  C   UNL     1     -10.947   7.379  72.727  1.00  0.00    -0.387 C  
BRANCH  14  15
HETATM   15  C   UNL     1      -9.592   8.070  72.513  1.00  0.00    -0.306 C  
BRANCH  15  16
HETATM   16  C   UNL     1      -9.676   9.063  71.358  1.00  0.00    -0.299 C  
BRANCH  16  17
HETATM   17  N   UNL     1      -8.645   8.863  70.256  1.00  0.00    -0.151 N  
HETATM   18  C   UNL     1      -8.374   7.370  70.028  1.00  0.00    -0.137 C  
HETATM   19  C   UNL     1      -7.324   9.554  70.556  1.00  0.00    -0.138 C  
BRANCH  17  20
HETATM   20  C   UNL     1      -9.243   9.410  68.923  1.00  0.00    -0.140 C  
BRANCH  20  21
HETATM   21  C   UNL     1     -10.054   8.388  68.066  1.00  0.00    -0.199 C  
BRANCH  21  22
HETATM   22  N   UNL     1      -9.677   8.525  66.662  1.00  0.00    -0.227 NA 
BRANCH  22  23
HETATM   23  C   UNL     1      -9.129   9.794  66.165  1.00  0.00    -0.161 C  
BRANCH  23  24
HETATM   24  C   UNL     1     -10.195  10.729  65.628  1.00  0.00    -0.320 A  
HETATM   25  C   UNL     1     -10.353  10.897  64.247  1.00  0.00    -0.436 A  
HETATM   26  C   UNL     1     -11.986  12.660  64.607  1.00  0.00    -0.402 A  
HETATM   27  C   UNL     1     -11.908  12.436  65.980  1.00  0.00    -0.459 A  
HETATM   28  C   UNL     1     -11.015  11.478  66.488  1.00  0.00    -0.346 A  
HETATM   29  C   UNL     1     -11.231  11.861  63.747  1.00  0.00    -0.519 A  
BRANCH  26  30
HETATM   30  O   UNL     1     -12.693  13.643  63.978  1.00  0.00    -0.666 OA 
HETATM   31  C   UNL     1     -12.341  14.998  64.218  1.00  0.00    -0.226 C  
ENDBRANCH  26  30
ENDBRANCH  23  24
ENDBRANCH  22  23
BRANCH  22  32
HETATM   32  C   UNL     1      -9.121   7.395  66.084  1.00  0.00    -0.126 A  
HETATM   33  N   UNL     1      -8.113   7.548  65.206  1.00  0.00    -0.126 NA 
HETATM   34  N   UNL     1      -9.507   6.202  66.551  1.00  0.00    -0.153 NA 
HETATM   35  C   UNL     1      -8.854   5.117  66.096  1.00  0.00    -0.132 A  
HETATM   36  C   UNL     1      -7.527   6.423  64.728  1.00  0.00    -0.087 A  
HETATM   37  C   UNL     1      -7.853   5.166  65.160  1.00  0.00    -0.091 A  
ENDBRANCH  22  32
ENDBRANCH  21  22
ENDBRANCH  20  21
ENDBRANCH  17  20
ENDBRANCH  16  17
ENDBRANCH  15  16
ENDBRANCH  14  15
ENDBRANCH  13  14
ENDBRANCH  12  13
ENDBRANCH  11  12
ENDBRANCH  10  11
ENDBRANCH   9  10
ENDBRANCH   8   9
ENDBRANCH   7   8
ENDBRANCH   6   7
ENDBRANCH   5   6
ENDBRANCH   4   5
ENDBRANCH   3   4
ENDBRANCH   2   3
TORSDOF 22
ENDMDL
MODEL       39
REMARK 921   NORMALIZED FREE ENERGY PREDICTED BY IDOCK:   -4.54 KCAL/MOL
REMARK 922        TOTAL FREE ENERGY PREDICTED BY IDOCK:  -14.84 KCAL/MOL
REMARK 923 INTER-LIGAND FREE ENERGY PREDICTED BY IDOCK:  -11.85 KCAL/MOL
REMARK 924 INTRA-LIGAND FREE ENERGY PREDICTED BY IDOCK:   -2.98 KCAL/MOL
REMARK 927      BINDING AFFINITY PREDICTED BY RF-SCORE:    0.00 PKD
ROOT
HETATM    1  C   UNL     1      -9.847  20.453  67.490  1.00  0.00    -0.564 C  
HETATM    2  C   UNL     1      -8.930  19.655  66.580  1.00  0.00    -0.419 C  
ENDROOT
BRANCH   2   3
HETATM    3  C   UNL     1      -8.357  18.443  67.308  1.00  0.00    -0.251 C  
BRANCH   3   4
HETATM    4  C   UNL     1      -8.376  17.214  66.408  1.00  0.00    -0.315 C  
BRANCH   4   5
HETATM    5  C   UNL     1      -8.290  15.939  67.237  1.00  0.00    -0.211 C  
BRANCH   5   6
HETATM    6  C   UNL     1      -9.513  15.066  66.999  1.00  0.00    -0.240 C  
BRANCH   6   7
HETATM    7  C   UNL     1     -10.732  15.669  67.679  1.00  0.00    -0.302 C  
BRANCH   7   8
HETATM    8  C   UNL     1     -10.856  15.148  69.101  1.00  0.00    -0.251 C  
BRANCH   8   9
HETATM    9  C   UNL     1     -11.234  16.285  70.035  1.00  0.00    -0.324 C  
BRANCH   9  10
HETATM   10  C   UNL     1     -12.398  15.879  70.923  1.00  0.00    -0.373 C  
BRANCH  10  11
HETATM   11  C   UNL     1     -12.078  14.574  71.636  1.00  0.00    -0.379 C  
BRANCH  11  12
HETATM   12  C   UNL     1     -13.351  13.966  72.208  1.00  0.00    -0.599 C  
BRANCH  12  13
HETATM   13  C   UNL     1     -13.384  12.463  71.990  1.00  0.00    -0.511 C  
BRANCH  13  14
HETATM   14  C   UNL     1     -12.413  12.020  70.890  1.00  0.00    -0.384 C  
BRANCH  14  15
HETATM   15  C   UNL     1     -12.613  10.573  70.411  1.00  0.00    -0.364 C  
BRANCH  15  16
HETATM   16  C   UNL     1     -12.126   9.590  71.471  1.00  0.00    -0.389 C  
BRANCH  16  17
HETATM   17  N   UNL     1     -11.006   8.660  71.025  1.00  0.00    -0.248 N  
HETATM   18  C   UNL     1     -11.561   7.277  70.656  1.00  0.00    -0.290 C  
HETATM   19  C   UNL     1      -9.932   8.482  72.088  1.00  0.00    -0.317 C  
BRANCH  17  20
HETATM   20  C   UNL     1     -10.376   9.243  69.722  1.00  0.00    -0.218 C  
BRANCH  20  21
HETATM   21  C   UNL     1      -9.402   8.298  68.951  1.00  0.00    -0.147 C  
BRANCH  21  22
HETATM   22  N   UNL     1      -9.619   8.446  67.515  1.00  0.00    -0.149 NA 
BRANCH  22  23
HETATM   23  C   UNL     1      -9.016   9.573  66.790  1.00  0.00    -0.138 C  
BRANCH  23  24
HETATM   24  C   UNL     1     -10.044  10.466  66.123  1.00  0.00    -0.299 A  
HETATM   25  C   UNL     1     -10.132  10.518  64.727  1.00  0.00    -0.406 A  
HETATM   26  C   UNL     1     -11.761  12.315  64.855  1.00  0.00    -0.352 A  
HETATM   27  C   UNL     1     -11.754  12.207  66.244  1.00  0.00    -0.389 A  
HETATM   28  C   UNL     1     -10.898  11.289  66.875  1.00  0.00    -0.333 A  
HETATM   29  C   UNL     1     -10.973  11.442  64.104  1.00  0.00    -0.411 A  
BRANCH  26  30
HETATM   30  O   UNL     1     -12.426  13.246  64.111  1.00  0.00    -0.596 OA 
HETATM   31  C   UNL     1     -12.160  14.622  64.342  1.00  0.00    -0.462 C  
ENDBRANCH  26  30
ENDBRANCH  23  24
ENDBRANCH  22  23
BRANCH  22  32
HETATM   32  C   UNL     1      -9.667   7.262  66.797  1.00  0.00    -0.198 A  
HETATM   33  N   UNL     1      -8.564   6.858  66.141  1.00  0.00    -0.138 NA 
HETATM   34  N   UNL     1     -10.759   6.500  66.925  1.00  0.00    -0.325 NA 
HETATM   35  C   UNL     1     -10.737   5.283  66.351  1.00  0.00    -0.223 A  
HETATM   36  C   UNL     1      -8.611   5.652  65.526  1.00  0.00    -0.151 A  
HETATM   37  C   UNL     1      -9.683   4.806  65.615  1.00  0.00    -0.188 A  
ENDBRANCH  22  32
ENDBRANCH  21  22
ENDBRANCH  20  21
ENDBRANCH  17  20
ENDBRANCH  16  17
ENDBRANCH  15  16
ENDBRANCH  14  15
ENDBRANCH  13  14
ENDBRANCH  12  13
ENDBRANCH  11  12
ENDBRANCH  10  11
ENDBRANCH   9  10
ENDBRANCH   8   9
ENDBRANCH   7   8
ENDBRANCH   6   7
ENDBRANCH   5   6
ENDBRANCH   4   5
ENDBRANCH   3   4
ENDBRANCH   2   3
TORSDOF 22
ENDMDL
MODEL       40
REMARK 921   NORMALIZED FREE ENERGY PREDICTED BY IDOCK:   -4.51 KCAL/MOL
REMARK 922        TOTAL FREE ENERGY PREDICTED BY IDOCK:  -14.77 KCAL/MOL
REMARK 923 INTER-LIGAND FREE ENERGY PREDICTED BY IDOCK:  -11.93 KCAL/MOL
REMARK 924 INTRA-LIGAND FREE ENERGY PREDICTED BY IDOCK:   -2.83 KCAL/MOL
REMARK 927      BINDING AFFINITY PREDICTED BY RF-SCORE:    0.00 PKD
ROOT
HETATM    1  C   UNL     1      -9.247   3.350  69.588  1.00  0.00    -0.225 C  
HETATM    2  C   UNL     1     -10.033   4.587  69.985  1.00  0.00    -0.280 C  
ENDROOT
BRANCH   2   3
HETATM    3  C   UNL     1      -9.920   4.850  71.483  1.00  0.00    -0.260 C  
BRANCH   3   4
HETATM    4  C   UNL     1     -10.693   6.103  71.872  1.00  0.00    -0.277 C  
BRANCH   4   5
HETATM    5  C   UNL     1     -11.745   6.434  70.821  1.00  0.00    -0.378 C  
BRANCH   5   6
HETATM    6  C   UNL     1     -12.716   7.479  71.351  1.00  0.00    -0.382 C  
BRANCH   6   7
HETATM    7  C   UNL     1     -11.968   8.547  72.131  1.00  0.00    -0.451 C  
BRANCH   7   8
HETATM    8  C   UNL     1     -11.873   9.828  71.318  1.00  0.00    -0.481 C  
BRANCH   8   9
HETATM    9  C   UNL     1     -13.161  10.621  71.454  1.00  0.00    -0.499 C  
BRANCH   9  10
HETATM   10  C   UNL     1     -12.877  12.112  71.379  1.00  0.00    -0.378 C  
BRANCH  10  11
HETATM   11  C   UNL     1     -13.776  12.861  72.352  1.00  0.00    -0.530 C  
BRANCH  11  12
HETATM   12  C   UNL     1     -13.259  14.278  72.554  1.00  0.00    -0.581 C  
BRANCH  12  13
HETATM   13  C   UNL     1     -13.404  15.099  71.284  1.00  0.00    -0.551 C  
BRANCH  13  14
HETATM   14  C   UNL     1     -12.055  15.631  70.786  1.00  0.00    -0.454 C  
BRANCH  14  15
HETATM   15  C   UNL     1     -11.677  15.174  69.369  1.00  0.00    -0.355 C  
BRANCH  15  16
HETATM   16  C   UNL     1     -10.806  16.224  68.685  1.00  0.00    -0.322 C  
BRANCH  16  17
HETATM   17  N   UNL     1      -9.629  15.672  67.893  1.00  0.00    -0.206 N  
HETATM   18  C   UNL     1      -8.306  16.263  68.399  1.00  0.00    -0.190 C  
HETATM   19  C   UNL     1      -9.743  15.951  66.402  1.00  0.00    -0.287 C  
BRANCH  17  20
HETATM   20  C   UNL     1      -9.549  14.134  68.144  1.00  0.00    -0.218 C  
BRANCH  20  21
HETATM   21  C   UNL     1      -8.806  13.300  67.054  1.00  0.00    -0.212 C  
BRANCH  21  22
HETATM   22  N   UNL     1      -9.622  12.147  66.686  1.00  0.00    -0.214 NA 
BRANCH  22  23
HETATM   23  C   UNL     1     -10.104  11.223  67.721  1.00  0.00    -0.179 C  
BRANCH  23  24
HETATM   24  C   UNL     1      -9.810   9.770  67.402  1.00  0.00    -0.219 A  
HETATM   25  C   UNL     1      -8.904   9.443  66.386  1.00  0.00    -0.167 A  
HETATM   26  C   UNL     1      -9.446   7.085  66.606  1.00  0.00    -0.165 A  
HETATM   27  C   UNL     1     -10.278   7.389  67.682  1.00  0.00    -0.261 A  
HETATM   28  C   UNL     1     -10.461   8.724  68.076  1.00  0.00    -0.260 A  
HETATM   29  C   UNL     1      -8.736   8.115  65.988  1.00  0.00    -0.182 A  
BRANCH  26  30
HETATM   30  O   UNL     1      -9.279   5.863  66.022  1.00  0.00    -0.161 OA 
HETATM   31  C   UNL     1     -10.378   4.963  65.993  1.00  0.00    -0.271 C  
ENDBRANCH  26  30
ENDBRANCH  23  24
ENDBRANCH  22  23
BRANCH  22  32
HETATM   32  C   UNL     1     -10.513  12.358  65.646  1.00  0.00    -0.261 A  
HETATM   33  N   UNL     1     -10.109  12.103  64.388  1.00  0.00    -0.289 NA 
HETATM   34  N   UNL     1     -11.779  12.651  65.960  1.00  0.00    -0.396 NA 
HETATM   35  C   UNL     1     -12.672  12.703  64.953  1.00  0.00    -0.370 A  
HETATM   36  C   UNL     1     -11.029  12.228  63.400  1.00  0.00    -0.405 A  
HETATM   37  C   UNL     1     -12.347  12.514  63.635  1.00  0.00    -0.618 A  
ENDBRANCH  22  32
ENDBRANCH  21  22
ENDBRANCH  20  21
ENDBRANCH  17  20
ENDBRANCH  16  17
ENDBRANCH  15  16
ENDBRANCH  14  15
ENDBRANCH  13  14
ENDBRANCH  12  13
ENDBRANCH  11  12
ENDBRANCH  10  11
ENDBRANCH   9  10
ENDBRANCH   8   9
ENDBRANCH   7   8
ENDBRANCH   6   7
ENDBRANCH   5   6
ENDBRANCH   4   5
ENDBRANCH   3   4
ENDBRANCH   2   3
TORSDOF 22
ENDMDL
MODEL       41
REMARK 921   NORMALIZED FREE ENERGY PREDICTED BY IDOCK:   -4.51 KCAL/MOL
REMARK 922        TOTAL FREE ENERGY PREDICTED BY IDOCK:  -14.76 KCAL/MOL
REMARK 923 INTER-LIGAND FREE ENERGY PREDICTED BY IDOCK:  -10.72 KCAL/MOL
REMARK 924 INTRA-LIGAND FREE ENERGY PREDICTED BY IDOCK:   -4.03 KCAL/MOL
REMARK 927      BINDING AFFINITY PREDICTED BY RF-SCORE:    0.00 PKD
ROOT
HETATM    1  C   UNL     1     -12.871   7.001  71.755  1.00  0.00    -0.365 C  
HETATM    2  C   UNL     1     -12.037   8.260  71.913  1.00  0.00    -0.382 C  
ENDROOT
BRANCH   2   3
HETATM    3  C   UNL     1     -10.615   7.924  72.351  1.00  0.00    -0.359 C  
BRANCH   3   4
HETATM    4  C   UNL     1      -9.595   8.589  71.436  1.00  0.00    -0.282 C  
BRANCH   4   5
HETATM    5  C   UNL     1      -9.647   7.979  70.041  1.00  0.00    -0.171 C  
BRANCH   5   6
HETATM    6  C   UNL     1      -9.118   6.553  70.065  1.00  0.00    -0.150 C  
BRANCH   6   7
HETATM    7  C   UNL     1     -10.067   5.626  69.321  1.00  0.00    -0.281 C  
BRANCH   7   8
HETATM    8  C   UNL     1     -11.069   6.434  68.512  1.00  0.00    -0.385 C  
BRANCH   8   9
HETATM    9  C   UNL     1     -10.859   6.180  67.030  1.00  0.00    -0.435 C  
BRANCH   9  10
HETATM   10  C   UNL     1     -10.336   4.772  66.800  1.00  0.00    -0.229 C  
BRANCH  10  11
HETATM   11  C   UNL     1      -9.555   4.714  65.496  1.00  0.00    -0.187 C  
BRANCH  11  12
HETATM   12  C   UNL     1      -8.080   4.472  65.782  1.00  0.00    -0.102 C  
BRANCH  12  13
HETATM   13  C   UNL     1      -7.259   5.722  65.514  1.00  0.00    -0.074 C  
BRANCH  13  14
HETATM   14  C   UNL     1      -6.781   6.386  66.810  1.00  0.00    -0.060 C  
BRANCH  14  15
HETATM   15  C   UNL     1      -7.340   7.798  67.042  1.00  0.00    -0.091 C  
BRANCH  15  16
HETATM   16  C   UNL     1      -8.192   8.236  65.855  1.00  0.00    -0.119 C  
BRANCH  16  17
HETATM   17  N   UNL     1      -8.494   9.726  65.789  1.00  0.00    -0.130 N  
HETATM   18  C   UNL     1      -9.375  10.051  64.574  1.00  0.00    -0.286 C  
HETATM   19  C   UNL     1      -7.236  10.578  65.715  1.00  0.00    -0.135 C  
BRANCH  17  20
HETATM   20  C   UNL     1      -9.327  10.112  67.051  1.00  0.00    -0.154 C  
BRANCH  20  21
HETATM   21  C   UNL     1     -10.869  10.237  66.841  1.00  0.00    -0.135 C  
BRANCH  21  22
HETATM   22  N   UNL     1     -11.303  11.577  67.225  1.00  0.00    -0.400 NA 
BRANCH  22  23
HETATM   23  C   UNL     1     -10.653  12.272  68.344  1.00  0.00    -0.235 C  
BRANCH  23  24
HETATM   24  C   UNL     1     -11.626  12.682  69.433  1.00  0.00    -0.369 A  
HETATM   25  C   UNL     1     -12.064  14.009  69.522  1.00  0.00    -0.397 A  
HETATM   26  C   UNL     1     -13.223  13.529  71.603  1.00  0.00    -0.366 A  
HETATM   27  C   UNL     1     -12.874  12.186  71.474  1.00  0.00    -0.394 A  
HETATM   28  C   UNL     1     -12.078  11.765  70.396  1.00  0.00    -0.440 A  
HETATM   29  C   UNL     1     -12.843  14.426  70.603  1.00  0.00    -0.390 A  
BRANCH  26  30
HETATM   30  O   UNL     1     -13.865  14.109  72.658  1.00  0.00    -0.598 OA 
HETATM   31  C   UNL     1     -13.977  15.524  72.696  1.00  0.00    -0.528 C  
ENDBRANCH  26  30
ENDBRANCH  23  24
ENDBRANCH  22  23
BRANCH  22  32
HETATM   32  C   UNL     1     -11.677  12.403  66.177  1.00  0.00    -0.400 A  
HETATM   33  N   UNL     1     -11.176  13.650  66.127  1.00  0.00    -0.300 NA 
HETATM   34  N   UNL     1     -12.391  11.863  65.183  1.00  0.00    -0.256 NA 
HETATM   35  C   UNL     1     -12.619  12.626  64.097  1.00  0.00    -0.353 A  
HETATM   36  C   UNL     1     -11.484  14.403  65.043  1.00  0.00    -0.372 A  
HETATM   37  C   UNL     1     -12.199  13.926  63.977  1.00  0.00    -0.413 A  
ENDBRANCH  22  32
ENDBRANCH  21  22
ENDBRANCH  20  21
ENDBRANCH  17  20
ENDBRANCH  16  17
ENDBRANCH  15  16
ENDBRANCH  14  15
ENDBRANCH  13  14
ENDBRANCH  12  13
ENDBRANCH  11  12
ENDBRANCH  10  11
ENDBRANCH   9  10
ENDBRANCH   8   9
ENDBRANCH   7   8
ENDBRANCH   6   7
ENDBRANCH   5   6
ENDBRANCH   4   5
ENDBRANCH   3   4
ENDBRANCH   2   3
TORSDOF 22
ENDMDL
MODEL       42
REMARK 921   NORMALIZED FREE ENERGY PREDICTED BY IDOCK:   -4.50 KCAL/MOL
REMARK 922        TOTAL FREE ENERGY PREDICTED BY IDOCK:  -14.74 KCAL/MOL
REMARK 923 INTER-LIGAND FREE ENERGY PREDICTED BY IDOCK:  -10.60 KCAL/MOL
REMARK 924 INTRA-LIGAND FREE ENERGY PREDICTED BY IDOCK:   -4.14 KCAL/MOL
REMARK 927      BINDING AFFINITY PREDICTED BY RF-SCORE:    0.00 PKD
ROOT
HETATM    1  C   UNL     1      -8.125   7.150  71.893  1.00  0.00    -0.097 C  
HETATM    2  C   UNL     1      -8.281   8.661  71.899  1.00  0.00    -0.167 C  
ENDROOT
BRANCH   2   3
HETATM    3  C   UNL     1      -9.158   9.124  70.741  1.00  0.00    -0.313 C  
BRANCH   3   4
HETATM    4  C   UNL     1     -10.496   9.645  71.251  1.00  0.00    -0.216 C  
BRANCH   4   5
HETATM    5  C   UNL     1     -11.641   8.790  70.725  1.00  0.00    -0.288 C  
BRANCH   5   6
HETATM    6  C   UNL     1     -12.025   7.728  71.745  1.00  0.00    -0.332 C  
BRANCH   6   7
HETATM    7  C   UNL     1     -11.520   6.364  71.302  1.00  0.00    -0.371 C  
BRANCH   7   8
HETATM    8  C   UNL     1     -11.430   6.300  69.786  1.00  0.00    -0.449 C  
BRANCH   8   9
HETATM    9  C   UNL     1     -10.027   5.892  69.371  1.00  0.00    -0.229 C  
BRANCH   9  10
HETATM   10  C   UNL     1      -9.628   6.593  68.083  1.00  0.00    -0.120 C  
BRANCH  10  11
HETATM   11  C   UNL     1     -10.753   7.505  67.618  1.00  0.00    -0.266 C  
BRANCH  11  12
HETATM   12  C   UNL     1     -10.205   8.578  66.688  1.00  0.00    -0.345 C  
BRANCH  12  13
HETATM   13  C   UNL     1     -10.441   9.967  67.257  1.00  0.00    -0.319 C  
BRANCH  13  14
HETATM   14  C   UNL     1      -9.225  10.881  67.066  1.00  0.00    -0.165 C  
BRANCH  14  15
HETATM   15  C   UNL     1      -9.044  11.933  68.171  1.00  0.00    -0.190 C  
BRANCH  15  16
HETATM   16  C   UNL     1      -7.607  12.447  68.185  1.00  0.00    -0.129 C  
BRANCH  16  17
HETATM   17  N   UNL     1      -7.443  13.897  68.619  1.00  0.00    -0.119 N  
HETATM   18  C   UNL     1      -6.915  14.756  67.462  1.00  0.00    -0.172 C  
HETATM   19  C   UNL     1      -6.503  14.052  69.805  1.00  0.00    -0.115 C  
BRANCH  17  20
HETATM   20  C   UNL     1      -8.853  14.462  68.978  1.00  0.00     0.009 C  
BRANCH  20  21
HETATM   21  C   UNL     1      -9.009  16.013  68.898  1.00  0.00    -0.239 C  
BRANCH  21  22
HETATM   22  N   UNL     1      -9.987  16.350  67.867  1.00  0.00    -0.239 NA 
BRANCH  22  23
HETATM   23  C   UNL     1     -11.239  15.589  67.761  1.00  0.00    -0.302 C  
BRANCH  23  24
HETATM   24  C   UNL     1     -11.203  14.540  66.667  1.00  0.00    -0.346 A  
HETATM   25  C   UNL     1     -10.204  14.579  65.686  1.00  0.00    -0.379 A  
HETATM   26  C   UNL     1     -11.268  12.765  64.471  1.00  0.00    -0.333 A  
HETATM   27  C   UNL     1     -12.213  12.652  65.488  1.00  0.00    -0.501 A  
HETATM   28  C   UNL     1     -12.182  13.537  66.579  1.00  0.00    -0.433 A  
HETATM   29  C   UNL     1     -10.247  13.708  64.596  1.00  0.00    -0.338 A  
BRANCH  26  30
HETATM   30  O   UNL     1     -11.252  12.079  63.291  1.00  0.00    -0.386 OA 
HETATM   31  C   UNL     1     -10.207  11.147  63.056  1.00  0.00    -0.214 C  
ENDBRANCH  26  30
ENDBRANCH  23  24
ENDBRANCH  22  23
BRANCH  22  32
HETATM   32  C   UNL     1     -10.111  17.701  67.586  1.00  0.00    -0.339 A  
HETATM   33  N   UNL     1      -9.953  18.586  68.586  1.00  0.00    -0.375 NA 
HETATM   34  N   UNL     1     -10.222  18.063  66.303  1.00  0.00    -0.391 NA 
HETATM   35  C   UNL     1     -10.187  19.379  66.024  1.00  0.00    -0.457 A  
HETATM   36  C   UNL     1      -9.986  19.902  68.265  1.00  0.00    -0.432 A  
HETATM   37  C   UNL     1     -10.085  20.358  66.978  1.00  0.00    -0.507 A  
ENDBRANCH  22  32
ENDBRANCH  21  22
ENDBRANCH  20  21
ENDBRANCH  17  20
ENDBRANCH  16  17
ENDBRANCH  15  16
ENDBRANCH  14  15
ENDBRANCH  13  14
ENDBRANCH  12  13
ENDBRANCH  11  12
ENDBRANCH  10  11
ENDBRANCH   9  10
ENDBRANCH   8   9
ENDBRANCH   7   8
ENDBRANCH   6   7
ENDBRANCH   5   6
ENDBRANCH   4   5
ENDBRANCH   3   4
ENDBRANCH   2   3
TORSDOF 22
ENDMDL
MODEL       43
REMARK 921   NORMALIZED FREE ENERGY PREDICTED BY IDOCK:   -4.49 KCAL/MOL
REMARK 922        TOTAL FREE ENERGY PREDICTED BY IDOCK:  -14.73 KCAL/MOL
REMARK 923 INTER-LIGAND FREE ENERGY PREDICTED BY IDOCK:  -11.37 KCAL/MOL
REMARK 924 INTRA-LIGAND FREE ENERGY PREDICTED BY IDOCK:   -3.36 KCAL/MOL
REMARK 927      BINDING AFFINITY PREDICTED BY RF-SCORE:    0.00 PKD
ROOT
HETATM    1  C   UNL     1     -13.840   8.895  72.092  1.00  0.00    -0.531 C  
HETATM    2  C   UNL     1     -12.348   8.632  72.191  1.00  0.00    -0.452 C  
ENDROOT
BRANCH   2   3
HETATM    3  C   UNL     1     -12.032   7.163  71.931  1.00  0.00    -0.343 C  
BRANCH   3   4
HETATM    4  C   UNL     1     -11.830   6.909  70.443  1.00  0.00    -0.351 C  
BRANCH   4   5
HETATM    5  C   UNL     1     -10.746   5.862  70.218  1.00  0.00    -0.383 C  
BRANCH   5   6
HETATM    6  C   UNL     1     -10.451   5.117  71.511  1.00  0.00    -0.256 C  
BRANCH   6   7
HETATM    7  C   UNL     1      -8.951   4.961  71.699  1.00  0.00    -0.161 C  
BRANCH   7   8
HETATM    8  C   UNL     1      -8.440   5.959  72.727  1.00  0.00    -0.122 C  
BRANCH   8   9
HETATM    9  C   UNL     1      -7.773   7.128  72.023  1.00  0.00    -0.091 C  
BRANCH   9  10
HETATM   10  C   UNL     1      -8.592   8.395  72.204  1.00  0.00    -0.257 C  
BRANCH  10  11
HETATM   11  C   UNL     1      -8.750   9.105  70.868  1.00  0.00    -0.277 C  
BRANCH  11  12
HETATM   12  C   UNL     1      -8.091   8.292  69.763  1.00  0.00    -0.118 C  
BRANCH  12  13
HETATM   13  C   UNL     1      -8.885   8.383  68.470  1.00  0.00    -0.136 C  
BRANCH  13  14
HETATM   14  C   UNL     1     -10.103   9.305  68.607  1.00  0.00    -0.207 C  
BRANCH  14  15
HETATM   15  C   UNL     1     -10.469  10.066  67.323  1.00  0.00    -0.313 C  
BRANCH  15  16
HETATM   16  C   UNL     1     -11.232  11.343  67.661  1.00  0.00    -0.283 C  
BRANCH  16  17
HETATM   17  N   UNL     1     -10.939  12.531  66.755  1.00  0.00    -0.256 N  
HETATM   18  C   UNL     1     -12.212  12.989  66.030  1.00  0.00    -0.399 C  
HETATM   19  C   UNL     1      -9.873  12.226  65.713  1.00  0.00    -0.244 C  
BRANCH  17  20
HETATM   20  C   UNL     1     -10.486  13.727  67.647  1.00  0.00    -0.242 C  
BRANCH  20  21
HETATM   21  C   UNL     1     -11.587  14.779  67.992  1.00  0.00    -0.343 C  
BRANCH  21  22
HETATM   22  N   UNL     1     -11.431  15.208  69.379  1.00  0.00    -0.286 NA 
BRANCH  22  23
HETATM   23  C   UNL     1     -11.034  16.589  69.685  1.00  0.00    -0.287 C  
BRANCH  23  24
HETATM   24  C   UNL     1     -10.203  17.223  68.587  1.00  0.00    -0.351 A  
HETATM   25  C   UNL     1      -8.831  16.954  68.498  1.00  0.00    -0.251 A  
HETATM   26  C   UNL     1      -8.582  18.593  66.723  1.00  0.00    -0.288 A  
HETATM   27  C   UNL     1      -9.960  18.800  66.736  1.00  0.00    -0.394 A  
HETATM   28  C   UNL     1     -10.766  18.120  67.664  1.00  0.00    -0.364 A  
HETATM   29  C   UNL     1      -8.032  17.642  67.584  1.00  0.00    -0.212 A  
BRANCH  26  30
HETATM   30  O   UNL     1      -7.661  19.277  65.985  1.00  0.00    -0.275 OA 
HETATM   31  C   UNL     1      -6.392  18.681  65.753  1.00  0.00    -0.250 C  
ENDBRANCH  26  30
ENDBRANCH  23  24
ENDBRANCH  22  23
BRANCH  22  32
HETATM   32  C   UNL     1     -12.335  14.659  70.274  1.00  0.00    -0.349 A  
HETATM   33  N   UNL     1     -12.278  13.338  70.521  1.00  0.00    -0.364 NA 
HETATM   34  N   UNL     1     -13.112  15.498  70.968  1.00  0.00    -0.499 NA 
HETATM   35  C   UNL     1     -13.876  14.972  71.945  1.00  0.00    -0.474 A  
HETATM   36  C   UNL     1     -13.110  12.844  71.470  1.00  0.00    -0.298 A  
HETATM   37  C   UNL     1     -13.928  13.632  72.234  1.00  0.00    -0.661 A  
ENDBRANCH  22  32
ENDBRANCH  21  22
ENDBRANCH  20  21
ENDBRANCH  17  20
ENDBRANCH  16  17
ENDBRANCH  15  16
ENDBRANCH  14  15
ENDBRANCH  13  14
ENDBRANCH  12  13
ENDBRANCH  11  12
ENDBRANCH  10  11
ENDBRANCH   9  10
ENDBRANCH   8   9
ENDBRANCH   7   8
ENDBRANCH   6   7
ENDBRANCH   5   6
ENDBRANCH   4   5
ENDBRANCH   3   4
ENDBRANCH   2   3
TORSDOF 22
ENDMDL
MODEL       44
REMARK 921   NORMALIZED FREE ENERGY PREDICTED BY IDOCK:   -4.49 KCAL/MOL
REMARK 922        TOTAL FREE ENERGY PREDICTED BY IDOCK:  -14.72 KCAL/MOL
REMARK 923 INTER-LIGAND FREE ENERGY PREDICTED BY IDOCK:  -10.92 KCAL/MOL
REMARK 924 INTRA-LIGAND FREE ENERGY PREDICTED BY IDOCK:   -3.80 KCAL/MOL
REMARK 927      BINDING AFFINITY PREDICTED BY RF-SCORE:    0.00 PKD
ROOT
HETATM    1  C   UNL     1     -12.834  11.849  63.575  1.00  0.00    -0.435 C  
HETATM    2  C   UNL     1     -11.651  12.799  63.525  1.00  0.00    -0.565 C  
ENDROOT
BRANCH   2   3
HETATM    3  C   UNL     1     -11.793  13.905  64.566  1.00  0.00    -0.449 C  
BRANCH   3   4
HETATM    4  C   UNL     1     -10.497  14.694  64.696  1.00  0.00    -0.207 C  
BRANCH   4   5
HETATM    5  C   UNL     1     -10.617  15.747  65.792  1.00  0.00    -0.369 C  
BRANCH   5   6
HETATM    6  C   UNL     1      -9.253  16.038  66.400  1.00  0.00    -0.339 C  
BRANCH   6   7
HETATM    7  C   UNL     1      -9.043  15.198  67.650  1.00  0.00    -0.181 C  
BRANCH   7   8
HETATM    8  C   UNL     1      -7.784  14.357  67.516  1.00  0.00    -0.210 C  
BRANCH   8   9
HETATM    9  C   UNL     1      -8.157  12.902  67.289  1.00  0.00    -0.164 C  
BRANCH   9  10
HETATM   10  C   UNL     1      -9.616  12.666  67.642  1.00  0.00    -0.188 C  
BRANCH  10  11
HETATM   11  C   UNL     1     -10.144  11.456  66.887  1.00  0.00    -0.245 C  
BRANCH  11  12
HETATM   12  C   UNL     1      -9.229  11.132  65.715  1.00  0.00    -0.234 C  
BRANCH  12  13
HETATM   13  C   UNL     1      -9.507   9.740  65.173  1.00  0.00    -0.338 C  
BRANCH  13  14
HETATM   14  C   UNL     1      -9.905   8.760  66.283  1.00  0.00    -0.342 C  
BRANCH  14  15
HETATM   15  C   UNL     1      -8.726   8.006  66.917  1.00  0.00    -0.136 C  
BRANCH  15  16
HETATM   16  C   UNL     1      -9.004   7.727  68.391  1.00  0.00    -0.132 C  
BRANCH  16  17
HETATM   17  N   UNL     1      -8.242   8.607  69.371  1.00  0.00    -0.111 N  
HETATM   18  C   UNL     1      -7.154   9.414  68.647  1.00  0.00    -0.070 C  
HETATM   19  C   UNL     1      -7.588   7.811  70.490  1.00  0.00    -0.079 C  
BRANCH  17  20
HETATM   20  C   UNL     1      -9.238   9.649  69.968  1.00  0.00    -0.241 C  
BRANCH  20  21
HETATM   21  C   UNL     1     -10.754   9.331  69.782  1.00  0.00    -0.231 C  
BRANCH  21  22
HETATM   22  N   UNL     1     -11.417   9.349  71.083  1.00  0.00    -0.321 NA 
BRANCH  22  23
HETATM   23  C   UNL     1     -12.783   9.874  71.209  1.00  0.00    -0.383 C  
BRANCH  23  24
HETATM   24  C   UNL     1     -12.839  11.389  71.195  1.00  0.00    -0.440 A  
HETATM   25  C   UNL     1     -12.186  12.109  70.187  1.00  0.00    -0.308 A  
HETATM   26  C   UNL     1     -12.700  14.208  71.296  1.00  0.00    -0.361 A  
HETATM   27  C   UNL     1     -13.434  13.510  72.253  1.00  0.00    -0.669 A  
HETATM   28  C   UNL     1     -13.500  12.108  72.205  1.00  0.00    -0.383 A  
HETATM   29  C   UNL     1     -12.110  13.501  70.247  1.00  0.00    -0.425 A  
BRANCH  26  30
HETATM   30  O   UNL     1     -12.428  15.545  71.291  1.00  0.00    -0.359 OA 
HETATM   31  C   UNL     1     -11.418  16.034  70.419  1.00  0.00    -0.377 C  
ENDBRANCH  26  30
ENDBRANCH  23  24
ENDBRANCH  22  23
BRANCH  22  32
HETATM   32  C   UNL     1     -11.139   8.269  71.905  1.00  0.00    -0.292 A  
HETATM   33  N   UNL     1     -11.684   7.075  71.609  1.00  0.00    -0.280 NA 
HETATM   34  N   UNL     1     -10.215   8.432  72.859  1.00  0.00    -0.199 NA 
HETATM   35  C   UNL     1      -9.839   7.341  73.552  1.00  0.00    -0.301 A  
HETATM   36  C   UNL     1     -11.321   6.017  72.374  1.00  0.00    -0.301 A  
HETATM   37  C   UNL     1     -10.377   6.094  73.362  1.00  0.00    -0.253 A  
ENDBRANCH  22  32
ENDBRANCH  21  22
ENDBRANCH  20  21
ENDBRANCH  17  20
ENDBRANCH  16  17
ENDBRANCH  15  16
ENDBRANCH  14  15
ENDBRANCH  13  14
ENDBRANCH  12  13
ENDBRANCH  11  12
ENDBRANCH  10  11
ENDBRANCH   9  10
ENDBRANCH   8   9
ENDBRANCH   7   8
ENDBRANCH   6   7
ENDBRANCH   5   6
ENDBRANCH   4   5
ENDBRANCH   3   4
ENDBRANCH   2   3
TORSDOF 22
ENDMDL
MODEL       45
REMARK 921   NORMALIZED FREE ENERGY PREDICTED BY IDOCK:   -4.49 KCAL/MOL
REMARK 922        TOTAL FREE ENERGY PREDICTED BY IDOCK:  -14.71 KCAL/MOL
REMARK 923 INTER-LIGAND FREE ENERGY PREDICTED BY IDOCK:  -10.90 KCAL/MOL
REMARK 924 INTRA-LIGAND FREE ENERGY PREDICTED BY IDOCK:   -3.81 KCAL/MOL
REMARK 927      BINDING AFFINITY PREDICTED BY RF-SCORE:    0.00 PKD
ROOT
HETATM    1  C   UNL     1     -14.354   8.490  71.899  1.00  0.00    -0.536 C  
HETATM    2  C   UNL     1     -13.395   9.639  72.154  1.00  0.00    -0.545 C  
ENDROOT
BRANCH   2   3
HETATM    3  C   UNL     1     -12.913  10.251  70.842  1.00  0.00    -0.456 C  
BRANCH   3   4
HETATM    4  C   UNL     1     -12.694  11.751  70.993  1.00  0.00    -0.372 C  
BRANCH   4   5
HETATM    5  C   UNL     1     -13.521  12.301  72.148  1.00  0.00    -0.431 C  
BRANCH   5   6
HETATM    6  C   UNL     1     -13.635  13.815  72.046  1.00  0.00    -0.569 C  
BRANCH   6   7
HETATM    7  C   UNL     1     -12.391  14.395  71.392  1.00  0.00    -0.433 C  
BRANCH   7   8
HETATM    8  C   UNL     1     -12.777  15.423  70.340  1.00  0.00    -0.407 C  
BRANCH   8   9
HETATM    9  C   UNL     1     -11.556  15.803  69.520  1.00  0.00    -0.368 C  
BRANCH   9  10
HETATM   10  C   UNL     1     -11.048  14.605  68.735  1.00  0.00    -0.274 C  
BRANCH  10  11
HETATM   11  C   UNL     1     -12.155  14.060  67.845  1.00  0.00    -0.314 C  
BRANCH  11  12
HETATM   12  C   UNL     1     -11.802  14.280  66.381  1.00  0.00    -0.427 C  
BRANCH  12  13
HETATM   13  C   UNL     1     -12.814  13.607  65.468  1.00  0.00    -0.443 C  
BRANCH  13  14
HETATM   14  C   UNL     1     -12.185  12.474  64.649  1.00  0.00    -0.524 C  
BRANCH  14  15
HETATM   15  C   UNL     1     -10.660  12.359  64.792  1.00  0.00    -0.331 C  
BRANCH  15  16
HETATM   16  C   UNL     1     -10.271  10.954  65.242  1.00  0.00    -0.288 C  
BRANCH  16  17
HETATM   17  N   UNL     1      -9.744  10.853  66.666  1.00  0.00    -0.185 N  
HETATM   18  C   UNL     1     -10.895  10.638  67.659  1.00  0.00    -0.292 C  
HETATM   19  C   UNL     1      -8.963  12.087  67.092  1.00  0.00    -0.185 C  
BRANCH  17  20
HETATM   20  C   UNL     1      -8.837   9.588  66.764  1.00  0.00    -0.131 C  
BRANCH  20  21
HETATM   21  C   UNL     1      -9.474   8.250  66.272  1.00  0.00    -0.203 C  
BRANCH  21  22
HETATM   22  N   UNL     1      -9.506   7.294  67.375  1.00  0.00    -0.129 NA 
BRANCH  22  23
HETATM   23  C   UNL     1     -10.784   6.932  68.001  1.00  0.00    -0.218 C  
BRANCH  23  24
HETATM   24  C   UNL     1     -10.778   7.116  69.507  1.00  0.00    -0.255 A  
HETATM   25  C   UNL     1     -10.001   8.124  70.090  1.00  0.00    -0.187 A  
HETATM   26  C   UNL     1     -10.538   7.309  72.314  1.00  0.00    -0.224 A  
HETATM   27  C   UNL     1     -11.389   6.362  71.749  1.00  0.00    -0.337 A  
HETATM   28  C   UNL     1     -11.506   6.264  70.353  1.00  0.00    -0.414 A  
HETATM   29  C   UNL     1      -9.876   8.209  71.477  1.00  0.00    -0.233 A  
BRANCH  26  30
HETATM   30  O   UNL     1     -10.213   7.432  73.634  1.00  0.00    -0.341 OA 
HETATM   31  C   UNL     1     -10.068   6.254  74.414  1.00  0.00    -0.340 C  
ENDBRANCH  26  30
ENDBRANCH  23  24
ENDBRANCH  22  23
BRANCH  22  32
HETATM   32  C   UNL     1      -8.597   6.252  67.283  1.00  0.00    -0.107 A  
HETATM   33  N   UNL     1      -8.802   5.295  66.360  1.00  0.00    -0.120 NA 
HETATM   34  N   UNL     1      -7.476   6.337  68.008  1.00  0.00    -0.088 NA 
HETATM   35  C   UNL     1      -6.529   5.403  67.799  1.00  0.00    -0.048 A  
HETATM   36  C   UNL     1      -7.850   4.340  66.229  1.00  0.00    -0.095 A  
HETATM   37  C   UNL     1      -6.670   4.357  66.923  1.00  0.00    -0.051 A  
ENDBRANCH  22  32
ENDBRANCH  21  22
ENDBRANCH  20  21
ENDBRANCH  17  20
ENDBRANCH  16  17
ENDBRANCH  15  16
ENDBRANCH  14  15
ENDBRANCH  13  14
ENDBRANCH  12  13
ENDBRANCH  11  12
ENDBRANCH  10  11
ENDBRANCH   9  10
ENDBRANCH   8   9
ENDBRANCH   7   8
ENDBRANCH   6   7
ENDBRANCH   5   6
ENDBRANCH   4   5
ENDBRANCH   3   4
ENDBRANCH   2   3
TORSDOF 22
ENDMDL
MODEL       46
REMARK 921   NORMALIZED FREE ENERGY PREDICTED BY IDOCK:   -4.47 KCAL/MOL
REMARK 922        TOTAL FREE ENERGY PREDICTED BY IDOCK:  -14.68 KCAL/MOL
REMARK 923 INTER-LIGAND FREE ENERGY PREDICTED BY IDOCK:  -11.16 KCAL/MOL
REMARK 924 INTRA-LIGAND FREE ENERGY PREDICTED BY IDOCK:   -3.52 KCAL/MOL
REMARK 927      BINDING AFFINITY PREDICTED BY RF-SCORE:    0.00 PKD
ROOT
HETATM    1  C   UNL     1      -8.327   4.032  68.231  1.00  0.00    -0.100 C  
HETATM    2  C   UNL     1      -9.506   4.826  67.696  1.00  0.00    -0.176 C  
ENDROOT
BRANCH   2   3
HETATM    3  C   UNL     1     -10.121   5.696  68.787  1.00  0.00    -0.245 C  
BRANCH   3   4
HETATM    4  C   UNL     1     -10.074   4.988  70.134  1.00  0.00    -0.338 C  
BRANCH   4   5
HETATM    5  C   UNL     1     -11.058   5.622  71.110  1.00  0.00    -0.202 C  
BRANCH   5   6
HETATM    6  C   UNL     1     -11.957   6.615  70.388  1.00  0.00    -0.342 C  
BRANCH   6   7
HETATM    7  C   UNL     1     -12.537   7.615  71.375  1.00  0.00    -0.359 C  
BRANCH   7   8
HETATM    8  C   UNL     1     -11.432   8.227  72.220  1.00  0.00    -0.452 C  
BRANCH   8   9
HETATM    9  C   UNL     1     -10.678   9.266  71.409  1.00  0.00    -0.432 C  
BRANCH   9  10
HETATM   10  C   UNL     1      -9.203   8.912  71.328  1.00  0.00    -0.328 C  
BRANCH  10  11
HETATM   11  C   UNL     1      -8.744   8.926  69.878  1.00  0.00    -0.140 C  
BRANCH  11  12
HETATM   12  C   UNL     1      -9.017  10.288  69.257  1.00  0.00    -0.190 C  
BRANCH  12  13
HETATM   13  C   UNL     1      -8.572  10.326  67.804  1.00  0.00    -0.118 C  
BRANCH  13  14
HETATM   14  C   UNL     1      -7.673  11.531  67.509  1.00  0.00    -0.132 C  
BRANCH  14  15
HETATM   15  C   UNL     1      -8.038  12.801  68.293  1.00  0.00    -0.154 C  
BRANCH  15  16
HETATM   16  C   UNL     1      -8.017  14.019  67.374  1.00  0.00    -0.175 C  
BRANCH  16  17
HETATM   17  N   UNL     1      -8.212  15.359  68.070  1.00  0.00    -0.141 N  
HETATM   18  C   UNL     1      -9.086  16.292  67.221  1.00  0.00    -0.203 C  
HETATM   19  C   UNL     1      -6.896  16.064  68.364  1.00  0.00    -0.124 C  
BRANCH  17  20
HETATM   20  C   UNL     1      -8.994  15.111  69.397  1.00  0.00    -0.176 C  
BRANCH  20  21
HETATM   21  C   UNL     1     -10.267  15.988  69.615  1.00  0.00    -0.265 C  
BRANCH  21  22
HETATM   22  N   UNL     1     -11.428  15.120  69.791  1.00  0.00    -0.276 NA 
BRANCH  22  23
HETATM   23  C   UNL     1     -11.348  13.697  69.435  1.00  0.00    -0.245 C  
BRANCH  23  24
HETATM   24  C   UNL     1     -11.718  13.426  67.990  1.00  0.00    -0.391 A  
HETATM   25  C   UNL     1     -11.578  12.139  67.457  1.00  0.00    -0.413 A  
HETATM   26  C   UNL     1     -12.144  12.952  65.239  1.00  0.00    -0.453 A  
HETATM   27  C   UNL     1     -12.380  14.216  65.775  1.00  0.00    -0.481 A  
HETATM   28  C   UNL     1     -12.166  14.453  67.142  1.00  0.00    -0.257 A  
HETATM   29  C   UNL     1     -11.778  11.912  66.094  1.00  0.00    -0.217 A  
BRANCH  26  30
HETATM   30  O   UNL     1     -12.171  12.606  63.919  1.00  0.00    -0.423 OA 
HETATM   31  C   UNL     1     -11.083  11.865  63.384  1.00  0.00    -0.383 C  
ENDBRANCH  26  30
ENDBRANCH  23  24
ENDBRANCH  22  23
BRANCH  22  32
HETATM   32  C   UNL     1     -12.207  15.390  70.904  1.00  0.00    -0.373 A  
HETATM   33  N   UNL     1     -13.477  14.948  70.927  1.00  0.00    -0.349 NA 
HETATM   34  N   UNL     1     -11.606  15.938  71.967  1.00  0.00    -0.441 NA 
HETATM   35  C   UNL     1     -12.330  16.055  73.097  1.00  0.00    -0.531 A  
HETATM   36  C   UNL     1     -14.186  15.144  72.065  1.00  0.00    -0.577 A  
HETATM   37  C   UNL     1     -13.646  15.686  73.201  1.00  0.00    -0.560 A  
ENDBRANCH  22  32
ENDBRANCH  21  22
ENDBRANCH  20  21
ENDBRANCH  17  20
ENDBRANCH  16  17
ENDBRANCH  15  16
ENDBRANCH  14  15
ENDBRANCH  13  14
ENDBRANCH  12  13
ENDBRANCH  11  12
ENDBRANCH  10  11
ENDBRANCH   9  10
ENDBRANCH   8   9
ENDBRANCH   7   8
ENDBRANCH   6   7
ENDBRANCH   5   6
ENDBRANCH   4   5
ENDBRANCH   3   4
ENDBRANCH   2   3
TORSDOF 22
ENDMDL
MODEL       47
REMARK 921   NORMALIZED FREE ENERGY PREDICTED BY IDOCK:   -4.47 KCAL/MOL
REMARK 922        TOTAL FREE ENERGY PREDICTED BY IDOCK:  -14.68 KCAL/MOL
REMARK 923 INTER-LIGAND FREE ENERGY PREDICTED BY IDOCK:  -10.47 KCAL/MOL
REMARK 924 INTRA-LIGAND FREE ENERGY PREDICTED BY IDOCK:   -4.21 KCAL/MOL
REMARK 927      BINDING AFFINITY PREDICTED BY RF-SCORE:    0.00 PKD
ROOT
HETATM    1  C   UNL     1      -9.451   3.900  64.323  1.00  0.00    -0.161 C  
HETATM    2  C   UNL     1      -8.867   4.960  65.241  1.00  0.00    -0.152 C  
ENDROOT
BRANCH   2   3
HETATM    3  C   UNL     1      -8.091   4.322  66.388  1.00  0.00    -0.102 C  
BRANCH   3   4
HETATM    4  C   UNL     1      -8.956   3.310  67.129  1.00  0.00    -0.177 C  
BRANCH   4   5
HETATM    5  C   UNL     1      -8.328   2.943  68.467  1.00  0.00    -0.085 C  
BRANCH   5   6
HETATM    6  C   UNL     1      -9.243   3.347  69.613  1.00  0.00    -0.225 C  
BRANCH   6   7
HETATM    7  C   UNL     1      -8.972   4.785  70.023  1.00  0.00    -0.139 C  
BRANCH   7   8
HETATM    8  C   UNL     1     -10.207   5.393  70.669  1.00  0.00    -0.323 C  
BRANCH   8   9
HETATM    9  C   UNL     1     -11.015   6.148  69.628  1.00  0.00    -0.459 C  
BRANCH   9  10
HETATM   10  C   UNL     1     -10.127   6.571  68.469  1.00  0.00    -0.172 C  
BRANCH  10  11
HETATM   11  C   UNL     1     -10.980   6.882  67.249  1.00  0.00    -0.406 C  
BRANCH  11  12
HETATM   12  C   UNL     1     -10.660   8.277  66.730  1.00  0.00    -0.226 C  
BRANCH  12  13
HETATM   13  C   UNL     1      -9.186   8.407  66.386  1.00  0.00    -0.253 C  
BRANCH  13  14
HETATM   14  C   UNL     1      -8.844   9.798  65.839  1.00  0.00    -0.175 C  
BRANCH  14  15
HETATM   15  C   UNL     1     -10.038  10.762  65.768  1.00  0.00    -0.320 C  
BRANCH  15  16
HETATM   16  C   UNL     1      -9.634  12.148  66.264  1.00  0.00    -0.237 C  
BRANCH  16  17
HETATM   17  N   UNL     1     -10.659  13.246  66.021  1.00  0.00    -0.282 N  
HETATM   18  C   UNL     1     -11.988  12.654  65.532  1.00  0.00    -0.456 C  
HETATM   19  C   UNL     1     -10.186  14.277  65.007  1.00  0.00    -0.372 C  
BRANCH  17  20
HETATM   20  C   UNL     1     -10.963  13.940  67.386  1.00  0.00    -0.288 C  
BRANCH  20  21
HETATM   21  C   UNL     1     -10.558  13.142  68.664  1.00  0.00    -0.239 C  
BRANCH  21  22
HETATM   22  N   UNL     1     -11.753  12.576  69.282  1.00  0.00    -0.309 NA 
BRANCH  22  23
HETATM   23  C   UNL     1     -12.027  11.136  69.179  1.00  0.00    -0.343 C  
BRANCH  23  24
HETATM   24  C   UNL     1     -11.004  10.286  69.907  1.00  0.00    -0.358 A  
HETATM   25  C   UNL     1     -11.381   9.537  71.028  1.00  0.00    -0.423 A  
HETATM   26  C   UNL     1      -9.071   8.910  71.439  1.00  0.00    -0.248 A  
HETATM   27  C   UNL     1      -8.696   9.573  70.272  1.00  0.00    -0.270 A  
HETATM   28  C   UNL     1      -9.656  10.260  69.512  1.00  0.00    -0.225 A  
HETATM   29  C   UNL     1     -10.421   8.868  71.789  1.00  0.00    -0.431 A  
BRANCH  26  30
HETATM   30  O   UNL     1      -8.240   8.325  72.349  1.00  0.00    -0.138 OA 
HETATM   31  C   UNL     1      -8.723   8.089  73.664  1.00  0.00    -0.268 C  
ENDBRANCH  26  30
ENDBRANCH  23  24
ENDBRANCH  22  23
BRANCH  22  32
HETATM   32  C   UNL     1     -12.123  13.145  70.491  1.00  0.00    -0.306 A  
HETATM   33  N   UNL     1     -11.628  14.354  70.814  1.00  0.00    -0.225 NA 
HETATM   34  N   UNL     1     -13.077  12.534  71.201  1.00  0.00    -0.138 NA 
HETATM   35  C   UNL     1     -13.540  13.169  72.294  1.00  0.00    -0.581 A  
HETATM   36  C   UNL     1     -12.079  14.926  71.956  1.00  0.00    -0.359 A  
HETATM   37  C   UNL     1     -13.061  14.376  72.735  1.00  0.00    -0.595 A  
ENDBRANCH  22  32
ENDBRANCH  21  22
ENDBRANCH  20  21
ENDBRANCH  17  20
ENDBRANCH  16  17
ENDBRANCH  15  16
ENDBRANCH  14  15
ENDBRANCH  13  14
ENDBRANCH  12  13
ENDBRANCH  11  12
ENDBRANCH  10  11
ENDBRANCH   9  10
ENDBRANCH   8   9
ENDBRANCH   7   8
ENDBRANCH   6   7
ENDBRANCH   5   6
ENDBRANCH   4   5
ENDBRANCH   3   4
ENDBRANCH   2   3
TORSDOF 22
ENDMDL
MODEL       48
REMARK 921   NORMALIZED FREE ENERGY PREDICTED BY IDOCK:   -4.47 KCAL/MOL
REMARK 922        TOTAL FREE ENERGY PREDICTED BY IDOCK:  -14.67 KCAL/MOL
REMARK 923 INTER-LIGAND FREE ENERGY PREDICTED BY IDOCK:  -11.66 KCAL/MOL
REMARK 924 INTRA-LIGAND FREE ENERGY PREDICTED BY IDOCK:   -3.01 KCAL/MOL
REMARK 927      BINDING AFFINITY PREDICTED BY RF-SCORE:    0.00 PKD
ROOT
HETATM    1  C   UNL     1     -10.180  18.903  66.012  1.00  0.00    -0.437 C  
HETATM    2  C   UNL     1      -8.947  18.155  66.486  1.00  0.00    -0.288 C  
ENDROOT
BRANCH   2   3
HETATM    3  C   UNL     1      -9.038  16.673  66.138  1.00  0.00    -0.318 C  
BRANCH   3   4
HETATM    4  C   UNL     1     -10.480  16.273  65.849  1.00  0.00    -0.359 C  
BRANCH   4   5
HETATM    5  C   UNL     1     -10.996  15.314  66.914  1.00  0.00    -0.315 C  
BRANCH   5   6
HETATM    6  C   UNL     1     -10.636  13.879  66.557  1.00  0.00    -0.279 C  
BRANCH   6   7
HETATM    7  C   UNL     1     -11.896  13.043  66.402  1.00  0.00    -0.465 C  
BRANCH   7   8
HETATM    8  C   UNL     1     -12.710  13.527  65.213  1.00  0.00    -0.481 C  
BRANCH   8   9
HETATM    9  C   UNL     1     -11.923  13.317  63.930  1.00  0.00    -0.541 C  
BRANCH   9  10
HETATM   10  C   UNL     1     -11.596  11.846  63.741  1.00  0.00    -0.555 C  
BRANCH  10  11
HETATM   11  C   UNL     1     -10.157  11.690  63.274  1.00  0.00    -0.454 C  
BRANCH  11  12
HETATM   12  C   UNL     1      -9.325  11.021  64.359  1.00  0.00    -0.223 C  
BRANCH  12  13
HETATM   13  C   UNL     1     -10.197  10.181  65.277  1.00  0.00    -0.261 C  
BRANCH  13  14
HETATM   14  C   UNL     1      -9.684  10.186  66.721  1.00  0.00    -0.235 C  
BRANCH  14  15
HETATM   15  C   UNL     1      -9.319   8.798  67.269  1.00  0.00    -0.181 C  
BRANCH  15  16
HETATM   16  C   UNL     1     -10.424   7.794  66.956  1.00  0.00    -0.349 C  
BRANCH  16  17
HETATM   17  N   UNL     1     -10.164   6.374  67.436  1.00  0.00    -0.155 N  
HETATM   18  C   UNL     1      -8.730   6.231  67.966  1.00  0.00    -0.114 C  
HETATM   19  C   UNL     1     -10.382   5.336  66.345  1.00  0.00    -0.268 C  
BRANCH  17  20
HETATM   20  C   UNL     1     -11.109   6.085  68.644  1.00  0.00    -0.211 C  
BRANCH  20  21
HETATM   21  C   UNL     1     -10.427   5.515  69.926  1.00  0.00    -0.316 C  
BRANCH  21  22
HETATM   22  N   UNL     1     -10.831   6.307  71.084  1.00  0.00    -0.254 NA 
BRANCH  22  23
HETATM   23  C   UNL     1     -12.193   6.851  71.168  1.00  0.00    -0.379 C  
BRANCH  23  24
HETATM   24  C   UNL     1     -12.222   8.365  71.239  1.00  0.00    -0.305 A  
HETATM   25  C   UNL     1     -13.227   9.016  71.966  1.00  0.00    -0.486 A  
HETATM   26  C   UNL     1     -12.458  11.179  71.170  1.00  0.00    -0.393 A  
HETATM   27  C   UNL     1     -11.398  10.550  70.521  1.00  0.00    -0.400 A  
HETATM   28  C   UNL     1     -11.282   9.151  70.553  1.00  0.00    -0.309 A  
HETATM   29  C   UNL     1     -13.347  10.406  71.919  1.00  0.00    -0.469 A  
BRANCH  26  30
HETATM   30  O   UNL     1     -12.782  12.503  71.111  1.00  0.00    -0.354 OA 
HETATM   31  C   UNL     1     -12.041  13.351  70.246  1.00  0.00    -0.349 C  
ENDBRANCH  26  30
ENDBRANCH  23  24
ENDBRANCH  22  23
BRANCH  22  32
HETATM   32  C   UNL     1     -10.301   5.897  72.297  1.00  0.00    -0.198 A  
HETATM   33  N   UNL     1     -11.082   5.195  73.139  1.00  0.00    -0.304 NA 
HETATM   34  N   UNL     1      -8.992   6.082  72.500  1.00  0.00    -0.132 NA 
HETATM   35  C   UNL     1      -8.454   5.545  73.611  1.00  0.00    -0.111 A  
HETATM   36  C   UNL     1     -10.511   4.728  74.275  1.00  0.00    -0.287 A  
HETATM   37  C   UNL     1      -9.178   4.862  74.555  1.00  0.00    -0.120 A  
ENDBRANCH  22  32
ENDBRANCH  21  22
ENDBRANCH  20  21
ENDBRANCH  17  20
ENDBRANCH  16  17
ENDBRANCH  15  16
ENDBRANCH  14  15
ENDBRANCH  13  14
ENDBRANCH  12  13
ENDBRANCH  11  12
ENDBRANCH  10  11
ENDBRANCH   9  10
ENDBRANCH   8   9
ENDBRANCH   7   8
ENDBRANCH   6   7
ENDBRANCH   5   6
ENDBRANCH   4   5
ENDBRANCH   3   4
ENDBRANCH   2   3
TORSDOF 22
ENDMDL
MODEL       49
REMARK 921   NORMALIZED FREE ENERGY PREDICTED BY IDOCK:   -4.44 KCAL/MOL
REMARK 922        TOTAL FREE ENERGY PREDICTED BY IDOCK:  -14.60 KCAL/MOL
REMARK 923 INTER-LIGAND FREE ENERGY PREDICTED BY IDOCK:  -11.10 KCAL/MOL
REMARK 924 INTRA-LIGAND FREE ENERGY PREDICTED BY IDOCK:   -3.50 KCAL/MOL
REMARK 927      BINDING AFFINITY PREDICTED BY RF-SCORE:    0.00 PKD
ROOT
HETATM    1  C   UNL     1     -12.383  15.711  74.552  1.00  0.00    -0.776 C  
HETATM    2  C   UNL     1     -12.564  16.019  73.076  1.00  0.00    -0.605 C  
ENDROOT
BRANCH   2   3
HETATM    3  C   UNL     1     -13.970  15.654  72.609  1.00  0.00    -0.608 C  
BRANCH   3   4
HETATM    4  C   UNL     1     -13.915  14.727  71.402  1.00  0.00    -0.512 C  
BRANCH   4   5
HETATM    5  C   UNL     1     -13.253  13.405  71.769  1.00  0.00    -0.495 C  
BRANCH   5   6
HETATM    6  C   UNL     1     -12.293  12.969  70.673  1.00  0.00    -0.391 C  
BRANCH   6   7
HETATM    7  C   UNL     1     -12.124  14.078  69.647  1.00  0.00    -0.408 C  
BRANCH   7   8
HETATM    8  C   UNL     1     -11.976  13.492  68.253  1.00  0.00    -0.377 C  
BRANCH   8   9
HETATM    9  C   UNL     1     -11.717  14.604  67.251  1.00  0.00    -0.406 C  
BRANCH   9  10
HETATM   10  C   UNL     1     -11.245  14.028  65.926  1.00  0.00    -0.308 C  
BRANCH  10  11
HETATM   11  C   UNL     1     -11.556  12.540  65.866  1.00  0.00    -0.454 C  
BRANCH  11  12
HETATM   12  C   UNL     1     -10.488  11.816  65.059  1.00  0.00    -0.332 C  
BRANCH  12  13
HETATM   13  C   UNL     1     -10.361  10.367  65.498  1.00  0.00    -0.265 C  
BRANCH  13  14
HETATM   14  C   UNL     1      -9.037   9.743  65.043  1.00  0.00    -0.280 C  
BRANCH  14  15
HETATM   15  C   UNL     1      -8.351   8.867  66.103  1.00  0.00    -0.125 C  
BRANCH  15  16
HETATM   16  C   UNL     1      -9.278   7.737  66.541  1.00  0.00    -0.184 C  
BRANCH  16  17
HETATM   17  N   UNL     1      -8.625   6.659  67.396  1.00  0.00    -0.119 N  
HETATM   18  C   UNL     1      -7.172   7.029  67.724  1.00  0.00    -0.091 C  
HETATM   19  C   UNL     1      -8.638   5.293  66.728  1.00  0.00    -0.106 C  
BRANCH  17  20
HETATM   20  C   UNL     1      -9.381   6.594  68.760  1.00  0.00    -0.131 C  
BRANCH  20  21
HETATM   21  C   UNL     1     -10.509   7.652  68.969  1.00  0.00    -0.205 C  
BRANCH  21  22
HETATM   22  N   UNL     1     -10.619   7.968  70.390  1.00  0.00    -0.220 NA 
BRANCH  22  23
HETATM   23  C   UNL     1      -9.617   8.827  71.036  1.00  0.00    -0.229 C  
BRANCH  23  24
HETATM   24  C   UNL     1      -8.963   9.799  70.074  1.00  0.00    -0.255 A  
HETATM   25  C   UNL     1      -7.567   9.893  70.008  1.00  0.00    -0.179 A  
HETATM   26  C   UNL     1      -7.725  11.784  68.491  1.00  0.00    -0.137 A  
HETATM   27  C   UNL     1      -9.110  11.640  68.473  1.00  0.00    -0.157 A  
HETATM   28  C   UNL     1      -9.726  10.654  69.262  1.00  0.00    -0.181 A  
HETATM   29  C   UNL     1      -6.960  10.884  69.234  1.00  0.00    -0.112 A  
BRANCH  26  30
HETATM   30  O   UNL     1      -6.999  12.774  67.896  1.00  0.00    -0.088 OA 
HETATM   31  C   UNL     1      -7.577  14.065  67.771  1.00  0.00    -0.170 C  
ENDBRANCH  26  30
ENDBRANCH  23  24
ENDBRANCH  22  23
BRANCH  22  32
HETATM   32  C   UNL     1     -11.911   8.142  70.860  1.00  0.00    -0.218 A  
HETATM   33  N   UNL     1     -12.681   7.055  71.049  1.00  0.00    -0.324 NA 
HETATM   34  N   UNL     1     -12.271   9.368  71.255  1.00  0.00    -0.327 NA 
HETATM   35  C   UNL     1     -13.470   9.500  71.853  1.00  0.00    -0.424 A  
HETATM   36  C   UNL     1     -13.905   7.246  71.598  1.00  0.00    -0.349 A  
HETATM   37  C   UNL     1     -14.348   8.463  72.039  1.00  0.00    -0.555 A  
ENDBRANCH  22  32
ENDBRANCH  21  22
ENDBRANCH  20  21
ENDBRANCH  17  20
ENDBRANCH  16  17
ENDBRANCH  15  16
ENDBRANCH  14  15
ENDBRANCH  13  14
ENDBRANCH  12  13
ENDBRANCH  11  12
ENDBRANCH  10  11
ENDBRANCH   9  10
ENDBRANCH   8   9
ENDBRANCH   7   8
ENDBRANCH   6   7
ENDBRANCH   5   6
ENDBRANCH   4   5
ENDBRANCH   3   4
ENDBRANCH   2   3
TORSDOF 22
ENDMDL
MODEL       50
REMARK 921   NORMALIZED FREE ENERGY PREDICTED BY IDOCK:   -4.42 KCAL/MOL
REMARK 922        TOTAL FREE ENERGY PREDICTED BY IDOCK:  -14.56 KCAL/MOL
REMARK 923 INTER-LIGAND FREE ENERGY PREDICTED BY IDOCK:  -11.17 KCAL/MOL
REMARK 924 INTRA-LIGAND FREE ENERGY PREDICTED BY IDOCK:   -3.40 KCAL/MOL
REMARK 927      BINDING AFFINITY PREDICTED BY RF-SCORE:    0.00 PKD
ROOT
HETATM    1  C   UNL     1      -9.188   5.118  66.391  1.00  0.00    -0.141 C  
HETATM    2  C   UNL     1      -9.370   5.999  67.614  1.00  0.00    -0.112 C  
ENDROOT
BRANCH   2   3
HETATM    3  C   UNL     1     -10.841   6.339  67.830  1.00  0.00    -0.417 C  
BRANCH   3   4
HETATM    4  C   UNL     1     -11.213   6.219  69.303  1.00  0.00    -0.458 C  
BRANCH   4   5
HETATM    5  C   UNL     1      -9.997   5.830  70.135  1.00  0.00    -0.258 C  
BRANCH   5   6
HETATM    6  C   UNL     1     -10.430   5.130  71.414  1.00  0.00    -0.249 C  
BRANCH   6   7
HETATM    7  C   UNL     1     -11.406   6.001  72.188  1.00  0.00    -0.351 C  
BRANCH   7   8
HETATM    8  C   UNL     1     -10.664   7.112  72.913  1.00  0.00    -0.339 C  
BRANCH   8   9
HETATM    9  C   UNL     1     -11.115   8.463  72.385  1.00  0.00    -0.431 C  
BRANCH   9  10
HETATM   10  C   UNL     1     -12.582   8.419  71.994  1.00  0.00    -0.400 C  
BRANCH  10  11
HETATM   11  C   UNL     1     -13.030   9.787  71.503  1.00  0.00    -0.504 C  
BRANCH  11  12
HETATM   12  C   UNL     1     -11.820  10.621  71.107  1.00  0.00    -0.339 C  
BRANCH  12  13
HETATM   13  C   UNL     1     -11.928  11.091  69.666  1.00  0.00    -0.424 C  
BRANCH  13  14
HETATM   14  C   UNL     1     -11.273  10.107  68.690  1.00  0.00    -0.223 C  
BRANCH  14  15
HETATM   15  C   UNL     1      -9.814   9.759  69.024  1.00  0.00    -0.183 C  
BRANCH  15  16
HETATM   16  C   UNL     1      -8.900  10.122  67.857  1.00  0.00    -0.125 C  
BRANCH  16  17
HETATM   17  N   UNL     1      -7.870  11.203  68.154  1.00  0.00    -0.112 N  
HETATM   18  C   UNL     1      -6.985  11.465  66.928  1.00  0.00    -0.140 C  
HETATM   19  C   UNL     1      -6.972  10.851  69.331  1.00  0.00    -0.125 C  
BRANCH  17  20
HETATM   20  C   UNL     1      -8.629  12.535  68.442  1.00  0.00    -0.123 C  
BRANCH  20  21
HETATM   21  C   UNL     1      -9.086  13.346  67.189  1.00  0.00    -0.235 C  
BRANCH  21  22
HETATM   22  N   UNL     1     -10.532  13.216  67.029  1.00  0.00    -0.247 NA 
BRANCH  22  23
HETATM   23  C   UNL     1     -11.440  14.091  67.783  1.00  0.00    -0.322 C  
BRANCH  23  24
HETATM   24  C   UNL     1     -10.927  15.512  67.905  1.00  0.00    -0.316 A  
HETATM   25  C   UNL     1     -10.790  16.106  69.166  1.00  0.00    -0.298 A  
HETATM   26  C   UNL     1     -10.232  18.239  68.147  1.00  0.00    -0.387 A  
HETATM   27  C   UNL     1     -10.272  17.637  66.891  1.00  0.00    -0.334 A  
HETATM   28  C   UNL     1     -10.619  16.281  66.771  1.00  0.00    -0.257 A  
HETATM   29  C   UNL     1     -10.458  17.457  69.280  1.00  0.00    -0.171 A  
BRANCH  26  30
HETATM   30  O   UNL     1     -10.052  19.566  68.411  1.00  0.00    -0.401 OA 
HETATM   31  C   UNL     1      -9.910  20.467  67.323  1.00  0.00    -0.456 C  
ENDBRANCH  26  30
ENDBRANCH  23  24
ENDBRANCH  22  23
BRANCH  22  32
HETATM   32  C   UNL     1     -10.961  12.912  65.747  1.00  0.00    -0.278 A  
HETATM   33  N   UNL     1     -10.043  12.601  64.815  1.00  0.00    -0.252 NA 
HETATM   34  N   UNL     1     -12.277  12.788  65.544  1.00  0.00    -0.504 NA 
HETATM   35  C   UNL     1     -12.680  12.343  64.339  1.00  0.00    -0.342 A  
HETATM   36  C   UNL     1     -10.496  12.217  63.597  1.00  0.00    -0.460 A  
HETATM   37  C   UNL     1     -11.824  12.053  63.308  1.00  0.00    -0.450 A  
ENDBRANCH  22  32
ENDBRANCH  21  22
ENDBRANCH  20  21
ENDBRANCH  17  20
ENDBRANCH  16  17
ENDBRANCH  15  16
ENDBRANCH  14  15
ENDBRANCH  13  14
ENDBRANCH  12  13
ENDBRANCH  11  12
ENDBRANCH  10  11
ENDBRANCH   9  10
ENDBRANCH   8   9
ENDBRANCH   7   8
ENDBRANCH   6   7
ENDBRANCH   5   6
ENDBRANCH   4   5
ENDBRANCH   3   4
ENDBRANCH   2   3
TORSDOF 22
ENDMDL
MODEL       51
REMARK 921   NORMALIZED FREE ENERGY PREDICTED BY IDOCK:   -4.42 KCAL/MOL
REMARK 922        TOTAL FREE ENERGY PREDICTED BY IDOCK:  -14.54 KCAL/MOL
REMARK 923 INTER-LIGAND FREE ENERGY PREDICTED BY IDOCK:  -10.48 KCAL/MOL
REMARK 924 INTRA-LIGAND FREE ENERGY PREDICTED BY IDOCK:   -4.06 KCAL/MOL
REMARK 927      BINDING AFFINITY PREDICTED BY RF-SCORE:    0.00 PKD
ROOT
HETATM    1  C   UNL     1     -10.174   4.561  65.657  1.00  0.00    -0.275 C  
HETATM    2  C   UNL     1      -8.696   4.755  65.946  1.00  0.00    -0.124 C  
ENDROOT
BRANCH   2   3
HETATM    3  C   UNL     1      -8.417   4.681  67.443  1.00  0.00    -0.104 C  
BRANCH   3   4
HETATM    4  C   UNL     1      -9.700   4.418  68.220  1.00  0.00    -0.171 C  
BRANCH   4   5
HETATM    5  C   UNL     1      -9.610   5.006  69.623  1.00  0.00    -0.240 C  
BRANCH   5   6
HETATM    6  C   UNL     1     -10.879   5.774  69.961  1.00  0.00    -0.403 C  
BRANCH   6   7
HETATM    7  C   UNL     1     -10.564   6.924  70.904  1.00  0.00    -0.243 C  
BRANCH   7   8
HETATM    8  C   UNL     1      -9.081   6.945  71.235  1.00  0.00    -0.149 C  
BRANCH   8   9
HETATM    9  C   UNL     1      -8.506   8.320  70.939  1.00  0.00    -0.144 C  
BRANCH   9  10
HETATM   10  C   UNL     1      -7.254   8.201  70.086  1.00  0.00    -0.056 C  
BRANCH  10  11
HETATM   11  C   UNL     1      -7.635   8.068  68.620  1.00  0.00    -0.100 C  
BRANCH  11  12
HETATM   12  C   UNL     1      -8.702   9.092  68.262  1.00  0.00    -0.129 C  
BRANCH  12  13
HETATM   13  C   UNL     1      -9.894   8.429  67.592  1.00  0.00    -0.222 C  
BRANCH  13  14
HETATM   14  C   UNL     1     -10.196   9.041  66.220  1.00  0.00    -0.237 C  
BRANCH  14  15
HETATM   15  C   UNL     1     -10.141  10.576  66.184  1.00  0.00    -0.306 C  
BRANCH  15  16
HETATM   16  C   UNL     1     -10.373  11.085  64.764  1.00  0.00    -0.324 C  
BRANCH  16  17
HETATM   17  N   UNL     1     -11.293  12.292  64.651  1.00  0.00    -0.313 N  
HETATM   18  C   UNL     1     -12.433  12.018  63.661  1.00  0.00    -0.525 C  
HETATM   19  C   UNL     1     -10.559  13.549  64.207  1.00  0.00    -0.287 C  
BRANCH  17  20
HETATM   20  C   UNL     1     -11.963  12.528  66.040  1.00  0.00    -0.392 C  
BRANCH  20  21
HETATM   21  C   UNL     1     -12.191  14.017  66.446  1.00  0.00    -0.460 C  
BRANCH  21  22
HETATM   22  N   UNL     1     -11.438  14.309  67.663  1.00  0.00    -0.327 NA 
BRANCH  22  23
HETATM   23  C   UNL     1     -10.621  13.264  68.293  1.00  0.00    -0.251 C  
BRANCH  23  24
HETATM   24  C   UNL     1     -11.344  12.544  69.416  1.00  0.00    -0.275 A  
HETATM   25  C   UNL     1     -11.228  11.155  69.551  1.00  0.00    -0.341 A  
HETATM   26  C   UNL     1     -12.887  11.149  71.326  1.00  0.00    -0.412 A  
HETATM   27  C   UNL     1     -12.939  12.540  71.266  1.00  0.00    -0.301 A  
HETATM   28  C   UNL     1     -12.174  13.234  70.314  1.00  0.00    -0.391 A  
HETATM   29  C   UNL     1     -12.002  10.469  70.488  1.00  0.00    -0.436 A  
BRANCH  26  30
HETATM   30  O   UNL     1     -13.669  10.334  72.091  1.00  0.00    -0.259 OA 
HETATM   31  C   UNL     1     -13.196   9.032  72.407  1.00  0.00    -0.447 C  
ENDBRANCH  26  30
ENDBRANCH  23  24
ENDBRANCH  22  23
BRANCH  22  32
HETATM   32  C   UNL     1     -10.895  15.582  67.734  1.00  0.00    -0.309 A  
HETATM   33  N   UNL     1     -10.702  16.267  66.592  1.00  0.00    -0.252 NA 
HETATM   34  N   UNL     1     -10.740  16.127  68.945  1.00  0.00    -0.261 NA 
HETATM   35  C   UNL     1     -10.359  17.417  69.002  1.00  0.00    -0.319 A  
HETATM   36  C   UNL     1     -10.259  17.543  66.697  1.00  0.00    -0.332 A  
HETATM   37  C   UNL     1     -10.085  18.180  67.896  1.00  0.00    -0.366 A  
ENDBRANCH  22  32
ENDBRANCH  21  22
ENDBRANCH  20  21
ENDBRANCH  17  20
ENDBRANCH  16  17
ENDBRANCH  15  16
ENDBRANCH  14  15
ENDBRANCH  13  14
ENDBRANCH  12  13
ENDBRANCH  11  12
ENDBRANCH  10  11
ENDBRANCH   9  10
ENDBRANCH   8   9
ENDBRANCH   7   8
ENDBRANCH   6   7
ENDBRANCH   5   6
ENDBRANCH   4   5
ENDBRANCH   3   4
ENDBRANCH   2   3
TORSDOF 22
ENDMDL
MODEL       52
REMARK 921   NORMALIZED FREE ENERGY PREDICTED BY IDOCK:   -4.38 KCAL/MOL
REMARK 922        TOTAL FREE ENERGY PREDICTED BY IDOCK:  -14.47 KCAL/MOL
REMARK 923 INTER-LIGAND FREE ENERGY PREDICTED BY IDOCK:  -10.62 KCAL/MOL
REMARK 924 INTRA-LIGAND FREE ENERGY PREDICTED BY IDOCK:   -3.85 KCAL/MOL
REMARK 927      BINDING AFFINITY PREDICTED BY RF-SCORE:    0.00 PKD
ROOT
HETATM    1  C   UNL     1      -6.591   5.729  69.719  1.00  0.00    -0.047 C  
HETATM    2  C   UNL     1      -7.968   6.348  69.887  1.00  0.00    -0.116 C  
ENDROOT
BRANCH   2   3
HETATM    3  C   UNL     1      -9.035   5.502  69.200  1.00  0.00    -0.120 C  
BRANCH   3   4
HETATM    4  C   UNL     1     -10.115   5.086  70.190  1.00  0.00    -0.338 C  
BRANCH   4   5
HETATM    5  C   UNL     1      -9.566   4.081  71.194  1.00  0.00    -0.242 C  
BRANCH   5   6
HETATM    6  C   UNL     1     -10.201   4.293  72.561  1.00  0.00    -0.238 C  
BRANCH   6   7
HETATM    7  C   UNL     1      -9.137   4.645  73.588  1.00  0.00    -0.105 C  
BRANCH   7   8
HETATM    8  C   UNL     1      -9.058   6.152  73.772  1.00  0.00    -0.131 C  
BRANCH   8   9
HETATM    9  C   UNL     1     -10.452   6.753  73.708  1.00  0.00    -0.383 C  
BRANCH   9  10
HETATM   10  C   UNL     1     -10.449   8.016  72.863  1.00  0.00    -0.402 C  
BRANCH  10  11
HETATM   11  C   UNL     1     -11.527   7.928  71.793  1.00  0.00    -0.313 C  
BRANCH  11  12
HETATM   12  C   UNL     1     -11.076   8.660  70.538  1.00  0.00    -0.268 C  
BRANCH  12  13
HETATM   13  C   UNL     1     -11.104  10.165  70.743  1.00  0.00    -0.372 C  
BRANCH  13  14
HETATM   14  C   UNL     1     -12.483  10.658  71.197  1.00  0.00    -0.523 C  
BRANCH  14  15
HETATM   15  C   UNL     1     -12.756  12.140  70.900  1.00  0.00    -0.280 C  
BRANCH  15  16
HETATM   16  C   UNL     1     -13.238  12.855  72.159  1.00  0.00    -0.448 C  
BRANCH  16  17
HETATM   17  N   UNL     1     -13.075  14.369  72.146  1.00  0.00    -0.342 N  
HETATM   18  C   UNL     1     -12.759  14.895  73.554  1.00  0.00    -0.499 C  
HETATM   19  C   UNL     1     -14.311  15.088  71.628  1.00  0.00    -0.584 C  
BRANCH  17  20
HETATM   20  C   UNL     1     -11.841  14.720  71.259  1.00  0.00    -0.335 C  
BRANCH  20  21
HETATM   21  C   UNL     1     -12.047  15.871  70.225  1.00  0.00    -0.270 C  
BRANCH  21  22
HETATM   22  N   UNL     1     -11.317  15.558  69.000  1.00  0.00    -0.302 NA 
BRANCH  22  23
HETATM   23  C   UNL     1     -11.918  14.683  67.984  1.00  0.00    -0.257 C  
BRANCH  23  24
HETATM   24  C   UNL     1     -11.106  13.427  67.731  1.00  0.00    -0.292 A  
HETATM   25  C   UNL     1     -11.656  12.371  66.993  1.00  0.00    -0.434 A  
HETATM   26  C   UNL     1      -9.724  10.978  67.471  1.00  0.00    -0.172 A  
HETATM   27  C   UNL     1      -9.126  12.052  68.126  1.00  0.00    -0.191 A  
HETATM   28  C   UNL     1      -9.814  13.270  68.257  1.00  0.00    -0.231 A  
HETATM   29  C   UNL     1     -10.974  11.158  66.878  1.00  0.00    -0.333 A  
BRANCH  26  30
HETATM   30  O   UNL     1      -9.245   9.703  67.387  1.00  0.00    -0.130 OA 
HETATM   31  C   UNL     1     -10.068   8.700  66.809  1.00  0.00    -0.296 C  
ENDBRANCH  26  30
ENDBRANCH  23  24
ENDBRANCH  22  23
BRANCH  22  32
HETATM   32  C   UNL     1     -10.552  16.593  68.485  1.00  0.00    -0.338 A  
HETATM   33  N   UNL     1      -9.411  16.928  69.115  1.00  0.00    -0.183 NA 
HETATM   34  N   UNL     1     -10.905  17.098  67.298  1.00  0.00    -0.193 NA 
HETATM   35  C   UNL     1     -10.073  17.993  66.732  1.00  0.00    -0.356 A  
HETATM   36  C   UNL     1      -8.637  17.879  68.538  1.00  0.00    -0.293 A  
HETATM   37  C   UNL     1      -8.918  18.439  67.321  1.00  0.00    -0.265 A  
ENDBRANCH  22  32
ENDBRANCH  21  22
ENDBRANCH  20  21
ENDBRANCH  17  20
ENDBRANCH  16  17
ENDBRANCH  15  16
ENDBRANCH  14  15
ENDBRANCH  13  14
ENDBRANCH  12  13
ENDBRANCH  11  12
ENDBRANCH  10  11
ENDBRANCH   9  10
ENDBRANCH   8   9
ENDBRANCH   7   8
ENDBRANCH   6   7
ENDBRANCH   5   6
ENDBRANCH   4   5
ENDBRANCH   3   4
ENDBRANCH   2   3
TORSDOF 22
ENDMDL
MODEL       53
REMARK 921   NORMALIZED FREE ENERGY PREDICTED BY IDOCK:   -4.37 KCAL/MOL
REMARK 922        TOTAL FREE ENERGY PREDICTED BY IDOCK:  -14.44 KCAL/MOL
REMARK 923 INTER-LIGAND FREE ENERGY PREDICTED BY IDOCK:  -11.06 KCAL/MOL
REMARK 924 INTRA-LIGAND FREE ENERGY PREDICTED BY IDOCK:   -3.38 KCAL/MOL
REMARK 927      BINDING AFFINITY PREDICTED BY RF-SCORE:    0.00 PKD
ROOT
HETATM    1  C   UNL     1     -10.504  19.998  66.162  1.00  0.00    -0.526 C  
HETATM    2  C   UNL     1     -10.727  18.888  67.174  1.00  0.00    -0.506 C  
ENDROOT
BRANCH   2   3
HETATM    3  C   UNL     1      -9.516  18.730  68.088  1.00  0.00    -0.365 C  
BRANCH   3   4
HETATM    4  C   UNL     1      -9.231  17.258  68.358  1.00  0.00    -0.268 C  
BRANCH   4   5
HETATM    5  C   UNL     1     -10.461  16.569  68.935  1.00  0.00    -0.304 C  
BRANCH   5   6
HETATM    6  C   UNL     1     -10.050  15.398  69.815  1.00  0.00    -0.266 C  
BRANCH   6   7
HETATM    7  C   UNL     1     -11.108  15.139  70.875  1.00  0.00    -0.289 C  
BRANCH   7   8
HETATM    8  C   UNL     1     -12.410  15.830  70.504  1.00  0.00    -0.388 C  
BRANCH   8   9
HETATM    9  C   UNL     1     -13.575  15.135  71.187  1.00  0.00    -0.525 C  
BRANCH   9  10
HETATM   10  C   UNL     1     -13.090  14.331  72.381  1.00  0.00    -0.519 C  
BRANCH  10  11
HETATM   11  C   UNL     1     -13.730  12.952  72.374  1.00  0.00    -0.530 C  
BRANCH  11  12
HETATM   12  C   UNL     1     -12.790  11.943  71.729  1.00  0.00    -0.389 C  
BRANCH  12  13
HETATM   13  C   UNL     1     -13.232  10.519  72.024  1.00  0.00    -0.483 C  
BRANCH  13  14
HETATM   14  C   UNL     1     -12.430   9.491  71.218  1.00  0.00    -0.432 C  
BRANCH  14  15
HETATM   15  C   UNL     1     -11.705   8.440  72.073  1.00  0.00    -0.417 C  
BRANCH  15  16
HETATM   16  C   UNL     1     -10.204   8.714  72.092  1.00  0.00    -0.323 C  
BRANCH  16  17
HETATM   17  N   UNL     1      -9.344   7.658  71.411  1.00  0.00    -0.140 N  
HETATM   18  C   UNL     1     -10.215   6.680  70.610  1.00  0.00    -0.189 C  
HETATM   19  C   UNL     1      -8.503   6.861  72.396  1.00  0.00    -0.114 C  
BRANCH  17  20
HETATM   20  C   UNL     1      -8.421   8.373  70.376  1.00  0.00    -0.130 C  
BRANCH  20  21
HETATM   21  C   UNL     1      -9.003   9.661  69.715  1.00  0.00    -0.211 C  
BRANCH  21  22
HETATM   22  N   UNL     1      -9.199   9.427  68.287  1.00  0.00    -0.131 NA 
BRANCH  22  23
HETATM   23  C   UNL     1     -10.554   9.419  67.719  1.00  0.00    -0.258 C  
BRANCH  23  24
HETATM   24  C   UNL     1     -11.068  10.808  67.396  1.00  0.00    -0.363 A  
HETATM   25  C   UNL     1     -11.002  11.297  66.086  1.00  0.00    -0.252 A  
HETATM   26  C   UNL     1     -11.769  13.482  66.817  1.00  0.00    -0.391 A  
HETATM   27  C   UNL     1     -11.931  12.981  68.107  1.00  0.00    -0.322 A  
HETATM   28  C   UNL     1     -11.580  11.652  68.396  1.00  0.00    -0.376 A  
HETATM   29  C   UNL     1     -11.338  12.622  65.806  1.00  0.00    -0.370 A  
BRANCH  26  30
HETATM   30  O   UNL     1     -11.930  14.777  66.418  1.00  0.00    -0.299 OA 
HETATM   31  C   UNL     1     -11.142  15.263  65.341  1.00  0.00    -0.347 C  
ENDBRANCH  26  30
ENDBRANCH  23  24
ENDBRANCH  22  23
BRANCH  22  32
HETATM   32  C   UNL     1      -8.233   9.974  67.458  1.00  0.00    -0.114 A  
HETATM   33  N   UNL     1      -7.560  11.060  67.879  1.00  0.00    -0.093 NA 
HETATM   34  N   UNL     1      -7.908   9.299  66.350  1.00  0.00    -0.103 NA 
HETATM   35  C   UNL     1      -6.864   9.753  65.630  1.00  0.00    -0.096 A  
HETATM   36  C   UNL     1      -6.558  11.517  67.090  1.00  0.00    -0.124 A  
HETATM   37  C   UNL     1      -6.153  10.882  65.948  1.00  0.00    -0.103 A  
ENDBRANCH  22  32
ENDBRANCH  21  22
ENDBRANCH  20  21
ENDBRANCH  17  20
ENDBRANCH  16  17
ENDBRANCH  15  16
ENDBRANCH  14  15
ENDBRANCH  13  14
ENDBRANCH  12  13
ENDBRANCH  11  12
ENDBRANCH  10  11
ENDBRANCH   9  10
ENDBRANCH   8   9
ENDBRANCH   7   8
ENDBRANCH   6   7
ENDBRANCH   5   6
ENDBRANCH   4   5
ENDBRANCH   3   4
ENDBRANCH   2   3
TORSDOF 22
ENDMDL
MODEL       54
REMARK 921   NORMALIZED FREE ENERGY PREDICTED BY IDOCK:   -4.36 KCAL/MOL
REMARK 922        TOTAL FREE ENERGY PREDICTED BY IDOCK:  -14.41 KCAL/MOL
REMARK 923 INTER-LIGAND FREE ENERGY PREDICTED BY IDOCK:  -11.18 KCAL/MOL
REMARK 924 INTRA-LIGAND FREE ENERGY PREDICTED BY IDOCK:   -3.24 KCAL/MOL
REMARK 927      BINDING AFFINITY PREDICTED BY RF-SCORE:    0.00 PKD
ROOT
HETATM    1  C   UNL     1     -11.354   4.712  73.256  1.00  0.00    -0.393 C  
HETATM    2  C   UNL     1     -10.232   5.299  74.094  1.00  0.00    -0.279 C  
ENDROOT
BRANCH   2   3
HETATM    3  C   UNL     1      -9.286   6.132  73.235  1.00  0.00    -0.131 C  
BRANCH   3   4
HETATM    4  C   UNL     1      -9.435   7.615  73.549  1.00  0.00    -0.347 C  
BRANCH   4   5
HETATM    5  C   UNL     1      -9.824   8.393  72.297  1.00  0.00    -0.383 C  
BRANCH   5   6
HETATM    6  C   UNL     1     -11.313   8.702  72.304  1.00  0.00    -0.411 C  
BRANCH   6   7
HETATM    7  C   UNL     1     -12.009   7.974  71.165  1.00  0.00    -0.297 C  
BRANCH   7   8
HETATM    8  C   UNL     1     -10.990   7.493  70.144  1.00  0.00    -0.267 C  
BRANCH   8   9
HETATM    9  C   UNL     1     -11.317   6.072  69.720  1.00  0.00    -0.344 C  
BRANCH   9  10
HETATM   10  C   UNL     1     -10.397   5.627  68.595  1.00  0.00    -0.277 C  
BRANCH  10  11
HETATM   11  C   UNL     1     -10.716   6.403  67.326  1.00  0.00    -0.426 C  
BRANCH  11  12
HETATM   12  C   UNL     1      -9.442   6.648  66.530  1.00  0.00    -0.192 C  
BRANCH  12  13
HETATM   13  C   UNL     1      -9.090   8.126  66.503  1.00  0.00    -0.216 C  
BRANCH  13  14
HETATM   14  C   UNL     1      -8.043   8.487  67.563  1.00  0.00    -0.107 C  
BRANCH  14  15
HETATM   15  C   UNL     1      -8.496   9.564  68.561  1.00  0.00    -0.119 C  
BRANCH  15  16
HETATM   16  C   UNL     1      -7.316  10.438  68.973  1.00  0.00    -0.097 C  
BRANCH  16  17
HETATM   17  N   UNL     1      -7.297  11.831  68.360  1.00  0.00    -0.087 N  
HETATM   18  C   UNL     1      -6.705  11.796  66.944  1.00  0.00    -0.105 C  
HETATM   19  C   UNL     1      -6.503  12.828  69.191  1.00  0.00    -0.109 C  
BRANCH  17  20
HETATM   20  C   UNL     1      -8.772  12.318  68.208  1.00  0.00    -0.178 C  
BRANCH  20  21
HETATM   21  C   UNL     1      -8.984  13.601  67.345  1.00  0.00    -0.218 C  
BRANCH  21  22
HETATM   22  N   UNL     1     -10.413  13.877  67.229  1.00  0.00    -0.270 NA 
BRANCH  22  23
HETATM   23  C   UNL     1     -10.979  15.097  67.819  1.00  0.00    -0.306 C  
BRANCH  23  24
HETATM   24  C   UNL     1     -11.595  14.863  69.185  1.00  0.00    -0.331 A  
HETATM   25  C   UNL     1     -11.753  15.930  70.078  1.00  0.00    -0.340 A  
HETATM   26  C   UNL     1     -12.489  14.412  71.826  1.00  0.00    -0.339 A  
HETATM   27  C   UNL     1     -12.428  13.356  70.918  1.00  0.00    -0.439 A  
HETATM   28  C   UNL     1     -11.981  13.580  69.606  1.00  0.00    -0.397 A  
HETATM   29  C   UNL     1     -12.184  15.700  71.386  1.00  0.00    -0.477 A  
BRANCH  26  30
HETATM   30  O   UNL     1     -12.764  14.327  73.159  1.00  0.00    -0.400 OA 
HETATM   31  C   UNL     1     -12.637  15.495  73.959  1.00  0.00    -0.625 C  
ENDBRANCH  26  30
ENDBRANCH  23  24
ENDBRANCH  22  23
BRANCH  22  32
HETATM   32  C   UNL     1     -10.995  13.495  66.031  1.00  0.00    -0.275 A  
HETATM   33  N   UNL     1     -10.258  12.800  65.147  1.00  0.00    -0.292 NA 
HETATM   34  N   UNL     1     -12.309  13.699  65.884  1.00  0.00    -0.462 NA 
HETATM   35  C   UNL     1     -12.898  13.188  64.786  1.00  0.00    -0.229 A  
HETATM   36  C   UNL     1     -10.879  12.359  64.026  1.00  0.00    -0.397 A  
HETATM   37  C   UNL     1     -12.221  12.514  63.802  1.00  0.00    -0.615 A  
ENDBRANCH  22  32
ENDBRANCH  21  22
ENDBRANCH  20  21
ENDBRANCH  17  20
ENDBRANCH  16  17
ENDBRANCH  15  16
ENDBRANCH  14  15
ENDBRANCH  13  14
ENDBRANCH  12  13
ENDBRANCH  11  12
ENDBRANCH  10  11
ENDBRANCH   9  10
ENDBRANCH   8   9
ENDBRANCH   7   8
ENDBRANCH   6   7
ENDBRANCH   5   6
ENDBRANCH   4   5
ENDBRANCH   3   4
ENDBRANCH   2   3
TORSDOF 22
ENDMDL
MODEL       55
REMARK 921   NORMALIZED FREE ENERGY PREDICTED BY IDOCK:   -4.36 KCAL/MOL
REMARK 922        TOTAL FREE ENERGY PREDICTED BY IDOCK:  -14.41 KCAL/MOL
REMARK 923 INTER-LIGAND FREE ENERGY PREDICTED BY IDOCK:  -11.16 KCAL/MOL
REMARK 924 INTRA-LIGAND FREE ENERGY PREDICTED BY IDOCK:   -3.26 KCAL/MOL
REMARK 927      BINDING AFFINITY PREDICTED BY RF-SCORE:    0.00 PKD
ROOT
HETATM    1  C   UNL     1     -10.583  18.662  67.651  1.00  0.00    -0.458 C  
HETATM    2  C   UNL     1     -10.307  17.508  68.598  1.00  0.00    -0.369 C  
ENDROOT
BRANCH   2   3
HETATM    3  C   UNL     1     -10.653  16.172  67.948  1.00  0.00    -0.309 C  
BRANCH   3   4
HETATM    4  C   UNL     1     -11.629  15.387  68.814  1.00  0.00    -0.382 C  
BRANCH   4   5
HETATM    5  C   UNL     1     -11.842  13.988  68.251  1.00  0.00    -0.406 C  
BRANCH   5   6
HETATM    6  C   UNL     1     -11.219  13.871  66.867  1.00  0.00    -0.324 C  
BRANCH   6   7
HETATM    7  C   UNL     1     -12.304  13.803  65.805  1.00  0.00    -0.523 C  
BRANCH   7   8
HETATM    8  C   UNL     1     -11.761  14.270  64.464  1.00  0.00    -0.431 C  
BRANCH   8   9
HETATM    9  C   UNL     1     -12.069  13.237  63.394  1.00  0.00    -0.508 C  
BRANCH   9  10
HETATM   10  C   UNL     1     -11.515  11.879  63.791  1.00  0.00    -0.542 C  
BRANCH  10  11
HETATM   11  C   UNL     1     -10.000  11.875  63.653  1.00  0.00    -0.404 C  
BRANCH  11  12
HETATM   12  C   UNL     1      -9.368  11.187  64.855  1.00  0.00    -0.219 C  
BRANCH  12  13
HETATM   13  C   UNL     1     -10.366  10.276  65.550  1.00  0.00    -0.239 C  
BRANCH  13  14
HETATM   14  C   UNL     1     -10.284  10.394  67.077  1.00  0.00    -0.277 C  
BRANCH  14  15
HETATM   15  C   UNL     1      -8.883  10.146  67.658  1.00  0.00    -0.125 C  
BRANCH  15  16
HETATM   16  C   UNL     1      -8.799   8.749  68.266  1.00  0.00    -0.141 C  
BRANCH  16  17
HETATM   17  N   UNL     1      -7.755   8.581  69.361  1.00  0.00    -0.090 N  
HETATM   18  C   UNL     1      -7.703   9.825  70.260  1.00  0.00    -0.172 C  
HETATM   19  C   UNL     1      -6.360   8.327  68.808  1.00  0.00    -0.049 C  
BRANCH  17  20
HETATM   20  C   UNL     1      -8.191   7.395  70.275  1.00  0.00    -0.132 C  
BRANCH  20  21
HETATM   21  C   UNL     1      -9.344   6.497  69.727  1.00  0.00    -0.147 C  
BRANCH  21  22
HETATM   22  N   UNL     1     -10.418   6.430  70.714  1.00  0.00    -0.215 NA 
BRANCH  22  23
HETATM   23  C   UNL     1     -11.774   6.870  70.361  1.00  0.00    -0.325 C  
BRANCH  23  24
HETATM   24  C   UNL     1     -12.120   8.233  70.931  1.00  0.00    -0.149 A  
HETATM   25  C   UNL     1     -13.117   8.355  71.906  1.00  0.00    -0.383 A  
HETATM   26  C   UNL     1     -12.970  10.778  71.811  1.00  0.00    -0.463 A  
HETATM   27  C   UNL     1     -11.912  10.667  70.911  1.00  0.00    -0.469 A  
HETATM   28  C   UNL     1     -11.491   9.401  70.471  1.00  0.00    -0.317 A  
HETATM   29  C   UNL     1     -13.542   9.616  72.330  1.00  0.00    -0.449 A  
BRANCH  26  30
HETATM   30  O   UNL     1     -13.579  11.929  72.218  1.00  0.00    -0.364 OA 
HETATM   31  C   UNL     1     -13.097  13.170  71.723  1.00  0.00    -0.383 C  
ENDBRANCH  26  30
ENDBRANCH  23  24
ENDBRANCH  22  23
BRANCH  22  32
HETATM   32  C   UNL     1     -10.373   5.338  71.566  1.00  0.00    -0.221 A  
HETATM   33  N   UNL     1     -11.061   5.391  72.721  1.00  0.00    -0.276 NA 
HETATM   34  N   UNL     1      -9.778   4.225  71.122  1.00  0.00    -0.179 NA 
HETATM   35  C   UNL     1      -9.872   3.122  71.889  1.00  0.00    -0.168 A  
HETATM   36  C   UNL     1     -11.075   4.275  73.490  1.00  0.00    -0.290 A  
HETATM   37  C   UNL     1     -10.503   3.092  73.106  1.00  0.00    -0.255 A  
ENDBRANCH  22  32
ENDBRANCH  21  22
ENDBRANCH  20  21
ENDBRANCH  17  20
ENDBRANCH  16  17
ENDBRANCH  15  16
ENDBRANCH  14  15
ENDBRANCH  13  14
ENDBRANCH  12  13
ENDBRANCH  11  12
ENDBRANCH  10  11
ENDBRANCH   9  10
ENDBRANCH   8   9
ENDBRANCH   7   8
ENDBRANCH   6   7
ENDBRANCH   5   6
ENDBRANCH   4   5
ENDBRANCH   3   4
ENDBRANCH   2   3
TORSDOF 22
ENDMDL
MODEL       56
REMARK 921   NORMALIZED FREE ENERGY PREDICTED BY IDOCK:   -4.35 KCAL/MOL
REMARK 922        TOTAL FREE ENERGY PREDICTED BY IDOCK:  -14.39 KCAL/MOL
REMARK 923 INTER-LIGAND FREE ENERGY PREDICTED BY IDOCK:  -11.43 KCAL/MOL
REMARK 924 INTRA-LIGAND FREE ENERGY PREDICTED BY IDOCK:   -2.96 KCAL/MOL
REMARK 927      BINDING AFFINITY PREDICTED BY RF-SCORE:    0.00 PKD
ROOT
HETATM    1  C   UNL     1     -10.388  17.573  68.777  1.00  0.00    -0.358 C  
HETATM    2  C   UNL     1     -10.677  16.337  69.611  1.00  0.00    -0.338 C  
ENDROOT
BRANCH   2   3
HETATM    3  C   UNL     1     -11.784  15.498  68.980  1.00  0.00    -0.392 C  
BRANCH   3   4
HETATM    4  C   UNL     1     -11.545  14.014  69.226  1.00  0.00    -0.356 C  
BRANCH   4   5
HETATM    5  C   UNL     1     -11.632  13.232  67.922  1.00  0.00    -0.370 C  
BRANCH   5   6
HETATM    6  C   UNL     1     -11.524  14.171  66.730  1.00  0.00    -0.383 C  
BRANCH   6   7
HETATM    7  C   UNL     1     -12.574  13.823  65.687  1.00  0.00    -0.551 C  
BRANCH   7   8
HETATM    8  C   UNL     1     -12.202  14.424  64.341  1.00  0.00    -0.481 C  
BRANCH   8   9
HETATM    9  C   UNL     1     -12.155  13.334  63.285  1.00  0.00    -0.407 C  
BRANCH   9  10
HETATM   10  C   UNL     1     -11.764  12.005  63.909  1.00  0.00    -0.537 C  
BRANCH  10  11
HETATM   11  C   UNL     1     -10.392  11.580  63.409  1.00  0.00    -0.469 C  
BRANCH  11  12
HETATM   12  C   UNL     1      -9.894  10.381  64.204  1.00  0.00    -0.379 C  
BRANCH  12  13
HETATM   13  C   UNL     1     -10.240  10.522  65.677  1.00  0.00    -0.315 C  
BRANCH  13  14
HETATM   14  C   UNL     1      -9.748   9.325  66.500  1.00  0.00    -0.305 C  
BRANCH  14  15
HETATM   15  C   UNL     1      -9.023   9.705  67.800  1.00  0.00    -0.122 C  
BRANCH  15  16
HETATM   16  C   UNL     1      -7.767   8.856  67.977  1.00  0.00    -0.101 C  
BRANCH  16  17
HETATM   17  N   UNL     1      -7.357   8.600  69.420  1.00  0.00    -0.071 N  
HETATM   18  C   UNL     1      -6.143   9.459  69.803  1.00  0.00    -0.039 C  
HETATM   19  C   UNL     1      -7.019   7.141  69.684  1.00  0.00    -0.051 C  
BRANCH  17  20
HETATM   20  C   UNL     1      -8.526   9.054  70.349  1.00  0.00    -0.182 C  
BRANCH  20  21
HETATM   21  C   UNL     1      -9.325   7.911  71.050  1.00  0.00    -0.152 C  
BRANCH  21  22
HETATM   22  N   UNL     1     -10.695   7.896  70.544  1.00  0.00    -0.228 NA 
BRANCH  22  23
HETATM   23  C   UNL     1     -11.360   6.619  70.254  1.00  0.00    -0.374 C  
BRANCH  23  24
HETATM   24  C   UNL     1     -10.716   5.862  69.110  1.00  0.00    -0.394 A  
HETATM   25  C   UNL     1     -10.985   6.226  67.785  1.00  0.00    -0.427 A  
HETATM   26  C   UNL     1      -9.746   4.306  66.961  1.00  0.00    -0.206 A  
HETATM   27  C   UNL     1      -9.392   3.988  68.270  1.00  0.00    -0.216 A  
HETATM   28  C   UNL     1      -9.876   4.760  69.339  1.00  0.00    -0.282 A  
HETATM   29  C   UNL     1     -10.513   5.448  66.726  1.00  0.00    -0.347 A  
BRANCH  26  30
HETATM   30  O   UNL     1      -9.473   3.577  65.841  1.00  0.00    -0.169 OA 
HETATM   31  C   UNL     1      -9.905   4.071  64.581  1.00  0.00    -0.195 C  
ENDBRANCH  26  30
ENDBRANCH  23  24
ENDBRANCH  22  23
BRANCH  22  32
HETATM   32  C   UNL     1     -11.529   8.874  71.061  1.00  0.00    -0.294 A  
HETATM   33  N   UNL     1     -11.525  10.093  70.493  1.00  0.00    -0.313 NA 
HETATM   34  N   UNL     1     -12.413   8.508  71.996  1.00  0.00    -0.340 NA 
HETATM   35  C   UNL     1     -13.323   9.422  72.382  1.00  0.00    -0.424 A  
HETATM   36  C   UNL     1     -12.418  11.001  70.958  1.00  0.00    -0.409 A  
HETATM   37  C   UNL     1     -13.363  10.707  71.904  1.00  0.00    -0.454 A  
ENDBRANCH  22  32
ENDBRANCH  21  22
ENDBRANCH  20  21
ENDBRANCH  17  20
ENDBRANCH  16  17
ENDBRANCH  15  16
ENDBRANCH  14  15
ENDBRANCH  13  14
ENDBRANCH  12  13
ENDBRANCH  11  12
ENDBRANCH  10  11
ENDBRANCH   9  10
ENDBRANCH   8   9
ENDBRANCH   7   8
ENDBRANCH   6   7
ENDBRANCH   5   6
ENDBRANCH   4   5
ENDBRANCH   3   4
ENDBRANCH   2   3
TORSDOF 22
ENDMDL
MODEL       57
REMARK 921   NORMALIZED FREE ENERGY PREDICTED BY IDOCK:   -4.33 KCAL/MOL
REMARK 922        TOTAL FREE ENERGY PREDICTED BY IDOCK:  -14.36 KCAL/MOL
REMARK 923 INTER-LIGAND FREE ENERGY PREDICTED BY IDOCK:  -10.66 KCAL/MOL
REMARK 924 INTRA-LIGAND FREE ENERGY PREDICTED BY IDOCK:   -3.70 KCAL/MOL
REMARK 927      BINDING AFFINITY PREDICTED BY RF-SCORE:    0.00 PKD
ROOT
HETATM    1  C   UNL     1     -14.390   8.201  71.581  1.00  0.00    -0.570 C  
HETATM    2  C   UNL     1     -13.318   8.970  72.333  1.00  0.00    -0.516 C  
ENDROOT
BRANCH   2   3
HETATM    3  C   UNL     1     -13.069  10.330  71.691  1.00  0.00    -0.553 C  
BRANCH   3   4
HETATM    4  C   UNL     1     -11.963  10.241  70.648  1.00  0.00    -0.436 C  
BRANCH   4   5
HETATM    5  C   UNL     1     -12.148  11.308  69.575  1.00  0.00    -0.386 C  
BRANCH   5   6
HETATM    6  C   UNL     1     -12.274  12.684  70.210  1.00  0.00    -0.347 C  
BRANCH   6   7
HETATM    7  C   UNL     1     -12.055  13.768  69.167  1.00  0.00    -0.374 C  
BRANCH   7   8
HETATM    8  C   UNL     1     -11.979  13.157  67.777  1.00  0.00    -0.352 C  
BRANCH   8   9
HETATM    9  C   UNL     1     -11.858  14.257  66.737  1.00  0.00    -0.449 C  
BRANCH   9  10
HETATM   10  C   UNL     1     -12.765  13.971  65.552  1.00  0.00    -0.517 C  
BRANCH  10  11
HETATM   11  C   UNL     1     -11.963  14.023  64.260  1.00  0.00    -0.463 C  
BRANCH  11  12
HETATM   12  C   UNL     1     -12.158  12.734  63.473  1.00  0.00    -0.642 C  
BRANCH  12  13
HETATM   13  C   UNL     1     -11.273  11.625  64.014  1.00  0.00    -0.448 C  
BRANCH  13  14
HETATM   14  C   UNL     1     -10.049  11.380  63.124  1.00  0.00    -0.390 C  
BRANCH  14  15
HETATM   15  C   UNL     1      -9.301  10.071  63.420  1.00  0.00    -0.300 C  
BRANCH  15  16
HETATM   16  C   UNL     1      -9.337   9.763  64.914  1.00  0.00    -0.265 C  
BRANCH  16  17
HETATM   17  N   UNL     1      -8.212   8.871  65.418  1.00  0.00    -0.122 N  
HETATM   18  C   UNL     1      -6.929   9.683  65.640  1.00  0.00    -0.096 C  
HETATM   19  C   UNL     1      -7.900   7.725  64.467  1.00  0.00    -0.138 C  
BRANCH  17  20
HETATM   20  C   UNL     1      -8.623   8.309  66.815  1.00  0.00    -0.127 C  
BRANCH  20  21
HETATM   21  C   UNL     1      -9.606   9.191  67.645  1.00  0.00    -0.149 C  
BRANCH  21  22
HETATM   22  N   UNL     1      -8.927   9.678  68.843  1.00  0.00    -0.139 NA 
BRANCH  22  23
HETATM   23  C   UNL     1      -8.178   8.748  69.697  1.00  0.00    -0.113 C  
BRANCH  23  24
HETATM   24  C   UNL     1      -9.053   8.043  70.715  1.00  0.00    -0.151 A  
HETATM   25  C   UNL     1      -9.096   8.495  72.039  1.00  0.00    -0.317 A  
HETATM   26  C   UNL     1     -10.461   6.593  72.688  1.00  0.00    -0.212 A  
HETATM   27  C   UNL     1     -10.505   6.185  71.356  1.00  0.00    -0.273 A  
HETATM   28  C   UNL     1      -9.803   6.905  70.375  1.00  0.00    -0.187 A  
HETATM   29  C   UNL     1      -9.784   7.769  73.013  1.00  0.00    -0.329 A  
BRANCH  26  30
HETATM   30  O   UNL     1     -10.969   5.925  73.764  1.00  0.00    -0.187 OA 
HETATM   31  C   UNL     1     -11.137   4.518  73.678  1.00  0.00    -0.288 C  
ENDBRANCH  26  30
ENDBRANCH  23  24
ENDBRANCH  22  23
BRANCH  22  32
HETATM   32  C   UNL     1      -8.361  10.938  68.732  1.00  0.00    -0.151 A  
HETATM   33  N   UNL     1      -7.201  11.183  69.367  1.00  0.00    -0.117 NA 
HETATM   34  N   UNL     1      -8.915  11.797  67.869  1.00  0.00    -0.172 NA 
HETATM   35  C   UNL     1      -8.273  12.960  67.652  1.00  0.00    -0.177 A  
HETATM   36  C   UNL     1      -6.623  12.392  69.166  1.00  0.00    -0.099 A  
HETATM   37  C   UNL     1      -7.116  13.323  68.293  1.00  0.00    -0.109 A  
ENDBRANCH  22  32
ENDBRANCH  21  22
ENDBRANCH  20  21
ENDBRANCH  17  20
ENDBRANCH  16  17
ENDBRANCH  15  16
ENDBRANCH  14  15
ENDBRANCH  13  14
ENDBRANCH  12  13
ENDBRANCH  11  12
ENDBRANCH  10  11
ENDBRANCH   9  10
ENDBRANCH   8   9
ENDBRANCH   7   8
ENDBRANCH   6   7
ENDBRANCH   5   6
ENDBRANCH   4   5
ENDBRANCH   3   4
ENDBRANCH   2   3
TORSDOF 22
ENDMDL
MODEL       58
REMARK 921   NORMALIZED FREE ENERGY PREDICTED BY IDOCK:   -4.32 KCAL/MOL
REMARK 922        TOTAL FREE ENERGY PREDICTED BY IDOCK:  -14.33 KCAL/MOL
REMARK 923 INTER-LIGAND FREE ENERGY PREDICTED BY IDOCK:  -11.27 KCAL/MOL
REMARK 924 INTRA-LIGAND FREE ENERGY PREDICTED BY IDOCK:   -3.06 KCAL/MOL
REMARK 927      BINDING AFFINITY PREDICTED BY RF-SCORE:    0.00 PKD
ROOT
HETATM    1  C   UNL     1      -8.187   7.554  66.790  1.00  0.00    -0.124 C  
HETATM    2  C   UNL     1      -9.350   8.205  67.518  1.00  0.00    -0.165 C  
ENDROOT
BRANCH   2   3
HETATM    3  C   UNL     1     -10.678   7.591  67.087  1.00  0.00    -0.379 C  
BRANCH   3   4
HETATM    4  C   UNL     1     -10.863   6.213  67.708  1.00  0.00    -0.413 C  
BRANCH   4   5
HETATM    5  C   UNL     1     -10.935   6.313  69.227  1.00  0.00    -0.435 C  
BRANCH   5   6
HETATM    6  C   UNL     1     -10.449   5.022  69.868  1.00  0.00    -0.214 C  
BRANCH   6   7
HETATM    7  C   UNL     1      -9.308   5.309  70.831  1.00  0.00    -0.197 C  
BRANCH   7   8
HETATM    8  C   UNL     1      -8.064   5.732  70.067  1.00  0.00    -0.108 C  
BRANCH   8   9
HETATM    9  C   UNL     1      -7.545   7.050  70.616  1.00  0.00    -0.093 C  
BRANCH   9  10
HETATM   10  C   UNL     1      -8.482   7.587  71.685  1.00  0.00    -0.119 C  
BRANCH  10  11
HETATM   11  C   UNL     1      -9.001   8.958  71.280  1.00  0.00    -0.312 C  
BRANCH  11  12
HETATM   12  C   UNL     1     -10.484   9.071  71.603  1.00  0.00    -0.426 C  
BRANCH  12  13
HETATM   13  C   UNL     1     -11.270   9.561  70.399  1.00  0.00    -0.323 C  
BRANCH  13  14
HETATM   14  C   UNL     1     -12.054  10.841  70.706  1.00  0.00    -0.473 C  
BRANCH  14  15
HETATM   15  C   UNL     1     -11.685  12.040  69.818  1.00  0.00    -0.390 C  
BRANCH  15  16
HETATM   16  C   UNL     1     -11.926  13.349  70.564  1.00  0.00    -0.255 C  
BRANCH  16  17
HETATM   17  N   UNL     1     -11.713  14.611  69.740  1.00  0.00    -0.295 N  
HETATM   18  C   UNL     1     -10.268  15.112  69.871  1.00  0.00    -0.160 C  
HETATM   19  C   UNL     1     -12.653  15.739  70.140  1.00  0.00    -0.119 C  
BRANCH  17  20
HETATM   20  C   UNL     1     -11.919  14.254  68.235  1.00  0.00    -0.311 C  
BRANCH  20  21
HETATM   21  C   UNL     1     -10.727  14.584  67.284  1.00  0.00    -0.287 C  
BRANCH  21  22
HETATM   22  N   UNL     1     -11.245  15.002  65.984  1.00  0.00    -0.336 NA 
BRANCH  22  23
HETATM   23  C   UNL     1     -10.822  16.280  65.397  1.00  0.00    -0.273 C  
BRANCH  23  24
HETATM   24  C   UNL     1      -9.973  17.111  66.338  1.00  0.00    -0.315 A  
HETATM   25  C   UNL     1      -8.577  16.994  66.318  1.00  0.00    -0.298 A  
HETATM   26  C   UNL     1      -8.385  18.443  68.257  1.00  0.00    -0.303 A  
HETATM   27  C   UNL     1      -9.763  18.645  68.229  1.00  0.00    -0.394 A  
HETATM   28  C   UNL     1     -10.553  17.980  67.277  1.00  0.00    -0.358 A  
HETATM   29  C   UNL     1      -7.798  17.645  67.275  1.00  0.00    -0.222 A  
BRANCH  26  30
HETATM   30  O   UNL     1      -7.511  18.902  69.200  1.00  0.00    -0.297 OA 
HETATM   31  C   UNL     1      -6.268  19.441  68.775  1.00  0.00    -0.247 C  
ENDBRANCH  26  30
ENDBRANCH  23  24
ENDBRANCH  22  23
BRANCH  22  32
HETATM   32  C   UNL     1     -11.433  13.982  65.065  1.00  0.00    -0.344 A  
HETATM   33  N   UNL     1     -10.351  13.367  64.553  1.00  0.00    -0.409 NA 
HETATM   34  N   UNL     1     -12.683  13.554  64.855  1.00  0.00    -0.682 NA 
HETATM   35  C   UNL     1     -12.844  12.465  64.081  1.00  0.00    -0.263 A  
HETATM   36  C   UNL     1     -10.566  12.313  63.729  1.00  0.00    -0.451 A  
HETATM   37  C   UNL     1     -11.810  11.804  63.470  1.00  0.00    -0.481 A  
ENDBRANCH  22  32
ENDBRANCH  21  22
ENDBRANCH  20  21
ENDBRANCH  17  20
ENDBRANCH  16  17
ENDBRANCH  15  16
ENDBRANCH  14  15
ENDBRANCH  13  14
ENDBRANCH  12  13
ENDBRANCH  11  12
ENDBRANCH  10  11
ENDBRANCH   9  10
ENDBRANCH   8   9
ENDBRANCH   7   8
ENDBRANCH   6   7
ENDBRANCH   5   6
ENDBRANCH   4   5
ENDBRANCH   3   4
ENDBRANCH   2   3
TORSDOF 22
ENDMDL
MODEL       59
REMARK 921   NORMALIZED FREE ENERGY PREDICTED BY IDOCK:   -4.32 KCAL/MOL
REMARK 922        TOTAL FREE ENERGY PREDICTED BY IDOCK:  -14.32 KCAL/MOL
REMARK 923 INTER-LIGAND FREE ENERGY PREDICTED BY IDOCK:  -11.27 KCAL/MOL
REMARK 924 INTRA-LIGAND FREE ENERGY PREDICTED BY IDOCK:   -3.04 KCAL/MOL
REMARK 927      BINDING AFFINITY PREDICTED BY RF-SCORE:    0.00 PKD
ROOT
HETATM    1  C   UNL     1     -10.933  19.463  67.350  1.00  0.00    -0.449 C  
HETATM    2  C   UNL     1     -10.291  19.676  65.991  1.00  0.00    -0.620 C  
ENDROOT
BRANCH   2   3
HETATM    3  C   UNL     1      -8.770  19.647  66.093  1.00  0.00    -0.361 C  
BRANCH   3   4
HETATM    4  C   UNL     1      -8.329  19.511  67.545  1.00  0.00    -0.333 C  
BRANCH   4   5
HETATM    5  C   UNL     1      -7.705  18.143  67.792  1.00  0.00    -0.227 C  
BRANCH   5   6
HETATM    6  C   UNL     1      -7.508  17.403  66.477  1.00  0.00    -0.315 C  
BRANCH   6   7
HETATM    7  C   UNL     1      -8.046  15.985  66.584  1.00  0.00    -0.311 C  
BRANCH   7   8
HETATM    8  C   UNL     1      -9.519  16.004  66.959  1.00  0.00    -0.230 C  
BRANCH   8   9
HETATM    9  C   UNL     1     -10.280  15.002  66.109  1.00  0.00    -0.311 C  
BRANCH   9  10
HETATM   10  C   UNL     1     -10.955  15.700  64.940  1.00  0.00    -0.447 C  
BRANCH  10  11
HETATM   11  C   UNL     1     -12.078  14.832  64.394  1.00  0.00    -0.457 C  
BRANCH  11  12
HETATM   12  C   UNL     1     -12.257  13.600  65.270  1.00  0.00    -0.466 C  
BRANCH  12  13
HETATM   13  C   UNL     1     -12.515  12.362  64.426  1.00  0.00    -0.520 C  
BRANCH  13  14
HETATM   14  C   UNL     1     -11.297  11.982  63.577  1.00  0.00    -0.528 C  
BRANCH  14  15
HETATM   15  C   UNL     1     -10.076  11.523  64.389  1.00  0.00    -0.328 C  
BRANCH  15  16
HETATM   16  C   UNL     1     -10.407  10.261  65.180  1.00  0.00    -0.128 C  
BRANCH  16  17
HETATM   17  N   UNL     1      -9.728  10.151  66.538  1.00  0.00    -0.190 N  
HETATM   18  C   UNL     1      -8.660  11.241  66.703  1.00  0.00    -0.167 C  
HETATM   19  C   UNL     1      -9.074   8.796  66.760  1.00  0.00    -0.146 C  
BRANCH  17  20
HETATM   20  C   UNL     1     -10.799  10.414  67.642  1.00  0.00    -0.306 C  
BRANCH  20  21
HETATM   21  C   UNL     1     -10.260  10.961  69.001  1.00  0.00    -0.203 C  
BRANCH  21  22
HETATM   22  N   UNL     1     -11.158  10.554  70.078  1.00  0.00    -0.297 NA 
BRANCH  22  23
HETATM   23  C   UNL     1     -10.713   9.578  71.081  1.00  0.00    -0.338 C  
BRANCH  23  24
HETATM   24  C   UNL     1     -10.419   8.213  70.489  1.00  0.00    -0.222 A  
HETATM   25  C   UNL     1      -9.107   7.724  70.465  1.00  0.00    -0.154 A  
HETATM   26  C   UNL     1      -9.804   5.801  69.155  1.00  0.00    -0.162 A  
HETATM   27  C   UNL     1     -11.127   6.227  69.254  1.00  0.00    -0.461 A  
HETATM   28  C   UNL     1     -11.432   7.428  69.915  1.00  0.00    -0.026 A  
HETATM   29  C   UNL     1      -8.806   6.537  69.795  1.00  0.00    -0.143 A  
BRANCH  26  30
HETATM   30  O   UNL     1      -9.339   4.741  68.431  1.00  0.00    -0.118 OA 
HETATM   31  C   UNL     1      -7.938   4.516  68.372  1.00  0.00    -0.079 C  
ENDBRANCH  26  30
ENDBRANCH  23  24
ENDBRANCH  22  23
BRANCH  22  32
HETATM   32  C   UNL     1     -11.979  11.553  70.575  1.00  0.00    -0.344 A  
HETATM   33  N   UNL     1     -12.793  11.267  71.608  1.00  0.00    -0.425 NA 
HETATM   34  N   UNL     1     -11.805  12.794  70.107  1.00  0.00    -0.296 NA 
HETATM   35  C   UNL     1     -12.495  13.785  70.702  1.00  0.00    -0.359 A  
HETATM   36  C   UNL     1     -13.515  12.286  72.134  1.00  0.00    -0.327 A  
HETATM   37  C   UNL     1     -13.389  13.585  71.722  1.00  0.00    -0.480 A  
ENDBRANCH  22  32
ENDBRANCH  21  22
ENDBRANCH  20  21
ENDBRANCH  17  20
ENDBRANCH  16  17
ENDBRANCH  15  16
ENDBRANCH  14  15
ENDBRANCH  13  14
ENDBRANCH  12  13
ENDBRANCH  11  12
ENDBRANCH  10  11
ENDBRANCH   9  10
ENDBRANCH   8   9
ENDBRANCH   7   8
ENDBRANCH   6   7
ENDBRANCH   5   6
ENDBRANCH   4   5
ENDBRANCH   3   4
ENDBRANCH   2   3
TORSDOF 22
ENDMDL
MODEL       60
REMARK 921   NORMALIZED FREE ENERGY PREDICTED BY IDOCK:   -4.31 KCAL/MOL
REMARK 922        TOTAL FREE ENERGY PREDICTED BY IDOCK:  -14.30 KCAL/MOL
REMARK 923 INTER-LIGAND FREE ENERGY PREDICTED BY IDOCK:  -11.06 KCAL/MOL
REMARK 924 INTRA-LIGAND FREE ENERGY PREDICTED BY IDOCK:   -3.24 KCAL/MOL
REMARK 927      BINDING AFFINITY PREDICTED BY RF-SCORE:    0.00 PKD
ROOT
HETATM    1  C   UNL     1      -8.047   3.864  72.545  1.00  0.00    -0.086 C  
HETATM    2  C   UNL     1      -8.370   4.175  71.094  1.00  0.00    -0.094 C  
ENDROOT
BRANCH   2   3
HETATM    3  C   UNL     1      -9.851   4.496  70.920  1.00  0.00    -0.269 C  
BRANCH   3   4
HETATM    4  C   UNL     1     -10.114   5.111  69.551  1.00  0.00    -0.316 C  
BRANCH   4   5
HETATM    5  C   UNL     1     -11.226   6.149  69.632  1.00  0.00    -0.488 C  
BRANCH   5   6
HETATM    6  C   UNL     1     -11.716   6.293  71.066  1.00  0.00    -0.283 C  
BRANCH   6   7
HETATM    7  C   UNL     1     -12.448   7.613  71.242  1.00  0.00    -0.324 C  
BRANCH   7   8
HETATM    8  C   UNL     1     -11.695   8.511  72.211  1.00  0.00    -0.443 C  
BRANCH   8   9
HETATM    9  C   UNL     1     -10.498   7.767  72.779  1.00  0.00    -0.390 C  
BRANCH   9  10
HETATM   10  C   UNL     1      -9.221   8.554  72.543  1.00  0.00    -0.303 C  
BRANCH  10  11
HETATM   11  C   UNL     1      -8.217   7.701  71.783  1.00  0.00    -0.118 C  
BRANCH  11  12
HETATM   12  C   UNL     1      -8.238   8.062  70.305  1.00  0.00    -0.123 C  
BRANCH  12  13
HETATM   13  C   UNL     1      -8.572   9.531  70.105  1.00  0.00    -0.250 C  
BRANCH  13  14
HETATM   14  C   UNL     1      -7.470  10.271  69.339  1.00  0.00    -0.128 C  
BRANCH  14  15
HETATM   15  C   UNL     1      -7.942  11.549  68.627  1.00  0.00    -0.135 C  
BRANCH  15  16
HETATM   16  C   UNL     1      -8.813  11.198  67.425  1.00  0.00    -0.139 C  
BRANCH  16  17
HETATM   17  N   UNL     1     -10.127  11.961  67.332  1.00  0.00    -0.195 N  
HETATM   18  C   UNL     1     -11.309  11.060  67.717  1.00  0.00    -0.292 C  
HETATM   19  C   UNL     1     -10.382  12.524  65.942  1.00  0.00    -0.263 C  
BRANCH  17  20
HETATM   20  C   UNL     1     -10.096  13.117  68.379  1.00  0.00    -0.231 C  
BRANCH  20  21
HETATM   21  C   UNL     1     -11.442  13.413  69.112  1.00  0.00    -0.300 C  
BRANCH  21  22
HETATM   22  N   UNL     1     -11.491  14.824  69.484  1.00  0.00    -0.282 NA 
BRANCH  22  23
HETATM   23  C   UNL     1     -11.718  15.851  68.458  1.00  0.00    -0.292 C  
BRANCH  23  24
HETATM   24  C   UNL     1     -10.570  16.835  68.342  1.00  0.00    -0.354 A  
HETATM   25  C   UNL     1      -9.279  16.460  68.732  1.00  0.00    -0.239 A  
HETATM   26  C   UNL     1      -8.472  18.725  68.389  1.00  0.00    -0.342 A  
HETATM   27  C   UNL     1      -9.729  19.087  67.908  1.00  0.00    -0.385 A  
HETATM   28  C   UNL     1     -10.773  18.148  67.887  1.00  0.00    -0.331 A  
HETATM   29  C   UNL     1      -8.248  17.400  68.765  1.00  0.00    -0.226 A  
BRANCH  26  30
HETATM   30  O   UNL     1      -7.409  19.553  68.601  1.00  0.00    -0.321 OA 
HETATM   31  C   UNL     1      -6.499  19.243  69.647  1.00  0.00    -0.272 C  
ENDBRANCH  26  30
ENDBRANCH  23  24
ENDBRANCH  22  23
BRANCH  22  32
HETATM   32  C   UNL     1     -12.083  15.094  70.707  1.00  0.00    -0.336 A  
HETATM   33  N   UNL     1     -11.425  15.871  71.586  1.00  0.00    -0.416 NA 
HETATM   34  N   UNL     1     -13.349  14.701  70.887  1.00  0.00    -0.351 NA 
HETATM   35  C   UNL     1     -13.969  15.101  72.013  1.00  0.00    -0.526 A  
HETATM   36  C   UNL     1     -12.067  16.195  72.734  1.00  0.00    -0.553 A  
HETATM   37  C   UNL     1     -13.364  15.845  72.993  1.00  0.00    -0.663 A  
ENDBRANCH  22  32
ENDBRANCH  21  22
ENDBRANCH  20  21
ENDBRANCH  17  20
ENDBRANCH  16  17
ENDBRANCH  15  16
ENDBRANCH  14  15
ENDBRANCH  13  14
ENDBRANCH  12  13
ENDBRANCH  11  12
ENDBRANCH  10  11
ENDBRANCH   9  10
ENDBRANCH   8   9
ENDBRANCH   7   8
ENDBRANCH   6   7
ENDBRANCH   5   6
ENDBRANCH   4   5
ENDBRANCH   3   4
ENDBRANCH   2   3
TORSDOF 22
ENDMDL
MODEL       61
REMARK 921   NORMALIZED FREE ENERGY PREDICTED BY IDOCK:   -4.31 KCAL/MOL
REMARK 922        TOTAL FREE ENERGY PREDICTED BY IDOCK:  -14.30 KCAL/MOL
REMARK 923 INTER-LIGAND FREE ENERGY PREDICTED BY IDOCK:  -11.52 KCAL/MOL
REMARK 924 INTRA-LIGAND FREE ENERGY PREDICTED BY IDOCK:   -2.78 KCAL/MOL
REMARK 927      BINDING AFFINITY PREDICTED BY RF-SCORE:    0.00 PKD
ROOT
HETATM    1  C   UNL     1     -10.620   7.574  67.038  1.00  0.00    -0.409 C  
HETATM    2  C   UNL     1      -9.637   6.432  66.851  1.00  0.00    -0.179 C  
ENDROOT
BRANCH   2   3
HETATM    3  C   UNL     1     -10.352   5.164  66.397  1.00  0.00    -0.332 C  
BRANCH   3   4
HETATM    4  C   UNL     1      -9.370   4.006  66.269  1.00  0.00    -0.180 C  
BRANCH   4   5
HETATM    5  C   UNL     1      -8.547   3.856  67.543  1.00  0.00    -0.111 C  
BRANCH   5   6
HETATM    6  C   UNL     1      -9.252   2.934  68.526  1.00  0.00    -0.239 C  
BRANCH   6   7
HETATM    7  C   UNL     1      -9.435   3.632  69.865  1.00  0.00    -0.262 C  
BRANCH   7   8
HETATM    8  C   UNL     1      -8.591   4.895  69.922  1.00  0.00    -0.102 C  
BRANCH   8   9
HETATM    9  C   UNL     1      -9.430   6.052  70.437  1.00  0.00    -0.187 C  
BRANCH   9  10
HETATM   10  C   UNL     1     -10.909   5.769  70.234  1.00  0.00    -0.373 C  
BRANCH  10  11
HETATM   11  C   UNL     1     -11.717   7.036  70.468  1.00  0.00    -0.359 C  
BRANCH  11  12
HETATM   12  C   UNL     1     -11.401   7.611  71.841  1.00  0.00    -0.308 C  
BRANCH  12  13
HETATM   13  C   UNL     1     -11.090   9.096  71.754  1.00  0.00    -0.437 C  
BRANCH  13  14
HETATM   14  C   UNL     1     -12.280   9.902  71.222  1.00  0.00    -0.480 C  
BRANCH  14  15
HETATM   15  C   UNL     1     -11.891  11.130  70.385  1.00  0.00    -0.462 C  
BRANCH  15  16
HETATM   16  C   UNL     1     -11.618  10.725  68.939  1.00  0.00    -0.291 C  
BRANCH  16  17
HETATM   17  N   UNL     1     -10.770  11.706  68.141  1.00  0.00    -0.203 N  
HETATM   18  C   UNL     1     -11.393  11.969  66.763  1.00  0.00    -0.339 C  
HETATM   19  C   UNL     1      -9.342  11.220  67.942  1.00  0.00    -0.161 C  
BRANCH  17  20
HETATM   20  C   UNL     1     -10.770  13.074  68.891  1.00  0.00    -0.167 C  
BRANCH  20  21
HETATM   21  C   UNL     1     -12.001  13.997  68.632  1.00  0.00    -0.354 C  
BRANCH  21  22
HETATM   22  N   UNL     1     -11.746  15.317  69.201  1.00  0.00    -0.320 NA 
BRANCH  22  23
HETATM   23  C   UNL     1     -11.703  16.501  68.332  1.00  0.00     0.171 C  
BRANCH  23  24
HETATM   24  C   UNL     1     -10.361  17.206  68.360  1.00  0.00    -0.362 A  
HETATM   25  C   UNL     1      -9.179  16.466  68.483  1.00  0.00    -0.226 A  
HETATM   26  C   UNL     1      -7.874  18.505  68.683  1.00  0.00    -0.314 A  
HETATM   27  C   UNL     1      -9.030  19.252  68.465  1.00  0.00    -0.414 A  
HETATM   28  C   UNL     1     -10.267  18.607  68.307  1.00  0.00    -0.423 A  
HETATM   29  C   UNL     1      -7.953  17.112  68.654  1.00  0.00    -0.265 A  
BRANCH  26  30
HETATM   30  O   UNL     1      -6.635  18.988  68.992  1.00  0.00    -0.266 OA 
HETATM   31  C   UNL     1      -5.697  18.117  69.607  1.00  0.00    -0.240 C  
ENDBRANCH  26  30
ENDBRANCH  23  24
ENDBRANCH  22  23
BRANCH  22  32
HETATM   32  C   UNL     1     -12.304  15.542  70.450  1.00  0.00    -0.413 A  
HETATM   33  N   UNL     1     -13.498  14.992  70.732  1.00  0.00    -0.324 NA 
HETATM   34  N   UNL     1     -11.551  16.162  71.366  1.00  0.00    -0.458 NA 
HETATM   35  C   UNL     1     -12.038  16.240  72.619  1.00  0.00    -0.534 A  
HETATM   36  C   UNL     1     -13.976  15.150  71.991  1.00  0.00    -0.526 A  
HETATM   37  C   UNL     1     -13.268  15.760  72.990  1.00  0.00    -0.671 A  
ENDBRANCH  22  32
ENDBRANCH  21  22
ENDBRANCH  20  21
ENDBRANCH  17  20
ENDBRANCH  16  17
ENDBRANCH  15  16
ENDBRANCH  14  15
ENDBRANCH  13  14
ENDBRANCH  12  13
ENDBRANCH  11  12
ENDBRANCH  10  11
ENDBRANCH   9  10
ENDBRANCH   8   9
ENDBRANCH   7   8
ENDBRANCH   6   7
ENDBRANCH   5   6
ENDBRANCH   4   5
ENDBRANCH   3   4
ENDBRANCH   2   3
TORSDOF 22
ENDMDL
MODEL       62
REMARK 921   NORMALIZED FREE ENERGY PREDICTED BY IDOCK:   -4.31 KCAL/MOL
REMARK 922        TOTAL FREE ENERGY PREDICTED BY IDOCK:  -14.30 KCAL/MOL
REMARK 923 INTER-LIGAND FREE ENERGY PREDICTED BY IDOCK:  -11.27 KCAL/MOL
REMARK 924 INTRA-LIGAND FREE ENERGY PREDICTED BY IDOCK:   -3.03 KCAL/MOL
REMARK 927      BINDING AFFINITY PREDICTED BY RF-SCORE:    0.00 PKD
ROOT
HETATM    1  C   UNL     1     -12.465  15.543  73.958  1.00  0.00    -0.789 C  
HETATM    2  C   UNL     1     -12.104  15.913  72.530  1.00  0.00    -0.611 C  
ENDROOT
BRANCH   2   3
HETATM    3  C   UNL     1     -12.087  14.680  71.633  1.00  0.00    -0.404 C  
BRANCH   3   4
HETATM    4  C   UNL     1     -11.979  15.080  70.167  1.00  0.00    -0.366 C  
BRANCH   4   5
HETATM    5  C   UNL     1     -10.788  16.004  69.948  1.00  0.00    -0.351 C  
BRANCH   5   6
HETATM    6  C   UNL     1     -11.031  16.910  68.750  1.00  0.00    -0.234 C  
BRANCH   6   7
HETATM    7  C   UNL     1     -10.186  18.169  68.861  1.00  0.00    -0.304 C  
BRANCH   7   8
HETATM    8  C   UNL     1     -10.568  19.160  67.773  1.00  0.00    -0.498 C  
BRANCH   8   9
HETATM    9  C   UNL     1      -9.345  19.956  67.349  1.00  0.00    -0.468 C  
BRANCH   9  10
HETATM   10  C   UNL     1      -8.107  19.457  68.074  1.00  0.00    -0.345 C  
BRANCH  10  11
HETATM   11  C   UNL     1      -7.227  18.669  67.117  1.00  0.00    -0.216 C  
BRANCH  11  12
HETATM   12  C   UNL     1      -6.848  17.331  67.737  1.00  0.00    -0.172 C  
BRANCH  12  13
HETATM   13  C   UNL     1      -7.388  16.174  66.913  1.00  0.00    -0.255 C  
BRANCH  13  14
HETATM   14  C   UNL     1      -8.583  16.593  66.049  1.00  0.00    -0.229 C  
BRANCH  14  15
HETATM   15  C   UNL     1      -9.593  15.468  65.777  1.00  0.00    -0.367 C  
BRANCH  15  16
HETATM   16  C   UNL     1      -9.361  14.301  66.731  1.00  0.00    -0.276 C  
BRANCH  16  17
HETATM   17  N   UNL     1     -10.500  13.294  66.813  1.00  0.00    -0.268 N  
HETATM   18  C   UNL     1     -10.406  12.271  65.672  1.00  0.00    -0.257 C  
HETATM   19  C   UNL     1     -11.870  13.953  66.760  1.00  0.00    -0.424 C  
BRANCH  17  20
HETATM   20  C   UNL     1     -10.345  12.488  68.139  1.00  0.00    -0.232 C  
BRANCH  20  21
HETATM   21  C   UNL     1     -11.550  11.575  68.530  1.00  0.00    -0.313 C  
BRANCH  21  22
HETATM   22  N   UNL     1     -11.056  10.397  69.237  1.00  0.00    -0.238 NA 
BRANCH  22  23
HETATM   23  C   UNL     1      -9.613  10.131  69.312  1.00  0.00    -0.225 C  
BRANCH  23  24
HETATM   24  C   UNL     1      -9.201   8.881  68.560  1.00  0.00    -0.137 A  
HETATM   25  C   UNL     1      -9.658   8.662  67.254  1.00  0.00    -0.216 A  
HETATM   26  C   UNL     1      -8.671   6.443  67.237  1.00  0.00    -0.106 A  
HETATM   27  C   UNL     1      -8.130   6.686  68.497  1.00  0.00    -0.119 A  
HETATM   28  C   UNL     1      -8.396   7.897  69.157  1.00  0.00    -0.133 A  
HETATM   29  C   UNL     1      -9.404   7.451  66.609  1.00  0.00    -0.215 A  
BRANCH  26  30
HETATM   30  O   UNL     1      -8.621   5.272  66.538  1.00  0.00    -0.112 OA 
HETATM   31  C   UNL     1      -9.836   4.690  66.090  1.00  0.00    -0.226 C  
ENDBRANCH  26  30
ENDBRANCH  23  24
ENDBRANCH  22  23
BRANCH  22  32
HETATM   32  C   UNL     1     -11.764  10.049  70.376  1.00  0.00    -0.286 A  
HETATM   33  N   UNL     1     -12.523  10.985  70.976  1.00  0.00    -0.389 NA 
HETATM   34  N   UNL     1     -11.782   8.759  70.730  1.00  0.00    -0.258 NA 
HETATM   35  C   UNL     1     -12.594   8.405  71.744  1.00  0.00    -0.342 A  
HETATM   36  C   UNL     1     -13.276  10.593  72.032  1.00  0.00    -0.368 A  
HETATM   37  C   UNL     1     -13.362   9.294  72.452  1.00  0.00    -0.521 A  
ENDBRANCH  22  32
ENDBRANCH  21  22
ENDBRANCH  20  21
ENDBRANCH  17  20
ENDBRANCH  16  17
ENDBRANCH  15  16
ENDBRANCH  14  15
ENDBRANCH  13  14
ENDBRANCH  12  13
ENDBRANCH  11  12
ENDBRANCH  10  11
ENDBRANCH   9  10
ENDBRANCH   8   9
ENDBRANCH   7   8
ENDBRANCH   6   7
ENDBRANCH   5   6
ENDBRANCH   4   5
ENDBRANCH   3   4
ENDBRANCH   2   3
TORSDOF 22
ENDMDL
MODEL       63
REMARK 921   NORMALIZED FREE ENERGY PREDICTED BY IDOCK:   -4.29 KCAL/MOL
REMARK 922        TOTAL FREE ENERGY PREDICTED BY IDOCK:  -14.26 KCAL/MOL
REMARK 923 INTER-LIGAND FREE ENERGY PREDICTED BY IDOCK:  -10.04 KCAL/MOL
REMARK 924 INTRA-LIGAND FREE ENERGY PREDICTED BY IDOCK:   -4.22 KCAL/MOL
REMARK 927      BINDING AFFINITY PREDICTED BY RF-SCORE:    0.00 PKD
ROOT
HETATM    1  C   UNL     1     -12.050  14.197  66.924  1.00  0.00    -0.466 C  
HETATM    2  C   UNL     1     -12.771  13.732  65.671  1.00  0.00    -0.523 C  
ENDROOT
BRANCH   2   3
HETATM    3  C   UNL     1     -12.026  14.172  64.415  1.00  0.00    -0.478 C  
BRANCH   3   4
HETATM    4  C   UNL     1     -12.114  13.105  63.332  1.00  0.00    -0.558 C  
BRANCH   4   5
HETATM    5  C   UNL     1     -11.899  11.718  63.925  1.00  0.00    -0.449 C  
BRANCH   5   6
HETATM    6  C   UNL     1     -10.530  11.180  63.535  1.00  0.00    -0.422 C  
BRANCH   6   7
HETATM    7  C   UNL     1      -9.892  10.461  64.713  1.00  0.00    -0.406 C  
BRANCH   7   8
HETATM    8  C   UNL     1     -10.492  10.951  66.020  1.00  0.00    -0.287 C  
BRANCH   8   9
HETATM    9  C   UNL     1     -10.257   9.922  67.113  1.00  0.00    -0.285 C  
BRANCH   9  10
HETATM   10  C   UNL     1      -8.804   9.479  67.123  1.00  0.00    -0.141 C  
BRANCH  10  11
HETATM   11  C   UNL     1      -8.403   9.044  68.524  1.00  0.00    -0.124 C  
BRANCH  11  12
HETATM   12  C   UNL     1      -7.623   7.739  68.462  1.00  0.00    -0.105 C  
BRANCH  12  13
HETATM   13  C   UNL     1      -7.210   7.283  69.852  1.00  0.00    -0.081 C  
BRANCH  13  14
HETATM   14  C   UNL     1      -6.617   5.869  69.840  1.00  0.00    -0.050 C  
BRANCH  14  15
HETATM   15  C   UNL     1      -6.916   5.046  71.103  1.00  0.00    -0.048 C  
BRANCH  15  16
HETATM   16  C   UNL     1      -7.530   5.932  72.183  1.00  0.00    -0.096 C  
BRANCH  16  17
HETATM   17  N   UNL     1      -8.586   5.260  73.048  1.00  0.00    -0.118 N  
HETATM   18  C   UNL     1      -8.120   5.171  74.508  1.00  0.00    -0.101 C  
HETATM   19  C   UNL     1      -8.936   3.860  72.567  1.00  0.00    -0.108 C  
BRANCH  17  20
HETATM   20  C   UNL     1      -9.862   6.158  73.049  1.00  0.00    -0.168 C  
BRANCH  20  21
HETATM   21  C   UNL     1      -9.753   7.502  72.262  1.00  0.00    -0.160 C  
BRANCH  21  22
HETATM   22  N   UNL     1     -10.793   7.550  71.238  1.00  0.00    -0.233 NA 
BRANCH  22  23
HETATM   23  C   UNL     1     -11.392   6.307  70.735  1.00  0.00    -0.332 C  
BRANCH  23  24
HETATM   24  C   UNL     1     -10.832   5.882  69.391  1.00  0.00    -0.422 A  
HETATM   25  C   UNL     1     -11.208   6.561  68.226  1.00  0.00    -0.259 A  
HETATM   26  C   UNL     1     -10.019   4.947  66.853  1.00  0.00    -0.217 A  
HETATM   27  C   UNL     1      -9.560   4.319  68.009  1.00  0.00    -0.204 A  
HETATM   28  C   UNL     1      -9.967   4.782  69.271  1.00  0.00    -0.254 A  
HETATM   29  C   UNL     1     -10.813   6.088  66.973  1.00  0.00    -0.413 A  
BRANCH  26  30
HETATM   30  O   UNL     1      -9.829   4.532  65.567  1.00  0.00    -0.184 OA 
HETATM   31  C   UNL     1      -8.753   5.084  64.823  1.00  0.00    -0.149 C  
ENDBRANCH  26  30
ENDBRANCH  23  24
ENDBRANCH  22  23
BRANCH  22  32
HETATM   32  C   UNL     1     -11.677   8.612  71.340  1.00  0.00    -0.297 A  
HETATM   33  N   UNL     1     -12.826   8.434  72.016  1.00  0.00    -0.341 NA 
HETATM   34  N   UNL     1     -11.268   9.807  70.899  1.00  0.00    -0.332 NA 
HETATM   35  C   UNL     1     -12.067  10.864  71.140  1.00  0.00    -0.281 A  
HETATM   36  C   UNL     1     -13.627   9.514  72.180  1.00  0.00    -0.424 A  
HETATM   37  C   UNL     1     -13.282  10.774  71.770  1.00  0.00    -0.523 A  
ENDBRANCH  22  32
ENDBRANCH  21  22
ENDBRANCH  20  21
ENDBRANCH  17  20
ENDBRANCH  16  17
ENDBRANCH  15  16
ENDBRANCH  14  15
ENDBRANCH  13  14
ENDBRANCH  12  13
ENDBRANCH  11  12
ENDBRANCH  10  11
ENDBRANCH   9  10
ENDBRANCH   8   9
ENDBRANCH   7   8
ENDBRANCH   6   7
ENDBRANCH   5   6
ENDBRANCH   4   5
ENDBRANCH   3   4
ENDBRANCH   2   3
TORSDOF 22
ENDMDL
MODEL       64
REMARK 921   NORMALIZED FREE ENERGY PREDICTED BY IDOCK:   -4.28 KCAL/MOL
REMARK 922        TOTAL FREE ENERGY PREDICTED BY IDOCK:  -14.24 KCAL/MOL
REMARK 923 INTER-LIGAND FREE ENERGY PREDICTED BY IDOCK:  -11.29 KCAL/MOL
REMARK 924 INTRA-LIGAND FREE ENERGY PREDICTED BY IDOCK:   -2.94 KCAL/MOL
REMARK 927      BINDING AFFINITY PREDICTED BY RF-SCORE:    0.00 PKD
ROOT
HETATM    1  C   UNL     1     -11.563  12.098  63.786  1.00  0.00    -0.557 C  
HETATM    2  C   UNL     1     -12.126  13.319  64.491  1.00  0.00    -0.461 C  
ENDROOT
BRANCH   2   3
HETATM    3  C   UNL     1     -11.323  13.644  65.747  1.00  0.00    -0.315 C  
BRANCH   3   4
HETATM    4  C   UNL     1     -12.142  14.498  66.706  1.00  0.00    -0.313 C  
BRANCH   4   5
HETATM    5  C   UNL     1     -11.792  14.168  68.152  1.00  0.00    -0.387 C  
BRANCH   5   6
HETATM    6  C   UNL     1     -10.357  14.573  68.457  1.00  0.00    -0.242 C  
BRANCH   6   7
HETATM    7  C   UNL     1     -10.292  15.332  69.773  1.00  0.00    -0.266 C  
BRANCH   7   8
HETATM    8  C   UNL     1     -11.633  15.983  70.075  1.00  0.00    -0.316 C  
BRANCH   8   9
HETATM    9  C   UNL     1     -12.108  15.564  71.456  1.00  0.00    -0.458 C  
BRANCH   9  10
HETATM   10  C   UNL     1     -13.609  15.329  71.453  1.00  0.00    -0.598 C  
BRANCH  10  11
HETATM   11  C   UNL     1     -13.919  13.943  71.997  1.00  0.00    -0.585 C  
BRANCH  11  12
HETATM   12  C   UNL     1     -12.891  12.941  71.490  1.00  0.00    -0.380 C  
BRANCH  12  13
HETATM   13  C   UNL     1     -13.280  11.521  71.865  1.00  0.00    -0.479 C  
BRANCH  13  14
HETATM   14  C   UNL     1     -12.793  10.500  70.832  1.00  0.00    -0.485 C  
BRANCH  14  15
HETATM   15  C   UNL     1     -11.402  10.798  70.251  1.00  0.00    -0.374 C  
BRANCH  15  16
HETATM   16  C   UNL     1     -11.407  10.616  68.736  1.00  0.00    -0.277 C  
BRANCH  16  17
HETATM   17  N   UNL     1     -10.108  10.089  68.144  1.00  0.00    -0.153 N  
HETATM   18  C   UNL     1      -9.227   9.460  69.232  1.00  0.00    -0.159 C  
HETATM   19  C   UNL     1      -9.304  11.170  67.437  1.00  0.00    -0.164 C  
BRANCH  17  20
HETATM   20  C   UNL     1     -10.456   8.943  67.144  1.00  0.00    -0.274 C  
BRANCH  20  21
HETATM   21  C   UNL     1      -9.296   7.954  66.806  1.00  0.00    -0.184 C  
BRANCH  21  22
HETATM   22  N   UNL     1      -9.749   6.583  67.027  1.00  0.00    -0.144 NA 
BRANCH  22  23
HETATM   23  C   UNL     1     -11.024   6.327  67.710  1.00  0.00    -0.332 C  
BRANCH  23  24
HETATM   24  C   UNL     1     -10.850   5.971  69.173  1.00  0.00    -0.422 A  
HETATM   25  C   UNL     1     -11.520   6.704  70.161  1.00  0.00    -0.444 A  
HETATM   26  C   UNL     1     -10.339   5.504  71.911  1.00  0.00    -0.216 A  
HETATM   27  C   UNL     1      -9.738   4.704  70.942  1.00  0.00    -0.262 A  
HETATM   28  C   UNL     1      -9.990   4.938  69.580  1.00  0.00    -0.302 A  
HETATM   29  C   UNL     1     -11.255   6.478  71.513  1.00  0.00    -0.322 A  
BRANCH  26  30
HETATM   30  O   UNL     1     -10.086   5.492  73.252  1.00  0.00    -0.170 OA 
HETATM   31  C   UNL     1     -10.389   6.650  74.016  1.00  0.00    -0.351 C  
ENDBRANCH  26  30
ENDBRANCH  23  24
ENDBRANCH  22  23
BRANCH  22  32
HETATM   32  C   UNL     1      -9.454   5.690  66.009  1.00  0.00    -0.110 A  
HETATM   33  N   UNL     1      -8.266   5.792  65.385  1.00  0.00    -0.131 NA 
HETATM   34  N   UNL     1     -10.299   4.673  65.808  1.00  0.00    -0.278 NA 
HETATM   35  C   UNL     1      -9.930   3.725  64.926  1.00  0.00    -0.171 A  
HETATM   36  C   UNL     1      -7.966   4.849  64.459  1.00  0.00    -0.103 A  
HETATM   37  C   UNL     1      -8.768   3.770  64.200  1.00  0.00    -0.107 A  
ENDBRANCH  22  32
ENDBRANCH  21  22
ENDBRANCH  20  21
ENDBRANCH  17  20
ENDBRANCH  16  17
ENDBRANCH  15  16
ENDBRANCH  14  15
ENDBRANCH  13  14
ENDBRANCH  12  13
ENDBRANCH  11  12
ENDBRANCH  10  11
ENDBRANCH   9  10
ENDBRANCH   8   9
ENDBRANCH   7   8
ENDBRANCH   6   7
ENDBRANCH   5   6
ENDBRANCH   4   5
ENDBRANCH   3   4
ENDBRANCH   2   3
TORSDOF 22
ENDMDL
MODEL       65
REMARK 921   NORMALIZED FREE ENERGY PREDICTED BY IDOCK:   -4.28 KCAL/MOL
REMARK 922        TOTAL FREE ENERGY PREDICTED BY IDOCK:  -14.23 KCAL/MOL
REMARK 923 INTER-LIGAND FREE ENERGY PREDICTED BY IDOCK:  -10.79 KCAL/MOL
REMARK 924 INTRA-LIGAND FREE ENERGY PREDICTED BY IDOCK:   -3.44 KCAL/MOL
REMARK 927      BINDING AFFINITY PREDICTED BY RF-SCORE:    0.00 PKD
ROOT
HETATM    1  C   UNL     1     -10.902  19.412  67.082  1.00  0.00    -0.561 C  
HETATM    2  C   UNL     1      -9.734  20.031  66.334  1.00  0.00    -0.557 C  
ENDROOT
BRANCH   2   3
HETATM    3  C   UNL     1      -8.495  20.107  67.221  1.00  0.00    -0.403 C  
BRANCH   3   4
HETATM    4  C   UNL     1      -8.710  19.335  68.517  1.00  0.00    -0.405 C  
BRANCH   4   5
HETATM    5  C   UNL     1      -7.451  19.365  69.375  1.00  0.00    -0.195 C  
BRANCH   5   6
HETATM    6  C   UNL     1      -6.248  19.778  68.541  1.00  0.00    -0.294 C  
BRANCH   6   7
HETATM    7  C   UNL     1      -5.162  18.717  68.621  1.00  0.00    -0.189 C  
BRANCH   7   8
HETATM    8  C   UNL     1      -5.639  17.422  67.985  1.00  0.00    -0.132 C  
BRANCH   8   9
HETATM    9  C   UNL     1      -5.795  17.611  66.486  1.00  0.00    -0.231 C  
BRANCH   9  10
HETATM   10  C   UNL     1      -7.153  17.110  66.024  1.00  0.00    -0.120 C  
BRANCH  10  11
HETATM   11  C   UNL     1      -7.816  16.310  67.135  1.00  0.00    -0.225 C  
BRANCH  11  12
HETATM   12  C   UNL     1      -8.775  15.288  66.541  1.00  0.00    -0.314 C  
BRANCH  12  13
HETATM   13  C   UNL     1     -10.193  15.834  66.493  1.00  0.00    -0.294 C  
BRANCH  13  14
HETATM   14  C   UNL     1     -10.552  16.378  65.106  1.00  0.00    -0.287 C  
BRANCH  14  15
HETATM   15  C   UNL     1     -11.303  15.381  64.208  1.00  0.00    -0.136 C  
BRANCH  15  16
HETATM   16  C   UNL     1     -12.167  14.450  65.053  1.00  0.00    -0.414 C  
BRANCH  16  17
HETATM   17  N   UNL     1     -11.845  12.969  64.921  1.00  0.00    -0.342 N  
HETATM   18  C   UNL     1     -10.490  12.766  64.228  1.00  0.00    -0.399 C  
HETATM   19  C   UNL     1     -12.905  12.205  64.141  1.00  0.00    -0.236 C  
BRANCH  17  20
HETATM   20  C   UNL     1     -11.700  12.370  66.354  1.00  0.00    -0.391 C  
BRANCH  20  21
HETATM   21  C   UNL     1     -12.366  13.184  67.507  1.00  0.00     0.072 C  
BRANCH  21  22
HETATM   22  N   UNL     1     -11.730  12.839  68.775  1.00  0.00    -0.306 NA 
BRANCH  22  23
HETATM   23  C   UNL     1     -10.477  12.073  68.787  1.00  0.00    -0.183 C  
BRANCH  23  24
HETATM   24  C   UNL     1     -10.653  10.658  69.305  1.00  0.00    -0.263 A  
HETATM   25  C   UNL     1     -11.620  10.381  70.280  1.00  0.00    -0.410 A  
HETATM   26  C   UNL     1     -10.823   8.095  70.480  1.00  0.00    -0.240 A  
HETATM   27  C   UNL     1      -9.921   8.331  69.444  1.00  0.00    -0.188 A  
HETATM   28  C   UNL     1      -9.835   9.607  68.862  1.00  0.00    -0.179 A  
HETATM   29  C   UNL     1     -11.693   9.116  70.866  1.00  0.00    -0.341 A  
BRANCH  26  30
HETATM   30  O   UNL     1     -10.924   6.962  71.233  1.00  0.00    -0.235 OA 
HETATM   31  C   UNL     1     -12.110   6.742  71.982  1.00  0.00    -0.305 C  
ENDBRANCH  26  30
ENDBRANCH  23  24
ENDBRANCH  22  23
BRANCH  22  32
HETATM   32  C   UNL     1     -11.823  13.802  69.767  1.00  0.00    -0.331 A  
HETATM   33  N   UNL     1     -12.632  13.571  70.817  1.00  0.00    -0.331 NA 
HETATM   34  N   UNL     1     -10.982  14.841  69.708  1.00  0.00    -0.256 NA 
HETATM   35  C   UNL     1     -10.971  15.690  70.753  1.00  0.00    -0.311 A  
HETATM   36  C   UNL     1     -12.632  14.486  71.816  1.00  0.00    -0.346 A  
HETATM   37  C   UNL     1     -11.797  15.570  71.842  1.00  0.00    -0.514 A  
ENDBRANCH  22  32
ENDBRANCH  21  22
ENDBRANCH  20  21
ENDBRANCH  17  20
ENDBRANCH  16  17
ENDBRANCH  15  16
ENDBRANCH  14  15
ENDBRANCH  13  14
ENDBRANCH  12  13
ENDBRANCH  11  12
ENDBRANCH  10  11
ENDBRANCH   9  10
ENDBRANCH   8   9
ENDBRANCH   7   8
ENDBRANCH   6   7
ENDBRANCH   5   6
ENDBRANCH   4   5
ENDBRANCH   3   4
ENDBRANCH   2   3
TORSDOF 22
ENDMDL
MODEL       66
REMARK 921   NORMALIZED FREE ENERGY PREDICTED BY IDOCK:   -4.27 KCAL/MOL
REMARK 922        TOTAL FREE ENERGY PREDICTED BY IDOCK:  -14.20 KCAL/MOL
REMARK 923 INTER-LIGAND FREE ENERGY PREDICTED BY IDOCK:   -9.63 KCAL/MOL
REMARK 924 INTRA-LIGAND FREE ENERGY PREDICTED BY IDOCK:   -4.57 KCAL/MOL
REMARK 927      BINDING AFFINITY PREDICTED BY RF-SCORE:    0.00 PKD
ROOT
HETATM    1  C   UNL     1     -12.139  12.052  63.417  1.00  0.00    -0.597 C  
HETATM    2  C   UNL     1     -11.915  13.364  64.147  1.00  0.00    -0.505 C  
ENDROOT
BRANCH   2   3
HETATM    3  C   UNL     1     -12.671  13.391  65.471  1.00  0.00    -0.469 C  
BRANCH   3   4
HETATM    4  C   UNL     1     -11.942  14.252  66.494  1.00  0.00    -0.448 C  
BRANCH   4   5
HETATM    5  C   UNL     1     -11.838  13.528  67.830  1.00  0.00    -0.397 C  
BRANCH   5   6
HETATM    6  C   UNL     1     -10.407  13.563  68.345  1.00  0.00    -0.249 C  
BRANCH   6   7
HETATM    7  C   UNL     1      -9.733  12.219  68.118  1.00  0.00    -0.213 C  
BRANCH   7   8
HETATM    8  C   UNL     1      -8.679  12.332  67.028  1.00  0.00    -0.199 C  
BRANCH   8   9
HETATM    9  C   UNL     1      -9.066  11.461  65.845  1.00  0.00    -0.209 C  
BRANCH   9  10
HETATM   10  C   UNL     1     -10.274  10.605  66.187  1.00  0.00    -0.308 C  
BRANCH  10  11
HETATM   11  C   UNL     1      -9.960   9.138  65.933  1.00  0.00    -0.232 C  
BRANCH  11  12
HETATM   12  C   UNL     1      -8.707   9.013  65.078  1.00  0.00    -0.217 C  
BRANCH  12  13
HETATM   13  C   UNL     1      -7.772   7.950  65.631  1.00  0.00    -0.096 C  
BRANCH  13  14
HETATM   14  C   UNL     1      -7.803   7.898  67.162  1.00  0.00    -0.109 C  
BRANCH  14  15
HETATM   15  C   UNL     1      -6.803   8.840  67.849  1.00  0.00    -0.070 C  
BRANCH  15  16
HETATM   16  C   UNL     1      -6.193   8.167  69.076  1.00  0.00    -0.040 C  
BRANCH  16  17
HETATM   17  N   UNL     1      -6.771   8.612  70.412  1.00  0.00    -0.036 N  
HETATM   18  C   UNL     1      -7.537   9.933  70.263  1.00  0.00    -0.158 C  
HETATM   19  C   UNL     1      -5.704   8.790  71.482  1.00  0.00    -0.049 C  
BRANCH  17  20
HETATM   20  C   UNL     1      -7.815   7.548  70.872  1.00  0.00    -0.094 C  
BRANCH  20  21
HETATM   21  C   UNL     1      -9.042   8.092  71.667  1.00  0.00    -0.163 C  
BRANCH  21  22
HETATM   22  N   UNL     1     -10.270   7.764  70.948  1.00  0.00    -0.199 NA 
BRANCH  22  23
HETATM   23  C   UNL     1     -10.710   6.367  70.837  1.00  0.00    -0.250 C  
BRANCH  23  24
HETATM   24  C   UNL     1     -10.551   5.807  69.437  1.00  0.00    -0.383 A  
HETATM   25  C   UNL     1      -9.779   4.659  69.221  1.00  0.00    -0.266 A  
HETATM   26  C   UNL     1     -10.020   4.899  66.816  1.00  0.00    -0.224 A  
HETATM   27  C   UNL     1     -10.867   5.985  67.020  1.00  0.00    -0.413 A  
HETATM   28  C   UNL     1     -11.130   6.439  68.323  1.00  0.00    -0.359 A  
HETATM   29  C   UNL     1      -9.509   4.221  67.923  1.00  0.00    -0.216 A  
BRANCH  26  30
HETATM   30  O   UNL     1      -9.561   4.434  65.617  1.00  0.00    -0.159 OA 
HETATM   31  C   UNL     1      -8.195   4.060  65.506  1.00  0.00    -0.105 C  
ENDBRANCH  26  30
ENDBRANCH  23  24
ENDBRANCH  22  23
BRANCH  22  32
HETATM   32  C   UNL     1     -11.300   8.681  71.085  1.00  0.00    -0.275 A  
HETATM   33  N   UNL     1     -12.325   8.384  71.905  1.00  0.00    -0.326 NA 
HETATM   34  N   UNL     1     -11.144   9.883  70.520  1.00  0.00    -0.307 NA 
HETATM   35  C   UNL     1     -12.075  10.820  70.785  1.00  0.00    -0.372 A  
HETATM   36  C   UNL     1     -13.270   9.336  72.092  1.00  0.00    -0.461 A  
HETATM   37  C   UNL     1     -13.183  10.595  71.561  1.00  0.00    -0.460 A  
ENDBRANCH  22  32
ENDBRANCH  21  22
ENDBRANCH  20  21
ENDBRANCH  17  20
ENDBRANCH  16  17
ENDBRANCH  15  16
ENDBRANCH  14  15
ENDBRANCH  13  14
ENDBRANCH  12  13
ENDBRANCH  11  12
ENDBRANCH  10  11
ENDBRANCH   9  10
ENDBRANCH   8   9
ENDBRANCH   7   8
ENDBRANCH   6   7
ENDBRANCH   5   6
ENDBRANCH   4   5
ENDBRANCH   3   4
ENDBRANCH   2   3
TORSDOF 22
ENDMDL
MODEL       67
REMARK 921   NORMALIZED FREE ENERGY PREDICTED BY IDOCK:   -4.25 KCAL/MOL
REMARK 922        TOTAL FREE ENERGY PREDICTED BY IDOCK:  -14.18 KCAL/MOL
REMARK 923 INTER-LIGAND FREE ENERGY PREDICTED BY IDOCK:  -10.64 KCAL/MOL
REMARK 924 INTRA-LIGAND FREE ENERGY PREDICTED BY IDOCK:   -3.54 KCAL/MOL
REMARK 927      BINDING AFFINITY PREDICTED BY RF-SCORE:    0.00 PKD
ROOT
HETATM    1  C   UNL     1     -12.663  15.666  74.073  1.00  0.00    -0.710 C  
HETATM    2  C   UNL     1     -12.500  14.442  73.189  1.00  0.00    -0.290 C  
ENDROOT
BRANCH   2   3
HETATM    3  C   UNL     1     -13.721  14.245  72.297  1.00  0.00    -0.592 C  
BRANCH   3   4
HETATM    4  C   UNL     1     -13.682  15.195  71.108  1.00  0.00    -0.510 C  
BRANCH   4   5
HETATM    5  C   UNL     1     -12.251  15.389  70.622  1.00  0.00    -0.431 C  
BRANCH   5   6
HETATM    6  C   UNL     1     -12.019  14.619  69.330  1.00  0.00    -0.351 C  
BRANCH   6   7
HETATM    7  C   UNL     1     -11.126  13.416  69.587  1.00  0.00    -0.020 C  
BRANCH   7   8
HETATM    8  C   UNL     1     -11.881  12.127  69.305  1.00  0.00    -0.370 C  
BRANCH   8   9
HETATM    9  C   UNL     1     -11.746  11.181  70.486  1.00  0.00    -0.392 C  
BRANCH   9  10
HETATM   10  C   UNL     1     -13.004  10.344  70.644  1.00  0.00    -0.357 C  
BRANCH  10  11
HETATM   11  C   UNL     1     -13.361  10.216  72.117  1.00  0.00    -0.431 C  
BRANCH  11  12
HETATM   12  C   UNL     1     -13.854   8.807  72.414  1.00  0.00    -0.477 C  
BRANCH  12  13
HETATM   13  C   UNL     1     -13.231   7.799  71.464  1.00  0.00    -0.356 C  
BRANCH  13  14
HETATM   14  C   UNL     1     -11.870   7.301  71.965  1.00  0.00    -0.332 C  
BRANCH  14  15
HETATM   15  C   UNL     1     -11.092   6.452  70.948  1.00  0.00    -0.354 C  
BRANCH  15  16
HETATM   16  C   UNL     1      -9.974   7.273  70.312  1.00  0.00    -0.187 C  
BRANCH  16  17
HETATM   17  N   UNL     1      -9.948   7.262  68.791  1.00  0.00    -0.162 N  
HETATM   18  C   UNL     1     -11.144   6.480  68.230  1.00  0.00    -0.243 C  
HETATM   19  C   UNL     1      -8.670   6.656  68.230  1.00  0.00    -0.118 C  
BRANCH  17  20
HETATM   20  C   UNL     1     -10.108   8.730  68.288  1.00  0.00    -0.188 C  
BRANCH  20  21
HETATM   21  C   UNL     1     -10.548   8.901  66.801  1.00  0.00    -0.142 C  
BRANCH  21  22
HETATM   22  N   UNL     1      -9.672   9.866  66.143  1.00  0.00    -0.218 NA 
BRANCH  22  23
HETATM   23  C   UNL     1      -9.012  10.917  66.927  1.00  0.00    -0.151 C  
BRANCH  23  24
HETATM   24  C   UNL     1      -9.462  12.313  66.543  1.00  0.00    -0.238 A  
HETATM   25  C   UNL     1     -10.565  12.490  65.698  1.00  0.00    -0.298 A  
HETATM   26  C   UNL     1     -10.158  14.882  65.597  1.00  0.00    -0.359 A  
HETATM   27  C   UNL     1      -9.119  14.732  66.513  1.00  0.00    -0.291 A  
HETATM   28  C   UNL     1      -8.771  13.454  66.981  1.00  0.00    -0.195 A  
HETATM   29  C   UNL     1     -10.898  13.760  65.224  1.00  0.00    -0.326 A  
BRANCH  26  30
HETATM   30  O   UNL     1     -10.518  16.028  64.950  1.00  0.00    -0.574 OA 
HETATM   31  C   UNL     1     -11.748  16.056  64.241  1.00  0.00    -0.081 C  
ENDBRANCH  26  30
ENDBRANCH  23  24
ENDBRANCH  22  23
BRANCH  22  32
HETATM   32  C   UNL     1      -8.909   9.361  65.102  1.00  0.00    -0.195 A  
HETATM   33  N   UNL     1      -9.063   9.886  63.874  1.00  0.00    -0.251 NA 
HETATM   34  N   UNL     1      -7.943   8.486  65.406  1.00  0.00    -0.106 NA 
HETATM   35  C   UNL     1      -7.106   8.118  64.417  1.00  0.00    -0.078 A  
HETATM   36  C   UNL     1      -8.238   9.439  62.896  1.00  0.00    -0.165 A  
HETATM   37  C   UNL     1      -7.218   8.555  63.122  1.00  0.00    -0.096 A  
ENDBRANCH  22  32
ENDBRANCH  21  22
ENDBRANCH  20  21
ENDBRANCH  17  20
ENDBRANCH  16  17
ENDBRANCH  15  16
ENDBRANCH  14  15
ENDBRANCH  13  14
ENDBRANCH  12  13
ENDBRANCH  11  12
ENDBRANCH  10  11
ENDBRANCH   9  10
ENDBRANCH   8   9
ENDBRANCH   7   8
ENDBRANCH   6   7
ENDBRANCH   5   6
ENDBRANCH   4   5
ENDBRANCH   3   4
ENDBRANCH   2   3
TORSDOF 22
ENDMDL
MODEL       68
REMARK 921   NORMALIZED FREE ENERGY PREDICTED BY IDOCK:   -4.24 KCAL/MOL
REMARK 922        TOTAL FREE ENERGY PREDICTED BY IDOCK:  -14.13 KCAL/MOL
REMARK 923 INTER-LIGAND FREE ENERGY PREDICTED BY IDOCK:  -11.03 KCAL/MOL
REMARK 924 INTRA-LIGAND FREE ENERGY PREDICTED BY IDOCK:   -3.10 KCAL/MOL
REMARK 927      BINDING AFFINITY PREDICTED BY RF-SCORE:    0.00 PKD
ROOT
HETATM    1  C   UNL     1      -8.065   8.472  69.396  1.00  0.00    -0.112 C  
HETATM    2  C   UNL     1      -9.493   7.962  69.458  1.00  0.00    -0.160 C  
ENDROOT
BRANCH   2   3
HETATM    3  C   UNL     1      -9.901   7.314  68.139  1.00  0.00    -0.165 C  
BRANCH   3   4
HETATM    4  C   UNL     1     -10.721   6.054  68.386  1.00  0.00    -0.351 C  
BRANCH   4   5
HETATM    5  C   UNL     1     -10.993   5.873  69.874  1.00  0.00    -0.444 C  
BRANCH   5   6
HETATM    6  C   UNL     1     -10.090   4.793  70.453  1.00  0.00    -0.301 C  
BRANCH   6   7
HETATM    7  C   UNL     1      -9.884   5.020  71.942  1.00  0.00    -0.236 C  
BRANCH   7   8
HETATM    8  C   UNL     1      -8.579   5.760  72.189  1.00  0.00    -0.129 C  
BRANCH   8   9
HETATM    9  C   UNL     1      -8.843   7.009  73.012  1.00  0.00    -0.148 C  
BRANCH   9  10
HETATM   10  C   UNL     1     -10.336   7.233  73.176  1.00  0.00    -0.359 C  
BRANCH  10  11
HETATM   11  C   UNL     1     -10.732   8.565  72.559  1.00  0.00    -0.303 C  
BRANCH  11  12
HETATM   12  C   UNL     1     -12.187   8.522  72.112  1.00  0.00    -0.446 C  
BRANCH  12  13
HETATM   13  C   UNL     1     -12.496   9.653  71.146  1.00  0.00    -0.421 C  
BRANCH  13  14
HETATM   14  C   UNL     1     -13.281  10.785  71.819  1.00  0.00    -0.523 C  
BRANCH  14  15
HETATM   15  C   UNL     1     -12.965  12.187  71.275  1.00  0.00    -0.303 C  
BRANCH  15  16
HETATM   16  C   UNL     1     -13.199  13.241  72.353  1.00  0.00    -0.436 C  
BRANCH  16  17
HETATM   17  N   UNL     1     -12.980  14.681  71.908  1.00  0.00    -0.315 N  
HETATM   18  C   UNL     1     -11.626  15.205  72.407  1.00  0.00    -0.360 C  
HETATM   19  C   UNL     1     -14.072  15.619  72.398  1.00  0.00    -0.490 C  
BRANCH  17  20
HETATM   20  C   UNL     1     -12.914  14.706  70.350  1.00  0.00    -0.200 C  
BRANCH  20  21
HETATM   21  C   UNL     1     -11.549  15.142  69.730  1.00  0.00    -0.311 C  
BRANCH  21  22
HETATM   22  N   UNL     1     -11.528  14.797  68.311  1.00  0.00    -0.303 NA 
BRANCH  22  23
HETATM   23  C   UNL     1     -11.131  15.798  67.313  1.00  0.00    -0.211 C  
BRANCH  23  24
HETATM   24  C   UNL     1     -10.133  16.805  67.850  1.00  0.00    -0.284 A  
HETATM   25  C   UNL     1     -10.502  18.146  68.009  1.00  0.00    -0.387 A  
HETATM   26  C   UNL     1      -8.222  18.748  68.590  1.00  0.00    -0.329 A  
HETATM   27  C   UNL     1      -7.863  17.403  68.529  1.00  0.00    -0.268 A  
HETATM   28  C   UNL     1      -8.813  16.437  68.158  1.00  0.00    -0.192 A  
HETATM   29  C   UNL     1      -9.552  19.105  68.363  1.00  0.00    -0.437 A  
BRANCH  26  30
HETATM   30  O   UNL     1      -7.387  19.808  68.795  1.00  0.00    -0.334 OA 
HETATM   31  C   UNL     1      -6.115  19.573  69.383  1.00  0.00    -0.288 C  
ENDBRANCH  26  30
ENDBRANCH  23  24
ENDBRANCH  22  23
BRANCH  22  32
HETATM   32  C   UNL     1     -11.120  13.504  68.022  1.00  0.00    -0.258 A  
HETATM   33  N   UNL     1     -11.769  12.821  67.062  1.00  0.00    -0.362 NA 
HETATM   34  N   UNL     1      -9.998  13.061  68.601  1.00  0.00    -0.163 NA 
HETATM   35  C   UNL     1      -9.523  11.867  68.200  1.00  0.00    -0.195 A  
HETATM   36  C   UNL     1     -11.289  11.597  66.735  1.00  0.00    -0.286 A  
HETATM   37  C   UNL     1     -10.143  11.073  67.270  1.00  0.00    -0.222 A  
ENDBRANCH  22  32
ENDBRANCH  21  22
ENDBRANCH  20  21
ENDBRANCH  17  20
ENDBRANCH  16  17
ENDBRANCH  15  16
ENDBRANCH  14  15
ENDBRANCH  13  14
ENDBRANCH  12  13
ENDBRANCH  11  12
ENDBRANCH  10  11
ENDBRANCH   9  10
ENDBRANCH   8   9
ENDBRANCH   7   8
ENDBRANCH   6   7
ENDBRANCH   5   6
ENDBRANCH   4   5
ENDBRANCH   3   4
ENDBRANCH   2   3
TORSDOF 22
ENDMDL
MODEL       69
REMARK 921   NORMALIZED FREE ENERGY PREDICTED BY IDOCK:   -4.23 KCAL/MOL
REMARK 922        TOTAL FREE ENERGY PREDICTED BY IDOCK:  -14.12 KCAL/MOL
REMARK 923 INTER-LIGAND FREE ENERGY PREDICTED BY IDOCK:  -10.63 KCAL/MOL
REMARK 924 INTRA-LIGAND FREE ENERGY PREDICTED BY IDOCK:   -3.49 KCAL/MOL
REMARK 927      BINDING AFFINITY PREDICTED BY RF-SCORE:    0.00 PKD
ROOT
HETATM    1  C   UNL     1     -10.560   5.364  66.431  1.00  0.00    -0.322 C  
HETATM    2  C   UNL     1      -9.896   4.239  67.205  1.00  0.00    -0.193 C  
ENDROOT
BRANCH   2   3
HETATM    3  C   UNL     1      -8.620   4.723  67.887  1.00  0.00    -0.105 C  
BRANCH   3   4
HETATM    4  C   UNL     1      -8.236   3.798  69.035  1.00  0.00    -0.076 C  
BRANCH   4   5
HETATM    5  C   UNL     1      -9.213   2.634  69.137  1.00  0.00    -0.209 C  
BRANCH   5   6
HETATM    6  C   UNL     1      -9.458   2.271  70.594  1.00  0.00    -0.189 C  
BRANCH   6   7
HETATM    7  C   UNL     1      -8.325   2.791  71.464  1.00  0.00    -0.081 C  
BRANCH   7   8
HETATM    8  C   UNL     1      -8.715   2.729  72.932  1.00  0.00    -0.080 C  
BRANCH   8   9
HETATM    9  C   UNL     1     -10.228   2.740  73.065  1.00  0.00    -0.224 C  
BRANCH   9  10
HETATM   10  C   UNL     1     -10.672   3.856  73.995  1.00  0.00    -0.291 C  
BRANCH  10  11
HETATM   11  C   UNL     1     -11.352   4.958  73.196  1.00  0.00    -0.395 C  
BRANCH  11  12
HETATM   12  C   UNL     1     -10.397   6.126  72.999  1.00  0.00    -0.223 C  
BRANCH  12  13
HETATM   13  C   UNL     1      -9.842   6.146  71.585  1.00  0.00    -0.191 C  
BRANCH  13  14
HETATM   14  C   UNL     1     -10.918   5.825  70.541  1.00  0.00    -0.320 C  
BRANCH  14  15
HETATM   15  C   UNL     1     -11.569   7.061  69.900  1.00  0.00    -0.179 C  
BRANCH  15  16
HETATM   16  C   UNL     1     -10.509   7.939  69.241  1.00  0.00    -0.216 C  
BRANCH  16  17
HETATM   17  N   UNL     1     -10.433   9.365  69.765  1.00  0.00    -0.214 N  
HETATM   18  C   UNL     1      -8.976   9.772  70.030  1.00  0.00    -0.222 C  
HETATM   19  C   UNL     1     -11.230   9.564  71.046  1.00  0.00    -0.362 C  
BRANCH  17  20
HETATM   20  C   UNL     1     -10.962  10.324  68.654  1.00  0.00    -0.244 C  
BRANCH  20  21
HETATM   21  C   UNL     1      -9.944  11.378  68.117  1.00  0.00    -0.189 C  
BRANCH  21  22
HETATM   22  N   UNL     1     -10.671  12.486  67.505  1.00  0.00    -0.222 NA 
BRANCH  22  23
HETATM   23  C   UNL     1     -10.362  13.871  67.886  1.00  0.00    -0.240 C  
BRANCH  23  24
HETATM   24  C   UNL     1     -11.011  14.284  69.193  1.00  0.00    -0.286 A  
HETATM   25  C   UNL     1     -12.142  13.606  69.663  1.00  0.00    -0.378 A  
HETATM   26  C   UNL     1     -12.393  15.198  71.480  1.00  0.00    -0.344 A  
HETATM   27  C   UNL     1     -11.214  15.824  71.079  1.00  0.00    -0.396 A  
HETATM   28  C   UNL     1     -10.528  15.371  69.941  1.00  0.00    -0.310 A  
HETATM   29  C   UNL     1     -12.830  14.069  70.786  1.00  0.00    -0.355 A  
BRANCH  26  30
HETATM   30  O   UNL     1     -13.239  15.607  72.470  1.00  0.00    -0.423 OA 
HETATM   31  C   UNL     1     -12.706  15.864  73.761  1.00  0.00    -0.607 C  
ENDBRANCH  26  30
ENDBRANCH  23  24
ENDBRANCH  22  23
BRANCH  22  32
HETATM   32  C   UNL     1     -10.994  12.317  66.168  1.00  0.00    -0.293 A  
HETATM   33  N   UNL     1     -12.262  12.539  65.777  1.00  0.00    -0.626 NA 
HETATM   34  N   UNL     1      -9.993  12.099  65.308  1.00  0.00    -0.253 NA 
HETATM   35  C   UNL     1     -10.294  12.089  63.996  1.00  0.00    -0.373 A  
HETATM   36  C   UNL     1     -12.529  12.458  64.451  1.00  0.00    -0.433 A  
HETATM   37  C   UNL     1     -11.564  12.249  63.503  1.00  0.00    -0.570 A  
ENDBRANCH  22  32
ENDBRANCH  21  22
ENDBRANCH  20  21
ENDBRANCH  17  20
ENDBRANCH  16  17
ENDBRANCH  15  16
ENDBRANCH  14  15
ENDBRANCH  13  14
ENDBRANCH  12  13
ENDBRANCH  11  12
ENDBRANCH  10  11
ENDBRANCH   9  10
ENDBRANCH   8   9
ENDBRANCH   7   8
ENDBRANCH   6   7
ENDBRANCH   5   6
ENDBRANCH   4   5
ENDBRANCH   3   4
ENDBRANCH   2   3
TORSDOF 22
ENDMDL
MODEL       70
REMARK 921   NORMALIZED FREE ENERGY PREDICTED BY IDOCK:   -4.23 KCAL/MOL
REMARK 922        TOTAL FREE ENERGY PREDICTED BY IDOCK:  -14.12 KCAL/MOL
REMARK 923 INTER-LIGAND FREE ENERGY PREDICTED BY IDOCK:   -9.84 KCAL/MOL
REMARK 924 INTRA-LIGAND FREE ENERGY PREDICTED BY IDOCK:   -4.27 KCAL/MOL
REMARK 927      BINDING AFFINITY PREDICTED BY RF-SCORE:    0.00 PKD
ROOT
HETATM    1  C   UNL     1     -11.827  14.879  68.611  1.00  0.00    -0.332 C  
HETATM    2  C   UNL     1     -11.576  14.801  67.115  1.00  0.00    -0.373 C  
ENDROOT
BRANCH   2   3
HETATM    3  C   UNL     1     -12.504  13.786  66.457  1.00  0.00    -0.356 C  
BRANCH   3   4
HETATM    4  C   UNL     1     -12.273  13.738  64.952  1.00  0.00    -0.443 C  
BRANCH   4   5
HETATM    5  C   UNL     1     -12.779  12.424  64.372  1.00  0.00    -0.434 C  
BRANCH   5   6
HETATM    6  C   UNL     1     -11.788  11.874  63.357  1.00  0.00    -0.512 C  
BRANCH   6   7
HETATM    7  C   UNL     1     -10.366  12.026  63.873  1.00  0.00    -0.433 C  
BRANCH   7   8
HETATM    8  C   UNL     1      -9.673  10.674  63.921  1.00  0.00    -0.378 C  
BRANCH   8   9
HETATM    9  C   UNL     1      -9.952   9.998  65.252  1.00  0.00    -0.368 C  
BRANCH   9  10
HETATM   10  C   UNL     1     -10.039  11.029  66.365  1.00  0.00    -0.275 C  
BRANCH  10  11
HETATM   11  C   UNL     1     -10.979  10.539  67.455  1.00  0.00    -0.365 C  
BRANCH  11  12
HETATM   12  C   UNL     1     -10.824  11.397  68.703  1.00  0.00    -0.249 C  
BRANCH  12  13
HETATM   13  C   UNL     1     -11.044  10.576  69.962  1.00  0.00    -0.376 C  
BRANCH  13  14
HETATM   14  C   UNL     1     -12.392  10.887  70.623  1.00  0.00    -0.470 C  
BRANCH  14  15
HETATM   15  C   UNL     1     -12.849   9.843  71.653  1.00  0.00    -0.537 C  
BRANCH  15  16
HETATM   16  C   UNL     1     -11.744   8.820  71.901  1.00  0.00    -0.359 C  
BRANCH  16  17
HETATM   17  N   UNL     1     -12.104   7.382  71.555  1.00  0.00    -0.311 N  
HETATM   18  C   UNL     1     -13.627   7.198  71.500  1.00  0.00    -0.319 C  
HETATM   19  C   UNL     1     -11.532   6.379  72.546  1.00  0.00    -0.247 C  
BRANCH  17  20
HETATM   20  C   UNL     1     -11.572   7.077  70.120  1.00  0.00    -0.225 C  
BRANCH  20  21
HETATM   21  C   UNL     1     -10.880   5.692  69.927  1.00  0.00    -0.300 C  
BRANCH  21  22
HETATM   22  N   UNL     1      -9.774   5.830  68.983  1.00  0.00    -0.133 NA 
BRANCH  22  23
HETATM   23  C   UNL     1      -8.411   6.071  69.473  1.00  0.00    -0.115 C  
BRANCH  23  24
HETATM   24  C   UNL     1      -7.936   7.490  69.227  1.00  0.00    -0.121 A  
HETATM   25  C   UNL     1      -7.922   8.419  70.275  1.00  0.00    -0.102 A  
HETATM   26  C   UNL     1      -7.315  10.202  68.741  1.00  0.00    -0.084 A  
HETATM   27  C   UNL     1      -7.232   9.270  67.709  1.00  0.00    -0.083 A  
HETATM   28  C   UNL     1      -7.543   7.922  67.950  1.00  0.00    -0.109 A  
HETATM   29  C   UNL     1      -7.626   9.761  70.028  1.00  0.00    -0.169 A  
BRANCH  26  30
HETATM   30  O   UNL     1      -7.182  11.556  68.633  1.00  0.00    -0.088 OA 
HETATM   31  C   UNL     1      -6.612  12.094  67.448  1.00  0.00    -0.147 C  
ENDBRANCH  26  30
ENDBRANCH  23  24
ENDBRANCH  22  23
BRANCH  22  32
HETATM   32  C   UNL     1      -9.846   5.017  67.863  1.00  0.00    -0.151 A  
HETATM   33  N   UNL     1     -10.549   5.444  66.798  1.00  0.00    -0.288 NA 
HETATM   34  N   UNL     1      -9.078   3.921  67.838  1.00  0.00    -0.137 NA 
HETATM   35  C   UNL     1      -9.035   3.220  66.689  1.00  0.00    -0.155 A  
HETATM   36  C   UNL     1     -10.524   4.673  65.685  1.00  0.00    -0.227 A  
HETATM   37  C   UNL     1      -9.759   3.544  65.571  1.00  0.00    -0.077 A  
ENDBRANCH  22  32
ENDBRANCH  21  22
ENDBRANCH  20  21
ENDBRANCH  17  20
ENDBRANCH  16  17
ENDBRANCH  15  16
ENDBRANCH  14  15
ENDBRANCH  13  14
ENDBRANCH  12  13
ENDBRANCH  11  12
ENDBRANCH  10  11
ENDBRANCH   9  10
ENDBRANCH   8   9
ENDBRANCH   7   8
ENDBRANCH   6   7
ENDBRANCH   5   6
ENDBRANCH   4   5
ENDBRANCH   3   4
ENDBRANCH   2   3
TORSDOF 22
ENDMDL
MODEL       71
REMARK 921   NORMALIZED FREE ENERGY PREDICTED BY IDOCK:   -4.23 KCAL/MOL
REMARK 922        TOTAL FREE ENERGY PREDICTED BY IDOCK:  -14.11 KCAL/MOL
REMARK 923 INTER-LIGAND FREE ENERGY PREDICTED BY IDOCK:  -10.60 KCAL/MOL
REMARK 924 INTRA-LIGAND FREE ENERGY PREDICTED BY IDOCK:   -3.51 KCAL/MOL
REMARK 927      BINDING AFFINITY PREDICTED BY RF-SCORE:    0.00 PKD
ROOT
HETATM    1  C   UNL     1     -10.619  11.589  63.437  1.00  0.00    -0.460 C  
HETATM    2  C   UNL     1     -11.954  12.298  63.583  1.00  0.00    -0.633 C  
ENDROOT
BRANCH   2   3
HETATM    3  C   UNL     1     -12.326  12.468  65.052  1.00  0.00    -0.522 C  
BRANCH   3   4
HETATM    4  C   UNL     1     -12.888  13.860  65.311  1.00  0.00    -0.437 C  
BRANCH   4   5
HETATM    5  C   UNL     1     -12.173  14.896  64.453  1.00  0.00    -0.399 C  
BRANCH   5   6
HETATM    6  C   UNL     1     -11.165  15.673  65.287  1.00  0.00    -0.236 C  
BRANCH   6   7
HETATM    7  C   UNL     1      -9.837  14.936  65.330  1.00  0.00    -0.303 C  
BRANCH   7   8
HETATM    8  C   UNL     1      -8.998  15.426  66.500  1.00  0.00    -0.344 C  
BRANCH   8   9
HETATM    9  C   UNL     1      -9.681  15.070  67.809  1.00  0.00    -0.215 C  
BRANCH   9  10
HETATM   10  C   UNL     1      -9.516  13.590  68.110  1.00  0.00    -0.214 C  
BRANCH  10  11
HETATM   11  C   UNL     1     -10.847  12.997  68.545  1.00  0.00    -0.282 C  
BRANCH  11  12
HETATM   12  C   UNL     1     -10.972  11.567  68.039  1.00  0.00    -0.284 C  
BRANCH  12  13
HETATM   13  C   UNL     1      -9.604  10.942  67.824  1.00  0.00    -0.176 C  
BRANCH  13  14
HETATM   14  C   UNL     1      -9.588   9.995  66.618  1.00  0.00    -0.234 C  
BRANCH  14  15
HETATM   15  C   UNL     1     -10.396   8.704  66.815  1.00  0.00    -0.336 C  
BRANCH  15  16
HETATM   16  C   UNL     1      -9.787   7.859  67.930  1.00  0.00    -0.165 C  
BRANCH  16  17
HETATM   17  N   UNL     1      -9.488   6.413  67.557  1.00  0.00    -0.117 N  
HETATM   18  C   UNL     1      -8.057   6.274  67.017  1.00  0.00    -0.109 C  
HETATM   19  C   UNL     1     -10.452   5.864  66.517  1.00  0.00    -0.190 C  
BRANCH  17  20
HETATM   20  C   UNL     1      -9.554   5.550  68.855  1.00  0.00    -0.136 C  
BRANCH  20  21
HETATM   21  C   UNL     1      -9.087   6.252  70.168  1.00  0.00    -0.153 C  
BRANCH  21  22
HETATM   22  N   UNL     1     -10.173   6.230  71.143  1.00  0.00    -0.194 NA 
BRANCH  22  23
HETATM   23  C   UNL     1     -11.541   6.575  70.732  1.00  0.00    -0.377 C  
BRANCH  23  24
HETATM   24  C   UNL     1     -11.963   7.959  71.185  1.00  0.00    -0.304 A  
HETATM   25  C   UNL     1     -13.137   8.129  71.930  1.00  0.00    -0.349 A  
HETATM   26  C   UNL     1     -12.913  10.544  71.811  1.00  0.00    -0.476 A  
HETATM   27  C   UNL     1     -11.695  10.388  71.154  1.00  0.00    -0.387 A  
HETATM   28  C   UNL     1     -11.224   9.102  70.840  1.00  0.00    -0.359 A  
HETATM   29  C   UNL     1     -13.609   9.408  72.226  1.00  0.00    -0.532 A  
BRANCH  26  30
HETATM   30  O   UNL     1     -13.564  11.718  72.056  1.00  0.00    -0.326 OA 
HETATM   31  C   UNL     1     -13.056  12.914  71.483  1.00  0.00    -0.298 C  
ENDBRANCH  26  30
ENDBRANCH  23  24
ENDBRANCH  22  23
BRANCH  22  32
HETATM   32  C   UNL     1     -10.096   5.226  72.094  1.00  0.00    -0.190 A  
HETATM   33  N   UNL     1      -8.933   4.566  72.245  1.00  0.00    -0.123 NA 
HETATM   34  N   UNL     1     -11.134   5.072  72.924  1.00  0.00    -0.274 NA 
HETATM   35  C   UNL     1     -10.992   4.202  73.941  1.00  0.00    -0.218 A  
HETATM   36  C   UNL     1      -8.859   3.655  73.245  1.00  0.00    -0.089 A  
HETATM   37  C   UNL     1      -9.868   3.443  74.144  1.00  0.00    -0.159 A  
ENDBRANCH  22  32
ENDBRANCH  21  22
ENDBRANCH  20  21
ENDBRANCH  17  20
ENDBRANCH  16  17
ENDBRANCH  15  16
ENDBRANCH  14  15
ENDBRANCH  13  14
ENDBRANCH  12  13
ENDBRANCH  11  12
ENDBRANCH  10  11
ENDBRANCH   9  10
ENDBRANCH   8   9
ENDBRANCH   7   8
ENDBRANCH   6   7
ENDBRANCH   5   6
ENDBRANCH   4   5
ENDBRANCH   3   4
ENDBRANCH   2   3
TORSDOF 22
ENDMDL
MODEL       72
REMARK 921   NORMALIZED FREE ENERGY PREDICTED BY IDOCK:   -4.22 KCAL/MOL
REMARK 922        TOTAL FREE ENERGY PREDICTED BY IDOCK:  -14.10 KCAL/MOL
REMARK 923 INTER-LIGAND FREE ENERGY PREDICTED BY IDOCK:  -11.97 KCAL/MOL
REMARK 924 INTRA-LIGAND FREE ENERGY PREDICTED BY IDOCK:   -2.13 KCAL/MOL
REMARK 927      BINDING AFFINITY PREDICTED BY RF-SCORE:    0.00 PKD
ROOT
HETATM    1  C   UNL     1      -6.330   6.132  70.765  1.00  0.00    -0.040 C  
HETATM    2  C   UNL     1      -5.840   6.497  69.375  1.00  0.00    -0.021 C  
ENDROOT
BRANCH   2   3
HETATM    3  C   UNL     1      -6.651   5.778  68.302  1.00  0.00    -0.052 C  
BRANCH   3   4
HETATM    4  C   UNL     1      -7.376   4.574  68.889  1.00  0.00    -0.056 C  
BRANCH   4   5
HETATM    5  C   UNL     1      -8.778   4.452  68.304  1.00  0.00    -0.116 C  
BRANCH   5   6
HETATM    6  C   UNL     1      -9.822   4.500  69.409  1.00  0.00    -0.260 C  
BRANCH   6   7
HETATM    7  C   UNL     1     -10.673   5.752  69.278  1.00  0.00    -0.386 C  
BRANCH   7   8
HETATM    8  C   UNL     1     -10.621   6.564  70.562  1.00  0.00    -0.282 C  
BRANCH   8   9
HETATM    9  C   UNL     1     -11.996   6.596  71.207  1.00  0.00    -0.409 C  
BRANCH   9  10
HETATM   10  C   UNL     1     -12.413   8.027  71.502  1.00  0.00    -0.334 C  
BRANCH  10  11
HETATM   11  C   UNL     1     -11.182   8.910  71.634  1.00  0.00    -0.415 C  
BRANCH  11  12
HETATM   12  C   UNL     1     -11.301  10.113  70.709  1.00  0.00    -0.436 C  
BRANCH  12  13
HETATM   13  C   UNL     1     -12.712  10.675  70.723  1.00  0.00    -0.468 C  
BRANCH  13  14
HETATM   14  C   UNL     1     -13.060  11.324  72.067  1.00  0.00    -0.431 C  
BRANCH  14  15
HETATM   15  C   UNL     1     -13.625  12.748  71.957  1.00  0.00    -0.460 C  
BRANCH  15  16
HETATM   16  C   UNL     1     -12.536  13.721  71.514  1.00  0.00    -0.318 C  
BRANCH  16  17
HETATM   17  N   UNL     1     -12.721  15.157  71.984  1.00  0.00    -0.321 N  
HETATM   18  C   UNL     1     -12.488  15.270  73.497  1.00  0.00    -0.548 C  
HETATM   19  C   UNL     1     -14.103  15.706  71.665  1.00  0.00    -0.270 C  
BRANCH  17  20
HETATM   20  C   UNL     1     -11.627  16.038  71.304  1.00  0.00    -0.449 C  
BRANCH  20  21
HETATM   21  C   UNL     1     -11.629  16.048  69.744  1.00  0.00    -0.297 C  
BRANCH  21  22
HETATM   22  N   UNL     1     -10.270  16.271  69.258  1.00  0.00    -0.253 NA 
BRANCH  22  23
HETATM   23  C   UNL     1      -9.463  15.142  68.778  1.00  0.00    -0.209 C  
BRANCH  23  24
HETATM   24  C   UNL     1     -10.211  14.251  67.806  1.00  0.00    -0.235 A  
HETATM   25  C   UNL     1     -10.080  14.449  66.426  1.00  0.00    -0.294 A  
HETATM   26  C   UNL     1     -11.795  12.786  65.983  1.00  0.00    -0.439 A  
HETATM   27  C   UNL     1     -11.866  12.513  67.348  1.00  0.00    -0.381 A  
HETATM   28  C   UNL     1     -11.080  13.243  68.254  1.00  0.00    -0.294 A  
HETATM   29  C   UNL     1     -10.874  13.731  65.529  1.00  0.00    -0.299 A  
BRANCH  26  30
HETATM   30  O   UNL     1     -12.590  12.266  65.004  1.00  0.00    -0.575 OA 
HETATM   31  C   UNL     1     -12.195  12.421  63.648  1.00  0.00    -0.557 C  
ENDBRANCH  26  30
ENDBRANCH  23  24
ENDBRANCH  22  23
BRANCH  22  32
HETATM   32  C   UNL     1     -10.076  17.453  68.561  1.00  0.00    -0.352 A  
HETATM   33  N   UNL     1     -11.019  17.851  67.688  1.00  0.00    -0.217 NA 
HETATM   34  N   UNL     1      -9.037  18.219  68.910  1.00  0.00    -0.209 NA 
HETATM   35  C   UNL     1      -8.941  19.435  68.339  1.00  0.00    -0.354 A  
HETATM   36  C   UNL     1     -10.848  19.055  67.091  1.00  0.00    -0.387 A  
HETATM   37  C   UNL     1      -9.821  19.905  67.397  1.00  0.00    -0.541 A  
ENDBRANCH  22  32
ENDBRANCH  21  22
ENDBRANCH  20  21
ENDBRANCH  17  20
ENDBRANCH  16  17
ENDBRANCH  15  16
ENDBRANCH  14  15
ENDBRANCH  13  14
ENDBRANCH  12  13
ENDBRANCH  11  12
ENDBRANCH  10  11
ENDBRANCH   9  10
ENDBRANCH   8   9
ENDBRANCH   7   8
ENDBRANCH   6   7
ENDBRANCH   5   6
ENDBRANCH   4   5
ENDBRANCH   3   4
ENDBRANCH   2   3
TORSDOF 22
ENDMDL
MODEL       73
REMARK 921   NORMALIZED FREE ENERGY PREDICTED BY IDOCK:   -4.22 KCAL/MOL
REMARK 922        TOTAL FREE ENERGY PREDICTED BY IDOCK:  -14.09 KCAL/MOL
REMARK 923 INTER-LIGAND FREE ENERGY PREDICTED BY IDOCK:  -11.09 KCAL/MOL
REMARK 924 INTRA-LIGAND FREE ENERGY PREDICTED BY IDOCK:   -3.01 KCAL/MOL
REMARK 927      BINDING AFFINITY PREDICTED BY RF-SCORE:    0.00 PKD
ROOT
HETATM    1  C   UNL     1      -9.381  15.966  69.232  1.00  0.00    -0.259 C  
HETATM    2  C   UNL     1     -10.726  16.596  69.547  1.00  0.00    -0.306 C  
ENDROOT
BRANCH   2   3
HETATM    3  C   UNL     1     -11.862  15.809  68.902  1.00  0.00    -0.354 C  
BRANCH   3   4
HETATM    4  C   UNL     1     -11.857  14.362  69.377  1.00  0.00    -0.369 C  
BRANCH   4   5
HETATM    5  C   UNL     1     -11.754  13.408  68.194  1.00  0.00    -0.397 C  
BRANCH   5   6
HETATM    6  C   UNL     1     -11.651  14.186  66.891  1.00  0.00    -0.410 C  
BRANCH   6   7
HETATM    7  C   UNL     1     -12.472  13.507  65.806  1.00  0.00    -0.514 C  
BRANCH   7   8
HETATM    8  C   UNL     1     -12.146  14.102  64.445  1.00  0.00    -0.486 C  
BRANCH   8   9
HETATM    9  C   UNL     1     -12.323  13.048  63.366  1.00  0.00    -0.478 C  
BRANCH   9  10
HETATM   10  C   UNL     1     -11.788  11.706  63.840  1.00  0.00    -0.348 C  
BRANCH  10  11
HETATM   11  C   UNL     1     -10.295  11.617  63.567  1.00  0.00    -0.488 C  
BRANCH  11  12
HETATM   12  C   UNL     1      -9.668  10.541  64.442  1.00  0.00    -0.388 C  
BRANCH  12  13
HETATM   13  C   UNL     1      -9.742  10.921  65.912  1.00  0.00    -0.269 C  
BRANCH  13  14
HETATM   14  C   UNL     1     -10.239   9.760  66.781  1.00  0.00    -0.300 C  
BRANCH  14  15
HETATM   15  C   UNL     1      -9.121   8.905  67.397  1.00  0.00    -0.147 C  
BRANCH  15  16
HETATM   16  C   UNL     1      -8.999   7.576  66.658  1.00  0.00    -0.153 C  
BRANCH  16  17
HETATM   17  N   UNL     1      -9.518   6.363  67.418  1.00  0.00    -0.115 N  
HETATM   18  C   UNL     1      -8.855   5.075  66.907  1.00  0.00    -0.106 C  
HETATM   19  C   UNL     1     -11.027   6.205  67.311  1.00  0.00    -0.326 C  
BRANCH  17  20
HETATM   20  C   UNL     1      -9.101   6.508  68.914  1.00  0.00    -0.131 C  
BRANCH  20  21
HETATM   21  C   UNL     1     -10.213   6.207  69.967  1.00  0.00    -0.196 C  
BRANCH  21  22
HETATM   22  N   UNL     1      -9.618   6.155  71.299  1.00  0.00    -0.170 NA 
BRANCH  22  23
HETATM   23  C   UNL     1      -9.516   7.376  72.110  1.00  0.00    -0.139 C  
BRANCH  23  24
HETATM   24  C   UNL     1     -10.568   8.410  71.757  1.00  0.00    -0.352 A  
HETATM   25  C   UNL     1     -10.260   9.456  70.878  1.00  0.00    -0.373 A  
HETATM   26  C   UNL     1     -12.416  10.495  71.293  1.00  0.00    -0.419 A  
HETATM   27  C   UNL     1     -12.770   9.412  72.095  1.00  0.00    -0.460 A  
HETATM   28  C   UNL     1     -11.850   8.377  72.328  1.00  0.00    -0.456 A  
HETATM   29  C   UNL     1     -11.172  10.490  70.661  1.00  0.00    -0.283 A  
BRANCH  26  30
HETATM   30  O   UNL     1     -13.141  11.633  71.090  1.00  0.00    -0.265 OA 
HETATM   31  C   UNL     1     -13.201  12.600  72.129  1.00  0.00    -0.421 C  
ENDBRANCH  26  30
ENDBRANCH  23  24
ENDBRANCH  22  23
BRANCH  22  32
HETATM   32  C   UNL     1      -9.887   5.006  72.025  1.00  0.00    -0.174 A  
HETATM   33  N   UNL     1     -10.706   5.091  73.090  1.00  0.00    -0.232 NA 
HETATM   34  N   UNL     1      -9.448   3.842  71.534  1.00  0.00    -0.139 NA 
HETATM   35  C   UNL     1      -9.843   2.716  72.158  1.00  0.00    -0.165 A  
HETATM   36  C   UNL     1     -11.026   3.937  73.723  1.00  0.00    -0.238 A  
HETATM   37  C   UNL     1     -10.629   2.703  73.282  1.00  0.00    -0.261 A  
ENDBRANCH  22  32
ENDBRANCH  21  22
ENDBRANCH  20  21
ENDBRANCH  17  20
ENDBRANCH  16  17
ENDBRANCH  15  16
ENDBRANCH  14  15
ENDBRANCH  13  14
ENDBRANCH  12  13
ENDBRANCH  11  12
ENDBRANCH  10  11
ENDBRANCH   9  10
ENDBRANCH   8   9
ENDBRANCH   7   8
ENDBRANCH   6   7
ENDBRANCH   5   6
ENDBRANCH   4   5
ENDBRANCH   3   4
ENDBRANCH   2   3
TORSDOF 22
ENDMDL
MODEL       74
REMARK 921   NORMALIZED FREE ENERGY PREDICTED BY IDOCK:   -4.21 KCAL/MOL
REMARK 922        TOTAL FREE ENERGY PREDICTED BY IDOCK:  -14.07 KCAL/MOL
REMARK 923 INTER-LIGAND FREE ENERGY PREDICTED BY IDOCK:  -11.65 KCAL/MOL
REMARK 924 INTRA-LIGAND FREE ENERGY PREDICTED BY IDOCK:   -2.42 KCAL/MOL
REMARK 927      BINDING AFFINITY PREDICTED BY RF-SCORE:    0.00 PKD
ROOT
HETATM    1  C   UNL     1     -12.588  15.783  74.293  1.00  0.00    -0.734 C  
HETATM    2  C   UNL     1     -11.994  15.745  72.896  1.00  0.00    -0.599 C  
ENDROOT
BRANCH   2   3
HETATM    3  C   UNL     1     -13.082  15.563  71.843  1.00  0.00    -0.539 C  
BRANCH   3   4
HETATM    4  C   UNL     1     -12.853  14.286  71.044  1.00  0.00    -0.427 C  
BRANCH   4   5
HETATM    5  C   UNL     1     -13.316  13.068  71.834  1.00  0.00    -0.539 C  
BRANCH   5   6
HETATM    6  C   UNL     1     -12.701  11.799  71.263  1.00  0.00    -0.420 C  
BRANCH   6   7
HETATM    7  C   UNL     1     -13.154  10.588  72.062  1.00  0.00    -0.511 C  
BRANCH   7   8
HETATM    8  C   UNL     1     -13.316   9.382  71.150  1.00  0.00    -0.279 C  
BRANCH   8   9
HETATM    9  C   UNL     1     -12.740   8.147  71.821  1.00  0.00    -0.356 C  
BRANCH   9  10
HETATM   10  C   UNL     1     -11.384   8.457  72.433  1.00  0.00    -0.448 C  
BRANCH  10  11
HETATM   11  C   UNL     1     -10.762   7.186  72.990  1.00  0.00    -0.359 C  
BRANCH  11  12
HETATM   12  C   UNL     1     -11.534   5.969  72.500  1.00  0.00    -0.336 C  
BRANCH  12  13
HETATM   13  C   UNL     1     -10.609   4.967  71.832  1.00  0.00    -0.186 C  
BRANCH  13  14
HETATM   14  C   UNL     1      -9.875   5.574  70.631  1.00  0.00    -0.252 C  
BRANCH  14  15
HETATM   15  C   UNL     1     -10.799   6.088  69.516  1.00  0.00    -0.439 C  
BRANCH  15  16
HETATM   16  C   UNL     1     -10.415   7.511  69.120  1.00  0.00    -0.215 C  
BRANCH  16  17
HETATM   17  N   UNL     1     -10.031   7.694  67.659  1.00  0.00    -0.163 N  
HETATM   18  C   UNL     1     -10.670   6.605  66.785  1.00  0.00    -0.259 C  
HETATM   19  C   UNL     1      -8.525   7.667  67.440  1.00  0.00    -0.122 C  
BRANCH  17  20
HETATM   20  C   UNL     1     -10.617   9.053  67.166  1.00  0.00    -0.220 C  
BRANCH  20  21
HETATM   21  C   UNL     1      -9.580  10.101  66.653  1.00  0.00    -0.183 C  
BRANCH  21  22
HETATM   22  N   UNL     1      -9.588  10.116  65.193  1.00  0.00    -0.269 NA 
BRANCH  22  23
HETATM   23  C   UNL     1     -10.586  10.915  64.469  1.00  0.00    -0.265 C  
BRANCH  23  24
HETATM   24  C   UNL     1     -10.841  12.266  65.108  1.00  0.00    -0.340 A  
HETATM   25  C   UNL     1      -9.923  13.309  64.938  1.00  0.00    -0.156 A  
HETATM   26  C   UNL     1     -11.153  14.701  66.504  1.00  0.00    -0.329 A  
HETATM   27  C   UNL     1     -12.124  13.707  66.607  1.00  0.00    -0.459 A  
HETATM   28  C   UNL     1     -11.967  12.494  65.915  1.00  0.00    -0.472 A  
HETATM   29  C   UNL     1     -10.075  14.507  65.639  1.00  0.00    -0.384 A  
BRANCH  26  30
HETATM   30  O   UNL     1     -11.094  15.863  67.217  1.00  0.00    -0.281 OA 
HETATM   31  C   UNL     1     -10.294  15.905  68.389  1.00  0.00    -0.240 C  
ENDBRANCH  26  30
ENDBRANCH  23  24
ENDBRANCH  22  23
BRANCH  22  32
HETATM   32  C   UNL     1      -8.339  10.076  64.593  1.00  0.00    -0.165 A  
HETATM   33  N   UNL     1      -8.269  10.054  63.249  1.00  0.00    -0.153 NA 
HETATM   34  N   UNL     1      -7.266  10.224  65.377  1.00  0.00    -0.143 NA 
HETATM   35  C   UNL     1      -6.068  10.340  64.774  1.00  0.00    -0.128 A  
HETATM   36  C   UNL     1      -7.036  10.110  62.689  1.00  0.00    -0.129 A  
HETATM   37  C   UNL     1      -5.888  10.273  63.416  1.00  0.00    -0.148 A  
ENDBRANCH  22  32
ENDBRANCH  21  22
ENDBRANCH  20  21
ENDBRANCH  17  20
ENDBRANCH  16  17
ENDBRANCH  15  16
ENDBRANCH  14  15
ENDBRANCH  13  14
ENDBRANCH  12  13
ENDBRANCH  11  12
ENDBRANCH  10  11
ENDBRANCH   9  10
ENDBRANCH   8   9
ENDBRANCH   7   8
ENDBRANCH   6   7
ENDBRANCH   5   6
ENDBRANCH   4   5
ENDBRANCH   3   4
ENDBRANCH   2   3
TORSDOF 22
ENDMDL
MODEL       75
REMARK 921   NORMALIZED FREE ENERGY PREDICTED BY IDOCK:   -4.20 KCAL/MOL
REMARK 922        TOTAL FREE ENERGY PREDICTED BY IDOCK:  -14.05 KCAL/MOL
REMARK 923 INTER-LIGAND FREE ENERGY PREDICTED BY IDOCK:  -10.60 KCAL/MOL
REMARK 924 INTRA-LIGAND FREE ENERGY PREDICTED BY IDOCK:   -3.45 KCAL/MOL
REMARK 927      BINDING AFFINITY PREDICTED BY RF-SCORE:    0.00 PKD
ROOT
HETATM    1  C   UNL     1     -12.245  14.879  72.322  1.00  0.00    -0.419 C  
HETATM    2  C   UNL     1     -12.146  15.811  71.127  1.00  0.00    -0.475 C  
ENDROOT
BRANCH   2   3
HETATM    3  C   UNL     1     -11.604  15.077  69.904  1.00  0.00    -0.328 C  
BRANCH   3   4
HETATM    4  C   UNL     1     -11.472  16.026  68.720  1.00  0.00    -0.375 C  
BRANCH   4   5
HETATM    5  C   UNL     1     -10.571  17.202  69.071  1.00  0.00    -0.282 C  
BRANCH   5   6
HETATM    6  C   UNL     1     -10.849  18.380  68.148  1.00  0.00    -0.081 C  
BRANCH   6   7
HETATM    7  C   UNL     1      -9.842  19.492  68.394  1.00  0.00    -0.521 C  
BRANCH   7   8
HETATM    8  C   UNL     1      -9.766  20.413  67.187  1.00  0.00    -0.601 C  
BRANCH   8   9
HETATM    9  C   UNL     1      -8.964  19.749  66.081  1.00  0.00    -0.387 C  
BRANCH   9  10
HETATM   10  C   UNL     1      -7.702  19.119  66.644  1.00  0.00    -0.263 C  
BRANCH  10  11
HETATM   11  C   UNL     1      -7.443  17.781  65.969  1.00  0.00    -0.284 C  
BRANCH  11  12
HETATM   12  C   UNL     1      -7.765  16.642  66.926  1.00  0.00    -0.263 C  
BRANCH  12  13
HETATM   13  C   UNL     1      -8.667  15.613  66.267  1.00  0.00    -0.325 C  
BRANCH  13  14
HETATM   14  C   UNL     1      -9.835  16.267  65.520  1.00  0.00    -0.144 C  
BRANCH  14  15
HETATM   15  C   UNL     1     -10.934  15.287  65.078  1.00  0.00    -0.450 C  
BRANCH  15  16
HETATM   16  C   UNL     1     -10.325  13.941  64.697  1.00  0.00    -0.339 C  
BRANCH  16  17
HETATM   17  N   UNL     1     -11.314  12.788  64.599  1.00  0.00    -0.308 N  
HETATM   18  C   UNL     1     -12.127  12.875  63.300  1.00  0.00    -0.440 C  
HETATM   19  C   UNL     1     -12.282  12.744  65.772  1.00  0.00    -0.408 C  
BRANCH  17  20
HETATM   20  C   UNL     1     -10.506  11.456  64.524  1.00  0.00    -0.322 C  
BRANCH  20  21
HETATM   21  C   UNL     1     -10.277  10.716  65.879  1.00  0.00    -0.251 C  
BRANCH  21  22
HETATM   22  N   UNL     1      -8.933  11.006  66.370  1.00  0.00    -0.174 NA 
BRANCH  22  23
HETATM   23  C   UNL     1      -8.741  11.553  67.719  1.00  0.00    -0.142 C  
BRANCH  23  24
HETATM   24  C   UNL     1      -9.717  10.985  68.732  1.00  0.00    -0.199 A  
HETATM   25  C   UNL     1     -10.909  11.663  69.017  1.00  0.00    -0.247 A  
HETATM   26  C   UNL     1     -11.421  10.095  70.801  1.00  0.00    -0.357 A  
HETATM   27  C   UNL     1     -10.288   9.358  70.463  1.00  0.00    -0.341 A  
HETATM   28  C   UNL     1      -9.439   9.802  69.436  1.00  0.00    -0.212 A  
HETATM   29  C   UNL     1     -11.742  11.226  70.049  1.00  0.00    -0.428 A  
BRANCH  26  30
HETATM   30  O   UNL     1     -12.257   9.872  71.856  1.00  0.00    -0.372 OA 
HETATM   31  C   UNL     1     -13.630   9.617  71.599  1.00  0.00    -0.324 C  
ENDBRANCH  26  30
ENDBRANCH  23  24
ENDBRANCH  22  23
BRANCH  22  32
HETATM   32  C   UNL     1      -7.950  10.116  65.966  1.00  0.00    -0.124 A  
HETATM   33  N   UNL     1      -6.710  10.584  65.737  1.00  0.00    -0.128 NA 
HETATM   34  N   UNL     1      -8.246   8.812  65.980  1.00  0.00    -0.114 NA 
HETATM   35  C   UNL     1      -7.245   7.945  65.737  1.00  0.00    -0.071 A  
HETATM   36  C   UNL     1      -5.748   9.679  65.435  1.00  0.00    -0.060 A  
HETATM   37  C   UNL     1      -5.962   8.327  65.439  1.00  0.00    -0.045 A  
ENDBRANCH  22  32
ENDBRANCH  21  22
ENDBRANCH  20  21
ENDBRANCH  17  20
ENDBRANCH  16  17
ENDBRANCH  15  16
ENDBRANCH  14  15
ENDBRANCH  13  14
ENDBRANCH  12  13
ENDBRANCH  11  12
ENDBRANCH  10  11
ENDBRANCH   9  10
ENDBRANCH   8   9
ENDBRANCH   7   8
ENDBRANCH   6   7
ENDBRANCH   5   6
ENDBRANCH   4   5
ENDBRANCH   3   4
ENDBRANCH   2   3
TORSDOF 22
ENDMDL
MODEL       76
REMARK 921   NORMALIZED FREE ENERGY PREDICTED BY IDOCK:   -4.20 KCAL/MOL
REMARK 922        TOTAL FREE ENERGY PREDICTED BY IDOCK:  -14.05 KCAL/MOL
REMARK 923 INTER-LIGAND FREE ENERGY PREDICTED BY IDOCK:  -11.26 KCAL/MOL
REMARK 924 INTRA-LIGAND FREE ENERGY PREDICTED BY IDOCK:   -2.79 KCAL/MOL
REMARK 927      BINDING AFFINITY PREDICTED BY RF-SCORE:    0.00 PKD
ROOT
HETATM    1  C   UNL     1      -8.398  20.113  67.141  1.00  0.00    -0.391 C  
HETATM    2  C   UNL     1      -9.642  19.961  66.285  1.00  0.00    -0.526 C  
ENDROOT
BRANCH   2   3
HETATM    3  C   UNL     1     -10.663  19.050  66.959  1.00  0.00    -0.516 C  
BRANCH   3   4
HETATM    4  C   UNL     1     -10.265  18.767  68.402  1.00  0.00    -0.413 C  
BRANCH   4   5
HETATM    5  C   UNL     1     -10.426  17.287  68.724  1.00  0.00    -0.340 C  
BRANCH   5   6
HETATM    6  C   UNL     1      -9.178  16.516  68.322  1.00  0.00    -0.214 C  
BRANCH   6   7
HETATM    7  C   UNL     1      -9.402  15.022  68.495  1.00  0.00    -0.196 C  
BRANCH   7   8
HETATM    8  C   UNL     1      -9.250  14.306  67.162  1.00  0.00    -0.230 C  
BRANCH   8   9
HETATM    9  C   UNL     1     -10.373  14.718  66.225  1.00  0.00    -0.305 C  
BRANCH   9  10
HETATM   10  C   UNL     1     -11.698  14.144  66.697  1.00  0.00    -0.422 C  
BRANCH  10  11
HETATM   11  C   UNL     1     -12.649  13.998  65.519  1.00  0.00    -0.543 C  
BRANCH  11  12
HETATM   12  C   UNL     1     -12.538  12.600  64.928  1.00  0.00    -0.525 C  
BRANCH  12  13
HETATM   13  C   UNL     1     -12.085  12.654  63.479  1.00  0.00    -0.648 C  
BRANCH  13  14
HETATM   14  C   UNL     1     -10.711  12.004  63.281  1.00  0.00    -0.400 C  
BRANCH  14  15
HETATM   15  C   UNL     1     -10.278  11.076  64.427  1.00  0.00    -0.409 C  
BRANCH  15  16
HETATM   16  C   UNL     1      -9.210  10.099  63.946  1.00  0.00    -0.280 C  
BRANCH  16  17
HETATM   17  N   UNL     1      -8.366   9.469  65.045  1.00  0.00    -0.134 N  
HETATM   18  C   UNL     1      -6.963  10.091  65.080  1.00  0.00    -0.135 C  
HETATM   19  C   UNL     1      -8.223   7.963  64.885  1.00  0.00    -0.124 C  
BRANCH  17  20
HETATM   20  C   UNL     1      -9.028   9.799  66.419  1.00  0.00    -0.151 C  
BRANCH  20  21
HETATM   21  C   UNL     1      -9.699   8.601  67.160  1.00  0.00    -0.190 C  
BRANCH  21  22
HETATM   22  N   UNL     1      -9.056   8.412  68.458  1.00  0.00    -0.136 NA 
BRANCH  22  23
HETATM   23  C   UNL     1      -8.886   9.551  69.370  1.00  0.00    -0.170 C  
BRANCH  23  24
HETATM   24  C   UNL     1     -10.204  10.149  69.822  1.00  0.00    -0.286 A  
HETATM   25  C   UNL     1     -10.685  11.323  69.229  1.00  0.00    -0.221 A  
HETATM   26  C   UNL     1     -12.514  11.430  70.824  1.00  0.00    -0.365 A  
HETATM   27  C   UNL     1     -12.101  10.212  71.361  1.00  0.00    -0.475 A  
HETATM   28  C   UNL     1     -10.951   9.576  70.865  1.00  0.00    -0.407 A  
HETATM   29  C   UNL     1     -11.820  11.959  69.735  1.00  0.00    -0.411 A  
BRANCH  26  30
HETATM   30  O   UNL     1     -13.517  12.229  71.288  1.00  0.00     0.042 OA 
HETATM   31  C   UNL     1     -13.200  13.250  72.224  1.00  0.00    -0.467 C  
ENDBRANCH  26  30
ENDBRANCH  23  24
ENDBRANCH  22  23
BRANCH  22  32
HETATM   32  C   UNL     1      -9.333   7.209  69.087  1.00  0.00    -0.141 A  
HETATM   33  N   UNL     1      -8.326   6.545  69.683  1.00  0.00    -0.129 NA 
HETATM   34  N   UNL     1     -10.616   6.850  69.208  1.00  0.00    -0.217 NA 
HETATM   35  C   UNL     1     -10.888   5.762  69.953  1.00  0.00    -0.347 A  
HETATM   36  C   UNL     1      -8.642   5.421  70.371  1.00  0.00    -0.124 A  
HETATM   37  C   UNL     1      -9.927   4.988  70.552  1.00  0.00    -0.312 A  
ENDBRANCH  22  32
ENDBRANCH  21  22
ENDBRANCH  20  21
ENDBRANCH  17  20
ENDBRANCH  16  17
ENDBRANCH  15  16
ENDBRANCH  14  15
ENDBRANCH  13  14
ENDBRANCH  12  13
ENDBRANCH  11  12
ENDBRANCH  10  11
ENDBRANCH   9  10
ENDBRANCH   8   9
ENDBRANCH   7   8
ENDBRANCH   6   7
ENDBRANCH   5   6
ENDBRANCH   4   5
ENDBRANCH   3   4
ENDBRANCH   2   3
TORSDOF 22
ENDMDL
MODEL       77
REMARK 921   NORMALIZED FREE ENERGY PREDICTED BY IDOCK:   -4.19 KCAL/MOL
REMARK 922        TOTAL FREE ENERGY PREDICTED BY IDOCK:  -14.03 KCAL/MOL
REMARK 923 INTER-LIGAND FREE ENERGY PREDICTED BY IDOCK:  -11.29 KCAL/MOL
REMARK 924 INTRA-LIGAND FREE ENERGY PREDICTED BY IDOCK:   -2.74 KCAL/MOL
REMARK 927      BINDING AFFINITY PREDICTED BY RF-SCORE:    0.00 PKD
ROOT
HETATM    1  C   UNL     1      -7.104   3.960  67.651  1.00  0.00    -0.056 C  
HETATM    2  C   UNL     1      -7.041   5.407  68.107  1.00  0.00    -0.067 C  
ENDROOT
BRANCH   2   3
HETATM    3  C   UNL     1      -7.422   6.355  66.975  1.00  0.00    -0.084 C  
BRANCH   3   4
HETATM    4  C   UNL     1      -8.190   7.556  67.511  1.00  0.00    -0.113 C  
BRANCH   4   5
HETATM    5  C   UNL     1      -9.423   7.830  66.659  1.00  0.00    -0.263 C  
BRANCH   5   6
HETATM    6  C   UNL     1     -10.678   7.344  67.370  1.00  0.00    -0.348 C  
BRANCH   6   7
HETATM    7  C   UNL     1     -10.454   7.312  68.873  1.00  0.00    -0.216 C  
BRANCH   7   8
HETATM    8  C   UNL     1     -11.390   6.308  69.526  1.00  0.00    -0.475 C  
BRANCH   8   9
HETATM    9  C   UNL     1     -11.282   6.410  71.038  1.00  0.00    -0.370 C  
BRANCH   9  10
HETATM   10  C   UNL     1     -10.812   7.796  71.445  1.00  0.00    -0.257 C  
BRANCH  10  11
HETATM   11  C   UNL     1     -11.756   8.379  72.485  1.00  0.00    -0.429 C  
BRANCH  11  12
HETATM   12  C   UNL     1     -12.887   9.132  71.800  1.00  0.00    -0.448 C  
BRANCH  12  13
HETATM   13  C   UNL     1     -12.477  10.560  71.479  1.00  0.00    -0.493 C  
BRANCH  13  14
HETATM   14  C   UNL     1     -12.549  10.855  69.976  1.00  0.00    -0.253 C  
BRANCH  14  15
HETATM   15  C   UNL     1     -11.197  10.775  69.250  1.00  0.00    -0.333 C  
BRANCH  15  16
HETATM   16  C   UNL     1     -11.362  11.135  67.776  1.00  0.00    -0.293 C  
BRANCH  16  17
HETATM   17  N   UNL     1     -10.297  12.065  67.214  1.00  0.00    -0.210 N  
HETATM   18  C   UNL     1     -10.230  11.955  65.684  1.00  0.00    -0.245 C  
HETATM   19  C   UNL     1      -8.913  11.784  67.780  1.00  0.00    -0.173 C  
BRANCH  17  20
HETATM   20  C   UNL     1     -10.715  13.535  67.531  1.00  0.00    -0.259 C  
BRANCH  20  21
HETATM   21  C   UNL     1     -10.059  14.175  68.794  1.00  0.00    -0.198 C  
BRANCH  21  22
HETATM   22  N   UNL     1     -10.713  15.447  69.088  1.00  0.00    -0.233 NA 
BRANCH  22  23
HETATM   23  C   UNL     1     -11.072  16.363  67.997  1.00  0.00    -0.292 C  
BRANCH  23  24
HETATM   24  C   UNL     1     -10.139  17.554  67.893  1.00  0.00    -0.330 A  
HETATM   25  C   UNL     1     -10.643  18.815  67.552  1.00  0.00    -0.497 A  
HETATM   26  C   UNL     1      -8.394  19.726  67.431  1.00  0.00    -0.309 A  
HETATM   27  C   UNL     1      -7.888  18.502  67.863  1.00  0.00    -0.268 A  
HETATM   28  C   UNL     1      -8.755  17.421  68.090  1.00  0.00    -0.256 A  
HETATM   29  C   UNL     1      -9.776  19.883  67.313  1.00  0.00    -0.517 A  
BRANCH  26  30
HETATM   30  O   UNL     1      -7.674  20.816  67.036  1.00  0.00    -0.294 OA 
HETATM   31  C   UNL     1      -6.513  21.171  67.773  1.00  0.00    -0.310 C  
ENDBRANCH  26  30
ENDBRANCH  23  24
ENDBRANCH  22  23
BRANCH  22  32
HETATM   32  C   UNL     1     -11.620  15.419  70.135  1.00  0.00    -0.327 A  
HETATM   33  N   UNL     1     -12.531  14.429  70.175  1.00  0.00    -0.351 NA 
HETATM   34  N   UNL     1     -11.441  16.285  71.138  1.00  0.00    -0.390 NA 
HETATM   35  C   UNL     1     -12.229  16.152  72.222  1.00  0.00    -0.496 A  
HETATM   36  C   UNL     1     -13.343  14.373  71.258  1.00  0.00    -0.343 A  
HETATM   37  C   UNL     1     -13.221  15.212  72.332  1.00  0.00    -0.491 A  
ENDBRANCH  22  32
ENDBRANCH  21  22
ENDBRANCH  20  21
ENDBRANCH  17  20
ENDBRANCH  16  17
ENDBRANCH  15  16
ENDBRANCH  14  15
ENDBRANCH  13  14
ENDBRANCH  12  13
ENDBRANCH  11  12
ENDBRANCH  10  11
ENDBRANCH   9  10
ENDBRANCH   8   9
ENDBRANCH   7   8
ENDBRANCH   6   7
ENDBRANCH   5   6
ENDBRANCH   4   5
ENDBRANCH   3   4
ENDBRANCH   2   3
TORSDOF 22
ENDMDL
MODEL       78
REMARK 921   NORMALIZED FREE ENERGY PREDICTED BY IDOCK:   -4.17 KCAL/MOL
REMARK 922        TOTAL FREE ENERGY PREDICTED BY IDOCK:  -13.98 KCAL/MOL
REMARK 923 INTER-LIGAND FREE ENERGY PREDICTED BY IDOCK:  -10.48 KCAL/MOL
REMARK 924 INTRA-LIGAND FREE ENERGY PREDICTED BY IDOCK:   -3.50 KCAL/MOL
REMARK 927      BINDING AFFINITY PREDICTED BY RF-SCORE:    0.00 PKD
ROOT
HETATM    1  C   UNL     1      -7.316   7.042  70.985  1.00  0.00    -0.077 C  
HETATM    2  C   UNL     1      -7.920   5.667  71.207  1.00  0.00    -0.112 C  
ENDROOT
BRANCH   2   3
HETATM    3  C   UNL     1      -8.795   5.256  70.027  1.00  0.00    -0.140 C  
BRANCH   3   4
HETATM    4  C   UNL     1     -10.229   5.009  70.477  1.00  0.00    -0.316 C  
BRANCH   4   5
HETATM    5  C   UNL     1     -10.258   4.407  71.876  1.00  0.00    -0.216 C  
BRANCH   5   6
HETATM    6  C   UNL     1     -11.230   5.170  72.763  1.00  0.00    -0.323 C  
BRANCH   6   7
HETATM    7  C   UNL     1     -10.501   5.759  73.960  1.00  0.00    -0.286 C  
BRANCH   7   8
HETATM    8  C   UNL     1      -9.990   7.153  73.636  1.00  0.00    -0.367 C  
BRANCH   8   9
HETATM    9  C   UNL     1     -11.020   7.899  72.805  1.00  0.00    -0.456 C  
BRANCH   9  10
HETATM   10  C   UNL     1     -10.338   8.711  71.716  1.00  0.00    -0.386 C  
BRANCH  10  11
HETATM   11  C   UNL     1     -11.072   8.530  70.396  1.00  0.00    -0.246 C  
BRANCH  11  12
HETATM   12  C   UNL     1     -10.437   9.401  69.322  1.00  0.00    -0.230 C  
BRANCH  12  13
HETATM   13  C   UNL     1     -10.846  10.855  69.484  1.00  0.00    -0.286 C  
BRANCH  13  14
HETATM   14  C   UNL     1     -12.281  10.993  70.007  1.00  0.00    -0.418 C  
BRANCH  14  15
HETATM   15  C   UNL     1     -12.406  11.802  71.307  1.00  0.00    -0.250 C  
BRANCH  15  16
HETATM   16  C   UNL     1     -13.435  12.917  71.143  1.00  0.00     0.324 C  
BRANCH  16  17
HETATM   17  N   UNL     1     -12.959  14.303  71.553  1.00  0.00    -0.322 N  
HETATM   18  C   UNL     1     -12.708  14.369  73.066  1.00  0.00    -0.357 C  
HETATM   19  C   UNL     1     -13.946  15.398  71.178  1.00  0.00    -0.316 C  
BRANCH  17  20
HETATM   20  C   UNL     1     -11.582  14.569  70.867  1.00  0.00    -0.189 C  
BRANCH  20  21
HETATM   21  C   UNL     1     -11.206  16.067  70.645  1.00  0.00    -0.372 C  
BRANCH  21  22
HETATM   22  N   UNL     1     -10.773  16.259  69.264  1.00  0.00    -0.285 NA 
BRANCH  22  23
HETATM   23  C   UNL     1     -11.742  16.157  68.165  1.00  0.00    -0.013 C  
BRANCH  23  24
HETATM   24  C   UNL     1     -11.401  15.060  67.174  1.00  0.00    -0.323 A  
HETATM   25  C   UNL     1     -10.545  15.325  66.098  1.00  0.00    -0.318 A  
HETATM   26  C   UNL     1     -10.961  13.119  65.170  1.00  0.00    -0.298 A  
HETATM   27  C   UNL     1     -11.738  12.810  66.285  1.00  0.00    -0.460 A  
HETATM   28  C   UNL     1     -11.959  13.776  67.280  1.00  0.00    -0.436 A  
HETATM   29  C   UNL     1     -10.340  14.367  65.104  1.00  0.00    -0.447 A  
BRANCH  26  30
HETATM   30  O   UNL     1     -10.773  12.343  64.064  1.00  0.00    -0.338 OA 
HETATM   31  C   UNL     1     -11.911  11.911  63.331  1.00  0.00    -0.413 C  
ENDBRANCH  26  30
ENDBRANCH  23  24
ENDBRANCH  22  23
BRANCH  22  32
HETATM   32  C   UNL     1      -9.794  17.221  69.077  1.00  0.00    -0.237 A  
HETATM   33  N   UNL     1      -8.541  16.822  68.792  1.00  0.00    -0.258 NA 
HETATM   34  N   UNL     1     -10.179  18.502  69.032  1.00  0.00    -0.277 NA 
HETATM   35  C   UNL     1      -9.251  19.418  68.698  1.00  0.00    -0.378 A  
HETATM   36  C   UNL     1      -7.626  17.785  68.523  1.00  0.00    -0.276 A  
HETATM   37  C   UNL     1      -7.937  19.115  68.445  1.00  0.00    -0.376 A  
ENDBRANCH  22  32
ENDBRANCH  21  22
ENDBRANCH  20  21
ENDBRANCH  17  20
ENDBRANCH  16  17
ENDBRANCH  15  16
ENDBRANCH  14  15
ENDBRANCH  13  14
ENDBRANCH  12  13
ENDBRANCH  11  12
ENDBRANCH  10  11
ENDBRANCH   9  10
ENDBRANCH   8   9
ENDBRANCH   7   8
ENDBRANCH   6   7
ENDBRANCH   5   6
ENDBRANCH   4   5
ENDBRANCH   3   4
ENDBRANCH   2   3
TORSDOF 22
ENDMDL
MODEL       79
REMARK 921   NORMALIZED FREE ENERGY PREDICTED BY IDOCK:   -4.15 KCAL/MOL
REMARK 922        TOTAL FREE ENERGY PREDICTED BY IDOCK:  -13.94 KCAL/MOL
REMARK 923 INTER-LIGAND FREE ENERGY PREDICTED BY IDOCK:  -11.15 KCAL/MOL
REMARK 924 INTRA-LIGAND FREE ENERGY PREDICTED BY IDOCK:   -2.79 KCAL/MOL
REMARK 927      BINDING AFFINITY PREDICTED BY RF-SCORE:    0.00 PKD
ROOT
HETATM    1  C   UNL     1     -13.066  10.416  71.713  1.00  0.00    -0.567 C  
HETATM    2  C   UNL     1     -12.650  11.710  71.037  1.00  0.00    -0.431 C  
ENDROOT
BRANCH   2   3
HETATM    3  C   UNL     1     -13.121  12.921  71.837  1.00  0.00    -0.474 C  
BRANCH   3   4
HETATM    4  C   UNL     1     -12.589  14.212  71.227  1.00  0.00    -0.438 C  
BRANCH   4   5
HETATM    5  C   UNL     1     -12.295  14.025  69.744  1.00  0.00    -0.344 C  
BRANCH   5   6
HETATM    6  C   UNL     1     -11.671  15.285  69.163  1.00  0.00    -0.355 C  
BRANCH   6   7
HETATM    7  C   UNL     1     -11.287  15.061  67.709  1.00  0.00    -0.340 C  
BRANCH   7   8
HETATM    8  C   UNL     1     -12.031  13.861  67.144  1.00  0.00    -0.455 C  
BRANCH   8   9
HETATM    9  C   UNL     1     -11.671  13.674  65.680  1.00  0.00    -0.360 C  
BRANCH   9  10
HETATM   10  C   UNL     1     -12.762  12.901  64.959  1.00  0.00    -0.474 C  
BRANCH  10  11
HETATM   11  C   UNL     1     -12.256  12.430  63.604  1.00  0.00    -0.653 C  
BRANCH  11  12
HETATM   12  C   UNL     1     -10.740  12.293  63.632  1.00  0.00    -0.513 C  
BRANCH  12  13
HETATM   13  C   UNL     1     -10.326  10.834  63.725  1.00  0.00    -0.294 C  
BRANCH  13  14
HETATM   14  C   UNL     1      -9.388  10.577  64.909  1.00  0.00    -0.278 C  
BRANCH  14  15
HETATM   15  C   UNL     1     -10.101  10.159  66.204  1.00  0.00    -0.314 C  
BRANCH  15  16
HETATM   16  C   UNL     1      -9.103   9.568  67.195  1.00  0.00    -0.134 C  
BRANCH  16  17
HETATM   17  N   UNL     1      -9.123  10.191  68.584  1.00  0.00    -0.137 N  
HETATM   18  C   UNL     1      -9.576  11.656  68.518  1.00  0.00    -0.178 C  
HETATM   19  C   UNL     1      -7.768  10.134  69.273  1.00  0.00    -0.126 C  
BRANCH  17  20
HETATM   20  C   UNL     1     -10.189   9.439  69.441  1.00  0.00    -0.207 C  
BRANCH  20  21
HETATM   21  C   UNL     1      -9.686   8.173  70.203  1.00  0.00    -0.175 C  
BRANCH  21  22
HETATM   22  N   UNL     1     -10.829   7.464  70.771  1.00  0.00    -0.237 NA 
BRANCH  22  23
HETATM   23  C   UNL     1     -11.674   6.621  69.916  1.00  0.00    -0.270 C  
BRANCH  23  24
HETATM   24  C   UNL     1     -10.901   5.947  68.799  1.00  0.00    -0.353 A  
HETATM   25  C   UNL     1     -10.023   4.894  69.086  1.00  0.00    -0.252 A  
HETATM   26  C   UNL     1      -9.251   4.855  66.784  1.00  0.00    -0.122 A  
HETATM   27  C   UNL     1     -10.188   5.836  66.465  1.00  0.00    -0.241 A  
HETATM   28  C   UNL     1     -11.006   6.381  67.467  1.00  0.00    -0.454 A  
HETATM   29  C   UNL     1      -9.201   4.366  68.090  1.00  0.00    -0.178 A  
BRANCH  26  30
HETATM   30  O   UNL     1      -8.298   4.335  65.956  1.00  0.00    -0.108 OA 
HETATM   31  C   UNL     1      -8.402   4.573  64.560  1.00  0.00    -0.115 C  
ENDBRANCH  26  30
ENDBRANCH  23  24
ENDBRANCH  22  23
BRANCH  22  32
HETATM   32  C   UNL     1     -10.645   6.976  72.055  1.00  0.00    -0.211 A  
HETATM   33  N   UNL     1     -11.135   5.761  72.361  1.00  0.00    -0.267 NA 
HETATM   34  N   UNL     1      -9.851   7.670  72.878  1.00  0.00    -0.217 NA 
HETATM   35  C   UNL     1      -9.552   7.115  74.067  1.00  0.00    -0.270 A  
HETATM   36  C   UNL     1     -10.859   5.270  73.593  1.00  0.00    -0.294 A  
HETATM   37  C   UNL     1     -10.047   5.908  74.491  1.00  0.00    -0.312 A  
ENDBRANCH  22  32
ENDBRANCH  21  22
ENDBRANCH  20  21
ENDBRANCH  17  20
ENDBRANCH  16  17
ENDBRANCH  15  16
ENDBRANCH  14  15
ENDBRANCH  13  14
ENDBRANCH  12  13
ENDBRANCH  11  12
ENDBRANCH  10  11
ENDBRANCH   9  10
ENDBRANCH   8   9
ENDBRANCH   7   8
ENDBRANCH   6   7
ENDBRANCH   5   6
ENDBRANCH   4   5
ENDBRANCH   3   4
ENDBRANCH   2   3
TORSDOF 22
ENDMDL
MODEL       80
REMARK 921   NORMALIZED FREE ENERGY PREDICTED BY IDOCK:   -4.13 KCAL/MOL
REMARK 922        TOTAL FREE ENERGY PREDICTED BY IDOCK:  -13.89 KCAL/MOL
REMARK 923 INTER-LIGAND FREE ENERGY PREDICTED BY IDOCK:  -11.14 KCAL/MOL
REMARK 924 INTRA-LIGAND FREE ENERGY PREDICTED BY IDOCK:   -2.75 KCAL/MOL
REMARK 927      BINDING AFFINITY PREDICTED BY RF-SCORE:    0.00 PKD
ROOT
HETATM    1  C   UNL     1      -7.964   4.174  67.789  1.00  0.00    -0.090 C  
HETATM    2  C   UNL     1      -9.025   5.217  67.489  1.00  0.00    -0.110 C  
ENDROOT
BRANCH   2   3
HETATM    3  C   UNL     1     -10.194   5.104  68.462  1.00  0.00    -0.182 C  
BRANCH   3   4
HETATM    4  C   UNL     1     -10.938   6.429  68.570  1.00  0.00    -0.396 C  
BRANCH   4   5
HETATM    5  C   UNL     1     -10.954   6.920  70.012  1.00  0.00    -0.320 C  
BRANCH   5   6
HETATM    6  C   UNL     1     -10.729   8.424  70.064  1.00  0.00    -0.236 C  
BRANCH   6   7
HETATM    7  C   UNL     1     -10.550   8.979  68.660  1.00  0.00    -0.194 C  
BRANCH   7   8
HETATM    8  C   UNL     1      -9.438  10.015  68.639  1.00  0.00    -0.156 C  
BRANCH   8   9
HETATM    9  C   UNL     1      -8.167   9.395  68.082  1.00  0.00    -0.118 C  
BRANCH   9  10
HETATM   10  C   UNL     1      -8.457   8.668  66.780  1.00  0.00    -0.117 C  
BRANCH  10  11
HETATM   11  C   UNL     1      -7.953   9.489  65.603  1.00  0.00    -0.108 C  
BRANCH  11  12
HETATM   12  C   UNL     1      -8.953   9.426  64.457  1.00  0.00    -0.227 C  
BRANCH  12  13
HETATM   13  C   UNL     1     -10.113  10.379  64.690  1.00  0.00    -0.378 C  
BRANCH  13  14
HETATM   14  C   UNL     1     -10.401  11.246  63.459  1.00  0.00    -0.463 C  
BRANCH  14  15
HETATM   15  C   UNL     1     -11.601  12.192  63.618  1.00  0.00    -0.575 C  
BRANCH  15  16
HETATM   16  C   UNL     1     -11.862  12.479  65.093  1.00  0.00    -0.405 C  
BRANCH  16  17
HETATM   17  N   UNL     1     -11.564  13.904  65.539  1.00  0.00    -0.318 N  
HETATM   18  C   UNL     1     -12.161  14.919  64.554  1.00  0.00    -0.382 C  
HETATM   19  C   UNL     1     -10.073  14.178  65.670  1.00  0.00    -0.328 C  
BRANCH  17  20
HETATM   20  C   UNL     1     -12.274  14.147  66.906  1.00  0.00    -0.365 C  
BRANCH  20  21
HETATM   21  C   UNL     1     -11.474  13.722  68.178  1.00  0.00    -0.313 C  
BRANCH  21  22
HETATM   22  N   UNL     1     -11.484  14.816  69.145  1.00  0.00    -0.282 NA 
BRANCH  22  23
HETATM   23  C   UNL     1     -11.557  16.208  68.684  1.00  0.00    -0.283 C  
BRANCH  23  24
HETATM   24  C   UNL     1     -10.195  16.862  68.557  1.00  0.00    -0.310 A  
HETATM   25  C   UNL     1      -9.033  16.082  68.603  1.00  0.00    -0.210 A  
HETATM   26  C   UNL     1      -7.644  18.075  68.592  1.00  0.00    -0.290 A  
HETATM   27  C   UNL     1      -8.789  18.857  68.449  1.00  0.00    -0.379 A  
HETATM   28  C   UNL     1     -10.057  18.254  68.434  1.00  0.00    -0.412 A  
HETATM   29  C   UNL     1      -7.775  16.687  68.632  1.00  0.00    -0.224 A  
BRANCH  26  30
HETATM   30  O   UNL     1      -6.366  18.521  68.764  1.00  0.00    -0.209 OA 
HETATM   31  C   UNL     1      -5.300  17.585  68.692  1.00  0.00    -0.149 C  
ENDBRANCH  26  30
ENDBRANCH  23  24
ENDBRANCH  22  23
BRANCH  22  32
HETATM   32  C   UNL     1     -12.175  14.563  70.319  1.00  0.00    -0.330 A  
HETATM   33  N   UNL     1     -12.918  15.548  70.856  1.00  0.00    -0.484 NA 
HETATM   34  N   UNL     1     -12.196  13.304  70.771  1.00  0.00    -0.353 NA 
HETATM   35  C   UNL     1     -12.993  13.035  71.822  1.00  0.00    -0.321 A  
HETATM   36  C   UNL     1     -13.657  15.245  71.951  1.00  0.00    -0.475 A  
HETATM   37  C   UNL     1     -13.744  13.982  72.472  1.00  0.00    -0.651 A  
ENDBRANCH  22  32
ENDBRANCH  21  22
ENDBRANCH  20  21
ENDBRANCH  17  20
ENDBRANCH  16  17
ENDBRANCH  15  16
ENDBRANCH  14  15
ENDBRANCH  13  14
ENDBRANCH  12  13
ENDBRANCH  11  12
ENDBRANCH  10  11
ENDBRANCH   9  10
ENDBRANCH   8   9
ENDBRANCH   7   8
ENDBRANCH   6   7
ENDBRANCH   5   6
ENDBRANCH   4   5
ENDBRANCH   3   4
ENDBRANCH   2   3
TORSDOF 22
ENDMDL
MODEL       81
REMARK 921   NORMALIZED FREE ENERGY PREDICTED BY IDOCK:   -4.10 KCAL/MOL
REMARK 922        TOTAL FREE ENERGY PREDICTED BY IDOCK:  -13.83 KCAL/MOL
REMARK 923 INTER-LIGAND FREE ENERGY PREDICTED BY IDOCK:   -9.66 KCAL/MOL
REMARK 924 INTRA-LIGAND FREE ENERGY PREDICTED BY IDOCK:   -4.16 KCAL/MOL
REMARK 927      BINDING AFFINITY PREDICTED BY RF-SCORE:    0.00 PKD
ROOT
HETATM    1  C   UNL     1     -11.480  13.331  67.153  1.00  0.00    -0.380 C  
HETATM    2  C   UNL     1     -11.534  14.526  66.218  1.00  0.00    -0.358 C  
ENDROOT
BRANCH   2   3
HETATM    3  C   UNL     1     -12.166  14.149  64.883  1.00  0.00    -0.451 C  
BRANCH   3   4
HETATM    4  C   UNL     1     -12.551  12.675  64.864  1.00  0.00    -0.525 C  
BRANCH   4   5
HETATM    5  C   UNL     1     -12.042  12.002  63.596  1.00  0.00    -0.627 C  
BRANCH   5   6
HETATM    6  C   UNL     1     -10.529  12.124  63.500  1.00  0.00    -0.490 C  
BRANCH   6   7
HETATM    7  C   UNL     1      -9.866  10.826  63.932  1.00  0.00    -0.389 C  
BRANCH   7   8
HETATM    8  C   UNL     1      -9.269  10.974  65.322  1.00  0.00    -0.229 C  
BRANCH   8   9
HETATM    9  C   UNL     1     -10.027  10.099  66.305  1.00  0.00    -0.304 C  
BRANCH   9  10
HETATM   10  C   UNL     1      -9.166   9.790  67.518  1.00  0.00    -0.145 C  
BRANCH  10  11
HETATM   11  C   UNL     1      -7.857   9.153  67.076  1.00  0.00    -0.102 C  
BRANCH  11  12
HETATM   12  C   UNL     1      -7.019   8.786  68.293  1.00  0.00    -0.073 C  
BRANCH  12  13
HETATM   13  C   UNL     1      -6.596  10.027  69.060  1.00  0.00    -0.052 C  
BRANCH  13  14
HETATM   14  C   UNL     1      -6.888   9.902  70.560  1.00  0.00    -0.122 C  
BRANCH  14  15
HETATM   15  C   UNL     1      -7.640   8.622  70.956  1.00  0.00    -0.109 C  
BRANCH  15  16
HETATM   16  C   UNL     1      -6.945   7.938  72.130  1.00  0.00    -0.070 C  
BRANCH  16  17
HETATM   17  N   UNL     1      -7.842   7.057  72.988  1.00  0.00    -0.094 N  
HETATM   18  C   UNL     1      -7.446   7.154  74.468  1.00  0.00    -0.117 C  
HETATM   19  C   UNL     1      -7.801   5.595  72.572  1.00  0.00    -0.103 C  
BRANCH  17  20
HETATM   20  C   UNL     1      -9.302   7.600  72.887  1.00  0.00    -0.198 C  
BRANCH  20  21
HETATM   21  C   UNL     1     -10.359   6.615  72.298  1.00  0.00    -0.197 C  
BRANCH  21  22
HETATM   22  N   UNL     1     -10.977   7.215  71.119  1.00  0.00    -0.244 NA 
BRANCH  22  23
HETATM   23  C   UNL     1     -11.575   6.362  70.084  1.00  0.00    -0.381 C  
BRANCH  23  24
HETATM   24  C   UNL     1     -10.669   6.163  68.885  1.00  0.00    -0.376 A  
HETATM   25  C   UNL     1     -11.153   6.390  67.591  1.00  0.00    -0.388 A  
HETATM   26  C   UNL     1      -9.090   5.544  66.626  1.00  0.00    -0.126 A  
HETATM   27  C   UNL     1      -8.562   5.403  67.907  1.00  0.00    -0.104 A  
HETATM   28  C   UNL     1      -9.348   5.708  69.031  1.00  0.00    -0.150 A  
HETATM   29  C   UNL     1     -10.373   6.072  66.477  1.00  0.00    -0.209 A  
BRANCH  26  30
HETATM   30  O   UNL     1      -8.506   5.158  65.454  1.00  0.00    -0.129 OA 
HETATM   31  C   UNL     1      -8.976   3.983  64.811  1.00  0.00    -0.135 C  
ENDBRANCH  26  30
ENDBRANCH  23  24
ENDBRANCH  22  23
BRANCH  22  32
HETATM   32  C   UNL     1     -11.654   8.403  71.344  1.00  0.00    -0.284 A  
HETATM   33  N   UNL     1     -11.272   9.502  70.668  1.00  0.00    -0.278 NA 
HETATM   34  N   UNL     1     -12.755   8.360  72.103  1.00  0.00    -0.352 NA 
HETATM   35  C   UNL     1     -13.492   9.483  72.191  1.00  0.00    -0.456 A  
HETATM   36  C   UNL     1     -12.010  10.626  70.838  1.00  0.00    -0.363 A  
HETATM   37  C   UNL     1     -13.155  10.666  71.586  1.00  0.00    -0.555 A  
ENDBRANCH  22  32
ENDBRANCH  21  22
ENDBRANCH  20  21
ENDBRANCH  17  20
ENDBRANCH  16  17
ENDBRANCH  15  16
ENDBRANCH  14  15
ENDBRANCH  13  14
ENDBRANCH  12  13
ENDBRANCH  11  12
ENDBRANCH  10  11
ENDBRANCH   9  10
ENDBRANCH   8   9
ENDBRANCH   7   8
ENDBRANCH   6   7
ENDBRANCH   5   6
ENDBRANCH   4   5
ENDBRANCH   3   4
ENDBRANCH   2   3
TORSDOF 22
ENDMDL
MODEL       82
REMARK 921   NORMALIZED FREE ENERGY PREDICTED BY IDOCK:   -4.10 KCAL/MOL
REMARK 922        TOTAL FREE ENERGY PREDICTED BY IDOCK:  -13.82 KCAL/MOL
REMARK 923 INTER-LIGAND FREE ENERGY PREDICTED BY IDOCK:  -10.66 KCAL/MOL
REMARK 924 INTRA-LIGAND FREE ENERGY PREDICTED BY IDOCK:   -3.16 KCAL/MOL
REMARK 927      BINDING AFFINITY PREDICTED BY RF-SCORE:    0.00 PKD
ROOT
HETATM    1  C   UNL     1     -11.417   6.149  69.752  1.00  0.00    -0.362 C  
HETATM    2  C   UNL     1     -11.174   6.272  71.246  1.00  0.00    -0.355 C  
ENDROOT
BRANCH   2   3
HETATM    3  C   UNL     1     -12.242   7.139  71.904  1.00  0.00    -0.358 C  
BRANCH   3   4
HETATM    4  C   UNL     1     -11.750   8.571  72.069  1.00  0.00    -0.431 C  
BRANCH   4   5
HETATM    5  C   UNL     1     -12.925   9.533  72.188  1.00  0.00    -0.497 C  
BRANCH   5   6
HETATM    6  C   UNL     1     -12.640  10.818  71.424  1.00  0.00    -0.516 C  
BRANCH   6   7
HETATM    7  C   UNL     1     -11.846  10.516  70.163  1.00  0.00    -0.404 C  
BRANCH   7   8
HETATM    8  C   UNL     1     -11.608  11.791  69.370  1.00  0.00    -0.386 C  
BRANCH   8   9
HETATM    9  C   UNL     1     -12.202  12.977  70.110  1.00  0.00    -0.342 C  
BRANCH   9  10
HETATM   10  C   UNL     1     -12.117  14.232  69.258  1.00  0.00    -0.351 C  
BRANCH  10  11
HETATM   11  C   UNL     1     -11.699  15.416  70.118  1.00  0.00    -0.356 C  
BRANCH  11  12
HETATM   12  C   UNL     1     -10.411  16.023  69.579  1.00  0.00    -0.286 C  
BRANCH  12  13
HETATM   13  C   UNL     1     -10.441  16.110  68.062  1.00  0.00    -0.281 C  
BRANCH  13  14
HETATM   14  C   UNL     1      -9.055  15.889  67.446  1.00  0.00    -0.205 C  
BRANCH  14  15
HETATM   15  C   UNL     1      -8.666  14.412  67.275  1.00  0.00    -0.228 C  
BRANCH  15  16
HETATM   16  C   UNL     1      -7.252  14.171  67.796  1.00  0.00    -0.176 C  
BRANCH  16  17
HETATM   17  N   UNL     1      -6.866  12.708  67.964  1.00  0.00    -0.082 N  
HETATM   18  C   UNL     1      -6.534  12.397  69.430  1.00  0.00    -0.103 C  
HETATM   19  C   UNL     1      -5.673  12.313  67.105  1.00  0.00    -0.103 C  
BRANCH  17  20
HETATM   20  C   UNL     1      -8.102  11.830  67.597  1.00  0.00    -0.144 C  
BRANCH  20  21
HETATM   21  C   UNL     1      -7.931  10.888  66.364  1.00  0.00    -0.157 C  
BRANCH  21  22
HETATM   22  N   UNL     1      -9.009   9.904  66.353  1.00  0.00    -0.145 NA 
BRANCH  22  23
HETATM   23  C   UNL     1      -9.875   9.771  65.173  1.00  0.00    -0.224 C  
BRANCH  23  24
HETATM   24  C   UNL     1     -10.711  11.008  64.910  1.00  0.00    -0.278 A  
HETATM   25  C   UNL     1     -10.858  11.494  63.606  1.00  0.00    -0.488 A  
HETATM   26  C   UNL     1     -12.037  13.454  64.425  1.00  0.00    -0.416 A  
HETATM   27  C   UNL     1     -11.981  12.933  65.716  1.00  0.00    -0.496 A  
HETATM   28  C   UNL     1     -11.320  11.718  65.958  1.00  0.00    -0.335 A  
HETATM   29  C   UNL     1     -11.504  12.709  63.371  1.00  0.00    -0.499 A  
BRANCH  26  30
HETATM   30  O   UNL     1     -12.515  14.678  64.057  1.00  0.00    -0.796 OA 
HETATM   31  C   UNL     1     -11.857  15.841  64.537  1.00  0.00    -0.126 C  
ENDBRANCH  26  30
ENDBRANCH  23  24
ENDBRANCH  22  23
BRANCH  22  32
HETATM   32  C   UNL     1      -8.728   8.709  66.996  1.00  0.00    -0.127 A  
HETATM   33  N   UNL     1      -9.454   7.621  66.683  1.00  0.00    -0.188 NA 
HETATM   34  N   UNL     1      -7.643   8.662  67.778  1.00  0.00    -0.097 NA 
HETATM   35  C   UNL     1      -7.289   7.463  68.276  1.00  0.00    -0.100 A  
HETATM   36  C   UNL     1      -9.097   6.447  67.258  1.00  0.00    -0.117 A  
HETATM   37  C   UNL     1      -7.996   6.308  68.060  1.00  0.00    -0.108 A  
ENDBRANCH  22  32
ENDBRANCH  21  22
ENDBRANCH  20  21
ENDBRANCH  17  20
ENDBRANCH  16  17
ENDBRANCH  15  16
ENDBRANCH  14  15
ENDBRANCH  13  14
ENDBRANCH  12  13
ENDBRANCH  11  12
ENDBRANCH  10  11
ENDBRANCH   9  10
ENDBRANCH   8   9
ENDBRANCH   7   8
ENDBRANCH   6   7
ENDBRANCH   5   6
ENDBRANCH   4   5
ENDBRANCH   3   4
ENDBRANCH   2   3
TORSDOF 22
ENDMDL
MODEL       83
REMARK 921   NORMALIZED FREE ENERGY PREDICTED BY IDOCK:   -4.08 KCAL/MOL
REMARK 922        TOTAL FREE ENERGY PREDICTED BY IDOCK:  -13.79 KCAL/MOL
REMARK 923 INTER-LIGAND FREE ENERGY PREDICTED BY IDOCK:  -10.32 KCAL/MOL
REMARK 924 INTRA-LIGAND FREE ENERGY PREDICTED BY IDOCK:   -3.47 KCAL/MOL
REMARK 927      BINDING AFFINITY PREDICTED BY RF-SCORE:    0.00 PKD
ROOT
HETATM    1  C   UNL     1      -7.611  14.935  68.288  1.00  0.00    -0.113 C  
HETATM    2  C   UNL     1      -7.621  15.712  66.984  1.00  0.00    -0.245 C  
ENDROOT
BRANCH   2   3
HETATM    3  C   UNL     1      -6.837  17.014  67.116  1.00  0.00    -0.214 C  
BRANCH   3   4
HETATM    4  C   UNL     1      -6.753  17.448  68.574  1.00  0.00    -0.195 C  
BRANCH   4   5
HETATM    5  C   UNL     1      -7.165  18.907  68.725  1.00  0.00    -0.351 C  
BRANCH   5   6
HETATM    6  C   UNL     1      -7.635  19.468  67.391  1.00  0.00    -0.283 C  
BRANCH   6   7
HETATM    7  C   UNL     1      -8.917  20.265  67.576  1.00  0.00    -0.435 C  
BRANCH   7   8
HETATM    8  C   UNL     1      -9.937  19.452  68.356  1.00  0.00    -0.527 C  
BRANCH   8   9
HETATM    9  C   UNL     1     -10.828  18.684  67.395  1.00  0.00    -0.381 C  
BRANCH   9  10
HETATM   10  C   UNL     1     -10.701  17.188  67.633  1.00  0.00    -0.302 C  
BRANCH  10  11
HETATM   11  C   UNL     1     -10.481  16.914  69.113  1.00  0.00    -0.335 C  
BRANCH  11  12
HETATM   12  C   UNL     1     -11.521  15.926  69.621  1.00  0.00    -0.346 C  
BRANCH  12  13
HETATM   13  C   UNL     1     -11.105  14.495  69.326  1.00  0.00    -0.296 C  
BRANCH  13  14
HETATM   14  C   UNL     1     -11.903  13.892  68.164  1.00  0.00    -0.407 C  
BRANCH  14  15
HETATM   15  C   UNL     1     -11.096  13.705  66.870  1.00  0.00    -0.314 C  
BRANCH  15  16
HETATM   16  C   UNL     1     -11.530  12.432  66.150  1.00  0.00    -0.379 C  
BRANCH  16  17
HETATM   17  N   UNL     1     -10.493  11.318  66.123  1.00  0.00    -0.248 N  
HETATM   18  C   UNL     1      -9.133  11.826  66.621  1.00  0.00    -0.194 C  
HETATM   19  C   UNL     1     -10.308  10.722  64.735  1.00  0.00    -0.310 C  
BRANCH  17  20
HETATM   20  C   UNL     1     -10.941  10.208  67.124  1.00  0.00    -0.134 C  
BRANCH  20  21
HETATM   21  C   UNL     1     -10.306  10.275  68.548  1.00  0.00    -0.178 C  
BRANCH  21  22
HETATM   22  N   UNL     1     -10.608   9.043  69.272  1.00  0.00    -0.227 NA 
BRANCH  22  23
HETATM   23  C   UNL     1      -9.567   8.024  69.463  1.00  0.00    -0.164 C  
BRANCH  23  24
HETATM   24  C   UNL     1      -9.542   6.989  68.356  1.00  0.00    -0.135 A  
HETATM   25  C   UNL     1     -10.734   6.591  67.737  1.00  0.00    -0.368 A  
HETATM   26  C   UNL     1      -9.558   4.875  66.483  1.00  0.00    -0.169 A  
HETATM   27  C   UNL     1      -8.353   5.325  67.019  1.00  0.00    -0.107 A  
HETATM   28  C   UNL     1      -8.345   6.374  67.952  1.00  0.00    -0.118 A  
HETATM   29  C   UNL     1     -10.738   5.538  66.821  1.00  0.00    -0.329 A  
BRANCH  26  30
HETATM   30  O   UNL     1      -9.739   3.785  65.682  1.00  0.00    -0.178 OA 
HETATM   31  C   UNL     1     -10.356   3.962  64.416  1.00  0.00    -0.231 C  
ENDBRANCH  26  30
ENDBRANCH  23  24
ENDBRANCH  22  23
BRANCH  22  32
HETATM   32  C   UNL     1     -11.477   9.182  70.342  1.00  0.00    -0.194 A  
HETATM   33  N   UNL     1     -12.071  10.373  70.541  1.00  0.00    -0.307 NA 
HETATM   34  N   UNL     1     -11.806   8.081  71.026  1.00  0.00    -0.286 NA 
HETATM   35  C   UNL     1     -12.766   8.195  71.962  1.00  0.00    -0.323 A  
HETATM   36  C   UNL     1     -12.987  10.455  71.537  1.00  0.00    -0.458 A  
HETATM   37  C   UNL     1     -13.388   9.375  72.277  1.00  0.00    -0.539 A  
ENDBRANCH  22  32
ENDBRANCH  21  22
ENDBRANCH  20  21
ENDBRANCH  17  20
ENDBRANCH  16  17
ENDBRANCH  15  16
ENDBRANCH  14  15
ENDBRANCH  13  14
ENDBRANCH  12  13
ENDBRANCH  11  12
ENDBRANCH  10  11
ENDBRANCH   9  10
ENDBRANCH   8   9
ENDBRANCH   7   8
ENDBRANCH   6   7
ENDBRANCH   5   6
ENDBRANCH   4   5
ENDBRANCH   3   4
ENDBRANCH   2   3
TORSDOF 22
ENDMDL
MODEL       84
REMARK 921   NORMALIZED FREE ENERGY PREDICTED BY IDOCK:   -4.05 KCAL/MOL
REMARK 922        TOTAL FREE ENERGY PREDICTED BY IDOCK:  -13.71 KCAL/MOL
REMARK 923 INTER-LIGAND FREE ENERGY PREDICTED BY IDOCK:  -10.70 KCAL/MOL
REMARK 924 INTRA-LIGAND FREE ENERGY PREDICTED BY IDOCK:   -3.01 KCAL/MOL
REMARK 927      BINDING AFFINITY PREDICTED BY RF-SCORE:    0.00 PKD
ROOT
HETATM    1  C   UNL     1     -11.032  19.466  65.666  1.00  0.00    -0.184 C  
HETATM    2  C   UNL     1      -9.657  20.080  65.866  1.00  0.00    -0.326 C  
ENDROOT
BRANCH   2   3
HETATM    3  C   UNL     1      -9.529  20.692  67.257  1.00  0.00    -0.520 C  
BRANCH   3   4
HETATM    4  C   UNL     1     -10.122  19.768  68.312  1.00  0.00    -0.575 C  
BRANCH   4   5
HETATM    5  C   UNL     1      -9.022  19.155  69.169  1.00  0.00    -0.153 C  
BRANCH   5   6
HETATM    6  C   UNL     1      -7.656  19.653  68.719  1.00  0.00    -0.351 C  
BRANCH   6   7
HETATM    7  C   UNL     1      -6.562  18.733  69.235  1.00  0.00    -0.298 C  
BRANCH   7   8
HETATM    8  C   UNL     1      -6.422  17.518  68.332  1.00  0.00    -0.183 C  
BRANCH   8   9
HETATM    9  C   UNL     1      -6.637  17.926  66.884  1.00  0.00    -0.211 C  
BRANCH   9  10
HETATM   10  C   UNL     1      -7.641  17.003  66.215  1.00  0.00    -0.340 C  
BRANCH  10  11
HETATM   11  C   UNL     1      -8.382  16.192  67.266  1.00  0.00    -0.204 C  
BRANCH  11  12
HETATM   12  C   UNL     1      -9.299  15.180  66.594  1.00  0.00    -0.291 C  
BRANCH  12  13
HETATM   13  C   UNL     1     -10.711  15.727  66.460  1.00  0.00    -0.283 C  
BRANCH  13  14
HETATM   14  C   UNL     1     -11.070  16.041  65.003  1.00  0.00    -0.345 C  
BRANCH  14  15
HETATM   15  C   UNL     1     -12.102  15.086  64.384  1.00  0.00    -0.373 C  
BRANCH  15  16
HETATM   16  C   UNL     1     -12.254  13.835  65.245  1.00  0.00    -0.439 C  
BRANCH  16  17
HETATM   17  N   UNL     1     -11.684  12.560  64.640  1.00  0.00    -0.342 N  
HETATM   18  C   UNL     1     -10.328  12.831  63.973  1.00  0.00    -0.368 C  
HETATM   19  C   UNL     1     -12.612  11.933  63.610  1.00  0.00    -0.439 C  
BRANCH  17  20
HETATM   20  C   UNL     1     -11.411  11.550  65.797  1.00  0.00    -0.095 C  
BRANCH  20  21
HETATM   21  C   UNL     1     -11.589  12.103  67.245  1.00  0.00    -0.334 C  
BRANCH  21  22
HETATM   22  N   UNL     1     -11.673  10.988  68.183  1.00  0.00    -0.556 NA 
BRANCH  22  23
HETATM   23  C   UNL     1     -10.715   9.878  68.099  1.00  0.00    -0.233 C  
BRANCH  23  24
HETATM   24  C   UNL     1      -9.350  10.230  68.657  1.00  0.00    -0.162 A  
HETATM   25  C   UNL     1      -8.764   9.427  69.643  1.00  0.00    -0.172 A  
HETATM   26  C   UNL     1      -6.938  11.008  69.903  1.00  0.00    -0.049 A  
HETATM   27  C   UNL     1      -7.460  11.766  68.858  1.00  0.00    -0.080 A  
HETATM   28  C   UNL     1      -8.662  11.381  68.240  1.00  0.00    -0.160 A  
HETATM   29  C   UNL     1      -7.578   9.821  70.265  1.00  0.00    -0.184 A  
BRANCH  26  30
HETATM   30  O   UNL     1      -5.868  11.326  70.688  1.00  0.00    -0.206 OA 
HETATM   31  C   UNL     1      -5.430  12.677  70.732  1.00  0.00    -0.175 C  
ENDBRANCH  26  30
ENDBRANCH  23  24
ENDBRANCH  22  23
BRANCH  22  32
HETATM   32  C   UNL     1     -12.047  11.326  69.474  1.00  0.00    -0.317 A  
HETATM   33  N   UNL     1     -12.072  12.626  69.820  1.00  0.00    -0.272 NA 
HETATM   34  N   UNL     1     -12.518  10.353  70.262  1.00  0.00    -0.260 NA 
HETATM   35  C   UNL     1     -13.023  10.712  71.457  1.00  0.00    -0.461 A  
HETATM   36  C   UNL     1     -12.531  12.934  71.057  1.00  0.00    -0.283 A  
HETATM   37  C   UNL     1     -13.041  12.002  71.921  1.00  0.00    -0.475 A  
ENDBRANCH  22  32
ENDBRANCH  21  22
ENDBRANCH  20  21
ENDBRANCH  17  20
ENDBRANCH  16  17
ENDBRANCH  15  16
ENDBRANCH  14  15
ENDBRANCH  13  14
ENDBRANCH  12  13
ENDBRANCH  11  12
ENDBRANCH  10  11
ENDBRANCH   9  10
ENDBRANCH   8   9
ENDBRANCH   7   8
ENDBRANCH   6   7
ENDBRANCH   5   6
ENDBRANCH   4   5
ENDBRANCH   3   4
ENDBRANCH   2   3
TORSDOF 22
ENDMDL
MODEL       85
REMARK 921   NORMALIZED FREE ENERGY PREDICTED BY IDOCK:   -4.04 KCAL/MOL
REMARK 922        TOTAL FREE ENERGY PREDICTED BY IDOCK:  -13.69 KCAL/MOL
REMARK 923 INTER-LIGAND FREE ENERGY PREDICTED BY IDOCK:  -10.04 KCAL/MOL
REMARK 924 INTRA-LIGAND FREE ENERGY PREDICTED BY IDOCK:   -3.64 KCAL/MOL
REMARK 927      BINDING AFFINITY PREDICTED BY RF-SCORE:    0.00 PKD
ROOT
HETATM    1  C   UNL     1     -14.013   8.724  71.915  1.00  0.00    -0.493 C  
HETATM    2  C   UNL     1     -12.794   9.628  71.879  1.00  0.00    -0.515 C  
ENDROOT
BRANCH   2   3
HETATM    3  C   UNL     1     -12.911  10.661  70.764  1.00  0.00    -0.439 C  
BRANCH   3   4
HETATM    4  C   UNL     1     -11.559  10.899  70.103  1.00  0.00    -0.425 C  
BRANCH   4   5
HETATM    5  C   UNL     1     -11.717  11.737  68.840  1.00  0.00    -0.384 C  
BRANCH   5   6
HETATM    6  C   UNL     1     -11.528  13.214  69.154  1.00  0.00    -0.358 C  
BRANCH   6   7
HETATM    7  C   UNL     1     -11.725  14.049  67.900  1.00  0.00    -0.397 C  
BRANCH   7   8
HETATM    8  C   UNL     1     -12.400  13.224  66.816  1.00  0.00    -0.239 C  
BRANCH   8   9
HETATM    9  C   UNL     1     -12.306  13.949  65.484  1.00  0.00    -0.506 C  
BRANCH   9  10
HETATM   10  C   UNL     1     -12.152  12.953  64.346  1.00  0.00    -0.474 C  
BRANCH  10  11
HETATM   11  C   UNL     1     -10.688  12.578  64.179  1.00  0.00    -0.423 C  
BRANCH  11  12
HETATM   12  C   UNL     1     -10.516  11.071  64.309  1.00  0.00    -0.427 C  
BRANCH  12  13
HETATM   13  C   UNL     1      -9.903  10.705  65.650  1.00  0.00    -0.307 C  
BRANCH  13  14
HETATM   14  C   UNL     1      -9.061  11.848  66.228  1.00  0.00    -0.188 C  
BRANCH  14  15
HETATM   15  C   UNL     1      -8.287  11.483  67.505  1.00  0.00    -0.143 C  
BRANCH  15  16
HETATM   16  C   UNL     1      -7.624  10.117  67.353  1.00  0.00    -0.094 C  
BRANCH  16  17
HETATM   17  N   UNL     1      -7.379   9.368  68.655  1.00  0.00    -0.075 N  
HETATM   18  C   UNL     1      -8.076  10.072  69.828  1.00  0.00    -0.177 C  
HETATM   19  C   UNL     1      -5.900   9.229  68.984  1.00  0.00    -0.039 C  
BRANCH  17  20
HETATM   20  C   UNL     1      -8.035   7.957  68.537  1.00  0.00    -0.121 C  
BRANCH  20  21
HETATM   21  C   UNL     1      -8.944   7.727  67.290  1.00  0.00    -0.127 C  
BRANCH  21  22
HETATM   22  N   UNL     1      -9.546   6.399  67.368  1.00  0.00    -0.118 NA 
BRANCH  22  23
HETATM   23  C   UNL     1     -10.861   6.220  67.997  1.00  0.00    -0.326 C  
BRANCH  23  24
HETATM   24  C   UNL     1     -10.769   5.826  69.459  1.00  0.00    -0.408 A  
HETATM   25  C   UNL     1     -11.297   6.664  70.448  1.00  0.00    -0.421 A  
HETATM   26  C   UNL     1     -10.375   5.251  72.196  1.00  0.00    -0.212 A  
HETATM   27  C   UNL     1      -9.927   4.360  71.223  1.00  0.00    -0.245 A  
HETATM   28  C   UNL     1     -10.121   4.647  69.862  1.00  0.00    -0.257 A  
HETATM   29  C   UNL     1     -11.090   6.382  71.800  1.00  0.00    -0.311 A  
BRANCH  26  30
HETATM   30  O   UNL     1     -10.139   5.182  73.538  1.00  0.00    -0.162 OA 
HETATM   31  C   UNL     1      -9.868   6.382  74.248  1.00  0.00    -0.302 C  
ENDBRANCH  26  30
ENDBRANCH  23  24
ENDBRANCH  22  23
BRANCH  22  32
HETATM   32  C   UNL     1      -9.318   5.579  66.274  1.00  0.00    -0.156 A  
HETATM   33  N   UNL     1     -10.030   4.444  66.157  1.00  0.00    -0.229 NA 
HETATM   34  N   UNL     1      -8.516   6.039  65.307  1.00  0.00    -0.148 NA 
HETATM   35  C   UNL     1      -8.420   5.309  64.180  1.00  0.00    -0.108 A  
HETATM   36  C   UNL     1      -9.854   3.710  65.032  1.00  0.00    -0.146 A  
HETATM   37  C   UNL     1      -9.062   4.112  63.990  1.00  0.00    -0.144 A  
ENDBRANCH  22  32
ENDBRANCH  21  22
ENDBRANCH  20  21
ENDBRANCH  17  20
ENDBRANCH  16  17
ENDBRANCH  15  16
ENDBRANCH  14  15
ENDBRANCH  13  14
ENDBRANCH  12  13
ENDBRANCH  11  12
ENDBRANCH  10  11
ENDBRANCH   9  10
ENDBRANCH   8   9
ENDBRANCH   7   8
ENDBRANCH   6   7
ENDBRANCH   5   6
ENDBRANCH   4   5
ENDBRANCH   3   4
ENDBRANCH   2   3
TORSDOF 22
ENDMDL
MODEL       86
REMARK 921   NORMALIZED FREE ENERGY PREDICTED BY IDOCK:   -4.02 KCAL/MOL
REMARK 922        TOTAL FREE ENERGY PREDICTED BY IDOCK:  -13.65 KCAL/MOL
REMARK 923 INTER-LIGAND FREE ENERGY PREDICTED BY IDOCK:   -9.98 KCAL/MOL
REMARK 924 INTRA-LIGAND FREE ENERGY PREDICTED BY IDOCK:   -3.67 KCAL/MOL
REMARK 927      BINDING AFFINITY PREDICTED BY RF-SCORE:    0.00 PKD
ROOT
HETATM    1  C   UNL     1      -5.579  18.432  70.438  1.00  0.00    -0.212 C  
HETATM    2  C   UNL     1      -5.171  18.927  69.062  1.00  0.00    -0.192 C  
ENDROOT
BRANCH   2   3
HETATM    3  C   UNL     1      -5.317  17.824  68.018  1.00  0.00    -0.145 C  
BRANCH   3   4
HETATM    4  C   UNL     1      -5.650  18.413  66.653  1.00  0.00    -0.169 C  
BRANCH   4   5
HETATM    5  C   UNL     1      -7.156  18.422  66.425  1.00  0.00    -0.272 C  
BRANCH   5   6
HETATM    6  C   UNL     1      -7.607  19.780  65.910  1.00  0.00    -0.332 C  
BRANCH   6   7
HETATM    7  C   UNL     1      -8.527  20.448  66.919  1.00  0.00    -0.315 C  
BRANCH   7   8
HETATM    8  C   UNL     1      -8.894  19.473  68.027  1.00  0.00    -0.368 C  
BRANCH   8   9
HETATM    9  C   UNL     1     -10.368  19.121  67.936  1.00  0.00    -0.505 C  
BRANCH   9  10
HETATM   10  C   UNL     1     -10.618  17.730  68.495  1.00  0.00    -0.260 C  
BRANCH  10  11
HETATM   11  C   UNL     1     -10.424  16.689  67.404  1.00  0.00    -0.314 C  
BRANCH  11  12
HETATM   12  C   UNL     1      -9.201  15.835  67.709  1.00  0.00    -0.197 C  
BRANCH  12  13
HETATM   13  C   UNL     1      -8.803  15.953  69.170  1.00  0.00    -0.253 C  
BRANCH  13  14
HETATM   14  C   UNL     1      -7.477  15.243  69.464  1.00  0.00    -0.214 C  
BRANCH  14  15
HETATM   15  C   UNL     1      -6.847  14.547  68.247  1.00  0.00    -0.113 C  
BRANCH  15  16
HETATM   16  C   UNL     1      -6.231  13.212  68.657  1.00  0.00    -0.083 C  
BRANCH  16  17
HETATM   17  N   UNL     1      -6.649  12.019  67.810  1.00  0.00    -0.083 N  
HETATM   18  C   UNL     1      -7.057  10.835  68.698  1.00  0.00    -0.078 C  
HETATM   19  C   UNL     1      -5.551  11.557  66.863  1.00  0.00    -0.129 C  
BRANCH  17  20
HETATM   20  C   UNL     1      -7.921  12.418  66.998  1.00  0.00    -0.106 C  
BRANCH  20  21
HETATM   21  C   UNL     1      -8.956  11.277  66.744  1.00  0.00    -0.171 C  
BRANCH  21  22
HETATM   22  N   UNL     1     -10.299  11.766  67.041  1.00  0.00    -0.210 NA 
BRANCH  22  23
HETATM   23  C   UNL     1     -10.621  12.273  68.382  1.00  0.00    -0.235 C  
BRANCH  23  24
HETATM   24  C   UNL     1     -11.118  11.191  69.320  1.00  0.00    -0.318 A  
HETATM   25  C   UNL     1     -12.073  11.492  70.299  1.00  0.00    -0.444 A  
HETATM   26  C   UNL     1     -11.862   9.265  71.248  1.00  0.00    -0.343 A  
HETATM   27  C   UNL     1     -10.984   8.924  70.221  1.00  0.00    -0.266 A  
HETATM   28  C   UNL     1     -10.612   9.882  69.264  1.00  0.00    -0.245 A  
HETATM   29  C   UNL     1     -12.429  10.541  71.257  1.00  0.00    -0.524 A  
BRANCH  26  30
HETATM   30  O   UNL     1     -12.205   8.495  72.321  1.00  0.00    -0.357 OA 
HETATM   31  C   UNL     1     -11.845   7.121  72.318  1.00  0.00    -0.239 C  
ENDBRANCH  26  30
ENDBRANCH  23  24
ENDBRANCH  22  23
BRANCH  22  32
HETATM   32  C   UNL     1     -10.926  12.442  66.007  1.00  0.00    -0.289 A  
HETATM   33  N   UNL     1     -10.727  12.020  64.745  1.00  0.00    -0.293 NA 
HETATM   34  N   UNL     1     -11.825  13.379  66.329  1.00  0.00    -0.374 NA 
HETATM   35  C   UNL     1     -12.541  13.923  65.327  1.00  0.00    -0.478 A  
HETATM   36  C   UNL     1     -11.426  12.639  63.763  1.00  0.00    -0.470 A  
HETATM   37  C   UNL     1     -12.371  13.599  64.005  1.00  0.00    -0.382 A  
ENDBRANCH  22  32
ENDBRANCH  21  22
ENDBRANCH  20  21
ENDBRANCH  17  20
ENDBRANCH  16  17
ENDBRANCH  15  16
ENDBRANCH  14  15
ENDBRANCH  13  14
ENDBRANCH  12  13
ENDBRANCH  11  12
ENDBRANCH  10  11
ENDBRANCH   9  10
ENDBRANCH   8   9
ENDBRANCH   7   8
ENDBRANCH   6   7
ENDBRANCH   5   6
ENDBRANCH   4   5
ENDBRANCH   3   4
ENDBRANCH   2   3
TORSDOF 22
ENDMDL
MODEL       87
REMARK 921   NORMALIZED FREE ENERGY PREDICTED BY IDOCK:   -4.01 KCAL/MOL
REMARK 922        TOTAL FREE ENERGY PREDICTED BY IDOCK:  -13.62 KCAL/MOL
REMARK 923 INTER-LIGAND FREE ENERGY PREDICTED BY IDOCK:  -10.26 KCAL/MOL
REMARK 924 INTRA-LIGAND FREE ENERGY PREDICTED BY IDOCK:   -3.36 KCAL/MOL
REMARK 927      BINDING AFFINITY PREDICTED BY RF-SCORE:    0.00 PKD
ROOT
HETATM    1  C   UNL     1     -12.092  12.879  65.950  1.00  0.00    -0.503 C  
HETATM    2  C   UNL     1     -11.983  13.673  67.240  1.00  0.00    -0.420 C  
ENDROOT
BRANCH   2   3
HETATM    3  C   UNL     1     -10.546  14.118  67.489  1.00  0.00    -0.257 C  
BRANCH   3   4
HETATM    4  C   UNL     1     -10.507  15.335  68.404  1.00  0.00    -0.236 C  
BRANCH   4   5
HETATM    5  C   UNL     1     -11.725  15.358  69.320  1.00  0.00    -0.367 C  
BRANCH   5   6
HETATM    6  C   UNL     1     -11.376  16.006  70.652  1.00  0.00    -0.424 C  
BRANCH   6   7
HETATM    7  C   UNL     1     -12.438  15.681  71.690  1.00  0.00    -0.503 C  
BRANCH   7   8
HETATM    8  C   UNL     1     -13.349  14.573  71.186  1.00  0.00    -0.415 C  
BRANCH   8   9
HETATM    9  C   UNL     1     -13.741  13.665  72.339  1.00  0.00    -0.697 C  
BRANCH   9  10
HETATM   10  C   UNL     1     -13.322  12.232  72.053  1.00  0.00    -0.491 C  
BRANCH  10  11
HETATM   11  C   UNL     1     -12.442  12.186  70.813  1.00  0.00    -0.362 C  
BRANCH  11  12
HETATM   12  C   UNL     1     -12.373  10.764  70.275  1.00  0.00    -0.423 C  
BRANCH  12  13
HETATM   13  C   UNL     1     -11.296   9.962  70.988  1.00  0.00    -0.460 C  
BRANCH  13  14
HETATM   14  C   UNL     1     -10.051   9.769  70.114  1.00  0.00    -0.317 C  
BRANCH  14  15
HETATM   15  C   UNL     1      -9.973  10.712  68.903  1.00  0.00    -0.213 C  
BRANCH  15  16
HETATM   16  C   UNL     1     -10.311   9.959  67.620  1.00  0.00    -0.225 C  
BRANCH  16  17
HETATM   17  N   UNL     1      -9.200   9.920  66.581  1.00  0.00    -0.150 N  
HETATM   18  C   UNL     1      -8.254  11.117  66.749  1.00  0.00    -0.154 C  
HETATM   19  C   UNL     1      -9.730   9.920  65.154  1.00  0.00    -0.306 C  
BRANCH  17  20
HETATM   20  C   UNL     1      -8.341   8.642  66.831  1.00  0.00    -0.108 C  
BRANCH  20  21
HETATM   21  C   UNL     1      -8.631   7.428  65.894  1.00  0.00    -0.153 C  
BRANCH  21  22
HETATM   22  N   UNL     1      -9.158   6.319  66.685  1.00  0.00    -0.139 NA 
BRANCH  22  23
HETATM   23  C   UNL     1     -10.457   6.446  67.360  1.00  0.00    -0.252 C  
BRANCH  23  24
HETATM   24  C   UNL     1     -10.342   6.422  68.872  1.00  0.00    -0.237 A  
HETATM   25  C   UNL     1      -9.082   6.442  69.483  1.00  0.00    -0.138 A  
HETATM   26  C   UNL     1     -10.090   6.106  71.667  1.00  0.00    -0.187 A  
HETATM   27  C   UNL     1     -11.353   6.181  71.083  1.00  0.00    -0.340 A  
HETATM   28  C   UNL     1     -11.478   6.335  69.693  1.00  0.00    -0.425 A  
HETATM   29  C   UNL     1      -8.962   6.274  70.863  1.00  0.00    -0.147 A  
BRANCH  26  30
HETATM   30  O   UNL     1      -9.809   5.819  72.971  1.00  0.00    -0.164 OA 
HETATM   31  C   UNL     1     -10.727   5.027  73.710  1.00  0.00    -0.301 C  
ENDBRANCH  26  30
ENDBRANCH  23  24
ENDBRANCH  22  23
BRANCH  22  32
HETATM   32  C   UNL     1      -8.894   5.055  66.184  1.00  0.00    -0.125 A  
HETATM   33  N   UNL     1      -9.296   3.983  66.890  1.00  0.00    -0.168 NA 
HETATM   34  N   UNL     1      -8.394   4.967  64.946  1.00  0.00    -0.131 NA 
HETATM   35  C   UNL     1      -8.284   3.738  64.407  1.00  0.00    -0.090 A  
HETATM   36  C   UNL     1      -9.108   2.762  66.332  1.00  0.00    -0.125 A  
HETATM   37  C   UNL     1      -8.614   2.583  65.069  1.00  0.00    -0.102 A  
ENDBRANCH  22  32
ENDBRANCH  21  22
ENDBRANCH  20  21
ENDBRANCH  17  20
ENDBRANCH  16  17
ENDBRANCH  15  16
ENDBRANCH  14  15
ENDBRANCH  13  14
ENDBRANCH  12  13
ENDBRANCH  11  12
ENDBRANCH  10  11
ENDBRANCH   9  10
ENDBRANCH   8   9
ENDBRANCH   7   8
ENDBRANCH   6   7
ENDBRANCH   5   6
ENDBRANCH   4   5
ENDBRANCH   3   4
ENDBRANCH   2   3
TORSDOF 22
ENDMDL
MODEL       88
REMARK 921   NORMALIZED FREE ENERGY PREDICTED BY IDOCK:   -4.01 KCAL/MOL
REMARK 922        TOTAL FREE ENERGY PREDICTED BY IDOCK:  -13.61 KCAL/MOL
REMARK 923 INTER-LIGAND FREE ENERGY PREDICTED BY IDOCK:  -11.30 KCAL/MOL
REMARK 924 INTRA-LIGAND FREE ENERGY PREDICTED BY IDOCK:   -2.32 KCAL/MOL
REMARK 927      BINDING AFFINITY PREDICTED BY RF-SCORE:    0.00 PKD
ROOT
HETATM    1  C   UNL     1      -7.669   3.729  65.777  1.00  0.00    -0.089 C  
HETATM    2  C   UNL     1      -8.766   4.757  65.560  1.00  0.00    -0.135 C  
ENDROOT
BRANCH   2   3
HETATM    3  C   UNL     1     -10.008   4.411  66.375  1.00  0.00    -0.252 C  
BRANCH   3   4
HETATM    4  C   UNL     1     -10.873   5.646  66.591  1.00  0.00    -0.280 C  
BRANCH   4   5
HETATM    5  C   UNL     1     -10.767   6.133  68.031  1.00  0.00    -0.370 C  
BRANCH   5   6
HETATM    6  C   UNL     1     -10.119   7.509  68.080  1.00  0.00    -0.215 C  
BRANCH   6   7
HETATM    7  C   UNL     1     -10.237   8.196  66.729  1.00  0.00    -0.372 C  
BRANCH   7   8
HETATM    8  C   UNL     1      -8.974   8.986  66.426  1.00  0.00    -0.189 C  
BRANCH   8   9
HETATM    9  C   UNL     1      -8.171   8.281  65.347  1.00  0.00    -0.146 C  
BRANCH   9  10
HETATM   10  C   UNL     1      -8.394   8.945  63.998  1.00  0.00    -0.168 C  
BRANCH  10  11
HETATM   11  C   UNL     1      -8.698  10.423  64.191  1.00  0.00    -0.205 C  
BRANCH  11  12
HETATM   12  C   UNL     1      -9.771  10.867  63.207  1.00  0.00    -0.398 C  
BRANCH  12  13
HETATM   13  C   UNL     1     -11.075  11.177  63.923  1.00  0.00    -0.168 C  
BRANCH  13  14
HETATM   14  C   UNL     1     -11.384  12.678  63.931  1.00  0.00    -0.501 C  
BRANCH  14  15
HETATM   15  C   UNL     1     -11.418  13.312  65.330  1.00  0.00    -0.328 C  
BRANCH  15  16
HETATM   16  C   UNL     1     -11.311  12.234  66.405  1.00  0.00    -0.354 C  
BRANCH  16  17
HETATM   17  N   UNL     1     -10.589  12.658  67.677  1.00  0.00    -0.216 N  
HETATM   18  C   UNL     1      -9.068  12.649  67.469  1.00  0.00    -0.192 C  
HETATM   19  C   UNL     1     -10.919  11.766  68.864  1.00  0.00    -0.239 C  
BRANCH  17  20
HETATM   20  C   UNL     1     -10.981  14.134  67.993  1.00  0.00    -0.255 C  
BRANCH  20  21
HETATM   21  C   UNL     1     -10.305  14.768  69.248  1.00  0.00    -0.206 C  
BRANCH  21  22
HETATM   22  N   UNL     1     -11.001  16.002  69.603  1.00  0.00    -0.300 NA 
BRANCH  22  23
HETATM   23  C   UNL     1     -11.377  16.964  68.559  1.00  0.00     0.021 C  
BRANCH  23  24
HETATM   24  C   UNL     1     -10.321  18.027  68.325  1.00  0.00    -0.389 A  
HETATM   25  C   UNL     1     -10.658  19.225  67.684  1.00  0.00    -0.553 A  
HETATM   26  C   UNL     1      -8.326  19.904  67.638  1.00  0.00    -0.321 A  
HETATM   27  C   UNL     1      -7.991  18.761  68.361  1.00  0.00    -0.365 A  
HETATM   28  C   UNL     1      -8.982  17.826  68.701  1.00  0.00    -0.258 A  
HETATM   29  C   UNL     1      -9.667  20.144  67.336  1.00  0.00    -0.563 A  
BRANCH  26  30
HETATM   30  O   UNL     1      -7.463  20.824  67.118  1.00  0.00    -0.335 OA 
HETATM   31  C   UNL     1      -6.144  20.896  67.640  1.00  0.00    -0.304 C  
ENDBRANCH  26  30
ENDBRANCH  23  24
ENDBRANCH  22  23
BRANCH  22  32
HETATM   32  C   UNL     1     -11.917  15.889  70.637  1.00  0.00    -0.348 A  
HETATM   33  N   UNL     1     -13.050  15.197  70.423  1.00  0.00    -0.254 NA 
HETATM   34  N   UNL     1     -11.553  16.338  71.843  1.00  0.00    -0.427 NA 
HETATM   35  C   UNL     1     -12.382  16.088  72.875  1.00  0.00    -0.508 A  
HETATM   36  C   UNL     1     -13.883  15.023  71.478  1.00  0.00    -0.484 A  
HETATM   37  C   UNL     1     -13.584  15.440  72.747  1.00  0.00    -0.628 A  
ENDBRANCH  22  32
ENDBRANCH  21  22
ENDBRANCH  20  21
ENDBRANCH  17  20
ENDBRANCH  16  17
ENDBRANCH  15  16
ENDBRANCH  14  15
ENDBRANCH  13  14
ENDBRANCH  12  13
ENDBRANCH  11  12
ENDBRANCH  10  11
ENDBRANCH   9  10
ENDBRANCH   8   9
ENDBRANCH   7   8
ENDBRANCH   6   7
ENDBRANCH   5   6
ENDBRANCH   4   5
ENDBRANCH   3   4
ENDBRANCH   2   3
TORSDOF 22
ENDMDL
MODEL       89
REMARK 921   NORMALIZED FREE ENERGY PREDICTED BY IDOCK:   -4.01 KCAL/MOL
REMARK 922        TOTAL FREE ENERGY PREDICTED BY IDOCK:  -13.61 KCAL/MOL
REMARK 923 INTER-LIGAND FREE ENERGY PREDICTED BY IDOCK:  -10.27 KCAL/MOL
REMARK 924 INTRA-LIGAND FREE ENERGY PREDICTED BY IDOCK:   -3.34 KCAL/MOL
REMARK 927      BINDING AFFINITY PREDICTED BY RF-SCORE:    0.00 PKD
ROOT
HETATM    1  C   UNL     1     -14.062   8.901  72.279  1.00  0.00    -0.512 C  
HETATM    2  C   UNL     1     -12.626   8.510  71.977  1.00  0.00    -0.414 C  
ENDROOT
BRANCH   2   3
HETATM    3  C   UNL     1     -12.532   7.042  71.576  1.00  0.00    -0.426 C  
BRANCH   3   4
HETATM    4  C   UNL     1     -11.326   6.803  70.677  1.00  0.00    -0.384 C  
BRANCH   4   5
HETATM    5  C   UNL     1     -10.595   5.530  71.085  1.00  0.00    -0.303 C  
BRANCH   5   6
HETATM    6  C   UNL     1     -10.983   5.124  72.499  1.00  0.00    -0.276 C  
BRANCH   6   7
HETATM    7  C   UNL     1      -9.759   5.113  73.400  1.00  0.00    -0.157 C  
BRANCH   7   8
HETATM    8  C   UNL     1      -9.940   6.088  74.552  1.00  0.00    -0.321 C  
BRANCH   8   9
HETATM    9  C   UNL     1      -8.837   7.133  74.521  1.00  0.00    -0.215 C  
BRANCH   9  10
HETATM   10  C   UNL     1      -9.117   8.170  73.447  1.00  0.00    -0.309 C  
BRANCH  10  11
HETATM   11  C   UNL     1      -7.838   8.491  72.689  1.00  0.00    -0.080 C  
BRANCH  11  12
HETATM   12  C   UNL     1      -7.702   7.575  71.481  1.00  0.00    -0.085 C  
BRANCH  12  13
HETATM   13  C   UNL     1      -7.973   8.330  70.190  1.00  0.00    -0.106 C  
BRANCH  13  14
HETATM   14  C   UNL     1      -8.906   9.526  70.409  1.00  0.00    -0.279 C  
BRANCH  14  15
HETATM   15  C   UNL     1      -9.841   9.825  69.227  1.00  0.00    -0.208 C  
BRANCH  15  16
HETATM   16  C   UNL     1      -9.631  11.252  68.728  1.00  0.00    -0.151 C  
BRANCH  16  17
HETATM   17  N   UNL     1      -9.212  11.373  67.270  1.00  0.00    -0.163 N  
HETATM   18  C   UNL     1     -10.231  10.683  66.351  1.00  0.00    -0.234 C  
HETATM   19  C   UNL     1      -7.838  10.778  67.002  1.00  0.00    -0.121 C  
BRANCH  17  20
HETATM   20  C   UNL     1      -9.224  12.884  66.882  1.00  0.00    -0.234 C  
BRANCH  20  21
HETATM   21  C   UNL     1      -9.472  13.889  68.051  1.00  0.00    -0.208 C  
BRANCH  21  22
HETATM   22  N   UNL     1     -10.309  14.987  67.577  1.00  0.00    -0.239 NA 
BRANCH  22  23
HETATM   23  C   UNL     1     -11.767  14.927  67.739  1.00  0.00    -0.317 C  
BRANCH  23  24
HETATM   24  C   UNL     1     -12.194  14.649  69.167  1.00  0.00    -0.223 A  
HETATM   25  C   UNL     1     -12.437  15.709  70.048  1.00  0.00    -0.249 A  
HETATM   26  C   UNL     1     -12.726  14.161  71.897  1.00  0.00    -0.320 A  
HETATM   27  C   UNL     1     -12.581  13.095  71.012  1.00  0.00    -0.397 A  
HETATM   28  C   UNL     1     -12.314  13.337  69.655  1.00  0.00    -0.154 A  
HETATM   29  C   UNL     1     -12.688  15.464  71.400  1.00  0.00    -0.488 A  
BRANCH  26  30
HETATM   30  O   UNL     1     -12.846  14.085  73.255  1.00  0.00    -0.371 OA 
HETATM   31  C   UNL     1     -12.492  15.217  74.036  1.00  0.00    -0.573 C  
ENDBRANCH  26  30
ENDBRANCH  23  24
ENDBRANCH  22  23
BRANCH  22  32
HETATM   32  C   UNL     1      -9.767  16.254  67.729  1.00  0.00    -0.233 A  
HETATM   33  N   UNL     1     -10.521  17.321  67.412  1.00  0.00    -0.347 NA 
HETATM   34  N   UNL     1      -8.578  16.355  68.335  1.00  0.00    -0.200 NA 
HETATM   35  C   UNL     1      -8.129  17.592  68.617  1.00  0.00    -0.269 A  
HETATM   36  C   UNL     1     -10.001  18.548  67.658  1.00  0.00    -0.338 A  
HETATM   37  C   UNL     1      -8.799  18.741  68.283  1.00  0.00    -0.363 A  
ENDBRANCH  22  32
ENDBRANCH  21  22
ENDBRANCH  20  21
ENDBRANCH  17  20
ENDBRANCH  16  17
ENDBRANCH  15  16
ENDBRANCH  14  15
ENDBRANCH  13  14
ENDBRANCH  12  13
ENDBRANCH  11  12
ENDBRANCH  10  11
ENDBRANCH   9  10
ENDBRANCH   8   9
ENDBRANCH   7   8
ENDBRANCH   6   7
ENDBRANCH   5   6
ENDBRANCH   4   5
ENDBRANCH   3   4
ENDBRANCH   2   3
TORSDOF 22
ENDMDL
MODEL       90
REMARK 921   NORMALIZED FREE ENERGY PREDICTED BY IDOCK:   -4.01 KCAL/MOL
REMARK 922        TOTAL FREE ENERGY PREDICTED BY IDOCK:  -13.61 KCAL/MOL
REMARK 923 INTER-LIGAND FREE ENERGY PREDICTED BY IDOCK:   -9.91 KCAL/MOL
REMARK 924 INTRA-LIGAND FREE ENERGY PREDICTED BY IDOCK:   -3.70 KCAL/MOL
REMARK 927      BINDING AFFINITY PREDICTED BY RF-SCORE:    0.00 PKD
ROOT
HETATM    1  C   UNL     1     -10.400  16.428  67.939  1.00  0.00    -0.286 C  
HETATM    2  C   UNL     1      -9.439  16.607  66.777  1.00  0.00    -0.260 C  
ENDROOT
BRANCH   2   3
HETATM    3  C   UNL     1      -9.603  15.488  65.754  1.00  0.00    -0.367 C  
BRANCH   3   4
HETATM    4  C   UNL     1     -10.959  15.579  65.066  1.00  0.00    -0.454 C  
BRANCH   4   5
HETATM    5  C   UNL     1     -11.420  14.203  64.602  1.00  0.00    -0.392 C  
BRANCH   5   6
HETATM    6  C   UNL     1     -12.678  13.784  65.348  1.00  0.00    -0.513 C  
BRANCH   6   7
HETATM    7  C   UNL     1     -12.369  13.564  66.820  1.00  0.00    -0.326 C  
BRANCH   7   8
HETATM    8  C   UNL     1     -11.483  12.342  66.999  1.00  0.00    -0.419 C  
BRANCH   8   9
HETATM    9  C   UNL     1     -10.553  12.548  68.182  1.00  0.00    -0.239 C  
BRANCH   9  10
HETATM   10  C   UNL     1     -10.581  11.336  69.098  1.00  0.00    -0.222 C  
BRANCH  10  11
HETATM   11  C   UNL     1     -12.015  11.017  69.493  1.00  0.00    -0.413 C  
BRANCH  11  12
HETATM   12  C   UNL     1     -12.400  11.800  70.739  1.00  0.00    -0.433 C  
BRANCH  12  13
HETATM   13  C   UNL     1     -12.934  10.877  71.822  1.00  0.00    -0.557 C  
BRANCH  13  14
HETATM   14  C   UNL     1     -13.785   9.742  71.241  1.00  0.00    -0.201 C  
BRANCH  14  15
HETATM   15  C   UNL     1     -13.345   8.335  71.672  1.00  0.00    -0.353 C  
BRANCH  15  16
HETATM   16  C   UNL     1     -12.012   8.397  72.413  1.00  0.00    -0.384 C  
BRANCH  16  17
HETATM   17  N   UNL     1     -10.929   7.472  71.876  1.00  0.00    -0.230 N  
HETATM   18  C   UNL     1     -11.349   6.002  72.017  1.00  0.00    -0.290 C  
HETATM   19  C   UNL     1      -9.593   7.663  72.578  1.00  0.00    -0.176 C  
BRANCH  17  20
HETATM   20  C   UNL     1     -10.772   7.739  70.347  1.00  0.00    -0.236 C  
BRANCH  20  21
HETATM   21  C   UNL     1     -10.864   6.487  69.420  1.00  0.00    -0.308 C  
BRANCH  21  22
HETATM   22  N   UNL     1      -9.901   6.617  68.331  1.00  0.00    -0.136 NA 
BRANCH  22  23
HETATM   23  C   UNL     1      -8.776   7.554  68.448  1.00  0.00    -0.123 C  
BRANCH  23  24
HETATM   24  C   UNL     1      -8.800   8.643  67.393  1.00  0.00    -0.140 A  
HETATM   25  C   UNL     1      -9.923   8.802  66.571  1.00  0.00    -0.360 A  
HETATM   26  C   UNL     1      -8.768  10.481  65.248  1.00  0.00    -0.188 A  
HETATM   27  C   UNL     1      -7.681  10.400  66.116  1.00  0.00    -0.129 A  
HETATM   28  C   UNL     1      -7.696   9.485  67.182  1.00  0.00    -0.091 A  
HETATM   29  C   UNL     1      -9.898   9.703  65.505  1.00  0.00    -0.352 A  
BRANCH  26  30
HETATM   30  O   UNL     1      -8.842  11.211  64.098  1.00  0.00    -0.043 OA 
HETATM   31  C   UNL     1      -9.736  10.791  63.078  1.00  0.00    -0.340 C  
ENDBRANCH  26  30
ENDBRANCH  23  24
ENDBRANCH  22  23
BRANCH  22  32
HETATM   32  C   UNL     1      -9.602   5.443  67.660  1.00  0.00    -0.127 A  
HETATM   33  N   UNL     1      -9.486   4.305  68.369  1.00  0.00    -0.153 NA 
HETATM   34  N   UNL     1      -9.602   5.471  66.322  1.00  0.00    -0.156 NA 
HETATM   35  C   UNL     1      -9.464   4.298  65.676  1.00  0.00    -0.176 A  
HETATM   36  C   UNL     1      -9.286   3.157  67.677  1.00  0.00    -0.200 A  
HETATM   37  C   UNL     1      -9.284   3.095  66.310  1.00  0.00    -0.140 A  
ENDBRANCH  22  32
ENDBRANCH  21  22
ENDBRANCH  20  21
ENDBRANCH  17  20
ENDBRANCH  16  17
ENDBRANCH  15  16
ENDBRANCH  14  15
ENDBRANCH  13  14
ENDBRANCH  12  13
ENDBRANCH  11  12
ENDBRANCH  10  11
ENDBRANCH   9  10
ENDBRANCH   8   9
ENDBRANCH   7   8
ENDBRANCH   6   7
ENDBRANCH   5   6
ENDBRANCH   4   5
ENDBRANCH   3   4
ENDBRANCH   2   3
TORSDOF 22
ENDMDL
MODEL       91
REMARK 921   NORMALIZED FREE ENERGY PREDICTED BY IDOCK:   -4.00 KCAL/MOL
REMARK 922        TOTAL FREE ENERGY PREDICTED BY IDOCK:  -13.59 KCAL/MOL
REMARK 923 INTER-LIGAND FREE ENERGY PREDICTED BY IDOCK:   -9.36 KCAL/MOL
REMARK 924 INTRA-LIGAND FREE ENERGY PREDICTED BY IDOCK:   -4.23 KCAL/MOL
REMARK 927      BINDING AFFINITY PREDICTED BY RF-SCORE:    0.00 PKD
ROOT
HETATM    1  C   UNL     1     -11.430  15.076  70.258  1.00  0.00    -0.308 C  
HETATM    2  C   UNL     1     -10.871  14.471  68.983  1.00  0.00    -0.265 C  
ENDROOT
BRANCH   2   3
HETATM    3  C   UNL     1     -11.992  14.066  68.032  1.00  0.00    -0.386 C  
BRANCH   3   4
HETATM    4  C   UNL     1     -11.501  14.055  66.590  1.00  0.00    -0.377 C  
BRANCH   4   5
HETATM    5  C   UNL     1     -12.635  13.697  65.638  1.00  0.00    -0.531 C  
BRANCH   5   6
HETATM    6  C   UNL     1     -12.079  13.237  64.298  1.00  0.00    -0.475 C  
BRANCH   6   7
HETATM    7  C   UNL     1     -10.565  13.373  64.280  1.00  0.00    -0.358 C  
BRANCH   7   8
HETATM    8  C   UNL     1      -9.929  12.132  63.677  1.00  0.00    -0.347 C  
BRANCH   8   9
HETATM    9  C   UNL     1     -10.658  10.891  64.164  1.00  0.00    -0.327 C  
BRANCH   9  10
HETATM   10  C   UNL     1      -9.857  10.197  65.253  1.00  0.00    -0.388 C  
BRANCH  10  11
HETATM   11  C   UNL     1     -10.518  10.419  66.605  1.00  0.00    -0.279 C  
BRANCH  11  12
HETATM   12  C   UNL     1      -9.482  10.870  67.624  1.00  0.00    -0.170 C  
BRANCH  12  13
HETATM   13  C   UNL     1      -9.969  10.627  69.043  1.00  0.00    -0.226 C  
BRANCH  13  14
HETATM   14  C   UNL     1     -11.488  10.794  69.165  1.00  0.00    -0.368 C  
BRANCH  14  15
HETATM   15  C   UNL     1     -12.034  10.600  70.588  1.00  0.00    -0.466 C  
BRANCH  15  16
HETATM   16  C   UNL     1     -11.187   9.586  71.351  1.00  0.00    -0.382 C  
BRANCH  16  17
HETATM   17  N   UNL     1     -11.946   8.381  71.889  1.00  0.00    -0.314 N  
HETATM   18  C   UNL     1     -13.381   8.769  72.274  1.00  0.00    -0.419 C  
HETATM   19  C   UNL     1     -11.272   7.756  73.101  1.00  0.00    -0.218 C  
BRANCH  17  20
HETATM   20  C   UNL     1     -12.068   7.329  70.743  1.00  0.00    -0.245 C  
BRANCH  20  21
HETATM   21  C   UNL     1     -11.079   6.124  70.813  1.00  0.00    -0.309 C  
BRANCH  21  22
HETATM   22  N   UNL     1     -10.061   6.271  69.777  1.00  0.00    -0.170 NA 
BRANCH  22  23
HETATM   23  C   UNL     1     -10.304   7.146  68.622  1.00  0.00    -0.187 C  
BRANCH  23  24
HETATM   24  C   UNL     1      -9.931   6.499  67.302  1.00  0.00    -0.189 A  
HETATM   25  C   UNL     1     -10.596   5.344  66.871  1.00  0.00    -0.320 A  
HETATM   26  C   UNL     1      -9.080   5.125  64.986  1.00  0.00    -0.066 A  
HETATM   27  C   UNL     1      -8.472   6.325  65.350  1.00  0.00    -0.131 A  
HETATM   28  C   UNL     1      -8.894   7.007  66.503  1.00  0.00    -0.151 A  
HETATM   29  C   UNL     1     -10.164   4.662  65.733  1.00  0.00    -0.283 A  
BRANCH  26  30
HETATM   30  O   UNL     1      -8.692   4.283  63.984  1.00  0.00    -0.116 OA 
HETATM   31  C   UNL     1      -9.426   3.086  63.775  1.00  0.00    -0.112 C  
ENDBRANCH  26  30
ENDBRANCH  23  24
ENDBRANCH  22  23
BRANCH  22  32
HETATM   32  C   UNL     1      -8.751   6.268  70.228  1.00  0.00    -0.142 A  
HETATM   33  N   UNL     1      -8.259   7.386  70.793  1.00  0.00    -0.110 NA 
HETATM   34  N   UNL     1      -8.093   5.103  70.225  1.00  0.00    -0.085 NA 
HETATM   35  C   UNL     1      -6.879   5.073  70.806  1.00  0.00    -0.040 A  
HETATM   36  C   UNL     1      -7.008   7.324  71.310  1.00  0.00    -0.059 A  
HETATM   37  C   UNL     1      -6.271   6.172  71.357  1.00  0.00    -0.044 A  
ENDBRANCH  22  32
ENDBRANCH  21  22
ENDBRANCH  20  21
ENDBRANCH  17  20
ENDBRANCH  16  17
ENDBRANCH  15  16
ENDBRANCH  14  15
ENDBRANCH  13  14
ENDBRANCH  12  13
ENDBRANCH  11  12
ENDBRANCH  10  11
ENDBRANCH   9  10
ENDBRANCH   8   9
ENDBRANCH   7   8
ENDBRANCH   6   7
ENDBRANCH   5   6
ENDBRANCH   4   5
ENDBRANCH   3   4
ENDBRANCH   2   3
TORSDOF 22
ENDMDL
MODEL       92
REMARK 921   NORMALIZED FREE ENERGY PREDICTED BY IDOCK:   -3.99 KCAL/MOL
REMARK 922        TOTAL FREE ENERGY PREDICTED BY IDOCK:  -13.58 KCAL/MOL
REMARK 923 INTER-LIGAND FREE ENERGY PREDICTED BY IDOCK:  -11.00 KCAL/MOL
REMARK 924 INTRA-LIGAND FREE ENERGY PREDICTED BY IDOCK:   -2.58 KCAL/MOL
REMARK 927      BINDING AFFINITY PREDICTED BY RF-SCORE:    0.00 PKD
ROOT
HETATM    1  C   UNL     1      -9.721  11.401  63.050  1.00  0.00    -0.393 C  
HETATM    2  C   UNL     1     -10.766  11.496  64.148  1.00  0.00    -0.428 C  
ENDROOT
BRANCH   2   3
HETATM    3  C   UNL     1     -12.122  11.901  63.579  1.00  0.00    -0.575 C  
BRANCH   3   4
HETATM    4  C   UNL     1     -12.143  13.384  63.235  1.00  0.00    -0.329 C  
BRANCH   4   5
HETATM    5  C   UNL     1     -11.798  14.225  64.457  1.00  0.00    -0.456 C  
BRANCH   5   6
HETATM    6  C   UNL     1     -12.835  14.021  65.552  1.00  0.00    -0.453 C  
BRANCH   6   7
HETATM    7  C   UNL     1     -12.153  13.860  66.901  1.00  0.00    -0.467 C  
BRANCH   7   8
HETATM    8  C   UNL     1     -10.713  14.341  66.827  1.00  0.00    -0.287 C  
BRANCH   8   9
HETATM    9  C   UNL     1     -10.466  15.395  67.892  1.00  0.00    -0.256 C  
BRANCH   9  10
HETATM   10  C   UNL     1     -11.701  15.575  68.759  1.00  0.00    -0.372 C  
BRANCH  10  11
HETATM   11  C   UNL     1     -11.289  15.867  70.194  1.00  0.00    -0.369 C  
BRANCH  11  12
HETATM   12  C   UNL     1     -12.127  15.038  71.157  1.00  0.00    -0.375 C  
BRANCH  12  13
HETATM   13  C   UNL     1     -12.716  13.822  70.461  1.00  0.00    -0.293 C  
BRANCH  13  14
HETATM   14  C   UNL     1     -12.813  12.614  71.400  1.00  0.00    -0.358 C  
BRANCH  14  15
HETATM   15  C   UNL     1     -12.290  11.300  70.798  1.00  0.00    -0.495 C  
BRANCH  15  16
HETATM   16  C   UNL     1     -11.646  11.556  69.439  1.00  0.00    -0.321 C  
BRANCH  16  17
HETATM   17  N   UNL     1     -10.495  10.626  69.083  1.00  0.00    -0.210 N  
HETATM   18  C   UNL     1      -9.232  11.429  68.739  1.00  0.00    -0.100 C  
HETATM   19  C   UNL     1     -10.819   9.711  67.911  1.00  0.00    -0.215 C  
BRANCH  17  20
HETATM   20  C   UNL     1     -10.145   9.776  70.343  1.00  0.00    -0.252 C  
BRANCH  20  21
HETATM   21  C   UNL     1      -9.744   8.291  70.078  1.00  0.00    -0.176 C  
BRANCH  21  22
HETATM   22  N   UNL     1     -10.549   7.413  70.922  1.00  0.00    -0.222 NA 
BRANCH  22  23
HETATM   23  C   UNL     1     -11.359   6.347  70.318  1.00  0.00    -0.403 C  
BRANCH  23  24
HETATM   24  C   UNL     1     -10.700   5.717  69.107  1.00  0.00    -0.370 A  
HETATM   25  C   UNL     1     -11.007   6.176  67.820  1.00  0.00    -0.400 A  
HETATM   26  C   UNL     1      -9.696   4.390  66.825  1.00  0.00    -0.215 A  
HETATM   27  C   UNL     1      -9.306   3.982  68.098  1.00  0.00    -0.218 A  
HETATM   28  C   UNL     1      -9.808   4.640  69.234  1.00  0.00    -0.260 A  
HETATM   29  C   UNL     1     -10.519   5.510  66.695  1.00  0.00    -0.355 A  
BRANCH  26  30
HETATM   30  O   UNL     1      -9.410   3.769  65.644  1.00  0.00    -0.147 OA 
HETATM   31  C   UNL     1      -9.992   4.269  64.449  1.00  0.00    -0.083 C  
ENDBRANCH  26  30
ENDBRANCH  23  24
ENDBRANCH  22  23
BRANCH  22  32
HETATM   32  C   UNL     1      -9.983   7.082  72.143  1.00  0.00    -0.165 A  
HETATM   33  N   UNL     1     -10.777   7.016  73.227  1.00  0.00    -0.325 NA 
HETATM   34  N   UNL     1      -8.705   6.687  72.150  1.00  0.00    -0.130 NA 
HETATM   35  C   UNL     1      -8.206   6.220  73.310  1.00  0.00    -0.115 A  
HETATM   36  C   UNL     1     -10.215   6.599  74.387  1.00  0.00    -0.262 A  
HETATM   37  C   UNL     1      -8.919   6.167  74.481  1.00  0.00    -0.146 A  
ENDBRANCH  22  32
ENDBRANCH  21  22
ENDBRANCH  20  21
ENDBRANCH  17  20
ENDBRANCH  16  17
ENDBRANCH  15  16
ENDBRANCH  14  15
ENDBRANCH  13  14
ENDBRANCH  12  13
ENDBRANCH  11  12
ENDBRANCH  10  11
ENDBRANCH   9  10
ENDBRANCH   8   9
ENDBRANCH   7   8
ENDBRANCH   6   7
ENDBRANCH   5   6
ENDBRANCH   4   5
ENDBRANCH   3   4
ENDBRANCH   2   3
TORSDOF 22
ENDMDL
MODEL       93
REMARK 921   NORMALIZED FREE ENERGY PREDICTED BY IDOCK:   -3.93 KCAL/MOL
REMARK 922        TOTAL FREE ENERGY PREDICTED BY IDOCK:  -13.44 KCAL/MOL
REMARK 923 INTER-LIGAND FREE ENERGY PREDICTED BY IDOCK:   -9.85 KCAL/MOL
REMARK 924 INTRA-LIGAND FREE ENERGY PREDICTED BY IDOCK:   -3.59 KCAL/MOL
REMARK 927      BINDING AFFINITY PREDICTED BY RF-SCORE:    0.00 PKD
ROOT
HETATM    1  C   UNL     1      -8.710   3.694  66.234  1.00  0.00    -0.120 C  
HETATM    2  C   UNL     1      -8.165   5.033  66.701  1.00  0.00    -0.108 C  
ENDROOT
BRANCH   2   3
HETATM    3  C   UNL     1      -8.637   6.162  65.792  1.00  0.00    -0.153 C  
BRANCH   3   4
HETATM    4  C   UNL     1      -8.384   7.518  66.438  1.00  0.00    -0.126 C  
BRANCH   4   5
HETATM    5  C   UNL     1      -9.607   8.416  66.303  1.00  0.00    -0.286 C  
BRANCH   5   6
HETATM    6  C   UNL     1     -10.750   7.889  67.157  1.00  0.00    -0.306 C  
BRANCH   6   7
HETATM    7  C   UNL     1     -10.262   7.590  68.565  1.00  0.00    -0.216 C  
BRANCH   7   8
HETATM    8  C   UNL     1     -10.968   6.364  69.121  1.00  0.00    -0.416 C  
BRANCH   8   9
HETATM    9  C   UNL     1     -11.378   6.614  70.562  1.00  0.00    -0.413 C  
BRANCH   9  10
HETATM   10  C   UNL     1     -10.675   7.844  71.110  1.00  0.00    -0.251 C  
BRANCH  10  11
HETATM   11  C   UNL     1     -11.671   8.729  71.843  1.00  0.00    -0.429 C  
BRANCH  11  12
HETATM   12  C   UNL     1     -12.455   9.571  70.846  1.00  0.00    -0.277 C  
BRANCH  12  13
HETATM   13  C   UNL     1     -11.808  10.932  70.653  1.00  0.00    -0.453 C  
BRANCH  13  14
HETATM   14  C   UNL     1     -11.252  11.109  69.236  1.00  0.00    -0.331 C  
BRANCH  14  15
HETATM   15  C   UNL     1      -9.718  11.111  69.153  1.00  0.00    -0.050 C  
BRANCH  15  16
HETATM   16  C   UNL     1      -9.256  11.746  67.844  1.00  0.00    -0.181 C  
BRANCH  16  17
HETATM   17  N   UNL     1      -7.789  12.150  67.803  1.00  0.00    -0.137 N  
HETATM   18  C   UNL     1      -7.071  11.477  66.625  1.00  0.00    -0.069 C  
HETATM   19  C   UNL     1      -7.047  11.800  69.084  1.00  0.00    -0.071 C  
BRANCH  17  20
HETATM   20  C   UNL     1      -7.713  13.687  67.545  1.00  0.00    -0.173 C  
BRANCH  20  21
HETATM   21  C   UNL     1      -7.894  14.601  68.797  1.00  0.00    -0.146 C  
BRANCH  21  22
HETATM   22  N   UNL     1      -8.605  15.816  68.411  1.00  0.00    -0.166 NA 
BRANCH  22  23
HETATM   23  C   UNL     1     -10.064  15.897  68.560  1.00  0.00    -0.217 C  
BRANCH  23  24
HETATM   24  C   UNL     1     -10.813  15.223  67.427  1.00  0.00    -0.304 A  
HETATM   25  C   UNL     1     -11.850  14.325  67.706  1.00  0.00    -0.414 A  
HETATM   26  C   UNL     1     -12.043  13.754  65.352  1.00  0.00    -0.407 A  
HETATM   27  C   UNL     1     -11.079  14.715  65.053  1.00  0.00    -0.401 A  
HETATM   28  C   UNL     1     -10.466  15.443  66.085  1.00  0.00    -0.325 A  
HETATM   29  C   UNL     1     -12.447  13.592  66.678  1.00  0.00    -0.291 A  
BRANCH  26  30
HETATM   30  O   UNL     1     -12.621  12.877  64.482  1.00  0.00    -0.590 OA 
HETATM   31  C   UNL     1     -11.974  12.616  63.244  1.00  0.00    -0.441 C  
ENDBRANCH  26  30
ENDBRANCH  23  24
ENDBRANCH  22  23
BRANCH  22  32
HETATM   32  C   UNL     1      -7.935  17.002  68.668  1.00  0.00    -0.258 A  
HETATM   33  N   UNL     1      -6.812  16.963  69.406  1.00  0.00    -0.228 NA 
HETATM   34  N   UNL     1      -8.352  18.103  68.033  1.00  0.00    -0.255 NA 
HETATM   35  C   UNL     1      -7.606  19.216  68.165  1.00  0.00    -0.286 A  
HETATM   36  C   UNL     1      -6.127  18.122  69.563  1.00  0.00    -0.248 A  
HETATM   37  C   UNL     1      -6.477  19.290  68.941  1.00  0.00    -0.308 A  
ENDBRANCH  22  32
ENDBRANCH  21  22
ENDBRANCH  20  21
ENDBRANCH  17  20
ENDBRANCH  16  17
ENDBRANCH  15  16
ENDBRANCH  14  15
ENDBRANCH  13  14
ENDBRANCH  12  13
ENDBRANCH  11  12
ENDBRANCH  10  11
ENDBRANCH   9  10
ENDBRANCH   8   9
ENDBRANCH   7   8
ENDBRANCH   6   7
ENDBRANCH   5   6
ENDBRANCH   4   5
ENDBRANCH   3   4
ENDBRANCH   2   3
TORSDOF 22
ENDMDL
MODEL       94
REMARK 921   NORMALIZED FREE ENERGY PREDICTED BY IDOCK:   -3.93 KCAL/MOL
REMARK 922        TOTAL FREE ENERGY PREDICTED BY IDOCK:  -13.43 KCAL/MOL
REMARK 923 INTER-LIGAND FREE ENERGY PREDICTED BY IDOCK:  -10.50 KCAL/MOL
REMARK 924 INTRA-LIGAND FREE ENERGY PREDICTED BY IDOCK:   -2.93 KCAL/MOL
REMARK 927      BINDING AFFINITY PREDICTED BY RF-SCORE:    0.00 PKD
ROOT
HETATM    1  C   UNL     1     -13.668   9.124  72.363  1.00  0.00    -0.543 C  
HETATM    2  C   UNL     1     -12.325   8.546  71.952  1.00  0.00    -0.407 C  
ENDROOT
BRANCH   2   3
HETATM    3  C   UNL     1     -12.451   7.068  71.595  1.00  0.00    -0.413 C  
BRANCH   3   4
HETATM    4  C   UNL     1     -11.300   6.628  70.700  1.00  0.00    -0.401 C  
BRANCH   4   5
HETATM    5  C   UNL     1     -10.591   5.417  71.292  1.00  0.00    -0.276 C  
BRANCH   5   6
HETATM    6  C   UNL     1     -11.059   5.172  72.719  1.00  0.00    -0.330 C  
BRANCH   6   7
HETATM    7  C   UNL     1      -9.881   5.236  73.679  1.00  0.00    -0.171 C  
BRANCH   7   8
HETATM    8  C   UNL     1      -9.953   6.499  74.522  1.00  0.00    -0.358 C  
BRANCH   8   9
HETATM    9  C   UNL     1      -8.704   7.335  74.305  1.00  0.00    -0.250 C  
BRANCH   9  10
HETATM   10  C   UNL     1      -8.855   8.206  73.069  1.00  0.00    -0.316 C  
BRANCH  10  11
HETATM   11  C   UNL     1      -7.542   8.252  72.302  1.00  0.00    -0.160 C  
BRANCH  11  12
HETATM   12  C   UNL     1      -7.685   7.517  70.977  1.00  0.00    -0.089 C  
BRANCH  12  13
HETATM   13  C   UNL     1      -6.827   8.159  69.900  1.00  0.00    -0.044 C  
BRANCH  13  14
HETATM   14  C   UNL     1      -6.828   9.689  70.002  1.00  0.00    -0.085 C  
BRANCH  14  15
HETATM   15  C   UNL     1      -7.982  10.373  69.254  1.00  0.00    -0.157 C  
BRANCH  15  16
HETATM   16  C   UNL     1      -7.650  11.839  68.989  1.00  0.00     0.004 C  
BRANCH  16  17
HETATM   17  N   UNL     1      -7.631  12.244  67.522  1.00  0.00    -0.144 N  
HETATM   18  C   UNL     1      -8.992  11.975  66.864  1.00  0.00    -0.199 C  
HETATM   19  C   UNL     1      -6.558  11.515  66.726  1.00  0.00    -0.119 C  
BRANCH  17  20
HETATM   20  C   UNL     1      -7.400  13.785  67.443  1.00  0.00    -0.107 C  
BRANCH  20  21
HETATM   21  C   UNL     1      -7.844  14.608  68.692  1.00  0.00    -0.138 C  
BRANCH  21  22
HETATM   22  N   UNL     1      -8.777  15.652  68.279  1.00  0.00    -0.171 NA 
BRANCH  22  23
HETATM   23  C   UNL     1     -10.226  15.430  68.381  1.00  0.00    -0.221 C  
BRANCH  23  24
HETATM   24  C   UNL     1     -10.877  15.147  67.041  1.00  0.00    -0.314 A  
HETATM   25  C   UNL     1     -12.005  14.321  66.967  1.00  0.00    -0.463 A  
HETATM   26  C   UNL     1     -11.946  14.389  64.540  1.00  0.00    -0.472 A  
HETATM   27  C   UNL     1     -10.884  15.288  64.602  1.00  0.00    -0.280 A  
HETATM   28  C   UNL     1     -10.350  15.663  65.846  1.00  0.00    -0.368 A  
HETATM   29  C   UNL     1     -12.523  13.939  65.728  1.00  0.00    -0.530 A  
BRANCH  26  30
HETATM   30  O   UNL     1     -12.475  13.826  63.415  1.00  0.00    -0.817 OA 
HETATM   31  C   UNL     1     -12.351  12.423  63.229  1.00  0.00    -0.391 C  
ENDBRANCH  26  30
ENDBRANCH  23  24
ENDBRANCH  22  23
BRANCH  22  32
HETATM   32  C   UNL     1      -8.375  16.949  68.552  1.00  0.00    -0.257 A  
HETATM   33  N   UNL     1      -7.093  17.169  68.896  1.00  0.00    -0.232 NA 
HETATM   34  N   UNL     1      -9.243  17.936  68.304  1.00  0.00    -0.275 NA 
HETATM   35  C   UNL     1      -8.796  19.201  68.424  1.00  0.00    -0.347 A  
HETATM   36  C   UNL     1      -6.705  18.456  69.066  1.00  0.00    -0.267 A  
HETATM   37  C   UNL     1      -7.525  19.525  68.823  1.00  0.00    -0.387 A  
ENDBRANCH  22  32
ENDBRANCH  21  22
ENDBRANCH  20  21
ENDBRANCH  17  20
ENDBRANCH  16  17
ENDBRANCH  15  16
ENDBRANCH  14  15
ENDBRANCH  13  14
ENDBRANCH  12  13
ENDBRANCH  11  12
ENDBRANCH  10  11
ENDBRANCH   9  10
ENDBRANCH   8   9
ENDBRANCH   7   8
ENDBRANCH   6   7
ENDBRANCH   5   6
ENDBRANCH   4   5
ENDBRANCH   3   4
ENDBRANCH   2   3
TORSDOF 22
ENDMDL
MODEL       95
REMARK 921   NORMALIZED FREE ENERGY PREDICTED BY IDOCK:   -3.92 KCAL/MOL
REMARK 922        TOTAL FREE ENERGY PREDICTED BY IDOCK:  -13.41 KCAL/MOL
REMARK 923 INTER-LIGAND FREE ENERGY PREDICTED BY IDOCK:  -10.16 KCAL/MOL
REMARK 924 INTRA-LIGAND FREE ENERGY PREDICTED BY IDOCK:   -3.25 KCAL/MOL
REMARK 927      BINDING AFFINITY PREDICTED BY RF-SCORE:    0.00 PKD
ROOT
HETATM    1  C   UNL     1     -10.668   5.443  66.560  1.00  0.00    -0.309 C  
HETATM    2  C   UNL     1      -9.816   4.289  67.057  1.00  0.00    -0.216 C  
ENDROOT
BRANCH   2   3
HETATM    3  C   UNL     1      -8.518   4.795  67.679  1.00  0.00    -0.104 C  
BRANCH   3   4
HETATM    4  C   UNL     1      -8.325   4.216  69.074  1.00  0.00    -0.089 C  
BRANCH   4   5
HETATM    5  C   UNL     1      -9.482   3.295  69.439  1.00  0.00    -0.203 C  
BRANCH   5   6
HETATM    6  C   UNL     1      -9.117   2.431  70.638  1.00  0.00    -0.177 C  
BRANCH   6   7
HETATM    7  C   UNL     1      -8.102   3.148  71.514  1.00  0.00    -0.061 C  
BRANCH   7   8
HETATM    8  C   UNL     1      -8.372   2.859  72.982  1.00  0.00    -0.075 C  
BRANCH   8   9
HETATM    9  C   UNL     1      -9.726   2.187  73.134  1.00  0.00    -0.138 C  
BRANCH   9  10
HETATM   10  C   UNL     1     -10.625   3.004  74.045  1.00  0.00    -0.262 C  
BRANCH  10  11
HETATM   11  C   UNL     1     -11.262   4.143  73.262  1.00  0.00    -0.307 C  
BRANCH  11  12
HETATM   12  C   UNL     1     -10.780   5.481  73.803  1.00  0.00    -0.300 C  
BRANCH  12  13
HETATM   13  C   UNL     1     -10.769   6.539  72.713  1.00  0.00    -0.269 C  
BRANCH  13  14
HETATM   14  C   UNL     1     -10.884   5.924  71.313  1.00  0.00    -0.333 C  
BRANCH  14  15
HETATM   15  C   UNL     1     -11.551   6.835  70.272  1.00  0.00    -0.417 C  
BRANCH  15  16
HETATM   16  C   UNL     1     -10.496   7.611  69.489  1.00  0.00    -0.227 C  
BRANCH  16  17
HETATM   17  N   UNL     1     -10.319   9.064  69.904  1.00  0.00    -0.199 N  
HETATM   18  C   UNL     1      -8.991   9.261  70.648  1.00  0.00    -0.243 C  
HETATM   19  C   UNL     1     -11.449   9.562  70.793  1.00  0.00    -0.310 C  
BRANCH  17  20
HETATM   20  C   UNL     1     -10.233   9.935  68.612  1.00  0.00    -0.178 C  
BRANCH  20  21
HETATM   21  C   UNL     1     -11.502  10.775  68.267  1.00  0.00    -0.280 C  
BRANCH  21  22
HETATM   22  N   UNL     1     -11.105  11.975  67.536  1.00  0.00    -0.258 NA 
BRANCH  22  23
HETATM   23  C   UNL     1      -9.951  12.766  67.986  1.00  0.00    -0.225 C  
BRANCH  23  24
HETATM   24  C   UNL     1     -10.197  14.261  67.922  1.00  0.00    -0.237 A  
HETATM   25  C   UNL     1      -9.586  15.033  66.928  1.00  0.00    -0.251 A  
HETATM   26  C   UNL     1     -10.423  17.076  67.942  1.00  0.00    -0.354 A  
HETATM   27  C   UNL     1     -11.114  16.313  68.881  1.00  0.00    -0.345 A  
HETATM   28  C   UNL     1     -11.000  14.913  68.873  1.00  0.00    -0.257 A  
HETATM   29  C   UNL     1      -9.690  16.425  66.948  1.00  0.00    -0.260 A  
BRANCH  26  30
HETATM   30  O   UNL     1     -10.321  18.436  67.910  1.00  0.00    -0.369 OA 
HETATM   31  C   UNL     1     -10.530  19.108  66.676  1.00  0.00    -0.443 C  
ENDBRANCH  26  30
ENDBRANCH  23  24
ENDBRANCH  22  23
BRANCH  22  32
HETATM   32  C   UNL     1     -11.253  11.907  66.160  1.00  0.00    -0.333 A  
HETATM   33  N   UNL     1     -12.389  12.373  65.609  1.00  0.00    -0.621 NA 
HETATM   34  N   UNL     1     -10.193  11.530  65.437  1.00  0.00    -0.252 NA 
HETATM   35  C   UNL     1     -10.294  11.614  64.097  1.00  0.00    -0.337 A  
HETATM   36  C   UNL     1     -12.467  12.381  64.256  1.00  0.00    -0.437 A  
HETATM   37  C   UNL     1     -11.427  12.022  63.442  1.00  0.00    -0.489 A  
ENDBRANCH  22  32
ENDBRANCH  21  22
ENDBRANCH  20  21
ENDBRANCH  17  20
ENDBRANCH  16  17
ENDBRANCH  15  16
ENDBRANCH  14  15
ENDBRANCH  13  14
ENDBRANCH  12  13
ENDBRANCH  11  12
ENDBRANCH  10  11
ENDBRANCH   9  10
ENDBRANCH   8   9
ENDBRANCH   7   8
ENDBRANCH   6   7
ENDBRANCH   5   6
ENDBRANCH   4   5
ENDBRANCH   3   4
ENDBRANCH   2   3
TORSDOF 22
ENDMDL
MODEL       96
REMARK 921   NORMALIZED FREE ENERGY PREDICTED BY IDOCK:   -3.90 KCAL/MOL
REMARK 922        TOTAL FREE ENERGY PREDICTED BY IDOCK:  -13.37 KCAL/MOL
REMARK 923 INTER-LIGAND FREE ENERGY PREDICTED BY IDOCK:  -11.10 KCAL/MOL
REMARK 924 INTRA-LIGAND FREE ENERGY PREDICTED BY IDOCK:   -2.26 KCAL/MOL
REMARK 927      BINDING AFFINITY PREDICTED BY RF-SCORE:    0.00 PKD
ROOT
HETATM    1  C   UNL     1     -12.497  12.007  63.796  1.00  0.00    -0.594 C  
HETATM    2  C   UNL     1     -11.026  12.187  64.125  1.00  0.00    -0.416 C  
ENDROOT
BRANCH   2   3
HETATM    3  C   UNL     1     -10.144  11.578  63.040  1.00  0.00    -0.330 C  
BRANCH   3   4
HETATM    4  C   UNL     1      -9.271  10.469  63.612  1.00  0.00    -0.298 C  
BRANCH   4   5
HETATM    5  C   UNL     1      -9.717  10.106  65.022  1.00  0.00    -0.384 C  
BRANCH   5   6
HETATM    6  C   UNL     1      -9.105   8.780  65.450  1.00  0.00    -0.194 C  
BRANCH   6   7
HETATM    7  C   UNL     1      -9.257   8.588  66.950  1.00  0.00    -0.197 C  
BRANCH   7   8
HETATM    8  C   UNL     1      -9.484   9.926  67.634  1.00  0.00    -0.167 C  
BRANCH   8   9
HETATM    9  C   UNL     1      -8.835   9.919  69.008  1.00  0.00    -0.156 C  
BRANCH   9  10
HETATM   10  C   UNL     1      -9.294   8.711  69.807  1.00  0.00    -0.165 C  
BRANCH  10  11
HETATM   11  C   UNL     1     -10.813   8.695  69.898  1.00  0.00    -0.210 C  
BRANCH  11  12
HETATM   12  C   UNL     1     -11.286   9.729  70.909  1.00  0.00    -0.429 C  
BRANCH  12  13
HETATM   13  C   UNL     1     -12.678   9.397  71.419  1.00  0.00    -0.425 C  
BRANCH  13  14
HETATM   14  C   UNL     1     -13.385  10.626  72.002  1.00  0.00    -0.409 C  
BRANCH  14  15
HETATM   15  C   UNL     1     -12.784  11.971  71.564  1.00  0.00    -0.360 C  
BRANCH  15  16
HETATM   16  C   UNL     1     -13.543  13.128  72.205  1.00  0.00    -0.581 C  
BRANCH  16  17
HETATM   17  N   UNL     1     -12.962  14.510  71.941  1.00  0.00    -0.324 N  
HETATM   18  C   UNL     1     -12.484  15.160  73.247  1.00  0.00    -0.483 C  
HETATM   19  C   UNL     1     -13.955  15.447  71.270  1.00  0.00    -0.395 C  
BRANCH  17  20
HETATM   20  C   UNL     1     -11.695  14.344  71.045  1.00  0.00    -0.194 C  
BRANCH  20  21
HETATM   21  C   UNL     1     -11.125  15.654  70.416  1.00  0.00    -0.352 C  
BRANCH  21  22
HETATM   22  N   UNL     1     -10.953  15.466  68.978  1.00  0.00    -0.238 NA 
BRANCH  22  23
HETATM   23  C   UNL     1     -11.535  16.429  68.033  1.00  0.00    -0.059 C  
BRANCH  23  24
HETATM   24  C   UNL     1     -10.625  17.609  67.754  1.00  0.00    -0.380 A  
HETATM   25  C   UNL     1     -10.069  17.784  66.481  1.00  0.00    -0.358 A  
HETATM   26  C   UNL     1      -8.719  19.639  67.280  1.00  0.00    -0.312 A  
HETATM   27  C   UNL     1      -9.336  19.536  68.525  1.00  0.00    -0.435 A  
HETATM   28  C   UNL     1     -10.282  18.525  68.762  1.00  0.00    -0.326 A  
HETATM   29  C   UNL     1      -9.118  18.781  66.255  1.00  0.00    -0.250 A  
BRANCH  26  30
HETATM   30  O   UNL     1      -7.690  20.469  66.944  1.00  0.00    -0.309 OA 
HETATM   31  C   UNL     1      -6.619  19.951  66.169  1.00  0.00    -0.215 C  
ENDBRANCH  26  30
ENDBRANCH  23  24
ENDBRANCH  22  23
BRANCH  22  32
HETATM   32  C   UNL     1      -9.727  14.951  68.590  1.00  0.00    -0.226 A  
HETATM   33  N   UNL     1      -8.638  15.258  69.318  1.00  0.00    -0.234 NA 
HETATM   34  N   UNL     1      -9.715  14.046  67.605  1.00  0.00    -0.224 NA 
HETATM   35  C   UNL     1      -8.545  13.436  67.337  1.00  0.00    -0.204 A  
HETATM   36  C   UNL     1      -7.469  14.666  68.971  1.00  0.00    -0.136 A  
HETATM   37  C   UNL     1      -7.370  13.721  67.985  1.00  0.00    -0.134 A  
ENDBRANCH  22  32
ENDBRANCH  21  22
ENDBRANCH  20  21
ENDBRANCH  17  20
ENDBRANCH  16  17
ENDBRANCH  15  16
ENDBRANCH  14  15
ENDBRANCH  13  14
ENDBRANCH  12  13
ENDBRANCH  11  12
ENDBRANCH  10  11
ENDBRANCH   9  10
ENDBRANCH   8   9
ENDBRANCH   7   8
ENDBRANCH   6   7
ENDBRANCH   5   6
ENDBRANCH   4   5
ENDBRANCH   3   4
ENDBRANCH   2   3
TORSDOF 22
ENDMDL
MODEL       97
REMARK 921   NORMALIZED FREE ENERGY PREDICTED BY IDOCK:   -3.89 KCAL/MOL
REMARK 922        TOTAL FREE ENERGY PREDICTED BY IDOCK:  -13.34 KCAL/MOL
REMARK 923 INTER-LIGAND FREE ENERGY PREDICTED BY IDOCK:  -10.26 KCAL/MOL
REMARK 924 INTRA-LIGAND FREE ENERGY PREDICTED BY IDOCK:   -3.08 KCAL/MOL
REMARK 927      BINDING AFFINITY PREDICTED BY RF-SCORE:    0.00 PKD
ROOT
HETATM    1  C   UNL     1      -6.670  15.196  67.443  1.00  0.00    -0.134 C  
HETATM    2  C   UNL     1      -7.439  16.360  66.845  1.00  0.00    -0.269 C  
ENDROOT
BRANCH   2   3
HETATM    3  C   UNL     1      -6.621  17.645  66.905  1.00  0.00    -0.213 C  
BRANCH   3   4
HETATM    4  C   UNL     1      -6.375  18.063  68.349  1.00  0.00    -0.196 C  
BRANCH   4   5
HETATM    5  C   UNL     1      -7.350  19.157  68.766  1.00  0.00    -0.372 C  
BRANCH   5   6
HETATM    6  C   UNL     1      -7.473  20.206  67.670  1.00  0.00    -0.341 C  
BRANCH   6   7
HETATM    7  C   UNL     1      -8.935  20.540  67.421  1.00  0.00    -0.420 C  
BRANCH   7   8
HETATM    8  C   UNL     1      -9.834  19.586  68.191  1.00  0.00    -0.506 C  
BRANCH   8   9
HETATM    9  C   UNL     1     -10.746  18.847  67.227  1.00  0.00    -0.523 C  
BRANCH   9  10
HETATM   10  C   UNL     1     -10.707  17.353  67.497  1.00  0.00    -0.278 C  
BRANCH  10  11
HETATM   11  C   UNL     1     -10.328  17.096  68.947  1.00  0.00    -0.348 C  
BRANCH  11  12
HETATM   12  C   UNL     1     -11.137  15.933  69.501  1.00  0.00    -0.315 C  
BRANCH  12  13
HETATM   13  C   UNL     1     -10.645  14.609  68.941  1.00  0.00    -0.253 C  
BRANCH  13  14
HETATM   14  C   UNL     1     -11.803  13.696  68.523  1.00  0.00    -0.406 C  
BRANCH  14  15
HETATM   15  C   UNL     1     -12.084  13.680  67.013  1.00  0.00    -0.423 C  
BRANCH  15  16
HETATM   16  C   UNL     1     -11.642  12.353  66.402  1.00  0.00    -0.384 C  
BRANCH  16  17
HETATM   17  N   UNL     1     -11.103  12.442  64.981  1.00  0.00    -0.295 N  
HETATM   18  C   UNL     1     -10.369  13.772  64.758  1.00  0.00    -0.398 C  
HETATM   19  C   UNL     1     -12.195  12.311  63.930  1.00  0.00    -0.515 C  
BRANCH  17  20
HETATM   20  C   UNL     1     -10.040  11.316  64.790  1.00  0.00    -0.285 C  
BRANCH  20  21
HETATM   21  C   UNL     1      -9.051  11.099  65.978  1.00  0.00    -0.203 C  
BRANCH  21  22
HETATM   22  N   UNL     1      -9.026   9.684  66.336  1.00  0.00    -0.149 NA 
BRANCH  22  23
HETATM   23  C   UNL     1     -10.274   8.911  66.382  1.00  0.00    -0.203 C  
BRANCH  23  24
HETATM   24  C   UNL     1     -10.492   8.217  67.712  1.00  0.00    -0.280 A  
HETATM   25  C   UNL     1     -10.752   6.842  67.755  1.00  0.00    -0.321 A  
HETATM   26  C   UNL     1     -11.166   6.953  70.146  1.00  0.00    -0.313 A  
HETATM   27  C   UNL     1     -10.817   8.301  70.132  1.00  0.00    -0.237 A  
HETATM   28  C   UNL     1     -10.484   8.931  68.922  1.00  0.00    -0.225 A  
HETATM   29  C   UNL     1     -11.096   6.224  68.958  1.00  0.00    -0.446 A  
BRANCH  26  30
HETATM   30  O   UNL     1     -11.645   6.243  71.209  1.00  0.00    -0.308 OA 
HETATM   31  C   UNL     1     -12.783   6.735  71.902  1.00  0.00    -0.255 C  
ENDBRANCH  26  30
ENDBRANCH  23  24
ENDBRANCH  22  23
BRANCH  22  32
HETATM   32  C   UNL     1      -7.929   8.975  65.873  1.00  0.00    -0.103 A  
HETATM   33  N   UNL     1      -7.927   8.548  64.597  1.00  0.00    -0.135 NA 
HETATM   34  N   UNL     1      -6.859   8.890  66.672  1.00  0.00    -0.075 NA 
HETATM   35  C   UNL     1      -5.744   8.336  66.160  1.00  0.00    -0.040 A  
HETATM   36  C   UNL     1      -6.803   7.940  64.145  1.00  0.00    -0.061 A  
HETATM   37  C   UNL     1      -5.662   7.822  64.891  1.00  0.00    -0.037 A  
ENDBRANCH  22  32
ENDBRANCH  21  22
ENDBRANCH  20  21
ENDBRANCH  17  20
ENDBRANCH  16  17
ENDBRANCH  15  16
ENDBRANCH  14  15
ENDBRANCH  13  14
ENDBRANCH  12  13
ENDBRANCH  11  12
ENDBRANCH  10  11
ENDBRANCH   9  10
ENDBRANCH   8   9
ENDBRANCH   7   8
ENDBRANCH   6   7
ENDBRANCH   5   6
ENDBRANCH   4   5
ENDBRANCH   3   4
ENDBRANCH   2   3
TORSDOF 22
ENDMDL
MODEL       98
REMARK 921   NORMALIZED FREE ENERGY PREDICTED BY IDOCK:   -3.89 KCAL/MOL
REMARK 922        TOTAL FREE ENERGY PREDICTED BY IDOCK:  -13.33 KCAL/MOL
REMARK 923 INTER-LIGAND FREE ENERGY PREDICTED BY IDOCK:  -10.41 KCAL/MOL
REMARK 924 INTRA-LIGAND FREE ENERGY PREDICTED BY IDOCK:   -2.93 KCAL/MOL
REMARK 927      BINDING AFFINITY PREDICTED BY RF-SCORE:    0.00 PKD
ROOT
HETATM    1  C   UNL     1     -10.594  19.665  65.589  1.00  0.00    -0.462 C  
HETATM    2  C   UNL     1     -10.514  19.658  67.106  1.00  0.00    -0.595 C  
ENDROOT
BRANCH   2   3
HETATM    3  C   UNL     1      -9.063  19.677  67.577  1.00  0.00    -0.396 C  
BRANCH   3   4
HETATM    4  C   UNL     1      -8.822  18.598  68.625  1.00  0.00    -0.333 C  
BRANCH   4   5
HETATM    5  C   UNL     1      -9.884  17.511  68.533  1.00  0.00    -0.330 C  
BRANCH   5   6
HETATM    6  C   UNL     1      -9.354  16.314  67.758  1.00  0.00    -0.216 C  
BRANCH   6   7
HETATM    7  C   UNL     1      -9.914  15.023  68.333  1.00  0.00    -0.225 C  
BRANCH   7   8
HETATM    8  C   UNL     1     -11.331  14.791  67.832  1.00  0.00    -0.331 C  
BRANCH   8   9
HETATM    9  C   UNL     1     -12.133  14.045  68.884  1.00  0.00    -0.351 C  
BRANCH   9  10
HETATM   10  C   UNL     1     -11.836  14.594  70.269  1.00  0.00    -0.363 C  
BRANCH  10  11
HETATM   11  C   UNL     1     -12.467  13.703  71.328  1.00  0.00    -0.412 C  
BRANCH  11  12
HETATM   12  C   UNL     1     -12.351  12.242  70.917  1.00  0.00    -0.363 C  
BRANCH  12  13
HETATM   13  C   UNL     1     -13.094  11.340  71.888  1.00  0.00    -0.510 C  
BRANCH  13  14
HETATM   14  C   UNL     1     -13.359   9.952  71.296  1.00  0.00    -0.419 C  
BRANCH  14  15
HETATM   15  C   UNL     1     -12.929   8.785  72.198  1.00  0.00    -0.457 C  
BRANCH  15  16
HETATM   16  C   UNL     1     -11.408   8.677  72.242  1.00  0.00    -0.340 C  
BRANCH  16  17
HETATM   17  N   UNL     1     -10.862   7.262  72.370  1.00  0.00    -0.240 N  
HETATM   18  C   UNL     1     -11.903   6.232  71.909  1.00  0.00    -0.305 C  
HETATM   19  C   UNL     1     -10.443   6.921  73.793  1.00  0.00    -0.357 C  
BRANCH  17  20
HETATM   20  C   UNL     1      -9.644   7.118  71.406  1.00  0.00    -0.161 C  
BRANCH  20  21
HETATM   21  C   UNL     1      -9.020   8.451  70.888  1.00  0.00    -0.160 C  
BRANCH  21  22
HETATM   22  N   UNL     1      -8.368   8.214  69.603  1.00  0.00    -0.123 NA 
BRANCH  22  23
HETATM   23  C   UNL     1      -9.150   7.734  68.456  1.00  0.00    -0.132 C  
BRANCH  23  24
HETATM   24  C   UNL     1      -9.810   8.857  67.678  1.00  0.00    -0.229 A  
HETATM   25  C   UNL     1      -9.441   9.105  66.350  1.00  0.00    -0.288 A  
HETATM   26  C   UNL     1     -10.824  11.101  66.296  1.00  0.00    -0.205 A  
HETATM   27  C   UNL     1     -11.272  10.812  67.583  1.00  0.00    -0.370 A  
HETATM   28  C   UNL     1     -10.766   9.697  68.272  1.00  0.00    -0.262 A  
HETATM   29  C   UNL     1      -9.936  10.222  65.675  1.00  0.00    -0.347 A  
BRANCH  26  30
HETATM   30  O   UNL     1     -11.113  12.214  65.562  1.00  0.00    -0.297 OA 
HETATM   31  C   UNL     1     -10.464  12.395  64.311  1.00  0.00    -0.363 C  
ENDBRANCH  26  30
ENDBRANCH  23  24
ENDBRANCH  22  23
BRANCH  22  32
HETATM   32  C   UNL     1      -7.359   9.106  69.277  1.00  0.00    -0.070 A  
HETATM   33  N   UNL     1      -6.429   8.730  68.380  1.00  0.00    -0.055 NA 
HETATM   34  N   UNL     1      -7.453  10.354  69.751  1.00  0.00    -0.160 NA 
HETATM   35  C   UNL     1      -6.556  11.255  69.307  1.00  0.00    -0.100 A  
HETATM   36  C   UNL     1      -5.510   9.655  68.010  1.00  0.00    -0.040 A  
HETATM   37  C   UNL     1      -5.539  10.954  68.438  1.00  0.00    -0.043 A  
ENDBRANCH  22  32
ENDBRANCH  21  22
ENDBRANCH  20  21
ENDBRANCH  17  20
ENDBRANCH  16  17
ENDBRANCH  15  16
ENDBRANCH  14  15
ENDBRANCH  13  14
ENDBRANCH  12  13
ENDBRANCH  11  12
ENDBRANCH  10  11
ENDBRANCH   9  10
ENDBRANCH   8   9
ENDBRANCH   7   8
ENDBRANCH   6   7
ENDBRANCH   5   6
ENDBRANCH   4   5
ENDBRANCH   3   4
ENDBRANCH   2   3
TORSDOF 22
ENDMDL
MODEL       99
REMARK 921   NORMALIZED FREE ENERGY PREDICTED BY IDOCK:   -3.88 KCAL/MOL
REMARK 922        TOTAL FREE ENERGY PREDICTED BY IDOCK:  -13.33 KCAL/MOL
REMARK 923 INTER-LIGAND FREE ENERGY PREDICTED BY IDOCK:   -9.91 KCAL/MOL
REMARK 924 INTRA-LIGAND FREE ENERGY PREDICTED BY IDOCK:   -3.42 KCAL/MOL
REMARK 927      BINDING AFFINITY PREDICTED BY RF-SCORE:    0.00 PKD
ROOT
HETATM    1  C   UNL     1     -12.698  13.863  65.714  1.00  0.00    -0.503 C  
HETATM    2  C   UNL     1     -12.013  13.715  67.061  1.00  0.00    -0.448 C  
ENDROOT
BRANCH   2   3
HETATM    3  C   UNL     1     -10.667  14.433  67.071  1.00  0.00    -0.285 C  
BRANCH   3   4
HETATM    4  C   UNL     1     -10.459  15.174  68.386  1.00  0.00    -0.233 C  
BRANCH   4   5
HETATM    5  C   UNL     1     -11.785  15.698  68.923  1.00  0.00    -0.396 C  
BRANCH   5   6
HETATM    6  C   UNL     1     -11.723  15.850  70.436  1.00  0.00    -0.371 C  
BRANCH   6   7
HETATM    7  C   UNL     1     -12.833  15.046  71.093  1.00  0.00    -0.441 C  
BRANCH   7   8
HETATM    8  C   UNL     1     -12.576  13.557  70.929  1.00  0.00    -0.414 C  
BRANCH   8   9
HETATM    9  C   UNL     1     -13.295  12.786  72.023  1.00  0.00    -0.565 C  
BRANCH   9  10
HETATM   10  C   UNL     1     -13.091  11.291  71.843  1.00  0.00    -0.510 C  
BRANCH  10  11
HETATM   11  C   UNL     1     -12.588  11.001  70.437  1.00  0.00    -0.349 C  
BRANCH  11  12
HETATM   12  C   UNL     1     -11.857   9.666  70.410  1.00  0.00    -0.219 C  
BRANCH  12  13
HETATM   13  C   UNL     1     -11.222   9.363  71.757  1.00  0.00    -0.359 C  
BRANCH  13  14
HETATM   14  C   UNL     1     -10.274   8.160  71.688  1.00  0.00    -0.266 C  
BRANCH  14  15
HETATM   15  C   UNL     1      -8.798   8.527  71.475  1.00  0.00    -0.260 C  
BRANCH  15  16
HETATM   16  C   UNL     1      -8.661   9.558  70.358  1.00  0.00    -0.206 C  
BRANCH  16  17
HETATM   17  N   UNL     1      -7.336   9.529  69.609  1.00  0.00    -0.074 N  
HETATM   18  C   UNL     1      -6.733   8.117  69.622  1.00  0.00    -0.038 C  
HETATM   19  C   UNL     1      -6.314  10.497  70.185  1.00  0.00    -0.132 C  
BRANCH  17  20
HETATM   20  C   UNL     1      -7.614   9.873  68.112  1.00  0.00    -0.081 C  
BRANCH  20  21
HETATM   21  C   UNL     1      -9.088  10.243  67.757  1.00  0.00    -0.134 C  
BRANCH  21  22
HETATM   22  N   UNL     1      -9.546   9.405  66.653  1.00  0.00    -0.177 NA 
BRANCH  22  23
HETATM   23  C   UNL     1     -10.640   8.446  66.858  1.00  0.00    -0.215 C  
BRANCH  23  24
HETATM   24  C   UNL     1     -10.181   7.155  67.507  1.00  0.00    -0.272 A  
HETATM   25  C   UNL     1     -10.941   6.571  68.527  1.00  0.00    -0.360 A  
HETATM   26  C   UNL     1      -9.218   4.903  68.914  1.00  0.00    -0.119 A  
HETATM   27  C   UNL     1      -8.496   5.416  67.839  1.00  0.00    -0.098 A  
HETATM   28  C   UNL     1      -8.974   6.537  67.140  1.00  0.00    -0.113 A  
HETATM   29  C   UNL     1     -10.456   5.465  69.228  1.00  0.00    -0.309 A  
BRANCH  26  30
HETATM   30  O   UNL     1      -8.819   3.918  69.770  1.00  0.00    -0.075 OA 
HETATM   31  C   UNL     1      -9.556   3.713  70.967  1.00  0.00    -0.176 C  
ENDBRANCH  26  30
ENDBRANCH  23  24
ENDBRANCH  22  23
BRANCH  22  32
HETATM   32  C   UNL     1      -9.540  10.010  65.407  1.00  0.00    -0.279 A  
HETATM   33  N   UNL     1      -8.944   9.374  64.382  1.00  0.00    -0.203 NA 
HETATM   34  N   UNL     1     -10.267  11.123  65.251  1.00  0.00    -0.266 NA 
HETATM   35  C   UNL     1     -10.382  11.619  64.005  1.00  0.00    -0.357 A  
HETATM   36  C   UNL     1      -9.035   9.945  63.156  1.00  0.00    -0.258 A  
HETATM   37  C   UNL     1      -9.767  11.075  62.907  1.00  0.00    -0.353 A  
ENDBRANCH  22  32
ENDBRANCH  21  22
ENDBRANCH  20  21
ENDBRANCH  17  20
ENDBRANCH  16  17
ENDBRANCH  15  16
ENDBRANCH  14  15
ENDBRANCH  13  14
ENDBRANCH  12  13
ENDBRANCH  11  12
ENDBRANCH  10  11
ENDBRANCH   9  10
ENDBRANCH   8   9
ENDBRANCH   7   8
ENDBRANCH   6   7
ENDBRANCH   5   6
ENDBRANCH   4   5
ENDBRANCH   3   4
ENDBRANCH   2   3
TORSDOF 22
ENDMDL
MODEL      100
REMARK 921   NORMALIZED FREE ENERGY PREDICTED BY IDOCK:   -3.85 KCAL/MOL
REMARK 922        TOTAL FREE ENERGY PREDICTED BY IDOCK:  -13.25 KCAL/MOL
REMARK 923 INTER-LIGAND FREE ENERGY PREDICTED BY IDOCK:  -10.26 KCAL/MOL
REMARK 924 INTRA-LIGAND FREE ENERGY PREDICTED BY IDOCK:   -2.99 KCAL/MOL
REMARK 927      BINDING AFFINITY PREDICTED BY RF-SCORE:    0.00 PKD
ROOT
HETATM    1  C   UNL     1      -6.173  15.189  67.721  1.00  0.00    -0.172 C  
HETATM    2  C   UNL     1      -5.696  15.592  69.105  1.00  0.00    -0.105 C  
ENDROOT
BRANCH   2   3
HETATM    3  C   UNL     1      -6.504  16.770  69.640  1.00  0.00    -0.189 C  
BRANCH   3   4
HETATM    4  C   UNL     1      -6.773  17.786  68.538  1.00  0.00    -0.218 C  
BRANCH   4   5
HETATM    5  C   UNL     1      -6.711  19.205  69.087  1.00  0.00    -0.346 C  
BRANCH   5   6
HETATM    6  C   UNL     1      -6.019  20.129  68.096  1.00  0.00    -0.279 C  
BRANCH   6   7
HETATM    7  C   UNL     1      -7.048  20.927  67.312  1.00  0.00    -0.430 C  
BRANCH   7   8
HETATM    8  C   UNL     1      -7.476  20.161  66.070  1.00  0.00    -0.300 C  
BRANCH   8   9
HETATM    9  C   UNL     1      -8.946  19.791  66.174  1.00  0.00    -0.387 C  
BRANCH   9  10
HETATM   10  C   UNL     1      -9.629  20.619  67.250  1.00  0.00    -0.558 C  
BRANCH  10  11
HETATM   11  C   UNL     1     -10.390  19.709  68.201  1.00  0.00    -0.561 C  
BRANCH  11  12
HETATM   12  C   UNL     1     -10.756  18.409  67.499  1.00  0.00    -0.399 C  
BRANCH  12  13
HETATM   13  C   UNL     1     -10.528  17.213  68.409  1.00  0.00    -0.376 C  
BRANCH  13  14
HETATM   14  C   UNL     1      -9.711  16.114  67.720  1.00  0.00    -0.229 C  
BRANCH  14  15
HETATM   15  C   UNL     1     -10.179  15.774  66.297  1.00  0.00    -0.317 C  
BRANCH  15  16
HETATM   16  C   UNL     1      -9.868  14.317  65.968  1.00  0.00    -0.314 C  
BRANCH  16  17
HETATM   17  N   UNL     1     -10.968  13.325  66.322  1.00  0.00    -0.283 N  
HETATM   18  C   UNL     1     -10.955  12.130  65.357  1.00  0.00    -0.302 C  
HETATM   19  C   UNL     1     -12.354  13.951  66.296  1.00  0.00    -0.449 C  
BRANCH  17  20
HETATM   20  C   UNL     1     -10.668  12.748  67.740  1.00  0.00    -0.220 C  
BRANCH  20  21
HETATM   21  C   UNL     1     -11.783  11.852  68.364  1.00  0.00    -0.326 C  
BRANCH  21  22
HETATM   22  N   UNL     1     -11.172  10.685  68.993  1.00  0.00    -0.247 NA 
BRANCH  22  23
HETATM   23  C   UNL     1      -9.714  10.513  68.971  1.00  0.00    -0.210 C  
BRANCH  23  24
HETATM   24  C   UNL     1      -9.238   9.641  67.825  1.00  0.00    -0.135 A  
HETATM   25  C   UNL     1     -10.081   8.658  67.291  1.00  0.00    -0.310 A  
HETATM   26  C   UNL     1      -8.288   7.830  65.877  1.00  0.00    -0.134 A  
HETATM   27  C   UNL     1      -7.470   8.862  66.329  1.00  0.00    -0.091 A  
HETATM   28  C   UNL     1      -7.941   9.762  67.300  1.00  0.00    -0.106 A  
HETATM   29  C   UNL     1      -9.604   7.758  66.338  1.00  0.00    -0.235 A  
BRANCH  26  30
HETATM   30  O   UNL     1      -7.929   6.804  65.051  1.00  0.00    -0.115 OA 
HETATM   31  C   UNL     1      -7.923   5.481  65.568  1.00  0.00    -0.111 C  
ENDBRANCH  26  30
ENDBRANCH  23  24
ENDBRANCH  22  23
BRANCH  22  32
HETATM   32  C   UNL     1     -11.783  10.252  70.160  1.00  0.00    -0.284 A  
HETATM   33  N   UNL     1     -12.988  10.756  70.484  1.00  0.00    -0.256 NA 
HETATM   34  N   UNL     1     -11.216   9.237  70.821  1.00  0.00    -0.268 NA 
HETATM   35  C   UNL     1     -11.892   8.720  71.864  1.00  0.00    -0.367 A  
HETATM   36  C   UNL     1     -13.603  10.247  71.578  1.00  0.00    -0.129 A  
HETATM   37  C   UNL     1     -13.099   9.202  72.304  1.00  0.00    -0.509 A  
ENDBRANCH  22  32
ENDBRANCH  21  22
ENDBRANCH  20  21
ENDBRANCH  17  20
ENDBRANCH  16  17
ENDBRANCH  15  16
ENDBRANCH  14  15
ENDBRANCH  13  14
ENDBRANCH  12  13
ENDBRANCH  11  12
ENDBRANCH  10  11
ENDBRANCH   9  10
ENDBRANCH   8   9
ENDBRANCH   7   8
ENDBRANCH   6   7
ENDBRANCH   5   6
ENDBRANCH   4   5
ENDBRANCH   3   4
ENDBRANCH   2   3
TORSDOF 22
ENDMDL
MODEL      101
REMARK 921   NORMALIZED FREE ENERGY PREDICTED BY IDOCK:   -3.84 KCAL/MOL
REMARK 922        TOTAL FREE ENERGY PREDICTED BY IDOCK:  -13.22 KCAL/MOL
REMARK 923 INTER-LIGAND FREE ENERGY PREDICTED BY IDOCK:  -11.01 KCAL/MOL
REMARK 924 INTRA-LIGAND FREE ENERGY PREDICTED BY IDOCK:   -2.21 KCAL/MOL
REMARK 927      BINDING AFFINITY PREDICTED BY RF-SCORE:    0.00 PKD
ROOT
HETATM    1  C   UNL     1     -11.378   5.953  72.552  1.00  0.00    -0.352 C  
HETATM    2  C   UNL     1     -10.089   6.294  71.825  1.00  0.00    -0.211 C  
ENDROOT
BRANCH   2   3
HETATM    3  C   UNL     1      -9.974   5.513  70.520  1.00  0.00    -0.276 C  
BRANCH   3   4
HETATM    4  C   UNL     1      -8.542   5.536  70.001  1.00  0.00    -0.120 C  
BRANCH   4   5
HETATM    5  C   UNL     1      -8.509   5.941  68.533  1.00  0.00    -0.111 C  
BRANCH   5   6
HETATM    6  C   UNL     1      -9.082   7.339  68.353  1.00  0.00    -0.135 C  
BRANCH   6   7
HETATM    7  C   UNL     1      -9.846   7.432  67.042  1.00  0.00    -0.273 C  
BRANCH   7   8
HETATM    8  C   UNL     1      -8.925   7.896  65.925  1.00  0.00    -0.166 C  
BRANCH   8   9
HETATM    9  C   UNL     1      -8.166   9.137  66.365  1.00  0.00    -0.114 C  
BRANCH   9  10
HETATM   10  C   UNL     1      -8.189  10.190  65.271  1.00  0.00    -0.157 C  
BRANCH  10  11
HETATM   11  C   UNL     1      -8.443   9.534  63.922  1.00  0.00    -0.195 C  
BRANCH  11  12
HETATM   12  C   UNL     1      -9.335  10.424  63.068  1.00  0.00    -0.344 C  
BRANCH  12  13
HETATM   13  C   UNL     1     -10.515  10.945  63.870  1.00  0.00    -0.359 C  
BRANCH  13  14
HETATM   14  C   UNL     1     -10.772  12.435  63.614  1.00  0.00    -0.497 C  
BRANCH  14  15
HETATM   15  C   UNL     1     -10.894  13.285  64.887  1.00  0.00    -0.358 C  
BRANCH  15  16
HETATM   16  C   UNL     1     -11.824  12.610  65.891  1.00  0.00    -0.444 C  
BRANCH  16  17
HETATM   17  N   UNL     1     -11.195  12.282  67.238  1.00  0.00    -0.281 N  
HETATM   18  C   UNL     1      -9.768  12.843  67.324  1.00  0.00    -0.220 C  
HETATM   19  C   UNL     1     -11.144  10.787  67.513  1.00  0.00    -0.308 C  
BRANCH  17  20
HETATM   20  C   UNL     1     -12.017  13.002  68.350  1.00  0.00    -0.271 C  
BRANCH  20  21
HETATM   21  C   UNL     1     -11.748  14.530  68.521  1.00  0.00    -0.318 C  
BRANCH  21  22
HETATM   22  N   UNL     1     -11.112  14.770  69.813  1.00  0.00    -0.266 NA 
BRANCH  22  23
HETATM   23  C   UNL     1      -9.787  15.401  69.878  1.00  0.00    -0.179 C  
BRANCH  23  24
HETATM   24  C   UNL     1      -9.593  16.479  68.829  1.00  0.00    -0.248 A  
HETATM   25  C   UNL     1     -10.362  17.648  68.870  1.00  0.00    -0.323 A  
HETATM   26  C   UNL     1      -9.443  18.377  66.743  1.00  0.00    -0.297 A  
HETATM   27  C   UNL     1      -8.603  17.265  66.738  1.00  0.00    -0.275 A  
HETATM   28  C   UNL     1      -8.679  16.320  67.774  1.00  0.00    -0.182 A  
HETATM   29  C   UNL     1     -10.293  18.577  67.831  1.00  0.00    -0.424 A  
BRANCH  26  30
HETATM   30  O   UNL     1      -9.584  19.298  65.746  1.00  0.00    -0.402 OA 
HETATM   31  C   UNL     1     -10.829  19.967  65.605  1.00  0.00    -0.194 C  
ENDBRANCH  26  30
ENDBRANCH  23  24
ENDBRANCH  22  23
BRANCH  22  32
HETATM   32  C   UNL     1     -11.971  15.131  70.838  1.00  0.00    -0.328 A  
HETATM   33  N   UNL     1     -13.294  14.967  70.661  1.00  0.00    -0.295 NA 
HETATM   34  N   UNL     1     -11.429  15.473  72.013  1.00  0.00    -0.437 NA 
HETATM   35  C   UNL     1     -12.267  15.673  73.048  1.00  0.00    -0.466 A  
HETATM   36  C   UNL     1     -14.103  15.240  71.714  1.00  0.00    -0.555 A  
HETATM   37  C   UNL     1     -13.632  15.585  72.952  1.00  0.00    -0.633 A  
ENDBRANCH  22  32
ENDBRANCH  21  22
ENDBRANCH  20  21
ENDBRANCH  17  20
ENDBRANCH  16  17
ENDBRANCH  15  16
ENDBRANCH  14  15
ENDBRANCH  13  14
ENDBRANCH  12  13
ENDBRANCH  11  12
ENDBRANCH  10  11
ENDBRANCH   9  10
ENDBRANCH   8   9
ENDBRANCH   7   8
ENDBRANCH   6   7
ENDBRANCH   5   6
ENDBRANCH   4   5
ENDBRANCH   3   4
ENDBRANCH   2   3
TORSDOF 22
ENDMDL
MODEL      102
REMARK 921   NORMALIZED FREE ENERGY PREDICTED BY IDOCK:   -3.84 KCAL/MOL
REMARK 922        TOTAL FREE ENERGY PREDICTED BY IDOCK:  -13.22 KCAL/MOL
REMARK 923 INTER-LIGAND FREE ENERGY PREDICTED BY IDOCK:   -9.27 KCAL/MOL
REMARK 924 INTRA-LIGAND FREE ENERGY PREDICTED BY IDOCK:   -3.96 KCAL/MOL
REMARK 927      BINDING AFFINITY PREDICTED BY RF-SCORE:    0.00 PKD
ROOT
HETATM    1  C   UNL     1      -6.935   5.220  74.150  1.00  0.00    -0.078 C  
HETATM    2  C   UNL     1      -6.444   6.609  74.519  1.00  0.00    -0.080 C  
ENDROOT
BRANCH   2   3
HETATM    3  C   UNL     1      -6.624   7.580  73.358  1.00  0.00    -0.067 C  
BRANCH   3   4
HETATM    4  C   UNL     1      -7.759   7.129  72.447  1.00  0.00    -0.094 C  
BRANCH   4   5
HETATM    5  C   UNL     1      -8.858   8.184  72.395  1.00  0.00    -0.260 C  
BRANCH   5   6
HETATM    6  C   UNL     1      -9.998   7.811  73.331  1.00  0.00    -0.348 C  
BRANCH   6   7
HETATM    7  C   UNL     1     -10.339   6.336  73.186  1.00  0.00    -0.240 C  
BRANCH   7   8
HETATM    8  C   UNL     1     -11.348   6.134  72.067  1.00  0.00    -0.348 C  
BRANCH   8   9
HETATM    9  C   UNL     1     -10.743   5.265  70.978  1.00  0.00    -0.194 C  
BRANCH   9  10
HETATM   10  C   UNL     1      -9.816   4.224  71.582  1.00  0.00    -0.257 C  
BRANCH  10  11
HETATM   11  C   UNL     1      -8.710   3.879  70.596  1.00  0.00    -0.119 C  
BRANCH  11  12
HETATM   12  C   UNL     1      -8.818   4.762  69.361  1.00  0.00    -0.116 C  
BRANCH  12  13
HETATM   13  C   UNL     1      -7.529   5.531  69.125  1.00  0.00    -0.078 C  
BRANCH  13  14
HETATM   14  C   UNL     1      -7.792   6.953  68.618  1.00  0.00    -0.118 C  
BRANCH  14  15
HETATM   15  C   UNL     1      -7.343   7.203  67.170  1.00  0.00    -0.090 C  
BRANCH  15  16
HETATM   16  C   UNL     1      -6.765   8.608  67.027  1.00  0.00    -0.062 C  
BRANCH  16  17
HETATM   17  N   UNL     1      -7.468   9.497  66.010  1.00  0.00    -0.099 N  
HETATM   18  C   UNL     1      -8.274   8.653  65.013  1.00  0.00    -0.157 C  
HETATM   19  C   UNL     1      -6.500  10.373  65.228  1.00  0.00    -0.105 C  
BRANCH  17  20
HETATM   20  C   UNL     1      -8.500  10.387  66.769  1.00  0.00    -0.125 C  
BRANCH  20  21
HETATM   21  C   UNL     1     -10.004  10.056  66.517  1.00  0.00    -0.225 C  
BRANCH  21  22
HETATM   22  N   UNL     1     -10.829  11.168  66.980  1.00  0.00    -0.272 NA 
BRANCH  22  23
HETATM   23  C   UNL     1     -10.454  11.913  68.189  1.00  0.00    -0.207 C  
BRANCH  23  24
HETATM   24  C   UNL     1     -11.214  11.463  69.421  1.00  0.00    -0.333 A  
HETATM   25  C   UNL     1     -11.156  10.126  69.835  1.00  0.00    -0.346 A  
HETATM   26  C   UNL     1     -12.827  10.541  71.548  1.00  0.00    -0.463 A  
HETATM   27  C   UNL     1     -12.823  11.892  71.209  1.00  0.00    -0.391 A  
HETATM   28  C   UNL     1     -12.023  12.350  70.150  1.00  0.00    -0.376 A  
HETATM   29  C   UNL     1     -11.963   9.672  70.879  1.00  0.00    -0.391 A  
BRANCH  26  30
HETATM   30  O   UNL     1     -13.647   9.927  72.450  1.00  0.00    -0.378 OA 
HETATM   31  C   UNL     1     -14.060   8.591  72.199  1.00  0.00    -0.421 C  
ENDBRANCH  26  30
ENDBRANCH  23  24
ENDBRANCH  22  23
BRANCH  22  32
HETATM   32  C   UNL     1     -11.393  11.945  65.980  1.00  0.00    -0.316 A  
HETATM   33  N   UNL     1     -12.101  13.034  66.329  1.00  0.00    -0.410 NA 
HETATM   34  N   UNL     1     -11.070  11.661  64.713  1.00  0.00    -0.291 NA 
HETATM   35  C   UNL     1     -11.495  12.510  63.759  1.00  0.00    -0.469 A  
HETATM   36  C   UNL     1     -12.561  13.825  65.330  1.00  0.00    -0.497 A  
HETATM   37  C   UNL     1     -12.268  13.614  64.010  1.00  0.00    -0.443 A  
ENDBRANCH  22  32
ENDBRANCH  21  22
ENDBRANCH  20  21
ENDBRANCH  17  20
ENDBRANCH  16  17
ENDBRANCH  15  16
ENDBRANCH  14  15
ENDBRANCH  13  14
ENDBRANCH  12  13
ENDBRANCH  11  12
ENDBRANCH  10  11
ENDBRANCH   9  10
ENDBRANCH   8   9
ENDBRANCH   7   8
ENDBRANCH   6   7
ENDBRANCH   5   6
ENDBRANCH   4   5
ENDBRANCH   3   4
ENDBRANCH   2   3
TORSDOF 22
ENDMDL
MODEL      103
REMARK 921   NORMALIZED FREE ENERGY PREDICTED BY IDOCK:   -3.83 KCAL/MOL
REMARK 922        TOTAL FREE ENERGY PREDICTED BY IDOCK:  -13.21 KCAL/MOL
REMARK 923 INTER-LIGAND FREE ENERGY PREDICTED BY IDOCK:   -9.72 KCAL/MOL
REMARK 924 INTRA-LIGAND FREE ENERGY PREDICTED BY IDOCK:   -3.49 KCAL/MOL
REMARK 927      BINDING AFFINITY PREDICTED BY RF-SCORE:    0.00 PKD
ROOT
HETATM    1  C   UNL     1     -11.834  11.940  63.580  1.00  0.00    -0.573 C  
HETATM    2  C   UNL     1     -12.580  12.701  64.662  1.00  0.00    -0.517 C  
ENDROOT
BRANCH   2   3
HETATM    3  C   UNL     1     -12.397  14.206  64.498  1.00  0.00    -0.419 C  
BRANCH   3   4
HETATM    4  C   UNL     1     -10.932  14.593  64.658  1.00  0.00    -0.340 C  
BRANCH   4   5
HETATM    5  C   UNL     1     -10.780  15.714  65.678  1.00  0.00    -0.376 C  
BRANCH   5   6
HETATM    6  C   UNL     1      -9.309  15.977  65.965  1.00  0.00    -0.380 C  
BRANCH   6   7
HETATM    7  C   UNL     1      -9.021  15.798  67.447  1.00  0.00    -0.204 C  
BRANCH   7   8
HETATM    8  C   UNL     1      -7.928  14.762  67.652  1.00  0.00    -0.191 C  
BRANCH   8   9
HETATM    9  C   UNL     1      -8.523  13.495  68.242  1.00  0.00    -0.168 C  
BRANCH   9  10
HETATM   10  C   UNL     1     -10.007  13.678  68.507  1.00  0.00    -0.208 C  
BRANCH  10  11
HETATM   11  C   UNL     1     -10.786  12.503  67.933  1.00  0.00    -0.239 C  
BRANCH  11  12
HETATM   12  C   UNL     1      -9.961  11.804  66.862  1.00  0.00    -0.220 C  
BRANCH  12  13
HETATM   13  C   UNL     1     -10.034  10.294  67.016  1.00  0.00    -0.249 C  
BRANCH  13  14
HETATM   14  C   UNL     1     -10.088   9.868  68.487  1.00  0.00    -0.186 C  
BRANCH  14  15
HETATM   15  C   UNL     1      -8.719   9.818  69.183  1.00  0.00    -0.155 C  
BRANCH  15  16
HETATM   16  C   UNL     1      -8.203   8.383  69.241  1.00  0.00    -0.116 C  
BRANCH  16  17
HETATM   17  N   UNL     1      -7.379   8.040  70.474  1.00  0.00    -0.059 N  
HETATM   18  C   UNL     1      -6.976   9.313  71.231  1.00  0.00    -0.009 C  
HETATM   19  C   UNL     1      -6.118   7.258  70.139  1.00  0.00    -0.024 C  
BRANCH  17  20
HETATM   20  C   UNL     1      -8.276   7.215  71.448  1.00  0.00    -0.107 C  
BRANCH  20  21
HETATM   21  C   UNL     1      -9.556   7.935  71.975  1.00  0.00    -0.186 C  
BRANCH  21  22
HETATM   22  N   UNL     1     -10.734   7.368  71.325  1.00  0.00    -0.221 NA 
BRANCH  22  23
HETATM   23  C   UNL     1     -10.802   5.927  71.046  1.00  0.00    -0.273 C  
BRANCH  23  24
HETATM   24  C   UNL     1     -10.633   5.601  69.575  1.00  0.00    -0.384 A  
HETATM   25  C   UNL     1      -9.852   4.508  69.181  1.00  0.00    -0.222 A  
HETATM   26  C   UNL     1     -10.082   5.131  66.845  1.00  0.00    -0.226 A  
HETATM   27  C   UNL     1     -10.938   6.165  67.217  1.00  0.00    -0.418 A  
HETATM   28  C   UNL     1     -11.210   6.401  68.575  1.00  0.00    -0.321 A  
HETATM   29  C   UNL     1      -9.572   4.286  67.832  1.00  0.00    -0.207 A  
BRANCH  26  30
HETATM   30  O   UNL     1      -9.615   4.869  65.590  1.00  0.00    -0.163 OA 
HETATM   31  C   UNL     1      -8.302   5.288  65.248  1.00  0.00    -0.139 C  
ENDBRANCH  26  30
ENDBRANCH  23  24
ENDBRANCH  22  23
BRANCH  22  32
HETATM   32  C   UNL     1     -11.944   7.939  71.687  1.00  0.00    -0.294 A  
HETATM   33  N   UNL     1     -12.002   9.271  71.866  1.00  0.00    -0.371 NA 
HETATM   34  N   UNL     1     -13.029   7.156  71.683  1.00  0.00    -0.379 NA 
HETATM   35  C   UNL     1     -14.222   7.748  71.883  1.00  0.00    -0.390 A  
HETATM   36  C   UNL     1     -13.216   9.813  72.127  1.00  0.00    -0.436 A  
HETATM   37  C   UNL     1     -14.376   9.088  72.130  1.00  0.00    -0.350 A  
ENDBRANCH  22  32
ENDBRANCH  21  22
ENDBRANCH  20  21
ENDBRANCH  17  20
ENDBRANCH  16  17
ENDBRANCH  15  16
ENDBRANCH  14  15
ENDBRANCH  13  14
ENDBRANCH  12  13
ENDBRANCH  11  12
ENDBRANCH  10  11
ENDBRANCH   9  10
ENDBRANCH   8   9
ENDBRANCH   7   8
ENDBRANCH   6   7
ENDBRANCH   5   6
ENDBRANCH   4   5
ENDBRANCH   3   4
ENDBRANCH   2   3
TORSDOF 22
ENDMDL
MODEL      104
REMARK 921   NORMALIZED FREE ENERGY PREDICTED BY IDOCK:   -3.83 KCAL/MOL
REMARK 922        TOTAL FREE ENERGY PREDICTED BY IDOCK:  -13.21 KCAL/MOL
REMARK 923 INTER-LIGAND FREE ENERGY PREDICTED BY IDOCK:  -10.09 KCAL/MOL
REMARK 924 INTRA-LIGAND FREE ENERGY PREDICTED BY IDOCK:   -3.13 KCAL/MOL
REMARK 927      BINDING AFFINITY PREDICTED BY RF-SCORE:    0.00 PKD
ROOT
HETATM    1  C   UNL     1     -12.784  15.945  73.825  1.00  0.00    -0.729 C  
HETATM    2  C   UNL     1     -12.796  14.566  73.189  1.00  0.00    -0.547 C  
ENDROOT
BRANCH   2   3
HETATM    3  C   UNL     1     -13.720  14.531  71.976  1.00  0.00    -0.528 C  
BRANCH   3   4
HETATM    4  C   UNL     1     -13.281  15.551  70.933  1.00  0.00    -0.474 C  
BRANCH   4   5
HETATM    5  C   UNL     1     -11.824  15.332  70.546  1.00  0.00    -0.363 C  
BRANCH   5   6
HETATM    6  C   UNL     1     -11.705  15.061  69.054  1.00  0.00    -0.351 C  
BRANCH   6   7
HETATM    7  C   UNL     1     -11.033  13.719  68.813  1.00  0.00    -0.289 C  
BRANCH   7   8
HETATM    8  C   UNL     1     -12.053  12.594  68.894  1.00  0.00    -0.164 C  
BRANCH   8   9
HETATM    9  C   UNL     1     -11.721  11.681  70.061  1.00  0.00    -0.402 C  
BRANCH   9  10
HETATM   10  C   UNL     1     -12.898  10.773  70.377  1.00  0.00    -0.285 C  
BRANCH  10  11
HETATM   11  C   UNL     1     -13.220  10.839  71.862  1.00  0.00    -0.524 C  
BRANCH  11  12
HETATM   12  C   UNL     1     -13.353   9.433  72.430  1.00  0.00    -0.503 C  
BRANCH  12  13
HETATM   13  C   UNL     1     -12.516   8.442  71.638  1.00  0.00    -0.363 C  
BRANCH  13  14
HETATM   14  C   UNL     1     -11.068   8.383  72.138  1.00  0.00    -0.415 C  
BRANCH  14  15
HETATM   15  C   UNL     1     -10.758   7.180  73.042  1.00  0.00    -0.359 C  
BRANCH  15  16
HETATM   16  C   UNL     1      -9.298   6.763  72.890  1.00  0.00    -0.135 C  
BRANCH  16  17
HETATM   17  N   UNL     1      -9.079   5.339  72.399  1.00  0.00    -0.134 N  
HETATM   18  C   UNL     1     -10.391   4.543  72.434  1.00  0.00    -0.191 C  
HETATM   19  C   UNL     1      -8.037   4.590  73.215  1.00  0.00    -0.095 C  
BRANCH  17  20
HETATM   20  C   UNL     1      -8.642   5.400  70.902  1.00  0.00    -0.126 C  
BRANCH  20  21
HETATM   21  C   UNL     1      -9.769   5.160  69.850  1.00  0.00    -0.199 C  
BRANCH  21  22
HETATM   22  N   UNL     1      -9.358   5.713  68.563  1.00  0.00    -0.120 NA 
BRANCH  22  23
HETATM   23  C   UNL     1      -8.575   6.955  68.509  1.00  0.00    -0.123 C  
BRANCH  23  24
HETATM   24  C   UNL     1      -9.150   7.975  67.546  1.00  0.00    -0.146 A  
HETATM   25  C   UNL     1      -8.612   8.110  66.260  1.00  0.00    -0.157 A  
HETATM   26  C   UNL     1     -10.020  10.042  65.829  1.00  0.00    -0.276 A  
HETATM   27  C   UNL     1     -10.630   9.859  67.069  1.00  0.00    -0.272 A  
HETATM   28  C   UNL     1     -10.196   8.833  67.923  1.00  0.00    -0.272 A  
HETATM   29  C   UNL     1      -9.037   9.141  65.420  1.00  0.00    -0.271 A  
BRANCH  26  30
HETATM   30  O   UNL     1     -10.232  11.070  64.958  1.00  0.00    -0.264 OA 
HETATM   31  C   UNL     1     -11.307  11.965  65.206  1.00  0.00    -0.275 C  
ENDBRANCH  26  30
ENDBRANCH  23  24
ENDBRANCH  22  23
BRANCH  22  32
HETATM   32  C   UNL     1      -9.018   4.778  67.598  1.00  0.00    -0.110 A  
HETATM   33  N   UNL     1      -9.927   4.459  66.659  1.00  0.00    -0.226 NA 
HETATM   34  N   UNL     1      -7.747   4.362  67.554  1.00  0.00    -0.084 NA 
HETATM   35  C   UNL     1      -7.387   3.575  66.522  1.00  0.00    -0.075 A  
HETATM   36  C   UNL     1      -9.536   3.614  65.674  1.00  0.00    -0.142 A  
HETATM   37  C   UNL     1      -8.255   3.150  65.548  1.00  0.00    -0.094 A  
ENDBRANCH  22  32
ENDBRANCH  21  22
ENDBRANCH  20  21
ENDBRANCH  17  20
ENDBRANCH  16  17
ENDBRANCH  15  16
ENDBRANCH  14  15
ENDBRANCH  13  14
ENDBRANCH  12  13
ENDBRANCH  11  12
ENDBRANCH  10  11
ENDBRANCH   9  10
ENDBRANCH   8   9
ENDBRANCH   7   8
ENDBRANCH   6   7
ENDBRANCH   5   6
ENDBRANCH   4   5
ENDBRANCH   3   4
ENDBRANCH   2   3
TORSDOF 22
ENDMDL
MODEL      105
REMARK 921   NORMALIZED FREE ENERGY PREDICTED BY IDOCK:   -3.83 KCAL/MOL
REMARK 922        TOTAL FREE ENERGY PREDICTED BY IDOCK:  -13.20 KCAL/MOL
REMARK 923 INTER-LIGAND FREE ENERGY PREDICTED BY IDOCK:  -10.73 KCAL/MOL
REMARK 924 INTRA-LIGAND FREE ENERGY PREDICTED BY IDOCK:   -2.47 KCAL/MOL
REMARK 927      BINDING AFFINITY PREDICTED BY RF-SCORE:    0.00 PKD
ROOT
HETATM    1  C   UNL     1     -12.874  15.920  73.766  1.00  0.00    -0.708 C  
HETATM    2  C   UNL     1     -13.962  15.577  72.764  1.00  0.00    -0.545 C  
ENDROOT
BRANCH   2   3
HETATM    3  C   UNL     1     -13.411  15.563  71.342  1.00  0.00    -0.592 C  
BRANCH   3   4
HETATM    4  C   UNL     1     -12.541  14.334  71.112  1.00  0.00    -0.432 C  
BRANCH   4   5
HETATM    5  C   UNL     1     -11.499  14.607  70.034  1.00  0.00    -0.313 C  
BRANCH   5   6
HETATM    6  C   UNL     1     -11.833  13.837  68.765  1.00  0.00    -0.398 C  
BRANCH   6   7
HETATM    7  C   UNL     1     -11.744  14.753  67.554  1.00  0.00    -0.370 C  
BRANCH   7   8
HETATM    8  C   UNL     1     -10.647  14.282  66.613  1.00  0.00    -0.278 C  
BRANCH   8   9
HETATM    9  C   UNL     1     -10.701  15.077  65.320  1.00  0.00    -0.406 C  
BRANCH   9  10
HETATM   10  C   UNL     1     -11.974  14.760  64.554  1.00  0.00    -0.451 C  
BRANCH  10  11
HETATM   11  C   UNL     1     -12.212  13.257  64.541  1.00  0.00    -0.456 C  
BRANCH  11  12
HETATM   12  C   UNL     1     -11.693  12.657  63.242  1.00  0.00    -0.466 C  
BRANCH  12  13
HETATM   13  C   UNL     1     -10.419  11.863  63.479  1.00  0.00    -0.505 C  
BRANCH  13  14
HETATM   14  C   UNL     1     -10.549  10.912  64.674  1.00  0.00    -0.332 C  
BRANCH  14  15
HETATM   15  C   UNL     1      -9.210  10.501  65.305  1.00  0.00    -0.238 C  
BRANCH  15  16
HETATM   16  C   UNL     1      -9.408   9.324  66.256  1.00  0.00    -0.200 C  
BRANCH  16  17
HETATM   17  N   UNL     1      -8.921   9.553  67.680  1.00  0.00    -0.118 N  
HETATM   18  C   UNL     1      -8.392  10.984  67.852  1.00  0.00    -0.124 C  
HETATM   19  C   UNL     1      -7.826   8.581  68.090  1.00  0.00    -0.103 C  
BRANCH  17  20
HETATM   20  C   UNL     1     -10.143   9.418  68.641  1.00  0.00    -0.190 C  
BRANCH  20  21
HETATM   21  C   UNL     1      -9.845   9.627  70.159  1.00  0.00    -0.262 C  
BRANCH  21  22
HETATM   22  N   UNL     1     -10.347   8.483  70.914  1.00  0.00    -0.193 NA 
BRANCH  22  23
HETATM   23  C   UNL     1      -9.447   7.726  71.794  1.00  0.00    -0.151 C  
BRANCH  23  24
HETATM   24  C   UNL     1      -8.730   6.598  71.079  1.00  0.00    -0.138 A  
HETATM   25  C   UNL     1      -7.435   6.231  71.463  1.00  0.00    -0.090 A  
HETATM   26  C   UNL     1      -7.274   4.687  69.595  1.00  0.00    -0.051 A  
HETATM   27  C   UNL     1      -8.595   4.972  69.260  1.00  0.00    -0.096 A  
HETATM   28  C   UNL     1      -9.319   5.925  69.996  1.00  0.00    -0.171 A  
HETATM   29  C   UNL     1      -6.714   5.295  70.719  1.00  0.00    -0.043 A  
BRANCH  26  30
HETATM   30  O   UNL     1      -6.405   3.899  68.896  1.00  0.00    -0.031 OA 
HETATM   31  C   UNL     1      -6.248   4.125  67.503  1.00  0.00    -0.036 C  
ENDBRANCH  26  30
ENDBRANCH  23  24
ENDBRANCH  22  23
BRANCH  22  32
HETATM   32  C   UNL     1     -11.643   8.608  71.390  1.00  0.00    -0.293 A  
HETATM   33  N   UNL     1     -12.111   9.838  71.672  1.00  0.00    -0.398 NA 
HETATM   34  N   UNL     1     -12.414   7.516  71.392  1.00  0.00    -0.342 NA 
HETATM   35  C   UNL     1     -13.714   7.674  71.708  1.00  0.00    -0.330 A  
HETATM   36  C   UNL     1     -13.410   9.939  72.045  1.00  0.00    -0.432 A  
HETATM   37  C   UNL     1     -14.271   8.876  72.064  1.00  0.00    -0.444 A  
ENDBRANCH  22  32
ENDBRANCH  21  22
ENDBRANCH  20  21
ENDBRANCH  17  20
ENDBRANCH  16  17
ENDBRANCH  15  16
ENDBRANCH  14  15
ENDBRANCH  13  14
ENDBRANCH  12  13
ENDBRANCH  11  12
ENDBRANCH  10  11
ENDBRANCH   9  10
ENDBRANCH   8   9
ENDBRANCH   7   8
ENDBRANCH   6   7
ENDBRANCH   5   6
ENDBRANCH   4   5
ENDBRANCH   3   4
ENDBRANCH   2   3
TORSDOF 22
ENDMDL
MODEL      106
REMARK 921   NORMALIZED FREE ENERGY PREDICTED BY IDOCK:   -3.82 KCAL/MOL
REMARK 922        TOTAL FREE ENERGY PREDICTED BY IDOCK:  -13.19 KCAL/MOL
REMARK 923 INTER-LIGAND FREE ENERGY PREDICTED BY IDOCK:  -10.12 KCAL/MOL
REMARK 924 INTRA-LIGAND FREE ENERGY PREDICTED BY IDOCK:   -3.07 KCAL/MOL
REMARK 927      BINDING AFFINITY PREDICTED BY RF-SCORE:    0.00 PKD
ROOT
HETATM    1  C   UNL     1      -9.033  15.695  69.299  1.00  0.00    -0.267 C  
HETATM    2  C   UNL     1      -7.571  16.032  69.064  1.00  0.00    -0.209 C  
ENDROOT
BRANCH   2   3
HETATM    3  C   UNL     1      -7.312  16.349  67.594  1.00  0.00    -0.156 C  
BRANCH   3   4
HETATM    4  C   UNL     1      -6.676  17.725  67.442  1.00  0.00    -0.182 C  
BRANCH   4   5
HETATM    5  C   UNL     1      -6.726  18.489  68.759  1.00  0.00    -0.281 C  
BRANCH   5   6
HETATM    6  C   UNL     1      -7.109  19.942  68.517  1.00  0.00    -0.336 C  
BRANCH   6   7
HETATM    7  C   UNL     1      -8.116  20.040  67.382  1.00  0.00    -0.358 C  
BRANCH   7   8
HETATM    8  C   UNL     1      -9.533  20.051  67.932  1.00  0.00    -0.467 C  
BRANCH   8   9
HETATM    9  C   UNL     1     -10.494  19.502  66.892  1.00  0.00    -0.589 C  
BRANCH   9  10
HETATM   10  C   UNL     1     -10.612  17.993  67.020  1.00  0.00    -0.320 C  
BRANCH  10  11
HETATM   11  C   UNL     1     -10.493  17.344  65.650  1.00  0.00    -0.173 C  
BRANCH  11  12
HETATM   12  C   UNL     1     -10.452  15.829  65.791  1.00  0.00    -0.384 C  
BRANCH  12  13
HETATM   13  C   UNL     1     -11.500  15.169  64.911  1.00  0.00    -0.374 C  
BRANCH  13  14
HETATM   14  C   UNL     1     -11.039  13.802  64.393  1.00  0.00    -0.356 C  
BRANCH  14  15
HETATM   15  C   UNL     1     -11.863  12.615  64.916  1.00  0.00    -0.436 C  
BRANCH  15  16
HETATM   16  C   UNL     1     -11.789  12.544  66.438  1.00  0.00    -0.381 C  
BRANCH  16  17
HETATM   17  N   UNL     1     -10.692  11.646  66.992  1.00  0.00    -0.240 N  
HETATM   18  C   UNL     1      -9.495  12.479  67.471  1.00  0.00    -0.185 C  
HETATM   19  C   UNL     1     -10.197  10.629  65.975  1.00  0.00    -0.247 C  
BRANCH  17  20
HETATM   20  C   UNL     1     -11.250  10.914  68.252  1.00  0.00    -0.286 C  
BRANCH  20  21
HETATM   21  C   UNL     1     -10.242  10.708  69.426  1.00  0.00    -0.192 C  
BRANCH  21  22
HETATM   22  N   UNL     1      -9.997   9.281  69.610  1.00  0.00    -0.182 NA 
BRANCH  22  23
HETATM   23  C   UNL     1      -8.896   8.622  68.894  1.00  0.00    -0.138 C  
BRANCH  23  24
HETATM   24  C   UNL     1      -9.345   7.403  68.112  1.00  0.00    -0.135 A  
HETATM   25  C   UNL     1      -8.441   6.368  67.841  1.00  0.00    -0.118 A  
HETATM   26  C   UNL     1     -10.077   5.252  66.435  1.00  0.00    -0.226 A  
HETATM   27  C   UNL     1     -11.015   6.224  66.774  1.00  0.00    -0.328 A  
HETATM   28  C   UNL     1     -10.651   7.295  67.606  1.00  0.00    -0.316 A  
HETATM   29  C   UNL     1      -8.804   5.313  67.002  1.00  0.00    -0.109 A  
BRANCH  26  30
HETATM   30  O   UNL     1     -10.239   4.239  65.534  1.00  0.00    -0.229 OA 
HETATM   31  C   UNL     1      -9.083   3.617  64.990  1.00  0.00    -0.142 C  
ENDBRANCH  26  30
ENDBRANCH  23  24
ENDBRANCH  22  23
BRANCH  22  32
HETATM   32  C   UNL     1     -10.214   8.802  70.892  1.00  0.00    -0.226 A  
HETATM   33  N   UNL     1     -11.389   8.208  71.169  1.00  0.00    -0.264 NA 
HETATM   34  N   UNL     1      -9.183   8.812  71.744  1.00  0.00    -0.268 NA 
HETATM   35  C   UNL     1      -9.356   8.206  72.934  1.00  0.00    -0.273 A  
HETATM   36  C   UNL     1     -11.538   7.667  72.403  1.00  0.00    -0.336 A  
HETATM   37  C   UNL     1     -10.533   7.624  73.330  1.00  0.00    -0.414 A  
ENDBRANCH  22  32
ENDBRANCH  21  22
ENDBRANCH  20  21
ENDBRANCH  17  20
ENDBRANCH  16  17
ENDBRANCH  15  16
ENDBRANCH  14  15
ENDBRANCH  13  14
ENDBRANCH  12  13
ENDBRANCH  11  12
ENDBRANCH  10  11
ENDBRANCH   9  10
ENDBRANCH   8   9
ENDBRANCH   7   8
ENDBRANCH   6   7
ENDBRANCH   5   6
ENDBRANCH   4   5
ENDBRANCH   3   4
ENDBRANCH   2   3
TORSDOF 22
ENDMDL
MODEL      107
REMARK 921   NORMALIZED FREE ENERGY PREDICTED BY IDOCK:   -3.81 KCAL/MOL
REMARK 922        TOTAL FREE ENERGY PREDICTED BY IDOCK:  -13.16 KCAL/MOL
REMARK 923 INTER-LIGAND FREE ENERGY PREDICTED BY IDOCK:  -10.35 KCAL/MOL
REMARK 924 INTRA-LIGAND FREE ENERGY PREDICTED BY IDOCK:   -2.80 KCAL/MOL
REMARK 927      BINDING AFFINITY PREDICTED BY RF-SCORE:    0.00 PKD
ROOT
HETATM    1  C   UNL     1     -12.120  14.090  64.299  1.00  0.00    -0.476 C  
HETATM    2  C   UNL     1     -11.215  15.048  65.053  1.00  0.00    -0.413 C  
ENDROOT
BRANCH   2   3
HETATM    3  C   UNL     1     -10.110  14.295  65.786  1.00  0.00    -0.356 C  
BRANCH   3   4
HETATM    4  C   UNL     1      -9.060  15.260  66.321  1.00  0.00    -0.337 C  
BRANCH   4   5
HETATM    5  C   UNL     1      -9.677  16.624  66.604  1.00  0.00    -0.280 C  
BRANCH   5   6
HETATM    6  C   UNL     1      -9.553  16.967  68.081  1.00  0.00    -0.266 C  
BRANCH   6   7
HETATM    7  C   UNL     1     -10.886  16.762  68.784  1.00  0.00    -0.318 C  
BRANCH   7   8
HETATM    8  C   UNL     1     -10.711  15.863  69.998  1.00  0.00    -0.343 C  
BRANCH   8   9
HETATM    9  C   UNL     1     -12.053  15.644  70.674  1.00  0.00    -0.443 C  
BRANCH   9  10
HETATM   10  C   UNL     1     -12.349  14.159  70.801  1.00  0.00    -0.439 C  
BRANCH  10  11
HETATM   11  C   UNL     1     -11.936  13.436  69.528  1.00  0.00    -0.377 C  
BRANCH  11  12
HETATM   12  C   UNL     1     -11.757  11.951  69.806  1.00  0.00    -0.403 C  
BRANCH  12  13
HETATM   13  C   UNL     1     -12.545  11.526  71.034  1.00  0.00    -0.457 C  
BRANCH  13  14
HETATM   14  C   UNL     1     -12.875  10.029  71.016  1.00  0.00    -0.455 C  
BRANCH  14  15
HETATM   15  C   UNL     1     -12.194   9.216  72.129  1.00  0.00    -0.408 C  
BRANCH  15  16
HETATM   16  C   UNL     1     -10.927   8.550  71.602  1.00  0.00    -0.292 C  
BRANCH  16  17
HETATM   17  N   UNL     1     -10.609   7.191  72.209  1.00  0.00    -0.209 N  
HETATM   18  C   UNL     1     -11.765   6.207  71.979  1.00  0.00    -0.299 C  
HETATM   19  C   UNL     1     -10.330   7.266  73.703  1.00  0.00    -0.352 C  
BRANCH  17  20
HETATM   20  C   UNL     1      -9.374   6.599  71.463  1.00  0.00    -0.153 C  
BRANCH  20  21
HETATM   21  C   UNL     1      -9.121   7.139  70.021  1.00  0.00    -0.145 C  
BRANCH  21  22
HETATM   22  N   UNL     1      -9.834   6.304  69.059  1.00  0.00    -0.140 NA 
BRANCH  22  23
HETATM   23  C   UNL     1     -10.866   6.891  68.194  1.00  0.00    -0.194 C  
BRANCH  23  24
HETATM   24  C   UNL     1     -10.352   8.047  67.359  1.00  0.00    -0.354 A  
HETATM   25  C   UNL     1     -10.849   9.340  67.563  1.00  0.00    -0.182 A  
HETATM   26  C   UNL     1      -9.610  10.164  65.643  1.00  0.00    -0.243 A  
HETATM   27  C   UNL     1      -9.035   8.905  65.488  1.00  0.00    -0.246 A  
HETATM   28  C   UNL     1      -9.405   7.851  66.339  1.00  0.00    -0.247 A  
HETATM   29  C   UNL     1     -10.489  10.381  66.705  1.00  0.00    -0.279 A  
BRANCH  26  30
HETATM   30  O   UNL     1      -9.460  11.239  64.815  1.00  0.00    -0.224 OA 
HETATM   31  C   UNL     1      -9.991  11.168  63.500  1.00  0.00    -0.379 C  
ENDBRANCH  26  30
ENDBRANCH  23  24
ENDBRANCH  22  23
BRANCH  22  32
HETATM   32  C   UNL     1      -9.075   5.314  68.455  1.00  0.00    -0.110 A  
HETATM   33  N   UNL     1      -9.704   4.355  67.752  1.00  0.00    -0.159 NA 
HETATM   34  N   UNL     1      -7.745   5.454  68.468  1.00  0.00    -0.083 NA 
HETATM   35  C   UNL     1      -7.021   4.575  67.750  1.00  0.00    -0.060 A  
HETATM   36  C   UNL     1      -8.933   3.456  67.095  1.00  0.00    -0.154 A  
HETATM   37  C   UNL     1      -7.567   3.532  67.048  1.00  0.00    -0.079 A  
ENDBRANCH  22  32
ENDBRANCH  21  22
ENDBRANCH  20  21
ENDBRANCH  17  20
ENDBRANCH  16  17
ENDBRANCH  15  16
ENDBRANCH  14  15
ENDBRANCH  13  14
ENDBRANCH  12  13
ENDBRANCH  11  12
ENDBRANCH  10  11
ENDBRANCH   9  10
ENDBRANCH   8   9
ENDBRANCH   7   8
ENDBRANCH   6   7
ENDBRANCH   5   6
ENDBRANCH   4   5
ENDBRANCH   3   4
ENDBRANCH   2   3
TORSDOF 22
ENDMDL
MODEL      108
REMARK 921   NORMALIZED FREE ENERGY PREDICTED BY IDOCK:   -3.80 KCAL/MOL
REMARK 922        TOTAL FREE ENERGY PREDICTED BY IDOCK:  -13.14 KCAL/MOL
REMARK 923 INTER-LIGAND FREE ENERGY PREDICTED BY IDOCK:  -10.38 KCAL/MOL
REMARK 924 INTRA-LIGAND FREE ENERGY PREDICTED BY IDOCK:   -2.75 KCAL/MOL
REMARK 927      BINDING AFFINITY PREDICTED BY RF-SCORE:    0.00 PKD
ROOT
HETATM    1  C   UNL     1      -9.447   5.483  73.491  1.00  0.00    -0.138 C  
HETATM    2  C   UNL     1     -10.035   6.707  72.811  1.00  0.00    -0.187 C  
ENDROOT
BRANCH   2   3
HETATM    3  C   UNL     1     -11.314   6.353  72.059  1.00  0.00    -0.338 C  
BRANCH   3   4
HETATM    4  C   UNL     1     -11.314   6.976  70.669  1.00  0.00    -0.349 C  
BRANCH   4   5
HETATM    5  C   UNL     1      -9.890   7.132  70.149  1.00  0.00    -0.180 C  
BRANCH   5   6
HETATM    6  C   UNL     1      -9.507   5.941  69.283  1.00  0.00    -0.154 C  
BRANCH   6   7
HETATM    7  C   UNL     1     -10.678   5.528  68.406  1.00  0.00    -0.156 C  
BRANCH   7   8
HETATM    8  C   UNL     1     -10.295   5.616  66.937  1.00  0.00    -0.312 C  
BRANCH   8   9
HETATM    9  C   UNL     1      -8.811   5.340  66.774  1.00  0.00    -0.111 C  
BRANCH   9  10
HETATM   10  C   UNL     1      -8.216   6.240  65.704  1.00  0.00    -0.143 C  
BRANCH  10  11
HETATM   11  C   UNL     1      -8.902   7.598  65.728  1.00  0.00    -0.134 C  
BRANCH  11  12
HETATM   12  C   UNL     1      -8.042   8.603  66.481  1.00  0.00    -0.103 C  
BRANCH  12  13
HETATM   13  C   UNL     1      -8.900   9.671  67.139  1.00  0.00    -0.141 C  
BRANCH  13  14
HETATM   14  C   UNL     1     -10.276   9.793  66.473  1.00  0.00    -0.289 C  
BRANCH  14  15
HETATM   15  C   UNL     1     -10.367  10.891  65.403  1.00  0.00    -0.326 C  
BRANCH  15  16
HETATM   16  C   UNL     1     -10.216  12.270  66.039  1.00  0.00    -0.243 C  
BRANCH  16  17
HETATM   17  N   UNL     1     -11.281  13.285  65.646  1.00  0.00    -0.284 N  
HETATM   18  C   UNL     1     -12.382  12.622  64.806  1.00  0.00    -0.489 C  
HETATM   19  C   UNL     1     -10.712  14.456  64.860  1.00  0.00    -0.426 C  
BRANCH  17  20
HETATM   20  C   UNL     1     -11.970  13.799  66.948  1.00  0.00    -0.421 C  
BRANCH  20  21
HETATM   21  C   UNL     1     -11.084  13.811  68.233  1.00  0.00    -0.255 C  
BRANCH  21  22
HETATM   22  N   UNL     1     -11.478  14.930  69.083  1.00  0.00    -0.285 NA 
BRANCH  22  23
HETATM   23  C   UNL     1     -11.773  16.241  68.489  1.00  0.00    -0.083 C  
BRANCH  23  24
HETATM   24  C   UNL     1     -10.531  16.964  68.006  1.00  0.00    -0.347 A  
HETATM   25  C   UNL     1      -9.381  17.000  68.805  1.00  0.00    -0.257 A  
HETATM   26  C   UNL     1      -8.301  18.525  67.253  1.00  0.00    -0.253 A  
HETATM   27  C   UNL     1      -9.400  18.422  66.404  1.00  0.00    -0.287 A  
HETATM   28  C   UNL     1     -10.510  17.648  66.779  1.00  0.00    -0.289 A  
HETATM   29  C   UNL     1      -8.286  17.782  68.434  1.00  0.00    -0.298 A  
BRANCH  26  30
HETATM   30  O   UNL     1      -7.219  19.342  67.094  1.00  0.00    -0.210 OA 
HETATM   31  C   UNL     1      -7.373  20.734  67.333  1.00  0.00    -0.339 C  
ENDBRANCH  26  30
ENDBRANCH  23  24
ENDBRANCH  22  23
BRANCH  22  32
HETATM   32  C   UNL     1     -12.275  14.599  70.167  1.00  0.00    -0.335 A  
HETATM   33  N   UNL     1     -12.146  13.377  70.715  1.00  0.00    -0.316 NA 
HETATM   34  N   UNL     1     -13.017  15.569  70.714  1.00  0.00    -0.477 NA 
HETATM   35  C   UNL     1     -13.668  15.282  71.857  1.00  0.00    -0.499 A  
HETATM   36  C   UNL     1     -12.870  13.114  71.830  1.00  0.00    -0.258 A  
HETATM   37  C   UNL     1     -13.644  14.050  72.460  1.00  0.00    -0.670 A  
ENDBRANCH  22  32
ENDBRANCH  21  22
ENDBRANCH  20  21
ENDBRANCH  17  20
ENDBRANCH  16  17
ENDBRANCH  15  16
ENDBRANCH  14  15
ENDBRANCH  13  14
ENDBRANCH  12  13
ENDBRANCH  11  12
ENDBRANCH  10  11
ENDBRANCH   9  10
ENDBRANCH   8   9
ENDBRANCH   7   8
ENDBRANCH   6   7
ENDBRANCH   5   6
ENDBRANCH   4   5
ENDBRANCH   3   4
ENDBRANCH   2   3
TORSDOF 22
ENDMDL
MODEL      109
REMARK 921   NORMALIZED FREE ENERGY PREDICTED BY IDOCK:   -3.79 KCAL/MOL
REMARK 922        TOTAL FREE ENERGY PREDICTED BY IDOCK:  -13.12 KCAL/MOL
REMARK 923 INTER-LIGAND FREE ENERGY PREDICTED BY IDOCK:  -10.38 KCAL/MOL
REMARK 924 INTRA-LIGAND FREE ENERGY PREDICTED BY IDOCK:   -2.74 KCAL/MOL
REMARK 927      BINDING AFFINITY PREDICTED BY RF-SCORE:    0.00 PKD
ROOT
HETATM    1  C   UNL     1      -9.341   7.494  69.528  1.00  0.00    -0.153 C  
HETATM    2  C   UNL     1     -10.414   7.334  68.466  1.00  0.00    -0.215 C  
ENDROOT
BRANCH   2   3
HETATM    3  C   UNL     1     -10.716   5.861  68.212  1.00  0.00    -0.319 C  
BRANCH   3   4
HETATM    4  C   UNL     1     -10.570   5.527  66.733  1.00  0.00    -0.360 C  
BRANCH   4   5
HETATM    5  C   UNL     1      -9.523   6.420  66.080  1.00  0.00    -0.079 C  
BRANCH   5   6
HETATM    6  C   UNL     1      -8.169   5.725  66.061  1.00  0.00    -0.114 C  
BRANCH   6   7
HETATM    7  C   UNL     1      -8.079   4.781  64.872  1.00  0.00    -0.105 C  
BRANCH   7   8
HETATM    8  C   UNL     1      -8.011   5.569  63.574  1.00  0.00    -0.104 C  
BRANCH   8   9
HETATM    9  C   UNL     1      -6.961   6.660  63.688  1.00  0.00    -0.052 C  
BRANCH   9  10
HETATM   10  C   UNL     1      -7.291   7.815  62.757  1.00  0.00    -0.099 C  
BRANCH  10  11
HETATM   11  C   UNL     1      -8.333   8.718  63.399  1.00  0.00    -0.157 C  
BRANCH  11  12
HETATM   12  C   UNL     1      -7.655   9.740  64.300  1.00  0.00    -0.135 C  
BRANCH  12  13
HETATM   13  C   UNL     1      -8.331   9.804  65.660  1.00  0.00    -0.138 C  
BRANCH  13  14
HETATM   14  C   UNL     1      -9.857   9.892  65.539  1.00  0.00    -0.381 C  
BRANCH  14  15
HETATM   15  C   UNL     1     -10.376  11.251  65.044  1.00  0.00    -0.359 C  
BRANCH  15  16
HETATM   16  C   UNL     1     -10.480  12.236  66.204  1.00  0.00    -0.240 C  
BRANCH  16  17
HETATM   17  N   UNL     1     -11.474  13.371  66.002  1.00  0.00    -0.318 N  
HETATM   18  C   UNL     1     -12.594  12.951  65.040  1.00  0.00    -0.472 C  
HETATM   19  C   UNL     1     -10.821  14.634  65.461  1.00  0.00    -0.345 C  
BRANCH  17  20
HETATM   20  C   UNL     1     -12.160  13.669  67.371  1.00  0.00    -0.337 C  
BRANCH  20  21
HETATM   21  C   UNL     1     -11.255  13.531  68.635  1.00  0.00    -0.278 C  
BRANCH  21  22
HETATM   22  N   UNL     1     -11.324  14.761  69.418  1.00  0.00    -0.270 NA 
BRANCH  22  23
HETATM   23  C   UNL     1     -11.660  16.034  68.766  1.00  0.00    -0.351 C  
BRANCH  23  24
HETATM   24  C   UNL     1     -10.441  16.878  68.452  1.00  0.00    -0.355 A  
HETATM   25  C   UNL     1      -9.162  16.427  68.802  1.00  0.00    -0.239 A  
HETATM   26  C   UNL     1      -8.183  18.544  68.123  1.00  0.00    -0.295 A  
HETATM   27  C   UNL     1      -9.435  18.968  67.683  1.00  0.00    -0.355 A  
HETATM   28  C   UNL     1     -10.558  18.141  67.849  1.00  0.00    -0.389 A  
HETATM   29  C   UNL     1      -8.051  17.257  68.648  1.00  0.00    -0.261 A  
BRANCH  26  30
HETATM   30  O   UNL     1      -7.036  19.282  68.160  1.00  0.00    -0.250 OA 
HETATM   31  C   UNL     1      -6.547  19.722  69.419  1.00  0.00    -0.355 C  
ENDBRANCH  26  30
ENDBRANCH  23  24
ENDBRANCH  22  23
BRANCH  22  32
HETATM   32  C   UNL     1     -11.832  14.621  70.700  1.00  0.00    -0.305 A  
HETATM   33  N   UNL     1     -11.574  15.581  71.606  1.00  0.00    -0.392 NA 
HETATM   34  N   UNL     1     -12.688  13.618  70.924  1.00  0.00    -0.330 NA 
HETATM   35  C   UNL     1     -13.297  13.578  72.124  1.00  0.00    -0.500 A  
HETATM   36  C   UNL     1     -12.161  15.465  72.822  1.00  0.00    -0.420 A  
HETATM   37  C   UNL     1     -13.057  14.478  73.131  1.00  0.00    -0.553 A  
ENDBRANCH  22  32
ENDBRANCH  21  22
ENDBRANCH  20  21
ENDBRANCH  17  20
ENDBRANCH  16  17
ENDBRANCH  15  16
ENDBRANCH  14  15
ENDBRANCH  13  14
ENDBRANCH  12  13
ENDBRANCH  11  12
ENDBRANCH  10  11
ENDBRANCH   9  10
ENDBRANCH   8   9
ENDBRANCH   7   8
ENDBRANCH   6   7
ENDBRANCH   5   6
ENDBRANCH   4   5
ENDBRANCH   3   4
ENDBRANCH   2   3
TORSDOF 22
ENDMDL
MODEL      110
REMARK 921   NORMALIZED FREE ENERGY PREDICTED BY IDOCK:   -3.79 KCAL/MOL
REMARK 922        TOTAL FREE ENERGY PREDICTED BY IDOCK:  -13.11 KCAL/MOL
REMARK 923 INTER-LIGAND FREE ENERGY PREDICTED BY IDOCK:  -10.16 KCAL/MOL
REMARK 924 INTRA-LIGAND FREE ENERGY PREDICTED BY IDOCK:   -2.95 KCAL/MOL
REMARK 927      BINDING AFFINITY PREDICTED BY RF-SCORE:    0.00 PKD
ROOT
HETATM    1  C   UNL     1     -10.128   7.608  66.804  1.00  0.00    -0.325 C  
HETATM    2  C   UNL     1      -9.416   6.353  66.333  1.00  0.00    -0.169 C  
ENDROOT
BRANCH   2   3
HETATM    3  C   UNL     1     -10.368   5.162  66.304  1.00  0.00    -0.313 C  
BRANCH   3   4
HETATM    4  C   UNL     1      -9.598   3.858  66.138  1.00  0.00    -0.193 C  
BRANCH   4   5
HETATM    5  C   UNL     1      -8.716   3.595  67.351  1.00  0.00    -0.129 C  
BRANCH   5   6
HETATM    6  C   UNL     1      -9.459   2.754  68.378  1.00  0.00    -0.209 C  
BRANCH   6   7
HETATM    7  C   UNL     1      -9.535   3.488  69.707  1.00  0.00    -0.241 C  
BRANCH   7   8
HETATM    8  C   UNL     1      -8.631   4.710  69.688  1.00  0.00    -0.099 C  
BRANCH   8   9
HETATM    9  C   UNL     1      -9.428   5.946  70.068  1.00  0.00    -0.189 C  
BRANCH   9  10
HETATM   10  C   UNL     1     -10.917   5.687  69.916  1.00  0.00    -0.309 C  
BRANCH  10  11
HETATM   11  C   UNL     1     -11.709   6.812  70.563  1.00  0.00    -0.430 C  
BRANCH  11  12
HETATM   12  C   UNL     1     -11.479   6.815  72.068  1.00  0.00    -0.317 C  
BRANCH  12  13
HETATM   13  C   UNL     1     -11.746   8.189  72.659  1.00  0.00    -0.419 C  
BRANCH  13  14
HETATM   14  C   UNL     1     -13.129   8.723  72.271  1.00  0.00    -0.458 C  
BRANCH  14  15
HETATM   15  C   UNL     1     -13.140  10.196  71.835  1.00  0.00    -0.571 C  
BRANCH  15  16
HETATM   16  C   UNL     1     -13.069  10.303  70.315  1.00  0.00     0.078 C  
BRANCH  16  17
HETATM   17  N   UNL     1     -11.922  11.147  69.778  1.00  0.00    -0.329 N  
HETATM   18  C   UNL     1     -10.568  10.516  70.131  1.00  0.00    -0.105 C  
HETATM   19  C   UNL     1     -11.944  12.573  70.309  1.00  0.00    -0.283 C  
BRANCH  17  20
HETATM   20  C   UNL     1     -12.009  11.156  68.220  1.00  0.00    -0.101 C  
BRANCH  20  21
HETATM   21  C   UNL     1     -10.647  11.175  67.458  1.00  0.00    -0.221 C  
BRANCH  21  22
HETATM   22  N   UNL     1     -10.418  12.508  66.908  1.00  0.00    -0.228 NA 
BRANCH  22  23
HETATM   23  C   UNL     1      -9.132  13.184  67.123  1.00  0.00    -0.230 C  
BRANCH  23  24
HETATM   24  C   UNL     1      -9.283  14.667  67.402  1.00  0.00    -0.201 A  
HETATM   25  C   UNL     1      -8.781  15.609  66.496  1.00  0.00    -0.342 A  
HETATM   26  C   UNL     1      -9.311  17.423  68.022  1.00  0.00    -0.276 A  
HETATM   27  C   UNL     1      -9.900  16.505  68.889  1.00  0.00    -0.260 A  
HETATM   28  C   UNL     1      -9.884  15.135  68.582  1.00  0.00    -0.218 A  
HETATM   29  C   UNL     1      -8.786  16.969  66.811  1.00  0.00    -0.272 A  
BRANCH  26  30
HETATM   30  O   UNL     1      -9.124  18.755  68.247  1.00  0.00    -0.303 OA 
HETATM   31  C   UNL     1      -9.089  19.638  67.134  1.00  0.00    -0.315 C  
ENDBRANCH  26  30
ENDBRANCH  23  24
ENDBRANCH  22  23
BRANCH  22  32
HETATM   32  C   UNL     1     -10.990  12.744  65.668  1.00  0.00    -0.273 A  
HETATM   33  N   UNL     1     -10.926  11.779  64.733  1.00  0.00    -0.303 NA 
HETATM   34  N   UNL     1     -11.716  13.857  65.519  1.00  0.00    -0.337 NA 
HETATM   35  C   UNL     1     -12.395  14.005  64.365  1.00  0.00    -0.367 A  
HETATM   36  C   UNL     1     -11.574  12.000  63.564  1.00  0.00    -0.461 A  
HETATM   37  C   UNL     1     -12.348  13.105  63.332  1.00  0.00    -0.443 A  
ENDBRANCH  22  32
ENDBRANCH  21  22
ENDBRANCH  20  21
ENDBRANCH  17  20
ENDBRANCH  16  17
ENDBRANCH  15  16
ENDBRANCH  14  15
ENDBRANCH  13  14
ENDBRANCH  12  13
ENDBRANCH  11  12
ENDBRANCH  10  11
ENDBRANCH   9  10
ENDBRANCH   8   9
ENDBRANCH   7   8
ENDBRANCH   6   7
ENDBRANCH   5   6
ENDBRANCH   4   5
ENDBRANCH   3   4
ENDBRANCH   2   3
TORSDOF 22
ENDMDL
MODEL      111
REMARK 921   NORMALIZED FREE ENERGY PREDICTED BY IDOCK:   -3.75 KCAL/MOL
REMARK 922        TOTAL FREE ENERGY PREDICTED BY IDOCK:  -13.03 KCAL/MOL
REMARK 923 INTER-LIGAND FREE ENERGY PREDICTED BY IDOCK:  -10.10 KCAL/MOL
REMARK 924 INTRA-LIGAND FREE ENERGY PREDICTED BY IDOCK:   -2.92 KCAL/MOL
REMARK 927      BINDING AFFINITY PREDICTED BY RF-SCORE:    0.00 PKD
ROOT
HETATM    1  C   UNL     1      -7.235  19.164  65.797  1.00  0.00    -0.277 C  
HETATM    2  C   UNL     1      -8.102  19.826  66.853  1.00  0.00    -0.328 C  
ENDROOT
BRANCH   2   3
HETATM    3  C   UNL     1      -9.510  20.079  66.325  1.00  0.00    -0.485 C  
BRANCH   3   4
HETATM    4  C   UNL     1     -10.551  19.427  67.225  1.00  0.00    -0.599 C  
BRANCH   4   5
HETATM    5  C   UNL     1     -10.018  19.281  68.645  1.00  0.00    -0.506 C  
BRANCH   5   6
HETATM    6  C   UNL     1     -10.258  17.870  69.161  1.00  0.00    -0.187 C  
BRANCH   6   7
HETATM    7  C   UNL     1      -9.850  16.849  68.112  1.00  0.00    -0.264 C  
BRANCH   7   8
HETATM    8  C   UNL     1     -10.977  15.857  67.872  1.00  0.00    -0.327 C  
BRANCH   8   9
HETATM    9  C   UNL     1     -11.766  15.654  69.154  1.00  0.00    -0.402 C  
BRANCH   9  10
HETATM   10  C   UNL     1     -12.372  14.261  69.192  1.00  0.00    -0.165 C  
BRANCH  10  11
HETATM   11  C   UNL     1     -11.952  13.546  70.467  1.00  0.00    -0.344 C  
BRANCH  11  12
HETATM   12  C   UNL     1     -13.080  13.593  71.487  1.00  0.00    -0.431 C  
BRANCH  12  13
HETATM   13  C   UNL     1     -13.338  12.217  72.080  1.00  0.00    -0.491 C  
BRANCH  13  14
HETATM   14  C   UNL     1     -12.707  11.102  71.239  1.00  0.00    -0.531 C  
BRANCH  14  15
HETATM   15  C   UNL     1     -12.828   9.699  71.854  1.00  0.00    -0.515 C  
BRANCH  15  16
HETATM   16  C   UNL     1     -11.449   9.061  72.000  1.00  0.00    -0.338 C  
BRANCH  16  17
HETATM   17  N   UNL     1     -11.167   7.905  71.050  1.00  0.00    -0.265 N  
HETATM   18  C   UNL     1     -12.462   7.159  70.700  1.00  0.00    -0.101 C  
HETATM   19  C   UNL     1     -10.173   6.906  71.621  1.00  0.00    -0.191 C  
BRANCH  17  20
HETATM   20  C   UNL     1     -10.623   8.495  69.712  1.00  0.00    -0.224 C  
BRANCH  20  21
HETATM   21  C   UNL     1      -9.716   9.758  69.839  1.00  0.00    -0.238 C  
BRANCH  21  22
HETATM   22  N   UNL     1      -8.417   9.485  69.232  1.00  0.00    -0.130 NA 
BRANCH  22  23
HETATM   23  C   UNL     1      -7.787  10.481  68.355  1.00  0.00    -0.110 C  
BRANCH  23  24
HETATM   24  C   UNL     1      -8.717  10.984  67.268  1.00  0.00    -0.129 A  
HETATM   25  C   UNL     1      -9.287  12.259  67.362  1.00  0.00    -0.183 A  
HETATM   26  C   UNL     1     -10.656  11.839  65.400  1.00  0.00    -0.277 A  
HETATM   27  C   UNL     1     -10.027  10.607  65.240  1.00  0.00    -0.356 A  
HETATM   28  C   UNL     1      -9.065  10.180  66.170  1.00  0.00    -0.184 A  
HETATM   29  C   UNL     1     -10.254  12.673  66.444  1.00  0.00    -0.263 A  
BRANCH  26  30
HETATM   30  O   UNL     1     -11.700  12.325  64.669  1.00  0.00    -0.343 OA 
HETATM   31  C   UNL     1     -12.240  13.595  65.007  1.00  0.00    -0.421 C  
ENDBRANCH  26  30
ENDBRANCH  23  24
ENDBRANCH  22  23
BRANCH  22  32
HETATM   32  C   UNL     1      -7.528   8.777  70.025  1.00  0.00    -0.054 A  
HETATM   33  N   UNL     1      -6.637   7.963  69.430  1.00  0.00    -0.035 NA 
HETATM   34  N   UNL     1      -7.496   9.061  71.332  1.00  0.00    -0.277 NA 
HETATM   35  C   UNL     1      -6.529   8.484  72.069  1.00  0.00    -0.073 A  
HETATM   36  C   UNL     1      -5.721   7.356  70.222  1.00  0.00    -0.024 A  
HETATM   37  C   UNL     1      -5.611   7.599  71.565  1.00  0.00    -0.035 A  
ENDBRANCH  22  32
ENDBRANCH  21  22
ENDBRANCH  20  21
ENDBRANCH  17  20
ENDBRANCH  16  17
ENDBRANCH  15  16
ENDBRANCH  14  15
ENDBRANCH  13  14
ENDBRANCH  12  13
ENDBRANCH  11  12
ENDBRANCH  10  11
ENDBRANCH   9  10
ENDBRANCH   8   9
ENDBRANCH   7   8
ENDBRANCH   6   7
ENDBRANCH   5   6
ENDBRANCH   4   5
ENDBRANCH   3   4
ENDBRANCH   2   3
TORSDOF 22
ENDMDL
MODEL      112
REMARK 921   NORMALIZED FREE ENERGY PREDICTED BY IDOCK:   -3.73 KCAL/MOL
REMARK 922        TOTAL FREE ENERGY PREDICTED BY IDOCK:  -12.97 KCAL/MOL
REMARK 923 INTER-LIGAND FREE ENERGY PREDICTED BY IDOCK:   -9.33 KCAL/MOL
REMARK 924 INTRA-LIGAND FREE ENERGY PREDICTED BY IDOCK:   -3.64 KCAL/MOL
REMARK 927      BINDING AFFINITY PREDICTED BY RF-SCORE:    0.00 PKD
ROOT
HETATM    1  C   UNL     1      -8.650   3.624  65.905  1.00  0.00    -0.114 C  
HETATM    2  C   UNL     1      -8.612   4.872  65.040  1.00  0.00    -0.147 C  
ENDROOT
BRANCH   2   3
HETATM    3  C   UNL     1      -7.401   5.735  65.378  1.00  0.00    -0.076 C  
BRANCH   3   4
HETATM    4  C   UNL     1      -7.385   7.000  64.529  1.00  0.00    -0.084 C  
BRANCH   4   5
HETATM    5  C   UNL     1      -8.521   7.931  64.932  1.00  0.00    -0.045 C  
BRANCH   5   6
HETATM    6  C   UNL     1      -8.493   8.187  66.431  1.00  0.00    -0.133 C  
BRANCH   6   7
HETATM    7  C   UNL     1      -7.322   9.087  66.791  1.00  0.00    -0.086 C  
BRANCH   7   8
HETATM    8  C   UNL     1      -6.438   8.415  67.830  1.00  0.00    -0.061 C  
BRANCH   8   9
HETATM    9  C   UNL     1      -7.036   8.602  69.213  1.00  0.00    -0.062 C  
BRANCH   9  10
HETATM   10  C   UNL     1      -7.055   7.283  69.968  1.00  0.00    -0.066 C  
BRANCH  10  11
HETATM   11  C   UNL     1      -6.810   6.131  69.006  1.00  0.00    -0.066 C  
BRANCH  11  12
HETATM   12  C   UNL     1      -7.855   5.045  69.214  1.00  0.00    -0.076 C  
BRANCH  12  13
HETATM   13  C   UNL     1      -9.247   5.555  68.881  1.00  0.00    -0.141 C  
BRANCH  13  14
HETATM   14  C   UNL     1     -10.268   5.189  69.964  1.00  0.00    -0.354 C  
BRANCH  14  15
HETATM   15  C   UNL     1     -11.165   6.354  70.410  1.00  0.00    -0.435 C  
BRANCH  15  16
HETATM   16  C   UNL     1     -10.789   7.631  69.664  1.00  0.00    -0.191 C  
BRANCH  16  17
HETATM   17  N   UNL     1     -10.849   8.907  70.492  1.00  0.00    -0.228 N  
HETATM   18  C   UNL     1      -9.870   8.837  71.673  1.00  0.00    -0.308 C  
HETATM   19  C   UNL     1     -12.242   9.189  71.036  1.00  0.00    -0.242 C  
BRANCH  17  20
HETATM   20  C   UNL     1     -10.375  10.094  69.598  1.00  0.00    -0.247 C  
BRANCH  20  21
HETATM   21  C   UNL     1     -10.951  10.131  68.148  1.00  0.00    -0.259 C  
BRANCH  21  22
HETATM   22  N   UNL     1     -11.085  11.519  67.715  1.00  0.00    -0.240 NA 
BRANCH  22  23
HETATM   23  C   UNL     1     -10.210  12.556  68.277  1.00  0.00    -0.234 C  
BRANCH  23  24
HETATM   24  C   UNL     1     -10.948  13.531  69.173  1.00  0.00    -0.220 A  
HETATM   25  C   UNL     1     -10.514  14.858  69.277  1.00  0.00    -0.246 A  
HETATM   26  C   UNL     1     -12.136  15.295  71.032  1.00  0.00    -0.342 A  
HETATM   27  C   UNL     1     -12.641  14.006  70.870  1.00  0.00    -0.431 A  
HETATM   28  C   UNL     1     -12.048  13.128  69.948  1.00  0.00    -0.357 A  
HETATM   29  C   UNL     1     -11.097  15.723  70.206  1.00  0.00    -0.372 A  
BRANCH  26  30
HETATM   30  O   UNL     1     -12.510  16.206  71.977  1.00  0.00    -0.455 OA 
HETATM   31  C   UNL     1     -13.096  15.739  73.183  1.00  0.00    -0.564 C  
ENDBRANCH  26  30
ENDBRANCH  23  24
ENDBRANCH  22  23
BRANCH  22  32
HETATM   32  C   UNL     1     -11.396  11.695  66.376  1.00  0.00    -0.245 A  
HETATM   33  N   UNL     1     -12.346  12.588  66.045  1.00  0.00    -0.574 NA 
HETATM   34  N   UNL     1     -10.623  11.084  65.471  1.00  0.00    -0.234 NA 
HETATM   35  C   UNL     1     -10.832  11.380  64.175  1.00  0.00    -0.365 A  
HETATM   36  C   UNL     1     -12.563  12.808  64.726  1.00  0.00    -0.446 A  
HETATM   37  C   UNL     1     -11.812  12.234  63.736  1.00  0.00    -0.587 A  
ENDBRANCH  22  32
ENDBRANCH  21  22
ENDBRANCH  20  21
ENDBRANCH  17  20
ENDBRANCH  16  17
ENDBRANCH  15  16
ENDBRANCH  14  15
ENDBRANCH  13  14
ENDBRANCH  12  13
ENDBRANCH  11  12
ENDBRANCH  10  11
ENDBRANCH   9  10
ENDBRANCH   8   9
ENDBRANCH   7   8
ENDBRANCH   6   7
ENDBRANCH   5   6
ENDBRANCH   4   5
ENDBRANCH   3   4
ENDBRANCH   2   3
TORSDOF 22
ENDMDL
MODEL      113
REMARK 921   NORMALIZED FREE ENERGY PREDICTED BY IDOCK:   -3.71 KCAL/MOL
REMARK 922        TOTAL FREE ENERGY PREDICTED BY IDOCK:  -12.94 KCAL/MOL
REMARK 923 INTER-LIGAND FREE ENERGY PREDICTED BY IDOCK:   -9.97 KCAL/MOL
REMARK 924 INTRA-LIGAND FREE ENERGY PREDICTED BY IDOCK:   -2.97 KCAL/MOL
REMARK 927      BINDING AFFINITY PREDICTED BY RF-SCORE:    0.00 PKD
ROOT
HETATM    1  C   UNL     1      -8.365   4.107  65.970  1.00  0.00    -0.109 C  
HETATM    2  C   UNL     1      -9.470   5.147  66.012  1.00  0.00    -0.170 C  
ENDROOT
BRANCH   2   3
HETATM    3  C   UNL     1     -10.260   5.054  67.314  1.00  0.00    -0.219 C  
BRANCH   3   4
HETATM    4  C   UNL     1     -11.028   6.344  67.574  1.00  0.00    -0.454 C  
BRANCH   4   5
HETATM    5  C   UNL     1     -11.233   6.555  69.069  1.00  0.00    -0.354 C  
BRANCH   5   6
HETATM    6  C   UNL     1     -10.392   5.569  69.866  1.00  0.00    -0.368 C  
BRANCH   6   7
HETATM    7  C   UNL     1     -10.172   6.085  71.278  1.00  0.00    -0.253 C  
BRANCH   7   8
HETATM    8  C   UNL     1      -8.803   6.737  71.397  1.00  0.00    -0.131 C  
BRANCH   8   9
HETATM    9  C   UNL     1      -7.856   6.135  70.373  1.00  0.00    -0.106 C  
BRANCH   9  10
HETATM   10  C   UNL     1      -6.932   7.202  69.811  1.00  0.00    -0.054 C  
BRANCH  10  11
HETATM   11  C   UNL     1      -6.871   7.090  68.295  1.00  0.00    -0.074 C  
BRANCH  11  12
HETATM   12  C   UNL     1      -7.825   8.090  67.659  1.00  0.00    -0.122 C  
BRANCH  12  13
HETATM   13  C   UNL     1      -7.800   9.417  68.399  1.00  0.00    -0.090 C  
BRANCH  13  14
HETATM   14  C   UNL     1      -7.088  10.510  67.595  1.00  0.00    -0.084 C  
BRANCH  14  15
HETATM   15  C   UNL     1      -7.893  11.810  67.440  1.00  0.00    -0.155 C  
BRANCH  15  16
HETATM   16  C   UNL     1      -9.019  11.620  66.428  1.00  0.00    -0.198 C  
BRANCH  16  17
HETATM   17  N   UNL     1     -10.403  12.024  66.917  1.00  0.00    -0.211 N  
HETATM   18  C   UNL     1     -11.152  10.814  67.494  1.00  0.00    -0.308 C  
HETATM   19  C   UNL     1     -11.257  12.642  65.819  1.00  0.00    -0.312 C  
BRANCH  17  20
HETATM   20  C   UNL     1     -10.231  13.035  68.092  1.00  0.00    -0.239 C  
BRANCH  20  21
HETATM   21  C   UNL     1     -11.505  13.311  68.950  1.00  0.00    -0.298 C  
BRANCH  21  22
HETATM   22  N   UNL     1     -11.434  14.660  69.504  1.00  0.00    -0.281 NA 
BRANCH  22  23
HETATM   23  C   UNL     1     -11.730  15.823  68.657  1.00  0.00    -0.344 C  
BRANCH  23  24
HETATM   24  C   UNL     1     -10.485  16.583  68.241  1.00  0.00    -0.313 A  
HETATM   25  C   UNL     1     -10.082  17.718  68.954  1.00  0.00    -0.350 A  
HETATM   26  C   UNL     1      -8.332  18.168  67.331  1.00  0.00    -0.239 A  
HETATM   27  C   UNL     1      -8.661  16.988  66.666  1.00  0.00    -0.282 A  
HETATM   28  C   UNL     1      -9.734  16.201  67.117  1.00  0.00    -0.236 A  
HETATM   29  C   UNL     1      -9.025  18.506  68.494  1.00  0.00    -0.348 A  
BRANCH  26  30
HETATM   30  O   UNL     1      -7.418  19.101  66.935  1.00  0.00    -0.214 OA 
HETATM   31  C   UNL     1      -6.859  19.967  67.912  1.00  0.00    -0.271 C  
ENDBRANCH  26  30
ENDBRANCH  23  24
ENDBRANCH  22  23
BRANCH  22  32
HETATM   32  C   UNL     1     -11.859  14.784  70.818  1.00  0.00    -0.312 A  
HETATM   33  N   UNL     1     -11.559  15.911  71.490  1.00  0.00    -0.440 NA 
HETATM   34  N   UNL     1     -12.683  13.847  71.298  1.00  0.00    -0.351 NA 
HETATM   35  C   UNL     1     -13.214  14.053  72.518  1.00  0.00    -0.505 A  
HETATM   36  C   UNL     1     -12.066  16.045  72.739  1.00  0.00    -0.531 A  
HETATM   37  C   UNL     1     -12.925  15.140  73.302  1.00  0.00    -0.645 A  
ENDBRANCH  22  32
ENDBRANCH  21  22
ENDBRANCH  20  21
ENDBRANCH  17  20
ENDBRANCH  16  17
ENDBRANCH  15  16
ENDBRANCH  14  15
ENDBRANCH  13  14
ENDBRANCH  12  13
ENDBRANCH  11  12
ENDBRANCH  10  11
ENDBRANCH   9  10
ENDBRANCH   8   9
ENDBRANCH   7   8
ENDBRANCH   6   7
ENDBRANCH   5   6
ENDBRANCH   4   5
ENDBRANCH   3   4
ENDBRANCH   2   3
TORSDOF 22
ENDMDL
MODEL      114
REMARK 921   NORMALIZED FREE ENERGY PREDICTED BY IDOCK:   -3.70 KCAL/MOL
REMARK 922        TOTAL FREE ENERGY PREDICTED BY IDOCK:  -12.92 KCAL/MOL
REMARK 923 INTER-LIGAND FREE ENERGY PREDICTED BY IDOCK:   -9.84 KCAL/MOL
REMARK 924 INTRA-LIGAND FREE ENERGY PREDICTED BY IDOCK:   -3.08 KCAL/MOL
REMARK 927      BINDING AFFINITY PREDICTED BY RF-SCORE:    0.00 PKD
ROOT
HETATM    1  C   UNL     1     -10.469   5.547  69.671  1.00  0.00    -0.379 C  
HETATM    2  C   UNL     1      -9.257   6.340  70.126  1.00  0.00    -0.162 C  
ENDROOT
BRANCH   2   3
HETATM    3  C   UNL     1      -9.514   7.009  71.472  1.00  0.00    -0.155 C  
BRANCH   3   4
HETATM    4  C   UNL     1     -10.849   6.561  72.053  1.00  0.00    -0.267 C  
BRANCH   4   5
HETATM    5  C   UNL     1     -11.737   7.763  72.349  1.00  0.00    -0.394 C  
BRANCH   5   6
HETATM    6  C   UNL     1     -12.970   7.746  71.459  1.00  0.00    -0.357 C  
BRANCH   6   7
HETATM    7  C   UNL     1     -13.715   9.067  71.564  1.00  0.00    -0.388 C  
BRANCH   7   8
HETATM    8  C   UNL     1     -12.731  10.222  71.665  1.00  0.00    -0.561 C  
BRANCH   8   9
HETATM    9  C   UNL     1     -12.623  10.926  70.323  1.00  0.00    -0.342 C  
BRANCH   9  10
HETATM   10  C   UNL     1     -11.165  11.129  69.945  1.00  0.00    -0.293 C  
BRANCH  10  11
HETATM   11  C   UNL     1     -10.585   9.833  69.400  1.00  0.00    -0.248 C  
BRANCH  11  12
HETATM   12  C   UNL     1     -10.812   9.751  67.897  1.00  0.00    -0.298 C  
BRANCH  12  13
HETATM   13  C   UNL     1     -10.247   8.460  67.329  1.00  0.00    -0.349 C  
BRANCH  13  14
HETATM   14  C   UNL     1      -8.909   8.683  66.616  1.00  0.00    -0.155 C  
BRANCH  14  15
HETATM   15  C   UNL     1      -8.667  10.129  66.158  1.00  0.00    -0.154 C  
BRANCH  15  16
HETATM   16  C   UNL     1      -7.290  10.608  66.609  1.00  0.00    -0.129 C  
BRANCH  16  17
HETATM   17  N   UNL     1      -7.294  11.838  67.505  1.00  0.00    -0.118 N  
HETATM   18  C   UNL     1      -6.024  12.674  67.289  1.00  0.00    -0.072 C  
HETATM   19  C   UNL     1      -7.397  11.488  68.982  1.00  0.00    -0.094 C  
BRANCH  17  20
HETATM   20  C   UNL     1      -8.493  12.744  67.086  1.00  0.00    -0.181 C  
BRANCH  20  21
HETATM   21  C   UNL     1      -8.557  14.150  67.761  1.00  0.00    -0.184 C  
BRANCH  21  22
HETATM   22  N   UNL     1      -9.295  15.069  66.899  1.00  0.00    -0.228 NA 
BRANCH  22  23
HETATM   23  C   UNL     1      -8.574  16.007  66.029  1.00  0.00    -0.157 C  
BRANCH  23  24
HETATM   24  C   UNL     1      -7.963  17.168  66.789  1.00  0.00    -0.271 A  
HETATM   25  C   UNL     1      -6.677  17.621  66.469  1.00  0.00    -0.268 A  
HETATM   26  C   UNL     1      -6.699  19.147  68.358  1.00  0.00    -0.260 A  
HETATM   27  C   UNL     1      -8.014  18.775  68.629  1.00  0.00    -0.369 A  
HETATM   28  C   UNL     1      -8.642  17.789  67.850  1.00  0.00    -0.250 A  
HETATM   29  C   UNL     1      -6.052  18.590  67.255  1.00  0.00    -0.172 A  
BRANCH  26  30
HETATM   30  O   UNL     1      -5.915  19.978  69.105  1.00  0.00    -0.256 OA 
HETATM   31  C   UNL     1      -6.189  20.114  70.492  1.00  0.00    -0.313 C  
ENDBRANCH  26  30
ENDBRANCH  23  24
ENDBRANCH  22  23
BRANCH  22  32
HETATM   32  C   UNL     1     -10.462  14.559  66.351  1.00  0.00    -0.295 A  
HETATM   33  N   UNL     1     -11.480  14.247  67.174  1.00  0.00    -0.341 NA 
HETATM   34  N   UNL     1     -10.574  14.555  65.018  1.00  0.00    -0.413 NA 
HETATM   35  C   UNL     1     -11.765  14.205  64.497  1.00  0.00    -0.413 A  
HETATM   36  C   UNL     1     -12.639  13.840  66.604  1.00  0.00    -0.124 A  
HETATM   37  C   UNL     1     -12.843  13.817  65.250  1.00  0.00    -0.430 A  
ENDBRANCH  22  32
ENDBRANCH  21  22
ENDBRANCH  20  21
ENDBRANCH  17  20
ENDBRANCH  16  17
ENDBRANCH  15  16
ENDBRANCH  14  15
ENDBRANCH  13  14
ENDBRANCH  12  13
ENDBRANCH  11  12
ENDBRANCH  10  11
ENDBRANCH   9  10
ENDBRANCH   8   9
ENDBRANCH   7   8
ENDBRANCH   6   7
ENDBRANCH   5   6
ENDBRANCH   4   5
ENDBRANCH   3   4
ENDBRANCH   2   3
TORSDOF 22
ENDMDL
MODEL      115
REMARK 921   NORMALIZED FREE ENERGY PREDICTED BY IDOCK:   -3.70 KCAL/MOL
REMARK 922        TOTAL FREE ENERGY PREDICTED BY IDOCK:  -12.91 KCAL/MOL
REMARK 923 INTER-LIGAND FREE ENERGY PREDICTED BY IDOCK:  -10.72 KCAL/MOL
REMARK 924 INTRA-LIGAND FREE ENERGY PREDICTED BY IDOCK:   -2.19 KCAL/MOL
REMARK 927      BINDING AFFINITY PREDICTED BY RF-SCORE:    0.00 PKD
ROOT
HETATM    1  C   UNL     1     -12.324  16.110  73.240  1.00  0.00    -0.647 C  
HETATM    2  C   UNL     1     -13.572  15.386  72.767  1.00  0.00    -0.628 C  
ENDROOT
BRANCH   2   3
HETATM    3  C   UNL     1     -13.592  15.265  71.247  1.00  0.00    -0.584 C  
BRANCH   3   4
HETATM    4  C   UNL     1     -12.619  14.192  70.777  1.00  0.00    -0.432 C  
BRANCH   4   5
HETATM    5  C   UNL     1     -11.883  14.645  69.523  1.00  0.00    -0.374 C  
BRANCH   5   6
HETATM    6  C   UNL     1     -12.035  13.613  68.415  1.00  0.00    -0.391 C  
BRANCH   6   7
HETATM    7  C   UNL     1     -11.996  14.291  67.054  1.00  0.00    -0.463 C  
BRANCH   7   8
HETATM    8  C   UNL     1     -10.773  13.838  66.273  1.00  0.00    -0.285 C  
BRANCH   8   9
HETATM    9  C   UNL     1     -10.846  14.366  64.850  1.00  0.00    -0.430 C  
BRANCH   9  10
HETATM   10  C   UNL     1     -11.891  13.606  64.053  1.00  0.00    -0.444 C  
BRANCH  10  11
HETATM   11  C   UNL     1     -11.656  12.109  64.181  1.00  0.00    -0.467 C  
BRANCH  11  12
HETATM   12  C   UNL     1     -10.512  11.681  63.273  1.00  0.00    -0.438 C  
BRANCH  12  13
HETATM   13  C   UNL     1      -9.416  10.988  64.066  1.00  0.00    -0.278 C  
BRANCH  13  14
HETATM   14  C   UNL     1      -9.983   9.972  65.064  1.00  0.00    -0.320 C  
BRANCH  14  15
HETATM   15  C   UNL     1      -8.988   8.882  65.494  1.00  0.00    -0.246 C  
BRANCH  15  16
HETATM   16  C   UNL     1      -9.576   8.041  66.623  1.00  0.00    -0.230 C  
BRANCH  16  17
HETATM   17  N   UNL     1      -8.882   8.191  67.970  1.00  0.00    -0.132 N  
HETATM   18  C   UNL     1      -7.761   9.236  67.892  1.00  0.00    -0.088 C  
HETATM   19  C   UNL     1      -8.290   6.883  68.474  1.00  0.00    -0.121 C  
BRANCH  17  20
HETATM   20  C   UNL     1      -9.922   8.737  68.997  1.00  0.00    -0.191 C  
BRANCH  20  21
HETATM   21  C   UNL     1      -9.370   9.069  70.419  1.00  0.00    -0.208 C  
BRANCH  21  22
HETATM   22  N   UNL     1     -10.181   8.389  71.424  1.00  0.00    -0.206 NA 
BRANCH  22  23
HETATM   23  C   UNL     1      -9.623   8.101  72.752  1.00  0.00    -0.283 C  
BRANCH  23  24
HETATM   24  C   UNL     1      -9.251   6.643  72.935  1.00  0.00    -0.147 A  
HETATM   25  C   UNL     1      -8.615   6.220  74.108  1.00  0.00    -0.126 A  
HETATM   26  C   UNL     1      -8.306   3.993  73.189  1.00  0.00    -0.089 A  
HETATM   27  C   UNL     1      -9.021   4.375  72.055  1.00  0.00    -0.147 A  
HETATM   28  C   UNL     1      -9.489   5.693  71.928  1.00  0.00    -0.171 A  
HETATM   29  C   UNL     1      -8.139   4.913  74.225  1.00  0.00    -0.100 A  
BRANCH  26  30
HETATM   30  O   UNL     1      -7.673   2.802  73.392  1.00  0.00    -0.049 OA 
HETATM   31  C   UNL     1      -7.827   1.772  72.427  1.00  0.00    -0.045 C  
ENDBRANCH  26  30
ENDBRANCH  23  24
ENDBRANCH  22  23
BRANCH  22  32
HETATM   32  C   UNL     1     -11.526   8.724  71.427  1.00  0.00    -0.297 A  
HETATM   33  N   UNL     1     -12.435   7.749  71.614  1.00  0.00    -0.316 NA 
HETATM   34  N   UNL     1     -11.845  10.023  71.404  1.00  0.00    -0.377 NA 
HETATM   35  C   UNL     1     -13.142  10.347  71.563  1.00  0.00    -0.431 A  
HETATM   36  C   UNL     1     -13.735   8.118  71.707  1.00  0.00    -0.374 A  
HETATM   37  C   UNL     1     -14.146   9.424  71.704  1.00  0.00    -0.163 A  
ENDBRANCH  22  32
ENDBRANCH  21  22
ENDBRANCH  20  21
ENDBRANCH  17  20
ENDBRANCH  16  17
ENDBRANCH  15  16
ENDBRANCH  14  15
ENDBRANCH  13  14
ENDBRANCH  12  13
ENDBRANCH  11  12
ENDBRANCH  10  11
ENDBRANCH   9  10
ENDBRANCH   8   9
ENDBRANCH   7   8
ENDBRANCH   6   7
ENDBRANCH   5   6
ENDBRANCH   4   5
ENDBRANCH   3   4
ENDBRANCH   2   3
TORSDOF 22
ENDMDL
MODEL      116
REMARK 921   NORMALIZED FREE ENERGY PREDICTED BY IDOCK:   -3.70 KCAL/MOL
REMARK 922        TOTAL FREE ENERGY PREDICTED BY IDOCK:  -12.91 KCAL/MOL
REMARK 923 INTER-LIGAND FREE ENERGY PREDICTED BY IDOCK:   -9.50 KCAL/MOL
REMARK 924 INTRA-LIGAND FREE ENERGY PREDICTED BY IDOCK:   -3.40 KCAL/MOL
REMARK 927      BINDING AFFINITY PREDICTED BY RF-SCORE:    0.00 PKD
ROOT
HETATM    1  C   UNL     1     -10.883  19.376  65.763  1.00  0.00    -0.375 C  
HETATM    2  C   UNL     1      -9.418  19.754  65.885  1.00  0.00    -0.277 C  
ENDROOT
BRANCH   2   3
HETATM    3  C   UNL     1      -9.143  20.459  67.209  1.00  0.00    -0.500 C  
BRANCH   3   4
HETATM    4  C   UNL     1      -9.564  19.586  68.384  1.00  0.00    -0.473 C  
BRANCH   4   5
HETATM    5  C   UNL     1      -8.370  19.272  69.277  1.00  0.00    -0.051 C  
BRANCH   5   6
HETATM    6  C   UNL     1      -7.088  19.810  68.659  1.00  0.00    -0.366 C  
BRANCH   6   7
HETATM    7  C   UNL     1      -5.877  19.249  69.385  1.00  0.00    -0.276 C  
BRANCH   7   8
HETATM    8  C   UNL     1      -5.148  18.248  68.504  1.00  0.00    -0.165 C  
BRANCH   8   9
HETATM    9  C   UNL     1      -5.467  18.518  67.044  1.00  0.00    -0.141 C  
BRANCH   9  10
HETATM   10  C   UNL     1      -5.953  17.251  66.362  1.00  0.00    -0.228 C  
BRANCH  10  11
HETATM   11  C   UNL     1      -6.095  16.133  67.383  1.00  0.00    -0.187 C  
BRANCH  11  12
HETATM   12  C   UNL     1      -7.402  15.385  67.161  1.00  0.00    -0.203 C  
BRANCH  12  13
HETATM   13  C   UNL     1      -8.573  16.348  67.068  1.00  0.00    -0.223 C  
BRANCH  13  14
HETATM   14  C   UNL     1      -9.578  15.929  65.989  1.00  0.00    -0.385 C  
BRANCH  14  15
HETATM   15  C   UNL     1     -10.865  15.291  66.534  1.00  0.00    -0.311 C  
BRANCH  15  16
HETATM   16  C   UNL     1     -10.584  13.884  67.053  1.00  0.00    -0.279 C  
BRANCH  16  17
HETATM   17  N   UNL     1     -11.415  12.781  66.414  1.00  0.00    -0.337 N  
HETATM   18  C   UNL     1     -10.576  11.977  65.411  1.00  0.00    -0.278 C  
HETATM   19  C   UNL     1     -12.646  13.313  65.696  1.00  0.00    -0.406 C  
BRANCH  17  20
HETATM   20  C   UNL     1     -11.841  11.780  67.533  1.00  0.00    -0.154 C  
BRANCH  20  21
HETATM   21  C   UNL     1     -11.080  11.906  68.890  1.00  0.00    -0.247 C  
BRANCH  21  22
HETATM   22  N   UNL     1     -10.773  10.572  69.399  1.00  0.00    -0.226 NA 
BRANCH  22  23
HETATM   23  C   UNL     1      -9.392  10.073  69.374  1.00  0.00    -0.223 C  
BRANCH  23  24
HETATM   24  C   UNL     1      -8.937   9.659  67.988  1.00  0.00    -0.122 A  
HETATM   25  C   UNL     1      -7.900  10.352  67.351  1.00  0.00    -0.103 A  
HETATM   26  C   UNL     1      -8.252   9.085  65.309  1.00  0.00    -0.137 A  
HETATM   27  C   UNL     1      -9.220   8.324  65.961  1.00  0.00    -0.226 A  
HETATM   28  C   UNL     1      -9.562   8.611  67.293  1.00  0.00    -0.216 A  
HETATM   29  C   UNL     1      -7.573  10.073  66.023  1.00  0.00    -0.111 A  
BRANCH  26  30
HETATM   30  O   UNL     1      -7.915   9.020  63.988  1.00  0.00    -0.129 OA 
HETATM   31  C   UNL     1      -7.645  10.228  63.292  1.00  0.00    -0.124 C  
ENDBRANCH  26  30
ENDBRANCH  23  24
ENDBRANCH  22  23
BRANCH  22  32
HETATM   32  C   UNL     1     -11.506  10.177  70.506  1.00  0.00    -0.337 A  
HETATM   33  N   UNL     1     -12.799  10.540  70.589  1.00  0.00    -0.358 NA 
HETATM   34  N   UNL     1     -10.934   9.319  71.358  1.00  0.00    -0.335 NA 
HETATM   35  C   UNL     1     -11.702   8.819  72.345  1.00  0.00    -0.267 A  
HETATM   36  C   UNL     1     -13.516  10.062  71.634  1.00  0.00    -0.309 A  
HETATM   37  C   UNL     1     -13.013   9.172  72.544  1.00  0.00    -0.416 A  
ENDBRANCH  22  32
ENDBRANCH  21  22
ENDBRANCH  20  21
ENDBRANCH  17  20
ENDBRANCH  16  17
ENDBRANCH  15  16
ENDBRANCH  14  15
ENDBRANCH  13  14
ENDBRANCH  12  13
ENDBRANCH  11  12
ENDBRANCH  10  11
ENDBRANCH   9  10
ENDBRANCH   8   9
ENDBRANCH   7   8
ENDBRANCH   6   7
ENDBRANCH   5   6
ENDBRANCH   4   5
ENDBRANCH   3   4
ENDBRANCH   2   3
TORSDOF 22
ENDMDL
MODEL      117
REMARK 921   NORMALIZED FREE ENERGY PREDICTED BY IDOCK:   -3.69 KCAL/MOL
REMARK 922        TOTAL FREE ENERGY PREDICTED BY IDOCK:  -12.89 KCAL/MOL
REMARK 923 INTER-LIGAND FREE ENERGY PREDICTED BY IDOCK:   -8.88 KCAL/MOL
REMARK 924 INTRA-LIGAND FREE ENERGY PREDICTED BY IDOCK:   -4.00 KCAL/MOL
REMARK 927      BINDING AFFINITY PREDICTED BY RF-SCORE:    0.00 PKD
ROOT
HETATM    1  C   UNL     1      -9.410  15.434  68.575  1.00  0.00    -0.198 C  
HETATM    2  C   UNL     1     -10.622  15.453  67.660  1.00  0.00    -0.280 C  
ENDROOT
BRANCH   2   3
HETATM    3  C   UNL     1     -10.297  16.138  66.337  1.00  0.00    -0.321 C  
BRANCH   3   4
HETATM    4  C   UNL     1     -10.330  15.138  65.188  1.00  0.00    -0.416 C  
BRANCH   4   5
HETATM    5  C   UNL     1     -11.695  15.142  64.511  1.00  0.00    -0.331 C  
BRANCH   5   6
HETATM    6  C   UNL     1     -12.102  13.726  64.128  1.00  0.00    -0.478 C  
BRANCH   6   7
HETATM    7  C   UNL     1     -12.398  12.908  65.375  1.00  0.00    -0.538 C  
BRANCH   7   8
HETATM    8  C   UNL     1     -11.376  11.793  65.530  1.00  0.00    -0.283 C  
BRANCH   8   9
HETATM    9  C   UNL     1     -10.933  11.698  66.980  1.00  0.00    -0.338 C  
BRANCH   9  10
HETATM   10  C   UNL     1      -9.418  11.623  67.071  1.00  0.00    -0.191 C  
BRANCH  10  11
HETATM   11  C   UNL     1      -8.990  11.494  68.524  1.00  0.00    -0.146 C  
BRANCH  11  12
HETATM   12  C   UNL     1      -7.995  10.353  68.676  1.00  0.00    -0.115 C  
BRANCH  12  13
HETATM   13  C   UNL     1      -7.768  10.016  70.140  1.00  0.00    -0.158 C  
BRANCH  13  14
HETATM   14  C   UNL     1      -6.766   8.870  70.318  1.00  0.00    -0.043 C  
BRANCH  14  15
HETATM   15  C   UNL     1      -6.646   8.350  71.759  1.00  0.00    -0.070 C  
BRANCH  15  16
HETATM   16  C   UNL     1      -8.000   7.859  72.262  1.00  0.00    -0.121 C  
BRANCH  16  17
HETATM   17  N   UNL     1      -8.051   6.388  72.652  1.00  0.00    -0.105 N  
HETATM   18  C   UNL     1      -8.430   6.229  74.131  1.00  0.00    -0.117 C  
HETATM   19  C   UNL     1      -6.732   5.671  72.411  1.00  0.00    -0.071 C  
BRANCH  17  20
HETATM   20  C   UNL     1      -9.189   5.704  71.831  1.00  0.00    -0.145 C  
BRANCH  20  21
HETATM   21  C   UNL     1     -10.610   6.332  71.977  1.00  0.00    -0.217 C  
BRANCH  21  22
HETATM   22  N   UNL     1     -10.869   7.214  70.843  1.00  0.00    -0.239 NA 
BRANCH  22  23
HETATM   23  C   UNL     1     -11.182   6.650  69.524  1.00  0.00    -0.326 C  
BRANCH  23  24
HETATM   24  C   UNL     1     -10.197   7.072  68.451  1.00  0.00    -0.196 A  
HETATM   25  C   UNL     1     -10.593   7.954  67.439  1.00  0.00    -0.342 A  
HETATM   26  C   UNL     1      -8.470   7.663  66.296  1.00  0.00    -0.139 A  
HETATM   27  C   UNL     1      -8.028   6.860  67.345  1.00  0.00    -0.112 A  
HETATM   28  C   UNL     1      -8.888   6.563  68.415  1.00  0.00    -0.123 A  
HETATM   29  C   UNL     1      -9.741   8.235  66.370  1.00  0.00    -0.300 A  
BRANCH  26  30
HETATM   30  O   UNL     1      -7.808   7.922  65.131  1.00  0.00    -0.099 OA 
HETATM   31  C   UNL     1      -7.088   9.141  65.010  1.00  0.00    -0.092 C  
ENDBRANCH  26  30
ENDBRANCH  23  24
ENDBRANCH  22  23
BRANCH  22  32
HETATM   32  C   UNL     1     -11.553   8.381  71.144  1.00  0.00    -0.279 A  
HETATM   33  N   UNL     1     -11.266   9.497  70.449  1.00  0.00    -0.257 NA 
HETATM   34  N   UNL     1     -12.578   8.300  72.001  1.00  0.00    -0.336 NA 
HETATM   35  C   UNL     1     -13.334   9.401  72.171  1.00  0.00    -0.468 A  
HETATM   36  C   UNL     1     -12.015  10.598  70.700  1.00  0.00    -0.367 A  
HETATM   37  C   UNL     1     -13.086  10.599  71.551  1.00  0.00    -0.527 A  
ENDBRANCH  22  32
ENDBRANCH  21  22
ENDBRANCH  20  21
ENDBRANCH  17  20
ENDBRANCH  16  17
ENDBRANCH  15  16
ENDBRANCH  14  15
ENDBRANCH  13  14
ENDBRANCH  12  13
ENDBRANCH  11  12
ENDBRANCH  10  11
ENDBRANCH   9  10
ENDBRANCH   8   9
ENDBRANCH   7   8
ENDBRANCH   6   7
ENDBRANCH   5   6
ENDBRANCH   4   5
ENDBRANCH   3   4
ENDBRANCH   2   3
TORSDOF 22
ENDMDL
MODEL      118
REMARK 921   NORMALIZED FREE ENERGY PREDICTED BY IDOCK:   -3.67 KCAL/MOL
REMARK 922        TOTAL FREE ENERGY PREDICTED BY IDOCK:  -12.84 KCAL/MOL
REMARK 923 INTER-LIGAND FREE ENERGY PREDICTED BY IDOCK:   -8.83 KCAL/MOL
REMARK 924 INTRA-LIGAND FREE ENERGY PREDICTED BY IDOCK:   -4.01 KCAL/MOL
REMARK 927      BINDING AFFINITY PREDICTED BY RF-SCORE:    0.00 PKD
ROOT
HETATM    1  C   UNL     1     -11.600  14.620  68.007  1.00  0.00    -0.366 C  
HETATM    2  C   UNL     1     -11.274  14.625  66.524  1.00  0.00    -0.346 C  
ENDROOT
BRANCH   2   3
HETATM    3  C   UNL     1     -12.481  14.195  65.697  1.00  0.00    -0.490 C  
BRANCH   3   4
HETATM    4  C   UNL     1     -12.054  13.769  64.298  1.00  0.00    -0.481 C  
BRANCH   4   5
HETATM    5  C   UNL     1     -12.460  12.325  64.029  1.00  0.00    -0.556 C  
BRANCH   5   6
HETATM    6  C   UNL     1     -11.245  11.495  63.643  1.00  0.00    -0.451 C  
BRANCH   6   7
HETATM    7  C   UNL     1      -9.984  12.093  64.245  1.00  0.00    -0.262 C  
BRANCH   7   8
HETATM    8  C   UNL     1      -9.785  11.589  65.665  1.00  0.00    -0.261 C  
BRANCH   8   9
HETATM    9  C   UNL     1     -10.095  10.104  65.733  1.00  0.00    -0.324 C  
BRANCH   9  10
HETATM   10  C   UNL     1     -10.845   9.775  67.013  1.00  0.00    -0.165 C  
BRANCH  10  11
HETATM   11  C   UNL     1     -11.231  11.057  67.733  1.00  0.00    -0.374 C  
BRANCH  11  12
HETATM   12  C   UNL     1     -10.698  11.037  69.159  1.00  0.00    -0.274 C  
BRANCH  12  13
HETATM   13  C   UNL     1     -11.734  11.563  70.138  1.00  0.00    -0.395 C  
BRANCH  13  14
HETATM   14  C   UNL     1     -12.884  10.572  70.345  1.00  0.00    -0.274 C  
BRANCH  14  15
HETATM   15  C   UNL     1     -12.860   9.848  71.700  1.00  0.00    -0.537 C  
BRANCH  15  16
HETATM   16  C   UNL     1     -11.706   8.852  71.752  1.00  0.00    -0.362 C  
BRANCH  16  17
HETATM   17  N   UNL     1     -12.099   7.394  71.556  1.00  0.00    -0.311 N  
HETATM   18  C   UNL     1     -13.626   7.238  71.547  1.00  0.00    -0.356 C  
HETATM   19  C   UNL     1     -11.526   6.482  72.630  1.00  0.00    -0.186 C  
BRANCH  17  20
HETATM   20  C   UNL     1     -11.603   6.939  70.148  1.00  0.00    -0.289 C  
BRANCH  20  21
HETATM   21  C   UNL     1     -10.754   5.630  70.112  1.00  0.00    -0.305 C  
BRANCH  21  22
HETATM   22  N   UNL     1      -9.344   5.971  69.940  1.00  0.00    -0.147 NA 
BRANCH  22  23
HETATM   23  C   UNL     1      -8.941   7.370  69.746  1.00  0.00    -0.141 C  
BRANCH  23  24
HETATM   24  C   UNL     1      -8.351   7.630  68.374  1.00  0.00    -0.125 A  
HETATM   25  C   UNL     1      -8.702   6.816  67.290  1.00  0.00    -0.119 A  
HETATM   26  C   UNL     1      -7.067   7.922  65.875  1.00  0.00    -0.061 A  
HETATM   27  C   UNL     1      -6.777   8.801  66.917  1.00  0.00    -0.069 A  
HETATM   28  C   UNL     1      -7.413   8.654  68.160  1.00  0.00    -0.096 A  
HETATM   29  C   UNL     1      -8.056   6.956  66.060  1.00  0.00    -0.119 A  
BRANCH  26  30
HETATM   30  O   UNL     1      -6.434   7.850  64.668  1.00  0.00    -0.048 OA 
HETATM   31  C   UNL     1      -6.834   8.737  63.633  1.00  0.00    -0.088 C  
ENDBRANCH  26  30
ENDBRANCH  23  24
ENDBRANCH  22  23
BRANCH  22  32
HETATM   32  C   UNL     1      -8.456   5.217  70.691  1.00  0.00    -0.116 A  
HETATM   33  N   UNL     1      -7.579   5.855  71.487  1.00  0.00    -0.097 NA 
HETATM   34  N   UNL     1      -8.623   3.890  70.706  1.00  0.00    -0.070 NA 
HETATM   35  C   UNL     1      -7.858   3.178  71.555  1.00  0.00    -0.056 A  
HETATM   36  C   UNL     1      -6.787   5.093  72.279  1.00  0.00    -0.073 A  
HETATM   37  C   UNL     1      -6.899   3.731  72.364  1.00  0.00    -0.041 A  
ENDBRANCH  22  32
ENDBRANCH  21  22
ENDBRANCH  20  21
ENDBRANCH  17  20
ENDBRANCH  16  17
ENDBRANCH  15  16
ENDBRANCH  14  15
ENDBRANCH  13  14
ENDBRANCH  12  13
ENDBRANCH  11  12
ENDBRANCH  10  11
ENDBRANCH   9  10
ENDBRANCH   8   9
ENDBRANCH   7   8
ENDBRANCH   6   7
ENDBRANCH   5   6
ENDBRANCH   4   5
ENDBRANCH   3   4
ENDBRANCH   2   3
TORSDOF 22
ENDMDL
MODEL      119
REMARK 921   NORMALIZED FREE ENERGY PREDICTED BY IDOCK:   -3.67 KCAL/MOL
REMARK 922        TOTAL FREE ENERGY PREDICTED BY IDOCK:  -12.84 KCAL/MOL
REMARK 923 INTER-LIGAND FREE ENERGY PREDICTED BY IDOCK:   -9.67 KCAL/MOL
REMARK 924 INTRA-LIGAND FREE ENERGY PREDICTED BY IDOCK:   -3.17 KCAL/MOL
REMARK 927      BINDING AFFINITY PREDICTED BY RF-SCORE:    0.00 PKD
ROOT
HETATM    1  C   UNL     1     -11.608   8.096  72.728  1.00  0.00    -0.371 C  
HETATM    2  C   UNL     1     -12.790   8.919  72.246  1.00  0.00    -0.475 C  
ENDROOT
BRANCH   2   3
HETATM    3  C   UNL     1     -12.578   9.394  70.813  1.00  0.00    -0.109 C  
BRANCH   3   4
HETATM    4  C   UNL     1     -12.136  10.851  70.785  1.00  0.00    -0.469 C  
BRANCH   4   5
HETATM    5  C   UNL     1     -13.007  11.695  71.707  1.00  0.00    -0.483 C  
BRANCH   5   6
HETATM    6  C   UNL     1     -12.849  13.173  71.382  1.00  0.00    -0.401 C  
BRANCH   6   7
HETATM    7  C   UNL     1     -12.249  13.347  69.996  1.00  0.00    -0.367 C  
BRANCH   7   8
HETATM    8  C   UNL     1     -12.003  14.819  69.707  1.00  0.00    -0.368 C  
BRANCH   8   9
HETATM    9  C   UNL     1     -11.748  15.017  68.222  1.00  0.00    -0.338 C  
BRANCH   9  10
HETATM   10  C   UNL     1     -11.736  13.680  67.501  1.00  0.00    -0.406 C  
BRANCH  10  11
HETATM   11  C   UNL     1     -12.472  13.798  66.175  1.00  0.00    -0.466 C  
BRANCH  11  12
HETATM   12  C   UNL     1     -11.474  13.844  65.027  1.00  0.00    -0.343 C  
BRANCH  12  13
HETATM   13  C   UNL     1     -12.035  13.167  63.788  1.00  0.00    -0.572 C  
BRANCH  13  14
HETATM   14  C   UNL     1     -11.546  11.720  63.653  1.00  0.00    -0.521 C  
BRANCH  14  15
HETATM   15  C   UNL     1     -10.100  11.493  64.120  1.00  0.00    -0.354 C  
BRANCH  15  16
HETATM   16  C   UNL     1      -9.957  10.115  64.760  1.00  0.00    -0.264 C  
BRANCH  16  17
HETATM   17  N   UNL     1      -9.139  10.079  66.043  1.00  0.00    -0.150 N  
HETATM   18  C   UNL     1      -9.955  10.619  67.226  1.00  0.00    -0.188 C  
HETATM   19  C   UNL     1      -7.850  10.879  65.940  1.00  0.00    -0.090 C  
BRANCH  17  20
HETATM   20  C   UNL     1      -8.817   8.589  66.375  1.00  0.00    -0.150 C  
BRANCH  20  21
HETATM   21  C   UNL     1     -10.048   7.664  66.634  1.00  0.00    -0.208 C  
BRANCH  21  22
HETATM   22  N   UNL     1      -9.686   6.635  67.604  1.00  0.00    -0.122 NA 
BRANCH  22  23
HETATM   23  C   UNL     1     -10.328   6.605  68.924  1.00  0.00    -0.193 C  
BRANCH  23  24
HETATM   24  C   UNL     1      -9.445   7.162  70.024  1.00  0.00    -0.164 A  
HETATM   25  C   UNL     1      -8.955   6.319  71.029  1.00  0.00    -0.143 A  
HETATM   26  C   UNL     1      -8.025   8.216  72.226  1.00  0.00    -0.135 A  
HETATM   27  C   UNL     1      -8.423   9.053  71.186  1.00  0.00    -0.234 A  
HETATM   28  C   UNL     1      -9.131   8.530  70.092  1.00  0.00    -0.154 A  
HETATM   29  C   UNL     1      -8.264   6.845  72.121  1.00  0.00    -0.105 A  
BRANCH  26  30
HETATM   30  O   UNL     1      -7.460   8.595  73.409  1.00  0.00    -0.357 OA 
HETATM   31  C   UNL     1      -7.348   7.637  74.451  1.00  0.00    -0.131 C  
ENDBRANCH  26  30
ENDBRANCH  23  24
ENDBRANCH  22  23
BRANCH  22  32
HETATM   32  C   UNL     1      -9.416   5.385  67.069  1.00  0.00    -0.132 A  
HETATM   33  N   UNL     1      -8.978   4.412  67.889  1.00  0.00    -0.113 NA 
HETATM   34  N   UNL     1      -9.759   5.165  65.795  1.00  0.00    -0.139 NA 
HETATM   35  C   UNL     1      -9.638   3.908  65.328  1.00  0.00    -0.185 A  
HETATM   36  C   UNL     1      -8.813   3.176  67.358  1.00  0.00    -0.137 A  
HETATM   37  C   UNL     1      -9.149   2.863  66.069  1.00  0.00    -0.133 A  
ENDBRANCH  22  32
ENDBRANCH  21  22
ENDBRANCH  20  21
ENDBRANCH  17  20
ENDBRANCH  16  17
ENDBRANCH  15  16
ENDBRANCH  14  15
ENDBRANCH  13  14
ENDBRANCH  12  13
ENDBRANCH  11  12
ENDBRANCH  10  11
ENDBRANCH   9  10
ENDBRANCH   8   9
ENDBRANCH   7   8
ENDBRANCH   6   7
ENDBRANCH   5   6
ENDBRANCH   4   5
ENDBRANCH   3   4
ENDBRANCH   2   3
TORSDOF 22
ENDMDL
MODEL      120
REMARK 921   NORMALIZED FREE ENERGY PREDICTED BY IDOCK:   -3.64 KCAL/MOL
REMARK 922        TOTAL FREE ENERGY PREDICTED BY IDOCK:  -12.78 KCAL/MOL
REMARK 923 INTER-LIGAND FREE ENERGY PREDICTED BY IDOCK:  -10.90 KCAL/MOL
REMARK 924 INTRA-LIGAND FREE ENERGY PREDICTED BY IDOCK:   -1.88 KCAL/MOL
REMARK 927      BINDING AFFINITY PREDICTED BY RF-SCORE:    0.00 PKD
ROOT
HETATM    1  C   UNL     1      -8.760   4.029  63.430  1.00  0.00    -0.107 C  
HETATM    2  C   UNL     1      -7.931   4.768  64.464  1.00  0.00    -0.100 C  
ENDROOT
BRANCH   2   3
HETATM    3  C   UNL     1      -7.191   3.792  65.372  1.00  0.00    -0.067 C  
BRANCH   3   4
HETATM    4  C   UNL     1      -8.032   2.547  65.627  1.00  0.00    -0.082 C  
BRANCH   4   5
HETATM    5  C   UNL     1      -8.134   2.263  67.120  1.00  0.00    -0.072 C  
BRANCH   5   6
HETATM    6  C   UNL     1      -9.358   2.948  67.709  1.00  0.00    -0.247 C  
BRANCH   6   7
HETATM    7  C   UNL     1      -8.939   4.124  68.577  1.00  0.00    -0.159 C  
BRANCH   7   8
HETATM    8  C   UNL     1      -9.993   4.403  69.635  1.00  0.00    -0.209 C  
BRANCH   8   9
HETATM    9  C   UNL     1     -10.658   5.741  69.360  1.00  0.00    -0.383 C  
BRANCH   9  10
HETATM   10  C   UNL     1      -9.799   6.581  68.430  1.00  0.00    -0.137 C  
BRANCH  10  11
HETATM   11  C   UNL     1     -10.648   7.131  67.294  1.00  0.00    -0.398 C  
BRANCH  11  12
HETATM   12  C   UNL     1     -10.451   8.635  67.176  1.00  0.00    -0.360 C  
BRANCH  12  13
HETATM   13  C   UNL     1      -9.518   8.976  66.026  1.00  0.00    -0.323 C  
BRANCH  13  14
HETATM   14  C   UNL     1      -9.856  10.331  65.394  1.00  0.00    -0.362 C  
BRANCH  14  15
HETATM   15  C   UNL     1     -10.101  11.460  66.406  1.00  0.00    -0.255 C  
BRANCH  15  16
HETATM   16  C   UNL     1     -10.141  12.811  65.698  1.00  0.00    -0.270 C  
BRANCH  16  17
HETATM   17  N   UNL     1     -11.445  13.582  65.848  1.00  0.00    -0.313 N  
HETATM   18  C   UNL     1     -12.600  12.841  65.160  1.00  0.00    -0.444 C  
HETATM   19  C   UNL     1     -11.365  14.989  65.275  1.00  0.00    -0.349 C  
BRANCH  17  20
HETATM   20  C   UNL     1     -11.805  13.643  67.365  1.00  0.00    -0.393 C  
BRANCH  20  21
HETATM   21  C   UNL     1     -11.760  15.058  68.023  1.00  0.00    -0.298 C  
BRANCH  21  22
HETATM   22  N   UNL     1     -11.105  14.967  69.324  1.00  0.00    -0.258 NA 
BRANCH  22  23
HETATM   23  C   UNL     1      -9.733  15.464  69.496  1.00  0.00    -0.257 C  
BRANCH  23  24
HETATM   24  C   UNL     1      -9.312  16.430  68.405  1.00  0.00    -0.217 A  
HETATM   25  C   UNL     1      -8.480  15.998  67.365  1.00  0.00    -0.187 A  
HETATM   26  C   UNL     1      -8.298  18.265  66.513  1.00  0.00    -0.266 A  
HETATM   27  C   UNL     1      -9.202  18.690  67.485  1.00  0.00    -0.295 A  
HETATM   28  C   UNL     1      -9.704  17.778  68.427  1.00  0.00    -0.333 A  
HETATM   29  C   UNL     1      -7.972  16.911  66.439  1.00  0.00    -0.352 A  
BRANCH  26  30
HETATM   30  O   UNL     1      -7.621  19.052  65.627  1.00  0.00    -0.474 OA 
HETATM   31  C   UNL     1      -6.279  18.719  65.305  1.00  0.00    -0.285 C  
ENDBRANCH  26  30
ENDBRANCH  23  24
ENDBRANCH  22  23
BRANCH  22  32
HETATM   32  C   UNL     1     -11.929  15.170  70.419  1.00  0.00    -0.320 A  
HETATM   33  N   UNL     1     -12.976  14.344  70.601  1.00  0.00    -0.339 NA 
HETATM   34  N   UNL     1     -11.549  16.075  71.327  1.00  0.00    -0.437 NA 
HETATM   35  C   UNL     1     -12.269  16.158  72.461  1.00  0.00    -0.520 A  
HETATM   36  C   UNL     1     -13.710  14.507  71.729  1.00  0.00    -0.418 A  
HETATM   37  C   UNL     1     -13.384  15.400  72.713  1.00  0.00    -0.617 A  
ENDBRANCH  22  32
ENDBRANCH  21  22
ENDBRANCH  20  21
ENDBRANCH  17  20
ENDBRANCH  16  17
ENDBRANCH  15  16
ENDBRANCH  14  15
ENDBRANCH  13  14
ENDBRANCH  12  13
ENDBRANCH  11  12
ENDBRANCH  10  11
ENDBRANCH   9  10
ENDBRANCH   8   9
ENDBRANCH   7   8
ENDBRANCH   6   7
ENDBRANCH   5   6
ENDBRANCH   4   5
ENDBRANCH   3   4
ENDBRANCH   2   3
TORSDOF 22
ENDMDL
MODEL      121
REMARK 921   NORMALIZED FREE ENERGY PREDICTED BY IDOCK:   -3.64 KCAL/MOL
REMARK 922        TOTAL FREE ENERGY PREDICTED BY IDOCK:  -12.77 KCAL/MOL
REMARK 923 INTER-LIGAND FREE ENERGY PREDICTED BY IDOCK:  -10.56 KCAL/MOL
REMARK 924 INTRA-LIGAND FREE ENERGY PREDICTED BY IDOCK:   -2.21 KCAL/MOL
REMARK 927      BINDING AFFINITY PREDICTED BY RF-SCORE:    0.00 PKD
ROOT
HETATM    1  C   UNL     1     -11.175   6.485  68.567  1.00  0.00    -0.287 C  
HETATM    2  C   UNL     1      -9.715   6.084  68.457  1.00  0.00    -0.142 C  
ENDROOT
BRANCH   2   3
HETATM    3  C   UNL     1      -9.168   5.632  69.807  1.00  0.00    -0.165 C  
BRANCH   3   4
HETATM    4  C   UNL     1      -8.535   6.800  70.552  1.00  0.00    -0.138 C  
BRANCH   4   5
HETATM    5  C   UNL     1      -9.428   7.252  71.701  1.00  0.00    -0.161 C  
BRANCH   5   6
HETATM    6  C   UNL     1      -9.619   8.761  71.663  1.00  0.00    -0.363 C  
BRANCH   6   7
HETATM    7  C   UNL     1      -8.918   9.351  70.450  1.00  0.00    -0.294 C  
BRANCH   7   8
HETATM    8  C   UNL     1      -9.891  10.181  69.628  1.00  0.00    -0.254 C  
BRANCH   8   9
HETATM    9  C   UNL     1     -11.316   9.878  70.057  1.00  0.00    -0.303 C  
BRANCH   9  10
HETATM   10  C   UNL     1     -12.092  11.167  70.271  1.00  0.00    -0.462 C  
BRANCH  10  11
HETATM   11  C   UNL     1     -12.995  11.033  71.488  1.00  0.00    -0.553 C  
BRANCH  11  12
HETATM   12  C   UNL     1     -12.955  12.313  72.311  1.00  0.00    -0.136 C  
BRANCH  12  13
HETATM   13  C   UNL     1     -14.001  13.305  71.829  1.00  0.00    -0.042 C  
BRANCH  13  14
HETATM   14  C   UNL     1     -13.388  14.413  70.966  1.00  0.00    -0.359 C  
BRANCH  14  15
HETATM   15  C   UNL     1     -11.919  14.730  71.290  1.00  0.00    -0.404 C  
BRANCH  15  16
HETATM   16  C   UNL     1     -11.535  16.099  70.737  1.00  0.00    -0.378 C  
BRANCH  16  17
HETATM   17  N   UNL     1     -10.518  16.077  69.605  1.00  0.00    -0.280 N  
HETATM   18  C   UNL     1      -9.369  15.110  69.923  1.00  0.00     0.099 C  
HETATM   19  C   UNL     1      -9.928  17.450  69.319  1.00  0.00    -0.116 C  
BRANCH  17  20
HETATM   20  C   UNL     1     -11.219  15.521  68.327  1.00  0.00    -0.343 C  
BRANCH  20  21
HETATM   21  C   UNL     1     -10.306  15.316  67.079  1.00  0.00    -0.277 C  
BRANCH  21  22
HETATM   22  N   UNL     1     -11.097  15.491  65.864  1.00  0.00    -0.261 NA 
BRANCH  22  23
HETATM   23  C   UNL     1     -10.941  16.703  65.050  1.00  0.00    -0.162 C  
BRANCH  23  24
HETATM   24  C   UNL     1     -10.071  17.753  65.712  1.00  0.00    -0.073 A  
HETATM   25  C   UNL     1     -10.635  18.952  66.167  1.00  0.00    -0.476 A  
HETATM   26  C   UNL     1      -8.436  19.832  66.703  1.00  0.00    -0.333 A  
HETATM   27  C   UNL     1      -7.871  18.610  66.344  1.00  0.00    -0.305 A  
HETATM   28  C   UNL     1      -8.684  17.577  65.849  1.00  0.00     0.057 A  
HETATM   29  C   UNL     1      -9.822  19.981  66.645  1.00  0.00    -0.577 A  
BRANCH  26  30
HETATM   30  O   UNL     1      -7.767  20.966  67.063  1.00  0.00    -0.269 OA 
HETATM   31  C   UNL     1      -6.577  20.845  67.827  1.00  0.00    -0.340 C  
ENDBRANCH  26  30
ENDBRANCH  23  24
ENDBRANCH  22  23
BRANCH  22  32
HETATM   32  C   UNL     1     -11.328  14.336  65.135  1.00  0.00    -0.345 A  
HETATM   33  N   UNL     1     -10.278  13.563  64.800  1.00  0.00    -0.367 NA 
HETATM   34  N   UNL     1     -12.598  13.965  64.940  1.00  0.00    -0.651 NA 
HETATM   35  C   UNL     1     -12.813  12.765  64.367  1.00  0.00    -0.204 A  
HETATM   36  C   UNL     1     -10.542  12.393  64.169  1.00  0.00    -0.385 A  
HETATM   37  C   UNL     1     -11.811  11.933  63.940  1.00  0.00    -0.509 A  
ENDBRANCH  22  32
ENDBRANCH  21  22
ENDBRANCH  20  21
ENDBRANCH  17  20
ENDBRANCH  16  17
ENDBRANCH  15  16
ENDBRANCH  14  15
ENDBRANCH  13  14
ENDBRANCH  12  13
ENDBRANCH  11  12
ENDBRANCH  10  11
ENDBRANCH   9  10
ENDBRANCH   8   9
ENDBRANCH   7   8
ENDBRANCH   6   7
ENDBRANCH   5   6
ENDBRANCH   4   5
ENDBRANCH   3   4
ENDBRANCH   2   3
TORSDOF 22
ENDMDL
MODEL      122
REMARK 921   NORMALIZED FREE ENERGY PREDICTED BY IDOCK:   -3.64 KCAL/MOL
REMARK 922        TOTAL FREE ENERGY PREDICTED BY IDOCK:  -12.76 KCAL/MOL
REMARK 923 INTER-LIGAND FREE ENERGY PREDICTED BY IDOCK:   -9.44 KCAL/MOL
REMARK 924 INTRA-LIGAND FREE ENERGY PREDICTED BY IDOCK:   -3.32 KCAL/MOL
REMARK 927      BINDING AFFINITY PREDICTED BY RF-SCORE:    0.00 PKD
ROOT
HETATM    1  C   UNL     1     -10.680   7.294  73.354  1.00  0.00    -0.415 C  
HETATM    2  C   UNL     1     -11.784   7.624  72.365  1.00  0.00    -0.366 C  
ENDROOT
BRANCH   2   3
HETATM    3  C   UNL     1     -11.240   8.421  71.184  1.00  0.00    -0.307 C  
BRANCH   3   4
HETATM    4  C   UNL     1     -11.453   9.914  71.394  1.00  0.00    -0.393 C  
BRANCH   4   5
HETATM    5  C   UNL     1     -12.939  10.247  71.421  1.00  0.00    -0.540 C  
BRANCH   5   6
HETATM    6  C   UNL     1     -13.149  11.721  71.733  1.00  0.00    -0.480 C  
BRANCH   6   7
HETATM    7  C   UNL     1     -12.325  12.582  70.790  1.00  0.00    -0.376 C  
BRANCH   7   8
HETATM    8  C   UNL     1     -12.624  14.055  71.021  1.00  0.00    -0.437 C  
BRANCH   8   9
HETATM    9  C   UNL     1     -12.107  14.875  69.852  1.00  0.00    -0.379 C  
BRANCH   9  10
HETATM   10  C   UNL     1     -11.573  13.966  68.759  1.00  0.00    -0.370 C  
BRANCH  10  11
HETATM   11  C   UNL     1     -11.882  14.559  67.392  1.00  0.00    -0.416 C  
BRANCH  11  12
HETATM   12  C   UNL     1     -10.591  14.807  66.626  1.00  0.00    -0.299 C  
BRANCH  12  13
HETATM   13  C   UNL     1     -10.772  14.526  65.144  1.00  0.00    -0.422 C  
BRANCH  13  14
HETATM   14  C   UNL     1     -10.585  13.042  64.813  1.00  0.00    -0.380 C  
BRANCH  14  15
HETATM   15  C   UNL     1      -9.487  12.343  65.631  1.00  0.00    -0.046 C  
BRANCH  15  16
HETATM   16  C   UNL     1      -9.840  10.875  65.851  1.00  0.00    -0.236 C  
BRANCH  16  17
HETATM   17  N   UNL     1      -9.902  10.435  67.307  1.00  0.00    -0.173 N  
HETATM   18  C   UNL     1     -11.347  10.468  67.826  1.00  0.00    -0.190 C  
HETATM   19  C   UNL     1      -9.042  11.298  68.218  1.00  0.00    -0.173 C  
BRANCH  17  20
HETATM   20  C   UNL     1      -9.440   8.948  67.388  1.00  0.00    -0.145 C  
BRANCH  20  21
HETATM   21  C   UNL     1     -10.446   7.887  66.842  1.00  0.00    -0.318 C  
BRANCH  21  22
HETATM   22  N   UNL     1     -10.053   6.560  67.307  1.00  0.00    -0.147 NA 
BRANCH  22  23
HETATM   23  C   UNL     1     -10.730   5.951  68.460  1.00  0.00    -0.255 C  
BRANCH  23  24
HETATM   24  C   UNL     1      -9.780   5.613  69.593  1.00  0.00    -0.222 A  
HETATM   25  C   UNL     1     -10.075   4.562  70.469  1.00  0.00    -0.233 A  
HETATM   26  C   UNL     1      -8.172   5.135  71.864  1.00  0.00    -0.117 A  
HETATM   27  C   UNL     1      -7.813   6.123  70.949  1.00  0.00    -0.107 A  
HETATM   28  C   UNL     1      -8.615   6.363  69.821  1.00  0.00    -0.138 A  
HETATM   29  C   UNL     1      -9.284   4.336  71.596  1.00  0.00    -0.186 A  
BRANCH  26  30
HETATM   30  O   UNL     1      -7.579   4.882  73.067  1.00  0.00    -0.089 OA 
HETATM   31  C   UNL     1      -7.851   3.649  73.717  1.00  0.00    -0.071 C  
ENDBRANCH  26  30
ENDBRANCH  23  24
ENDBRANCH  22  23
BRANCH  22  32
HETATM   32  C   UNL     1      -9.697   5.664  66.311  1.00  0.00    -0.135 A  
HETATM   33  N   UNL     1     -10.561   4.687  65.983  1.00  0.00    -0.282 NA 
HETATM   34  N   UNL     1      -8.581   5.915  65.618  1.00  0.00    -0.153 NA 
HETATM   35  C   UNL     1      -8.323   5.131  64.554  1.00  0.00    -0.137 A  
HETATM   36  C   UNL     1     -10.228   3.884  64.944  1.00  0.00    -0.164 A  
HETATM   37  C   UNL     1      -9.113   4.076  64.174  1.00  0.00    -0.142 A  
ENDBRANCH  22  32
ENDBRANCH  21  22
ENDBRANCH  20  21
ENDBRANCH  17  20
ENDBRANCH  16  17
ENDBRANCH  15  16
ENDBRANCH  14  15
ENDBRANCH  13  14
ENDBRANCH  12  13
ENDBRANCH  11  12
ENDBRANCH  10  11
ENDBRANCH   9  10
ENDBRANCH   8   9
ENDBRANCH   7   8
ENDBRANCH   6   7
ENDBRANCH   5   6
ENDBRANCH   4   5
ENDBRANCH   3   4
ENDBRANCH   2   3
TORSDOF 22
ENDMDL
MODEL      123
REMARK 921   NORMALIZED FREE ENERGY PREDICTED BY IDOCK:   -3.64 KCAL/MOL
REMARK 922        TOTAL FREE ENERGY PREDICTED BY IDOCK:  -12.76 KCAL/MOL
REMARK 923 INTER-LIGAND FREE ENERGY PREDICTED BY IDOCK:  -10.15 KCAL/MOL
REMARK 924 INTRA-LIGAND FREE ENERGY PREDICTED BY IDOCK:   -2.61 KCAL/MOL
REMARK 927      BINDING AFFINITY PREDICTED BY RF-SCORE:    0.00 PKD
ROOT
HETATM    1  C   UNL     1     -10.337   5.190  66.752  1.00  0.00    -0.306 C  
HETATM    2  C   UNL     1     -10.795   5.969  67.972  1.00  0.00    -0.374 C  
ENDROOT
BRANCH   2   3
HETATM    3  C   UNL     1      -9.921   5.654  69.182  1.00  0.00    -0.244 C  
BRANCH   3   4
HETATM    4  C   UNL     1     -10.756   5.611  70.455  1.00  0.00    -0.344 C  
BRANCH   4   5
HETATM    5  C   UNL     1     -11.897   6.619  70.385  1.00  0.00    -0.407 C  
BRANCH   5   6
HETATM    6  C   UNL     1     -12.490   6.847  71.767  1.00  0.00    -0.397 C  
BRANCH   6   7
HETATM    7  C   UNL     1     -11.991   8.163  72.344  1.00  0.00    -0.431 C  
BRANCH   7   8
HETATM    8  C   UNL     1     -12.170   9.285  71.334  1.00  0.00    -0.426 C  
BRANCH   8   9
HETATM    9  C   UNL     1     -13.231  10.255  71.823  1.00  0.00    -0.534 C  
BRANCH   9  10
HETATM   10  C   UNL     1     -12.788  11.689  71.595  1.00  0.00    -0.454 C  
BRANCH  10  11
HETATM   11  C   UNL     1     -13.730  12.645  72.311  1.00  0.00    -0.429 C  
BRANCH  11  12
HETATM   12  C   UNL     1     -13.059  13.999  72.496  1.00  0.00    -0.547 C  
BRANCH  12  13
HETATM   13  C   UNL     1     -13.723  15.059  71.634  1.00  0.00    -0.553 C  
BRANCH  13  14
HETATM   14  C   UNL     1     -12.709  15.808  70.761  1.00  0.00    -0.388 C  
BRANCH  14  15
HETATM   15  C   UNL     1     -11.648  14.909  70.109  1.00  0.00    -0.333 C  
BRANCH  15  16
HETATM   16  C   UNL     1     -10.968  15.639  68.954  1.00  0.00    -0.266 C  
BRANCH  16  17
HETATM   17  N   UNL     1     -10.745  14.803  67.702  1.00  0.00    -0.266 N  
HETATM   18  C   UNL     1      -9.998  15.612  66.632  1.00  0.00    -0.258 C  
HETATM   19  C   UNL     1     -12.045  14.290  67.099  1.00  0.00    -0.377 C  
BRANCH  17  20
HETATM   20  C   UNL     1      -9.818  13.604  68.072  1.00  0.00    -0.244 C  
BRANCH  20  21
HETATM   21  C   UNL     1     -10.446  12.183  67.924  1.00  0.00    -0.208 C  
BRANCH  21  22
HETATM   22  N   UNL     1      -9.391  11.214  67.640  1.00  0.00    -0.163 NA 
BRANCH  22  23
HETATM   23  C   UNL     1      -8.458  11.443  66.529  1.00  0.00    -0.170 C  
BRANCH  23  24
HETATM   24  C   UNL     1      -8.506  10.350  65.480  1.00  0.00    -0.171 A  
HETATM   25  C   UNL     1      -8.181   9.031  65.822  1.00  0.00    -0.120 A  
HETATM   26  C   UNL     1      -8.327   8.348  63.496  1.00  0.00    -0.051 A  
HETATM   27  C   UNL     1      -8.744   9.633  63.156  1.00  0.00    -0.236 A  
HETATM   28  C   UNL     1      -8.831  10.629  64.142  1.00  0.00    -0.170 A  
HETATM   29  C   UNL     1      -8.082   8.048  64.836  1.00  0.00    -0.147 A  
BRANCH  26  30
HETATM   30  O   UNL     1      -8.060   7.321  62.637  1.00  0.00    -0.132 OA 
HETATM   31  C   UNL     1      -8.152   5.988  63.115  1.00  0.00    -0.089 C  
ENDBRANCH  26  30
ENDBRANCH  23  24
ENDBRANCH  22  23
BRANCH  22  32
HETATM   32  C   UNL     1      -8.823  10.612  68.751  1.00  0.00    -0.161 A  
HETATM   33  N   UNL     1      -9.386   9.490  69.236  1.00  0.00    -0.161 NA 
HETATM   34  N   UNL     1      -7.651  11.088  69.187  1.00  0.00    -0.128 NA 
HETATM   35  C   UNL     1      -7.030  10.405  70.167  1.00  0.00    -0.141 A  
HETATM   36  C   UNL     1      -8.756   8.872  70.265  1.00  0.00    -0.169 A  
HETATM   37  C   UNL     1      -7.550   9.285  70.763  1.00  0.00    -0.154 A  
ENDBRANCH  22  32
ENDBRANCH  21  22
ENDBRANCH  20  21
ENDBRANCH  17  20
ENDBRANCH  16  17
ENDBRANCH  15  16
ENDBRANCH  14  15
ENDBRANCH  13  14
ENDBRANCH  12  13
ENDBRANCH  11  12
ENDBRANCH  10  11
ENDBRANCH   9  10
ENDBRANCH   8   9
ENDBRANCH   7   8
ENDBRANCH   6   7
ENDBRANCH   5   6
ENDBRANCH   4   5
ENDBRANCH   3   4
ENDBRANCH   2   3
TORSDOF 22
ENDMDL
MODEL      124
REMARK 921   NORMALIZED FREE ENERGY PREDICTED BY IDOCK:   -3.62 KCAL/MOL
REMARK 922        TOTAL FREE ENERGY PREDICTED BY IDOCK:  -12.73 KCAL/MOL
REMARK 923 INTER-LIGAND FREE ENERGY PREDICTED BY IDOCK:  -10.07 KCAL/MOL
REMARK 924 INTRA-LIGAND FREE ENERGY PREDICTED BY IDOCK:   -2.67 KCAL/MOL
REMARK 927      BINDING AFFINITY PREDICTED BY RF-SCORE:    0.00 PKD
ROOT
HETATM    1  C   UNL     1      -9.829  20.215  66.219  1.00  0.00    -0.541 C  
HETATM    2  C   UNL     1     -10.508  18.858  66.146  1.00  0.00    -0.521 C  
ENDROOT
BRANCH   2   3
HETATM    3  C   UNL     1      -9.572  17.752  66.621  1.00  0.00    -0.311 C  
BRANCH   3   4
HETATM    4  C   UNL     1     -10.338  16.455  66.845  1.00  0.00    -0.300 C  
BRANCH   4   5
HETATM    5  C   UNL     1      -9.831  15.362  65.913  1.00  0.00    -0.387 C  
BRANCH   5   6
HETATM    6  C   UNL     1      -8.891  14.424  66.655  1.00  0.00    -0.188 C  
BRANCH   6   7
HETATM    7  C   UNL     1      -9.656  13.627  67.699  1.00  0.00    -0.221 C  
BRANCH   7   8
HETATM    8  C   UNL     1     -10.824  12.897  67.055  1.00  0.00    -0.282 C  
BRANCH   8   9
HETATM    9  C   UNL     1     -11.875  12.581  68.105  1.00  0.00    -0.371 C  
BRANCH   9  10
HETATM   10  C   UNL     1     -11.916  13.670  69.163  1.00  0.00    -0.394 C  
BRANCH  10  11
HETATM   11  C   UNL     1     -12.299  13.074  70.509  1.00  0.00    -0.365 C  
BRANCH  11  12
HETATM   12  C   UNL     1     -12.231  11.555  70.445  1.00  0.00    -0.442 C  
BRANCH  12  13
HETATM   13  C   UNL     1     -12.898  10.927  71.657  1.00  0.00    -0.554 C  
BRANCH  13  14
HETATM   14  C   UNL     1     -13.301   9.470  71.401  1.00  0.00    -0.435 C  
BRANCH  14  15
HETATM   15  C   UNL     1     -12.547   8.444  72.261  1.00  0.00    -0.401 C  
BRANCH  15  16
HETATM   16  C   UNL     1     -11.040   8.616  72.096  1.00  0.00    -0.364 C  
BRANCH  16  17
HETATM   17  N   UNL     1     -10.303   7.393  71.568  1.00  0.00    -0.201 N  
HETATM   18  C   UNL     1     -11.292   6.283  71.186  1.00  0.00    -0.303 C  
HETATM   19  C   UNL     1      -9.306   6.830  72.569  1.00  0.00    -0.139 C  
BRANCH  17  20
HETATM   20  C   UNL     1      -9.567   7.797  70.252  1.00  0.00    -0.175 C  
BRANCH  20  21
HETATM   21  C   UNL     1     -10.460   8.414  69.131  1.00  0.00    -0.206 C  
BRANCH  21  22
HETATM   22  N   UNL     1     -10.149   7.774  67.856  1.00  0.00    -0.176 NA 
BRANCH  22  23
HETATM   23  C   UNL     1     -11.081   6.800  67.272  1.00  0.00    -0.324 C  
BRANCH  23  24
HETATM   24  C   UNL     1     -10.448   5.441  67.042  1.00  0.00    -0.319 A  
HETATM   25  C   UNL     1      -9.775   4.792  68.084  1.00  0.00    -0.201 A  
HETATM   26  C   UNL     1      -9.035   3.042  66.571  1.00  0.00    -0.154 A  
HETATM   27  C   UNL     1      -9.780   3.626  65.548  1.00  0.00    -0.117 A  
HETATM   28  C   UNL     1     -10.480   4.821  65.782  1.00  0.00    -0.275 A  
HETATM   29  C   UNL     1      -9.068   3.612  67.844  1.00  0.00    -0.196 A  
BRANCH  26  30
HETATM   30  O   UNL     1      -8.197   1.971  66.461  1.00  0.00    -0.077 OA 
HETATM   31  C   UNL     1      -7.183   1.793  67.440  1.00  0.00    -0.054 C  
ENDBRANCH  26  30
ENDBRANCH  23  24
ENDBRANCH  22  23
BRANCH  22  32
HETATM   32  C   UNL     1      -9.506   8.579  66.929  1.00  0.00    -0.183 A  
HETATM   33  N   UNL     1      -8.189   8.399  66.721  1.00  0.00    -0.101 NA 
HETATM   34  N   UNL     1     -10.260   9.385  66.174  1.00  0.00    -0.249 NA 
HETATM   35  C   UNL     1      -9.650  10.048  65.174  1.00  0.00    -0.291 A  
HETATM   36  C   UNL     1      -7.606   9.135  65.743  1.00  0.00    -0.091 A  
HETATM   37  C   UNL     1      -8.305   9.974  64.918  1.00  0.00    -0.160 A  
ENDBRANCH  22  32
ENDBRANCH  21  22
ENDBRANCH  20  21
ENDBRANCH  17  20
ENDBRANCH  16  17
ENDBRANCH  15  16
ENDBRANCH  14  15
ENDBRANCH  13  14
ENDBRANCH  12  13
ENDBRANCH  11  12
ENDBRANCH  10  11
ENDBRANCH   9  10
ENDBRANCH   8   9
ENDBRANCH   7   8
ENDBRANCH   6   7
ENDBRANCH   5   6
ENDBRANCH   4   5
ENDBRANCH   3   4
ENDBRANCH   2   3
TORSDOF 22
ENDMDL
MODEL      125
REMARK 921   NORMALIZED FREE ENERGY PREDICTED BY IDOCK:   -3.62 KCAL/MOL
REMARK 922        TOTAL FREE ENERGY PREDICTED BY IDOCK:  -12.72 KCAL/MOL
REMARK 923 INTER-LIGAND FREE ENERGY PREDICTED BY IDOCK:  -10.28 KCAL/MOL
REMARK 924 INTRA-LIGAND FREE ENERGY PREDICTED BY IDOCK:   -2.44 KCAL/MOL
REMARK 927      BINDING AFFINITY PREDICTED BY RF-SCORE:    0.00 PKD
ROOT
HETATM    1  C   UNL     1     -11.865  16.555  72.627  1.00  0.00    -0.445 C  
HETATM    2  C   UNL     1     -13.051  15.947  73.355  1.00  0.00    -0.694 C  
ENDROOT
BRANCH   2   3
HETATM    3  C   UNL     1     -13.031  14.425  73.259  1.00  0.00    -0.406 C  
BRANCH   3   4
HETATM    4  C   UNL     1     -13.705  13.956  71.976  1.00  0.00    -0.577 C  
BRANCH   4   5
HETATM    5  C   UNL     1     -13.161  12.599  71.548  1.00  0.00    -0.373 C  
BRANCH   5   6
HETATM    6  C   UNL     1     -12.207  12.755  70.373  1.00  0.00    -0.371 C  
BRANCH   6   7
HETATM    7  C   UNL     1     -12.199  14.196  69.888  1.00  0.00    -0.416 C  
BRANCH   7   8
HETATM    8  C   UNL     1     -11.424  14.311  68.585  1.00  0.00    -0.328 C  
BRANCH   8   9
HETATM    9  C   UNL     1     -12.143  13.547  67.488  1.00  0.00    -0.340 C  
BRANCH   9  10
HETATM   10  C   UNL     1     -11.788  14.114  66.124  1.00  0.00    -0.420 C  
BRANCH  10  11
HETATM   11  C   UNL     1     -12.840  13.709  65.103  1.00  0.00    -0.382 C  
BRANCH  11  12
HETATM   12  C   UNL     1     -12.180  13.400  63.767  1.00  0.00    -0.482 C  
BRANCH  12  13
HETATM   13  C   UNL     1     -12.002  11.902  63.580  1.00  0.00    -0.567 C  
BRANCH  13  14
HETATM   14  C   UNL     1     -10.524  11.499  63.538  1.00  0.00    -0.486 C  
BRANCH  14  15
HETATM   15  C   UNL     1     -10.062  10.657  64.737  1.00  0.00    -0.412 C  
BRANCH  15  16
HETATM   16  C   UNL     1      -8.558  10.407  64.664  1.00  0.00    -0.185 C  
BRANCH  16  17
HETATM   17  N   UNL     1      -7.854  10.301  66.010  1.00  0.00    -0.127 N  
HETATM   18  C   UNL     1      -8.487  11.255  67.033  1.00  0.00    -0.150 C  
HETATM   19  C   UNL     1      -6.367  10.608  65.919  1.00  0.00    -0.128 C  
BRANCH  17  20
HETATM   20  C   UNL     1      -8.069   8.858  66.562  1.00  0.00    -0.107 C  
BRANCH  20  21
HETATM   21  C   UNL     1      -7.798   8.662  68.087  1.00  0.00    -0.103 C  
BRANCH  21  22
HETATM   22  N   UNL     1      -8.623   7.567  68.589  1.00  0.00    -0.129 NA 
BRANCH  22  23
HETATM   23  C   UNL     1      -8.013   6.269  68.908  1.00  0.00    -0.109 C  
BRANCH  23  24
HETATM   24  C   UNL     1      -8.193   5.243  67.806  1.00  0.00    -0.099 A  
HETATM   25  C   UNL     1      -7.433   5.328  66.633  1.00  0.00    -0.087 A  
HETATM   26  C   UNL     1      -8.696   3.511  65.632  1.00  0.00    -0.120 A  
HETATM   27  C   UNL     1      -9.395   3.354  66.827  1.00  0.00    -0.190 A  
HETATM   28  C   UNL     1      -9.146   4.217  67.908  1.00  0.00    -0.168 A  
HETATM   29  C   UNL     1      -7.693   4.478  65.557  1.00  0.00    -0.090 A  
BRANCH  26  30
HETATM   30  O   UNL     1      -8.923   2.850  64.460  1.00  0.00    -0.109 OA 
HETATM   31  C   UNL     1     -10.095   3.155  63.719  1.00  0.00    -0.177 C  
ENDBRANCH  26  30
ENDBRANCH  23  24
ENDBRANCH  22  23
BRANCH  22  32
HETATM   32  C   UNL     1      -9.653   7.940  69.437  1.00  0.00    -0.160 A  
HETATM   33  N   UNL     1     -10.519   6.999  69.856  1.00  0.00    -0.211 NA 
HETATM   34  N   UNL     1      -9.638   9.186  69.924  1.00  0.00    -0.181 NA 
HETATM   35  C   UNL     1     -10.550   9.495  70.865  1.00  0.00    -0.325 A  
HETATM   36  C   UNL     1     -11.458   7.374  70.758  1.00  0.00    -0.288 A  
HETATM   37  C   UNL     1     -11.508   8.623  71.315  1.00  0.00    -0.341 A  
ENDBRANCH  22  32
ENDBRANCH  21  22
ENDBRANCH  20  21
ENDBRANCH  17  20
ENDBRANCH  16  17
ENDBRANCH  15  16
ENDBRANCH  14  15
ENDBRANCH  13  14
ENDBRANCH  12  13
ENDBRANCH  11  12
ENDBRANCH  10  11
ENDBRANCH   9  10
ENDBRANCH   8   9
ENDBRANCH   7   8
ENDBRANCH   6   7
ENDBRANCH   5   6
ENDBRANCH   4   5
ENDBRANCH   3   4
ENDBRANCH   2   3
TORSDOF 22
ENDMDL
MODEL      126
REMARK 921   NORMALIZED FREE ENERGY PREDICTED BY IDOCK:   -3.61 KCAL/MOL
REMARK 922        TOTAL FREE ENERGY PREDICTED BY IDOCK:  -12.71 KCAL/MOL
REMARK 923 INTER-LIGAND FREE ENERGY PREDICTED BY IDOCK:  -10.38 KCAL/MOL
REMARK 924 INTRA-LIGAND FREE ENERGY PREDICTED BY IDOCK:   -2.33 KCAL/MOL
REMARK 927      BINDING AFFINITY PREDICTED BY RF-SCORE:    0.00 PKD
ROOT
HETATM    1  C   UNL     1     -12.177  15.939  71.836  1.00  0.00    -0.558 C  
HETATM    2  C   UNL     1     -13.145  15.359  72.852  1.00  0.00    -0.598 C  
ENDROOT
BRANCH   2   3
HETATM    3  C   UNL     1     -13.915  14.181  72.264  1.00  0.00    -0.646 C  
BRANCH   3   4
HETATM    4  C   UNL     1     -12.972  13.223  71.546  1.00  0.00    -0.426 C  
BRANCH   4   5
HETATM    5  C   UNL     1     -13.280  11.781  71.927  1.00  0.00    -0.468 C  
BRANCH   5   6
HETATM    6  C   UNL     1     -12.897  10.839  70.795  1.00  0.00    -0.408 C  
BRANCH   6   7
HETATM    7  C   UNL     1     -12.674   9.434  71.330  1.00  0.00    -0.425 C  
BRANCH   7   8
HETATM    8  C   UNL     1     -11.189   9.169  71.517  1.00  0.00    -0.430 C  
BRANCH   8   9
HETATM    9  C   UNL     1     -10.988   8.042  72.516  1.00  0.00    -0.430 C  
BRANCH   9  10
HETATM   10  C   UNL     1      -9.508   7.814  72.771  1.00  0.00    -0.274 C  
BRANCH  10  11
HETATM   11  C   UNL     1      -9.055   6.533  72.088  1.00  0.00    -0.139 C  
BRANCH  11  12
HETATM   12  C   UNL     1      -8.502   6.846  70.705  1.00  0.00    -0.136 C  
BRANCH  12  13
HETATM   13  C   UNL     1      -7.257   7.713  70.797  1.00  0.00    -0.062 C  
BRANCH  13  14
HETATM   14  C   UNL     1      -6.299   7.469  69.626  1.00  0.00    -0.031 C  
BRANCH  14  15
HETATM   15  C   UNL     1      -6.375   8.526  68.513  1.00  0.00    -0.054 C  
BRANCH  15  16
HETATM   16  C   UNL     1      -6.968   7.921  67.244  1.00  0.00    -0.074 C  
BRANCH  16  17
HETATM   17  N   UNL     1      -8.324   8.477  66.834  1.00  0.00    -0.109 N  
HETATM   18  C   UNL     1      -9.424   7.422  67.019  1.00  0.00    -0.158 C  
HETATM   19  C   UNL     1      -8.351   8.955  65.390  1.00  0.00    -0.148 C  
BRANCH  17  20
HETATM   20  C   UNL     1      -8.679   9.655  67.793  1.00  0.00    -0.122 C  
BRANCH  20  21
HETATM   21  C   UNL     1      -8.588  11.088  67.180  1.00  0.00    -0.136 C  
BRANCH  21  22
HETATM   22  N   UNL     1      -9.875  11.762  67.330  1.00  0.00    -0.185 NA 
BRANCH  22  23
HETATM   23  C   UNL     1     -10.117  12.643  68.480  1.00  0.00    -0.178 C  
BRANCH  23  24
HETATM   24  C   UNL     1      -9.662  14.070  68.239  1.00  0.00    -0.225 A  
HETATM   25  C   UNL     1     -10.568  15.129  68.369  1.00  0.00    -0.238 A  
HETATM   26  C   UNL     1      -8.913  16.701  67.537  1.00  0.00    -0.200 A  
HETATM   27  C   UNL     1      -7.975  15.672  67.494  1.00  0.00    -0.184 A  
HETATM   28  C   UNL     1      -8.348  14.363  67.841  1.00  0.00    -0.162 A  
HETATM   29  C   UNL     1     -10.197  16.426  68.010  1.00  0.00    -0.264 A  
BRANCH  26  30
HETATM   30  O   UNL     1      -8.741  17.982  67.100  1.00  0.00    -0.235 OA 
HETATM   31  C   UNL     1      -8.254  18.956  68.013  1.00  0.00    -0.293 C  
ENDBRANCH  26  30
ENDBRANCH  23  24
ENDBRANCH  22  23
BRANCH  22  32
HETATM   32  C   UNL     1     -10.463  12.185  66.149  1.00  0.00    -0.248 A  
HETATM   33  N   UNL     1      -9.712  12.235  65.034  1.00  0.00    -0.128 NA 
HETATM   34  N   UNL     1     -11.788  12.368  66.144  1.00  0.00    -0.540 NA 
HETATM   35  C   UNL     1     -12.374  12.628  64.960  1.00  0.00    -0.497 A  
HETATM   36  C   UNL     1     -10.335  12.562  63.876  1.00  0.00    -0.409 A  
HETATM   37  C   UNL     1     -11.687  12.755  63.780  1.00  0.00    -0.562 A  
ENDBRANCH  22  32
ENDBRANCH  21  22
ENDBRANCH  20  21
ENDBRANCH  17  20
ENDBRANCH  16  17
ENDBRANCH  15  16
ENDBRANCH  14  15
ENDBRANCH  13  14
ENDBRANCH  12  13
ENDBRANCH  11  12
ENDBRANCH  10  11
ENDBRANCH   9  10
ENDBRANCH   8   9
ENDBRANCH   7   8
ENDBRANCH   6   7
ENDBRANCH   5   6
ENDBRANCH   4   5
ENDBRANCH   3   4
ENDBRANCH   2   3
TORSDOF 22
ENDMDL
MODEL      127
REMARK 921   NORMALIZED FREE ENERGY PREDICTED BY IDOCK:   -3.60 KCAL/MOL
REMARK 922        TOTAL FREE ENERGY PREDICTED BY IDOCK:  -12.68 KCAL/MOL
REMARK 923 INTER-LIGAND FREE ENERGY PREDICTED BY IDOCK:   -9.15 KCAL/MOL
REMARK 924 INTRA-LIGAND FREE ENERGY PREDICTED BY IDOCK:   -3.53 KCAL/MOL
REMARK 927      BINDING AFFINITY PREDICTED BY RF-SCORE:    0.00 PKD
ROOT
HETATM    1  C   UNL     1     -12.657  13.634  65.584  1.00  0.00    -0.531 C  
HETATM    2  C   UNL     1     -11.451  12.764  65.280  1.00  0.00    -0.360 C  
ENDROOT
BRANCH   2   3
HETATM    3  C   UNL     1     -11.242  11.719  66.371  1.00  0.00    -0.382 C  
BRANCH   3   4
HETATM    4  C   UNL     1      -9.842  11.827  66.962  1.00  0.00    -0.213 C  
BRANCH   4   5
HETATM    5  C   UNL     1      -9.232  13.189  66.656  1.00  0.00    -0.220 C  
BRANCH   5   6
HETATM    6  C   UNL     1      -9.190  14.047  67.911  1.00  0.00    -0.195 C  
BRANCH   6   7
HETATM    7  C   UNL     1      -8.504  15.373  67.621  1.00  0.00    -0.173 C  
BRANCH   7   8
HETATM    8  C   UNL     1      -7.012  15.164  67.419  1.00  0.00    -0.195 C  
BRANCH   8   9
HETATM    9  C   UNL     1      -6.428  14.427  68.612  1.00  0.00    -0.087 C  
BRANCH   9  10
HETATM   10  C   UNL     1      -5.485  13.330  68.150  1.00  0.00    -0.100 C  
BRANCH  10  11
HETATM   11  C   UNL     1      -6.151  11.972  68.307  1.00  0.00    -0.051 C  
BRANCH  11  12
HETATM   12  C   UNL     1      -6.207  11.584  69.778  1.00  0.00    -0.138 C  
BRANCH  12  13
HETATM   13  C   UNL     1      -6.928  10.260  69.967  1.00  0.00    -0.152 C  
BRANCH  13  14
HETATM   14  C   UNL     1      -6.067   9.238  70.717  1.00  0.00    -0.062 C  
BRANCH  14  15
HETATM   15  C   UNL     1      -6.693   8.715  72.019  1.00  0.00    -0.078 C  
BRANCH  15  16
HETATM   16  C   UNL     1      -8.060   8.097  71.742  1.00  0.00    -0.128 C  
BRANCH  16  17
HETATM   17  N   UNL     1      -8.787   7.557  72.965  1.00  0.00    -0.140 N  
HETATM   18  C   UNL     1      -8.155   8.096  74.257  1.00  0.00    -0.251 C  
HETATM   19  C   UNL     1      -8.787   6.037  73.026  1.00  0.00    -0.121 C  
BRANCH  17  20
HETATM   20  C   UNL     1     -10.253   8.090  72.938  1.00  0.00    -0.314 C  
BRANCH  20  21
HETATM   21  C   UNL     1     -10.580   9.136  71.826  1.00  0.00    -0.313 C  
BRANCH  21  22
HETATM   22  N   UNL     1     -11.604   8.595  70.937  1.00  0.00    -0.278 NA 
BRANCH  22  23
HETATM   23  C   UNL     1     -12.871   9.314  70.746  1.00  0.00     0.074 C  
BRANCH  23  24
HETATM   24  C   UNL     1     -12.722  10.818  70.868  1.00  0.00    -0.478 A  
HETATM   25  C   UNL     1     -13.247  11.489  71.979  1.00  0.00    -0.443 A  
HETATM   26  C   UNL     1     -12.695  13.639  70.993  1.00  0.00    -0.332 A  
HETATM   27  C   UNL     1     -12.084  12.981  69.928  1.00  0.00    -0.347 A  
HETATM   28  C   UNL     1     -12.099  11.578  69.865  1.00  0.00    -0.389 A  
HETATM   29  C   UNL     1     -13.242  12.884  72.031  1.00  0.00    -0.549 A  
BRANCH  26  30
HETATM   30  O   UNL     1     -12.884  14.984  71.121  1.00  0.00    -0.318 OA 
HETATM   31  C   UNL     1     -12.074  15.704  72.040  1.00  0.00    -0.443 C  
ENDBRANCH  26  30
ENDBRANCH  23  24
ENDBRANCH  22  23
BRANCH  22  32
HETATM   32  C   UNL     1     -11.128   7.958  69.802  1.00  0.00    -0.075 A  
HETATM   33  N   UNL     1     -11.320   6.633  69.676  1.00  0.00    -0.341 NA 
HETATM   34  N   UNL     1     -10.645   8.722  68.816  1.00  0.00    -0.186 NA 
HETATM   35  C   UNL     1     -10.329   8.113  67.657  1.00  0.00    -0.247 A  
HETATM   36  C   UNL     1     -10.928   6.054  68.515  1.00  0.00    -0.267 A  
HETATM   37  C   UNL     1     -10.435   6.762  67.452  1.00  0.00    -0.330 A  
ENDBRANCH  22  32
ENDBRANCH  21  22
ENDBRANCH  20  21
ENDBRANCH  17  20
ENDBRANCH  16  17
ENDBRANCH  15  16
ENDBRANCH  14  15
ENDBRANCH  13  14
ENDBRANCH  12  13
ENDBRANCH  11  12
ENDBRANCH  10  11
ENDBRANCH   9  10
ENDBRANCH   8   9
ENDBRANCH   7   8
ENDBRANCH   6   7
ENDBRANCH   5   6
ENDBRANCH   4   5
ENDBRANCH   3   4
ENDBRANCH   2   3
TORSDOF 22
ENDMDL
MODEL      128
REMARK 921   NORMALIZED FREE ENERGY PREDICTED BY IDOCK:   -3.60 KCAL/MOL
REMARK 922        TOTAL FREE ENERGY PREDICTED BY IDOCK:  -12.68 KCAL/MOL
REMARK 923 INTER-LIGAND FREE ENERGY PREDICTED BY IDOCK:  -10.31 KCAL/MOL
REMARK 924 INTRA-LIGAND FREE ENERGY PREDICTED BY IDOCK:   -2.37 KCAL/MOL
REMARK 927      BINDING AFFINITY PREDICTED BY RF-SCORE:    0.00 PKD
ROOT
HETATM    1  C   UNL     1     -11.408   1.692  62.634  1.00  0.00    -0.252 C  
HETATM    2  C   UNL     1     -10.539   2.933  62.746  1.00  0.00    -0.170 C  
ENDROOT
BRANCH   2   3
HETATM    3  C   UNL     1     -10.018   3.109  64.169  1.00  0.00    -0.166 C  
BRANCH   3   4
HETATM    4  C   UNL     1     -10.723   4.268  64.863  1.00  0.00    -0.137 C  
BRANCH   4   5
HETATM    5  C   UNL     1      -9.789   4.951  65.853  1.00  0.00    -0.208 C  
BRANCH   5   6
HETATM    6  C   UNL     1     -10.562   5.923  66.731  1.00  0.00    -0.368 C  
BRANCH   6   7
HETATM    7  C   UNL     1     -10.275   5.651  68.199  1.00  0.00    -0.236 C  
BRANCH   7   8
HETATM    8  C   UNL     1     -11.213   6.460  69.080  1.00  0.00    -0.421 C  
BRANCH   8   9
HETATM    9  C   UNL     1     -10.708   6.453  70.513  1.00  0.00    -0.311 C  
BRANCH   9  10
HETATM   10  C   UNL     1      -9.195   6.319  70.543  1.00  0.00    -0.164 C  
BRANCH  10  11
HETATM   11  C   UNL     1      -8.596   7.398  71.433  1.00  0.00    -0.118 C  
BRANCH  11  12
HETATM   12  C   UNL     1      -7.556   8.195  70.658  1.00  0.00    -0.073 C  
BRANCH  12  13
HETATM   13  C   UNL     1      -8.004   8.430  69.225  1.00  0.00    -0.113 C  
BRANCH  13  14
HETATM   14  C   UNL     1      -8.441   9.880  68.989  1.00  0.00    -0.136 C  
BRANCH  14  15
HETATM   15  C   UNL     1      -9.963  10.079  68.915  1.00  0.00    -0.198 C  
BRANCH  15  16
HETATM   16  C   UNL     1     -10.369  10.571  67.529  1.00  0.00    -0.223 C  
BRANCH  16  17
HETATM   17  N   UNL     1     -10.488  12.081  67.387  1.00  0.00    -0.213 N  
HETATM   18  C   UNL     1     -11.671  12.452  66.481  1.00  0.00    -0.379 C  
HETATM   19  C   UNL     1      -9.228  12.719  66.821  1.00  0.00    -0.225 C  
BRANCH  17  20
HETATM   20  C   UNL     1     -10.806  12.681  68.792  1.00  0.00    -0.231 C  
BRANCH  20  21
HETATM   21  C   UNL     1     -12.087  13.569  68.883  1.00  0.00    -0.279 C  
BRANCH  21  22
HETATM   22  N   UNL     1     -11.754  14.834  69.530  1.00  0.00    -0.302 NA 
BRANCH  22  23
HETATM   23  C   UNL     1     -11.736  16.080  68.752  1.00  0.00    -0.299 C  
BRANCH  23  24
HETATM   24  C   UNL     1     -10.374  16.748  68.736  1.00  0.00    -0.318 A  
HETATM   25  C   UNL     1     -10.274  18.139  68.619  1.00  0.00    -0.382 A  
HETATM   26  C   UNL     1      -7.857  17.992  68.433  1.00  0.00    -0.295 A  
HETATM   27  C   UNL     1      -7.936  16.617  68.645  1.00  0.00    -0.236 A  
HETATM   28  C   UNL     1      -9.188  15.998  68.792  1.00  0.00    -0.224 A  
HETATM   29  C   UNL     1      -9.029  18.749  68.458  1.00  0.00    -0.375 A  
BRANCH  26  30
HETATM   30  O   UNL     1      -6.735  18.709  68.134  1.00  0.00    -0.217 OA 
HETATM   31  C   UNL     1      -6.298  19.706  69.046  1.00  0.00    -0.297 C  
ENDBRANCH  26  30
ENDBRANCH  23  24
ENDBRANCH  22  23
BRANCH  22  32
HETATM   32  C   UNL     1     -12.217  14.976  70.829  1.00  0.00    -0.329 A  
HETATM   33  N   UNL     1     -11.341  15.307  71.795  1.00  0.00    -0.411 NA 
HETATM   34  N   UNL     1     -13.540  14.935  71.026  1.00  0.00    -0.379 NA 
HETATM   35  C   UNL     1     -13.992  15.227  72.260  1.00  0.00    -0.546 A  
HETATM   36  C   UNL     1     -11.837  15.530  73.036  1.00  0.00    -0.445 A  
HETATM   37  C   UNL     1     -13.176  15.519  73.322  1.00  0.00    -0.635 A  
ENDBRANCH  22  32
ENDBRANCH  21  22
ENDBRANCH  20  21
ENDBRANCH  17  20
ENDBRANCH  16  17
ENDBRANCH  15  16
ENDBRANCH  14  15
ENDBRANCH  13  14
ENDBRANCH  12  13
ENDBRANCH  11  12
ENDBRANCH  10  11
ENDBRANCH   9  10
ENDBRANCH   8   9
ENDBRANCH   7   8
ENDBRANCH   6   7
ENDBRANCH   5   6
ENDBRANCH   4   5
ENDBRANCH   3   4
ENDBRANCH   2   3
TORSDOF 22
ENDMDL
MODEL      129
REMARK 921   NORMALIZED FREE ENERGY PREDICTED BY IDOCK:   -3.59 KCAL/MOL
REMARK 922        TOTAL FREE ENERGY PREDICTED BY IDOCK:  -12.65 KCAL/MOL
REMARK 923 INTER-LIGAND FREE ENERGY PREDICTED BY IDOCK:   -9.65 KCAL/MOL
REMARK 924 INTRA-LIGAND FREE ENERGY PREDICTED BY IDOCK:   -3.00 KCAL/MOL
REMARK 927      BINDING AFFINITY PREDICTED BY RF-SCORE:    0.00 PKD
ROOT
HETATM    1  C   UNL     1      -9.473  19.969  67.382  1.00  0.00    -0.508 C  
HETATM    2  C   UNL     1     -10.838  19.305  67.371  1.00  0.00    -0.554 C  
ENDROOT
BRANCH   2   3
HETATM    3  C   UNL     1     -10.708  17.786  67.333  1.00  0.00    -0.287 C  
BRANCH   3   4
HETATM    4  C   UNL     1     -10.299  17.313  65.944  1.00  0.00    -0.287 C  
BRANCH   4   5
HETATM    5  C   UNL     1      -9.977  15.824  65.955  1.00  0.00    -0.358 C  
BRANCH   5   6
HETATM    6  C   UNL     1      -9.038  15.491  67.105  1.00  0.00    -0.233 C  
BRANCH   6   7
HETATM    7  C   UNL     1      -7.710  16.210  66.926  1.00  0.00    -0.284 C  
BRANCH   7   8
HETATM    8  C   UNL     1      -7.253  16.813  68.244  1.00  0.00    -0.173 C  
BRANCH   8   9
HETATM    9  C   UNL     1      -5.735  16.841  68.299  1.00  0.00    -0.118 C  
BRANCH   9  10
HETATM   10  C   UNL     1      -5.207  15.627  69.045  1.00  0.00    -0.096 C  
BRANCH  10  11
HETATM   11  C   UNL     1      -6.107  15.314  70.231  1.00  0.00    -0.111 C  
BRANCH  11  12
HETATM   12  C   UNL     1      -6.236  13.808  70.404  1.00  0.00    -0.078 C  
BRANCH  12  13
HETATM   13  C   UNL     1      -6.184  13.097  69.063  1.00  0.00    -0.094 C  
BRANCH  13  14
HETATM   14  C   UNL     1      -7.582  12.864  68.481  1.00  0.00    -0.120 C  
BRANCH  14  15
HETATM   15  C   UNL     1      -7.761  11.506  67.784  1.00  0.00    -0.124 C  
BRANCH  15  16
HETATM   16  C   UNL     1      -8.476  11.683  66.447  1.00  0.00    -0.114 C  
BRANCH  16  17
HETATM   17  N   UNL     1      -9.814  10.967  66.329  1.00  0.00    -0.208 N  
HETATM   18  C   UNL     1      -9.732   9.825  65.306  1.00  0.00    -0.300 C  
HETATM   19  C   UNL     1     -10.945  11.900  65.921  1.00  0.00    -0.307 C  
BRANCH  17  20
HETATM   20  C   UNL     1     -10.137  10.304  67.703  1.00  0.00    -0.191 C  
BRANCH  20  21
HETATM   21  C   UNL     1     -11.601  10.475  68.218  1.00  0.00    -0.101 C  
BRANCH  21  22
HETATM   22  N   UNL     1     -11.599  10.525  69.677  1.00  0.00    -0.266 NA 
BRANCH  22  23
HETATM   23  C   UNL     1     -10.499   9.915  70.436  1.00  0.00    -0.285 C  
BRANCH  23  24
HETATM   24  C   UNL     1     -10.861   8.565  71.023  1.00  0.00    -0.290 A  
HETATM   25  C   UNL     1     -11.283   8.467  72.354  1.00  0.00    -0.438 A  
HETATM   26  C   UNL     1     -11.285   6.042  72.218  1.00  0.00    -0.293 A  
HETATM   27  C   UNL     1     -10.959   6.129  70.866  1.00  0.00    -0.359 A  
HETATM   28  C   UNL     1     -10.745   7.384  70.272  1.00  0.00    -0.250 A  
HETATM   29  C   UNL     1     -11.480   7.217  72.944  1.00  0.00    -0.227 A  
BRANCH  26  30
HETATM   30  O   UNL     1     -11.383   4.903  72.963  1.00  0.00    -0.291 OA 
HETATM   31  C   UNL     1     -10.645   3.757  72.561  1.00  0.00    -0.031 C  
ENDBRANCH  26  30
ENDBRANCH  23  24
ENDBRANCH  22  23
BRANCH  22  32
HETATM   32  C   UNL     1     -12.100  11.692  70.231  1.00  0.00    -0.358 A  
HETATM   33  N   UNL     1     -12.814  11.613  71.369  1.00  0.00    -0.399 NA 
HETATM   34  N   UNL     1     -11.711  12.854  69.694  1.00  0.00    -0.309 NA 
HETATM   35  C   UNL     1     -12.075  13.984  70.329  1.00  0.00    -0.355 A  
HETATM   36  C   UNL     1     -13.211  12.777  71.938  1.00  0.00    -0.412 A  
HETATM   37  C   UNL     1     -12.849  14.008  71.461  1.00  0.00    -0.440 A  
ENDBRANCH  22  32
ENDBRANCH  21  22
ENDBRANCH  20  21
ENDBRANCH  17  20
ENDBRANCH  16  17
ENDBRANCH  15  16
ENDBRANCH  14  15
ENDBRANCH  13  14
ENDBRANCH  12  13
ENDBRANCH  11  12
ENDBRANCH  10  11
ENDBRANCH   9  10
ENDBRANCH   8   9
ENDBRANCH   7   8
ENDBRANCH   6   7
ENDBRANCH   5   6
ENDBRANCH   4   5
ENDBRANCH   3   4
ENDBRANCH   2   3
TORSDOF 22
ENDMDL
MODEL      130
REMARK 921   NORMALIZED FREE ENERGY PREDICTED BY IDOCK:   -3.58 KCAL/MOL
REMARK 922        TOTAL FREE ENERGY PREDICTED BY IDOCK:  -12.63 KCAL/MOL
REMARK 923 INTER-LIGAND FREE ENERGY PREDICTED BY IDOCK:  -10.32 KCAL/MOL
REMARK 924 INTRA-LIGAND FREE ENERGY PREDICTED BY IDOCK:   -2.31 KCAL/MOL
REMARK 927      BINDING AFFINITY PREDICTED BY RF-SCORE:    0.00 PKD
ROOT
HETATM    1  C   UNL     1      -6.195   4.296  72.722  1.00  0.00    -0.017 C  
HETATM    2  C   UNL     1      -6.093   5.042  71.403  1.00  0.00    -0.022 C  
ENDROOT
BRANCH   2   3
HETATM    3  C   UNL     1      -7.475   5.310  70.817  1.00  0.00    -0.075 C  
BRANCH   3   4
HETATM    4  C   UNL     1      -8.267   4.015  70.686  1.00  0.00    -0.076 C  
BRANCH   4   5
HETATM    5  C   UNL     1      -9.752   4.267  70.916  1.00  0.00    -0.266 C  
BRANCH   5   6
HETATM    6  C   UNL     1     -10.065   4.280  72.405  1.00  0.00    -0.240 C  
BRANCH   6   7
HETATM    7  C   UNL     1     -11.224   5.221  72.692  1.00  0.00    -0.311 C  
BRANCH   7   8
HETATM    8  C   UNL     1     -11.574   6.024  71.450  1.00  0.00    -0.211 C  
BRANCH   8   9
HETATM    9  C   UNL     1     -12.600   7.089  71.797  1.00  0.00    -0.388 C  
BRANCH   9  10
HETATM   10  C   UNL     1     -11.920   8.308  72.396  1.00  0.00    -0.447 C  
BRANCH  10  11
HETATM   11  C   UNL     1     -12.331   9.559  71.633  1.00  0.00    -0.480 C  
BRANCH  11  12
HETATM   12  C   UNL     1     -11.372   9.804  70.477  1.00  0.00    -0.382 C  
BRANCH  12  13
HETATM   13  C   UNL     1      -9.950   9.431  70.858  1.00  0.00    -0.353 C  
BRANCH  13  14
HETATM   14  C   UNL     1      -9.298   8.512  69.819  1.00  0.00    -0.161 C  
BRANCH  14  15
HETATM   15  C   UNL     1      -8.543   9.252  68.703  1.00  0.00    -0.127 C  
BRANCH  15  16
HETATM   16  C   UNL     1      -9.392   9.314  67.437  1.00  0.00    -0.127 C  
BRANCH  16  17
HETATM   17  N   UNL     1      -9.361  10.646  66.702  1.00  0.00    -0.163 N  
HETATM   18  C   UNL     1      -9.747  10.464  65.227  1.00  0.00    -0.278 C  
HETATM   19  C   UNL     1      -7.999  11.320  66.765  1.00  0.00    -0.159 C  
BRANCH  17  20
HETATM   20  C   UNL     1     -10.447  11.576  67.328  1.00  0.00    -0.212 C  
BRANCH  20  21
HETATM   21  C   UNL     1      -9.932  12.923  67.925  1.00  0.00    -0.233 C  
BRANCH  21  22
HETATM   22  N   UNL     1     -10.764  14.019  67.438  1.00  0.00    -0.281 NA 
BRANCH  22  23
HETATM   23  C   UNL     1     -12.139  14.177  67.930  1.00  0.00    -0.274 C  
BRANCH  23  24
HETATM   24  C   UNL     1     -12.216  14.315  69.438  1.00  0.00    -0.319 A  
HETATM   25  C   UNL     1     -12.453  13.190  70.237  1.00  0.00    -0.233 A  
HETATM   26  C   UNL     1     -12.629  14.582  72.219  1.00  0.00    -0.303 A  
HETATM   27  C   UNL     1     -12.299  15.697  71.451  1.00  0.00    -0.485 A  
HETATM   28  C   UNL     1     -12.096  15.564  70.068  1.00  0.00    -0.391 A  
HETATM   29  C   UNL     1     -12.669  13.328  71.609  1.00  0.00    -0.327 A  
BRANCH  26  30
HETATM   30  O   UNL     1     -12.991  14.574  73.535  1.00  0.00    -0.551 OA 
HETATM   31  C   UNL     1     -12.387  15.510  74.416  1.00  0.00    -0.649 C  
ENDBRANCH  26  30
ENDBRANCH  23  24
ENDBRANCH  22  23
BRANCH  22  32
HETATM   32  C   UNL     1     -10.098  15.211  67.204  1.00  0.00    -0.239 A  
HETATM   33  N   UNL     1      -8.927  15.178  66.541  1.00  0.00    -0.286 NA 
HETATM   34  N   UNL     1     -10.731  16.349  67.508  1.00  0.00    -0.320 NA 
HETATM   35  C   UNL     1     -10.146  17.504  67.138  1.00  0.00    -0.321 A  
HETATM   36  C   UNL     1      -8.345  16.365  66.244  1.00  0.00    -0.327 A  
HETATM   37  C   UNL     1      -8.929  17.574  66.509  1.00  0.00    -0.284 A  
ENDBRANCH  22  32
ENDBRANCH  21  22
ENDBRANCH  20  21
ENDBRANCH  17  20
ENDBRANCH  16  17
ENDBRANCH  15  16
ENDBRANCH  14  15
ENDBRANCH  13  14
ENDBRANCH  12  13
ENDBRANCH  11  12
ENDBRANCH  10  11
ENDBRANCH   9  10
ENDBRANCH   8   9
ENDBRANCH   7   8
ENDBRANCH   6   7
ENDBRANCH   5   6
ENDBRANCH   4   5
ENDBRANCH   3   4
ENDBRANCH   2   3
TORSDOF 22
ENDMDL
MODEL      131
REMARK 921   NORMALIZED FREE ENERGY PREDICTED BY IDOCK:   -3.55 KCAL/MOL
REMARK 922        TOTAL FREE ENERGY PREDICTED BY IDOCK:  -12.56 KCAL/MOL
REMARK 923 INTER-LIGAND FREE ENERGY PREDICTED BY IDOCK:  -10.12 KCAL/MOL
REMARK 924 INTRA-LIGAND FREE ENERGY PREDICTED BY IDOCK:   -2.44 KCAL/MOL
REMARK 927      BINDING AFFINITY PREDICTED BY RF-SCORE:    0.00 PKD
ROOT
HETATM    1  C   UNL     1      -7.014  20.293  66.262  1.00  0.00    -0.292 C  
HETATM    2  C   UNL     1      -8.052  19.499  67.036  1.00  0.00    -0.302 C  
ENDROOT
BRANCH   2   3
HETATM    3  C   UNL     1      -9.465  19.944  66.670  1.00  0.00    -0.513 C  
BRANCH   3   4
HETATM    4  C   UNL     1     -10.407  18.750  66.604  1.00  0.00    -0.472 C  
BRANCH   4   5
HETATM    5  C   UNL     1      -9.720  17.493  67.122  1.00  0.00    -0.279 C  
BRANCH   5   6
HETATM    6  C   UNL     1     -10.557  16.261  66.807  1.00  0.00    -0.257 C  
BRANCH   6   7
HETATM    7  C   UNL     1      -9.950  15.495  65.643  1.00  0.00    -0.394 C  
BRANCH   7   8
HETATM    8  C   UNL     1     -11.042  14.829  64.821  1.00  0.00    -0.393 C  
BRANCH   8   9
HETATM    9  C   UNL     1     -12.132  14.305  65.741  1.00  0.00    -0.414 C  
BRANCH   9  10
HETATM   10  C   UNL     1     -12.179  12.787  65.699  1.00  0.00    -0.503 C  
BRANCH  10  11
HETATM   11  C   UNL     1     -11.776  12.218  67.051  1.00  0.00    -0.399 C  
BRANCH  11  12
HETATM   12  C   UNL     1     -11.788  13.316  68.105  1.00  0.00    -0.388 C  
BRANCH  12  13
HETATM   13  C   UNL     1     -11.670  12.733  69.503  1.00  0.00    -0.383 C  
BRANCH  13  14
HETATM   14  C   UNL     1     -12.040  11.246  69.539  1.00  0.00    -0.386 C  
BRANCH  14  15
HETATM   15  C   UNL     1     -11.596  10.512  70.814  1.00  0.00    -0.432 C  
BRANCH  15  16
HETATM   16  C   UNL     1     -11.068   9.122  70.471  1.00  0.00    -0.260 C  
BRANCH  16  17
HETATM   17  N   UNL     1     -11.627   7.990  71.322  1.00  0.00    -0.272 N  
HETATM   18  C   UNL     1     -13.115   8.219  71.626  1.00  0.00    -0.334 C  
HETATM   19  C   UNL     1     -10.885   7.825  72.640  1.00  0.00    -0.354 C  
BRANCH  17  20
HETATM   20  C   UNL     1     -11.546   6.670  70.494  1.00  0.00    -0.390 C  
BRANCH  20  21
HETATM   21  C   UNL     1     -10.163   6.355  69.842  1.00  0.00    -0.183 C  
BRANCH  21  22
HETATM   22  N   UNL     1     -10.344   5.384  68.768  1.00  0.00    -0.188 NA 
BRANCH  22  23
HETATM   23  C   UNL     1     -10.534   5.839  67.385  1.00  0.00    -0.254 C  
BRANCH  23  24
HETATM   24  C   UNL     1      -9.872   7.174  67.105  1.00  0.00    -0.235 A  
HETATM   25  C   UNL     1     -10.653   8.316  66.887  1.00  0.00    -0.302 A  
HETATM   26  C   UNL     1      -8.678   9.610  66.319  1.00  0.00    -0.142 A  
HETATM   27  C   UNL     1      -7.882   8.509  66.625  1.00  0.00    -0.090 A  
HETATM   28  C   UNL     1      -8.476   7.296  67.014  1.00  0.00    -0.118 A  
HETATM   29  C   UNL     1     -10.060   9.514  66.487  1.00  0.00    -0.326 A  
BRANCH  26  30
HETATM   30  O   UNL     1      -8.261  10.800  65.797  1.00  0.00    -0.162 OA 
HETATM   31  C   UNL     1      -8.159  11.926  66.657  1.00  0.00    -0.063 C  
ENDBRANCH  26  30
ENDBRANCH  23  24
ENDBRANCH  22  23
BRANCH  22  32
HETATM   32  C   UNL     1      -9.603   4.219  68.891  1.00  0.00    -0.157 A  
HETATM   33  N   UNL     1      -9.504   3.401  67.828  1.00  0.00    -0.200 NA 
HETATM   34  N   UNL     1      -8.893   4.048  70.012  1.00  0.00    -0.074 NA 
HETATM   35  C   UNL     1      -8.057   2.993  70.062  1.00  0.00    -0.044 A  
HETATM   36  C   UNL     1      -8.698   2.318  67.948  1.00  0.00    -0.107 A  
HETATM   37  C   UNL     1      -7.929   2.073  69.053  1.00  0.00    -0.056 A  
ENDBRANCH  22  32
ENDBRANCH  21  22
ENDBRANCH  20  21
ENDBRANCH  17  20
ENDBRANCH  16  17
ENDBRANCH  15  16
ENDBRANCH  14  15
ENDBRANCH  13  14
ENDBRANCH  12  13
ENDBRANCH  11  12
ENDBRANCH  10  11
ENDBRANCH   9  10
ENDBRANCH   8   9
ENDBRANCH   7   8
ENDBRANCH   6   7
ENDBRANCH   5   6
ENDBRANCH   4   5
ENDBRANCH   3   4
ENDBRANCH   2   3
TORSDOF 22
ENDMDL
MODEL      132
REMARK 921   NORMALIZED FREE ENERGY PREDICTED BY IDOCK:   -3.55 KCAL/MOL
REMARK 922        TOTAL FREE ENERGY PREDICTED BY IDOCK:  -12.56 KCAL/MOL
REMARK 923 INTER-LIGAND FREE ENERGY PREDICTED BY IDOCK:   -9.78 KCAL/MOL
REMARK 924 INTRA-LIGAND FREE ENERGY PREDICTED BY IDOCK:   -2.78 KCAL/MOL
REMARK 927      BINDING AFFINITY PREDICTED BY RF-SCORE:    0.00 PKD
ROOT
HETATM    1  C   UNL     1     -10.687  18.770  65.908  1.00  0.00    -0.323 C  
HETATM    2  C   UNL     1      -9.866  20.045  65.984  1.00  0.00    -0.512 C  
ENDROOT
BRANCH   2   3
HETATM    3  C   UNL     1      -9.689  20.495  67.431  1.00  0.00    -0.587 C  
BRANCH   3   4
HETATM    4  C   UNL     1      -9.281  19.325  68.316  1.00  0.00    -0.394 C  
BRANCH   4   5
HETATM    5  C   UNL     1      -7.992  19.640  69.064  1.00  0.00    -0.234 C  
BRANCH   5   6
HETATM    6  C   UNL     1      -6.989  20.311  68.137  1.00  0.00    -0.314 C  
BRANCH   6   7
HETATM    7  C   UNL     1      -5.588  19.791  68.412  1.00  0.00    -0.227 C  
BRANCH   7   8
HETATM    8  C   UNL     1      -5.226  18.694  67.423  1.00  0.00    -0.148 C  
BRANCH   8   9
HETATM    9  C   UNL     1      -6.130  18.781  66.205  1.00  0.00    -0.197 C  
BRANCH   9  10
HETATM   10  C   UNL     1      -6.951  17.511  66.061  1.00  0.00    -0.296 C  
BRANCH  10  11
HETATM   11  C   UNL     1      -6.730  16.609  67.266  1.00  0.00    -0.213 C  
BRANCH  11  12
HETATM   12  C   UNL     1      -7.597  15.363  67.152  1.00  0.00    -0.238 C  
BRANCH  12  13
HETATM   13  C   UNL     1      -9.067  15.729  67.033  1.00  0.00    -0.240 C  
BRANCH  13  14
HETATM   14  C   UNL     1      -9.735  15.042  65.837  1.00  0.00    -0.376 C  
BRANCH  14  15
HETATM   15  C   UNL     1     -10.482  13.745  66.187  1.00  0.00    -0.297 C  
BRANCH  15  16
HETATM   16  C   UNL     1      -9.495  12.658  66.604  1.00  0.00    -0.244 C  
BRANCH  16  17
HETATM   17  N   UNL     1      -9.853  11.250  66.150  1.00  0.00    -0.217 N  
HETATM   18  C   UNL     1      -8.597  10.372  66.055  1.00  0.00    -0.151 C  
HETATM   19  C   UNL     1     -10.559  11.229  64.803  1.00  0.00    -0.312 C  
BRANCH  17  20
HETATM   20  C   UNL     1     -10.762  10.602  67.239  1.00  0.00    -0.285 C  
BRANCH  20  21
HETATM   21  C   UNL     1     -10.117  10.420  68.649  1.00  0.00    -0.176 C  
BRANCH  21  22
HETATM   22  N   UNL     1     -10.545   9.146  69.218  1.00  0.00    -0.225 NA 
BRANCH  22  23
HETATM   23  C   UNL     1      -9.574   8.061  69.414  1.00  0.00    -0.160 C  
BRANCH  23  24
HETATM   24  C   UNL     1      -9.491   7.119  68.229  1.00  0.00    -0.133 A  
HETATM   25  C   UNL     1      -8.276   6.940  67.556  1.00  0.00    -0.116 A  
HETATM   26  C   UNL     1      -9.368   5.583  65.862  1.00  0.00    -0.125 A  
HETATM   27  C   UNL     1     -10.562   5.674  66.575  1.00  0.00    -0.320 A  
HETATM   28  C   UNL     1     -10.624   6.440  67.751  1.00  0.00    -0.331 A  
HETATM   29  C   UNL     1      -8.223   6.189  66.380  1.00  0.00    -0.113 A  
BRANCH  26  30
HETATM   30  O   UNL     1      -9.188   5.000  64.642  1.00  0.00    -0.095 OA 
HETATM   31  C   UNL     1      -9.575   3.644  64.468  1.00  0.00    -0.168 C  
ENDBRANCH  26  30
ENDBRANCH  23  24
ENDBRANCH  22  23
BRANCH  22  32
HETATM   32  C   UNL     1     -11.516   9.232  70.203  1.00  0.00    -0.108 A  
HETATM   33  N   UNL     1     -11.757   8.152  70.969  1.00  0.00    -0.285 NA 
HETATM   34  N   UNL     1     -12.050  10.433  70.448  1.00  0.00    -0.301 NA 
HETATM   35  C   UNL     1     -12.876  10.541  71.506  1.00  0.00    -0.463 A  
HETATM   36  C   UNL     1     -12.643   8.293  71.984  1.00  0.00    -0.349 A  
HETATM   37  C   UNL     1     -13.226   9.487  72.310  1.00  0.00    -0.507 A  
ENDBRANCH  22  32
ENDBRANCH  21  22
ENDBRANCH  20  21
ENDBRANCH  17  20
ENDBRANCH  16  17
ENDBRANCH  15  16
ENDBRANCH  14  15
ENDBRANCH  13  14
ENDBRANCH  12  13
ENDBRANCH  11  12
ENDBRANCH  10  11
ENDBRANCH   9  10
ENDBRANCH   8   9
ENDBRANCH   7   8
ENDBRANCH   6   7
ENDBRANCH   5   6
ENDBRANCH   4   5
ENDBRANCH   3   4
ENDBRANCH   2   3
TORSDOF 22
ENDMDL
MODEL      133
REMARK 921   NORMALIZED FREE ENERGY PREDICTED BY IDOCK:   -3.53 KCAL/MOL
REMARK 922        TOTAL FREE ENERGY PREDICTED BY IDOCK:  -12.52 KCAL/MOL
REMARK 923 INTER-LIGAND FREE ENERGY PREDICTED BY IDOCK:  -10.40 KCAL/MOL
REMARK 924 INTRA-LIGAND FREE ENERGY PREDICTED BY IDOCK:   -2.12 KCAL/MOL
REMARK 927      BINDING AFFINITY PREDICTED BY RF-SCORE:    0.00 PKD
ROOT
HETATM    1  C   UNL     1      -6.644   7.874  70.489  1.00  0.00    -0.037 C  
HETATM    2  C   UNL     1      -5.651   7.530  71.586  1.00  0.00    -0.036 C  
ENDROOT
BRANCH   2   3
HETATM    3  C   UNL     1      -5.755   6.059  71.976  1.00  0.00    -0.031 C  
BRANCH   3   4
HETATM    4  C   UNL     1      -6.609   5.891  73.226  1.00  0.00    -0.073 C  
BRANCH   4   5
HETATM    5  C   UNL     1      -7.796   4.977  72.947  1.00  0.00    -0.098 C  
BRANCH   5   6
HETATM    6  C   UNL     1      -7.747   4.463  71.516  1.00  0.00    -0.078 C  
BRANCH   6   7
HETATM    7  C   UNL     1      -9.019   4.842  70.775  1.00  0.00    -0.167 C  
BRANCH   7   8
HETATM    8  C   UNL     1     -10.181   4.965  71.748  1.00  0.00    -0.268 C  
BRANCH   8   9
HETATM    9  C   UNL     1     -11.058   6.143  71.358  1.00  0.00    -0.346 C  
BRANCH   9  10
HETATM   10  C   UNL     1     -10.258   7.434  71.385  1.00  0.00    -0.198 C  
BRANCH  10  11
HETATM   11  C   UNL     1     -10.810   8.409  70.357  1.00  0.00    -0.246 C  
BRANCH  11  12
HETATM   12  C   UNL     1     -11.178   9.724  71.029  1.00  0.00    -0.451 C  
BRANCH  12  13
HETATM   13  C   UNL     1     -12.287   9.525  72.048  1.00  0.00    -0.404 C  
BRANCH  13  14
HETATM   14  C   UNL     1     -13.420  10.542  71.871  1.00  0.00    -0.358 C  
BRANCH  14  15
HETATM   15  C   UNL     1     -12.951  11.950  71.472  1.00  0.00    -0.427 C  
BRANCH  15  16
HETATM   16  C   UNL     1     -13.563  12.997  72.399  1.00  0.00    -0.529 C  
BRANCH  16  17
HETATM   17  N   UNL     1     -13.081  14.423  72.172  1.00  0.00    -0.342 N  
HETATM   18  C   UNL     1     -12.238  14.909  73.359  1.00  0.00    -0.350 C  
HETATM   19  C   UNL     1     -14.225  15.403  71.958  1.00  0.00    -0.552 C  
BRANCH  17  20
HETATM   20  C   UNL     1     -12.135  14.427  70.931  1.00  0.00    -0.344 C  
BRANCH  20  21
HETATM   21  C   UNL     1     -11.790  15.830  70.339  1.00  0.00    -0.368 C  
BRANCH  21  22
HETATM   22  N   UNL     1     -10.881  15.668  69.208  1.00  0.00    -0.232 NA 
BRANCH  22  23
HETATM   23  C   UNL     1      -9.461  16.019  69.346  1.00  0.00    -0.226 C  
BRANCH  23  24
HETATM   24  C   UNL     1      -9.067  17.229  68.521  1.00  0.00    -0.269 A  
HETATM   25  C   UNL     1      -8.011  17.143  67.606  1.00  0.00    -0.187 A  
HETATM   26  C   UNL     1      -8.141  19.530  67.171  1.00  0.00    -0.271 A  
HETATM   27  C   UNL     1      -9.253  19.610  68.006  1.00  0.00    -0.409 A  
HETATM   28  C   UNL     1      -9.713  18.466  68.680  1.00  0.00    -0.387 A  
HETATM   29  C   UNL     1      -7.549  18.286  66.950  1.00  0.00    -0.237 A  
BRANCH  26  30
HETATM   30  O   UNL     1      -7.497  20.570  66.566  1.00  0.00    -0.253 OA 
HETATM   31  C   UNL     1      -6.381  21.156  67.219  1.00  0.00    -0.355 C  
ENDBRANCH  26  30
ENDBRANCH  23  24
ENDBRANCH  22  23
BRANCH  22  32
HETATM   32  C   UNL     1     -11.123  14.566  68.405  1.00  0.00    -0.256 A  
HETATM   33  N   UNL     1     -11.999  14.686  67.390  1.00  0.00    -0.350 NA 
HETATM   34  N   UNL     1     -10.354  13.485  68.580  1.00  0.00    -0.243 NA 
HETATM   35  C   UNL     1     -10.490  12.477  67.698  1.00  0.00    -0.217 A  
HETATM   36  C   UNL     1     -12.147  13.621  66.565  1.00  0.00    -0.423 A  
HETATM   37  C   UNL     1     -11.394  12.483  66.666  1.00  0.00    -0.389 A  
ENDBRANCH  22  32
ENDBRANCH  21  22
ENDBRANCH  20  21
ENDBRANCH  17  20
ENDBRANCH  16  17
ENDBRANCH  15  16
ENDBRANCH  14  15
ENDBRANCH  13  14
ENDBRANCH  12  13
ENDBRANCH  11  12
ENDBRANCH  10  11
ENDBRANCH   9  10
ENDBRANCH   8   9
ENDBRANCH   7   8
ENDBRANCH   6   7
ENDBRANCH   5   6
ENDBRANCH   4   5
ENDBRANCH   3   4
ENDBRANCH   2   3
TORSDOF 22
ENDMDL
MODEL      134
REMARK 921   NORMALIZED FREE ENERGY PREDICTED BY IDOCK:   -3.52 KCAL/MOL
REMARK 922        TOTAL FREE ENERGY PREDICTED BY IDOCK:  -12.51 KCAL/MOL
REMARK 923 INTER-LIGAND FREE ENERGY PREDICTED BY IDOCK:   -8.96 KCAL/MOL
REMARK 924 INTRA-LIGAND FREE ENERGY PREDICTED BY IDOCK:   -3.55 KCAL/MOL
REMARK 927      BINDING AFFINITY PREDICTED BY RF-SCORE:    0.00 PKD
ROOT
HETATM    1  C   UNL     1      -8.506   4.456  68.339  1.00  0.00    -0.101 C  
HETATM    2  C   UNL     1      -7.487   5.372  68.994  1.00  0.00    -0.074 C  
ENDROOT
BRANCH   2   3
HETATM    3  C   UNL     1      -7.857   5.652  70.447  1.00  0.00    -0.102 C  
BRANCH   3   4
HETATM    4  C   UNL     1      -9.061   4.819  70.868  1.00  0.00    -0.181 C  
BRANCH   4   5
HETATM    5  C   UNL     1     -10.154   5.708  71.448  1.00  0.00    -0.254 C  
BRANCH   5   6
HETATM    6  C   UNL     1     -11.324   5.813  70.482  1.00  0.00    -0.088 C  
BRANCH   6   7
HETATM    7  C   UNL     1     -12.033   7.147  70.654  1.00  0.00    -0.312 C  
BRANCH   7   8
HETATM    8  C   UNL     1     -11.019   8.267  70.819  1.00  0.00    -0.266 C  
BRANCH   8   9
HETATM    9  C   UNL     1     -10.758   8.929  69.477  1.00  0.00    -0.206 C  
BRANCH   9  10
HETATM   10  C   UNL     1      -9.301   8.770  69.079  1.00  0.00    -0.145 C  
BRANCH  10  11
HETATM   11  C   UNL     1      -9.201   8.397  67.608  1.00  0.00    -0.147 C  
BRANCH  11  12
HETATM   12  C   UNL     1      -9.834   9.482  66.750  1.00  0.00    -0.277 C  
BRANCH  12  13
HETATM   13  C   UNL     1      -9.518   9.270  65.279  1.00  0.00    -0.234 C  
BRANCH  13  14
HETATM   14  C   UNL     1     -10.046  10.414  64.406  1.00  0.00    -0.342 C  
BRANCH  14  15
HETATM   15  C   UNL     1     -10.769  11.524  65.185  1.00  0.00    -0.348 C  
BRANCH  15  16
HETATM   16  C   UNL     1     -11.114  12.687  64.259  1.00  0.00    -0.362 C  
BRANCH  16  17
HETATM   17  N   UNL     1     -11.412  14.005  64.959  1.00  0.00    -0.330 N  
HETATM   18  C   UNL     1     -12.327  14.886  64.096  1.00  0.00    -0.185 C  
HETATM   19  C   UNL     1     -10.154  14.793  65.289  1.00  0.00    -0.354 C  
BRANCH  17  20
HETATM   20  C   UNL     1     -12.206  13.696  66.266  1.00  0.00    -0.436 C  
BRANCH  20  21
HETATM   21  C   UNL     1     -11.703  14.412  67.558  1.00  0.00    -0.387 C  
BRANCH  21  22
HETATM   22  N   UNL     1     -11.670  13.455  68.661  1.00  0.00    -0.328 NA 
BRANCH  22  23
HETATM   23  C   UNL     1     -10.543  12.523  68.796  1.00  0.00    -0.175 C  
BRANCH  23  24
HETATM   24  C   UNL     1      -9.202  13.170  68.508  1.00  0.00    -0.066 A  
HETATM   25  C   UNL     1      -8.881  14.409  69.077  1.00  0.00     0.009 A  
HETATM   26  C   UNL     1      -6.830  14.520  67.780  1.00  0.00    -0.177 A  
HETATM   27  C   UNL     1      -7.090  13.246  67.281  1.00  0.00    -0.016 A  
HETATM   28  C   UNL     1      -8.271  12.576  67.640  1.00  0.00    -0.172 A  
HETATM   29  C   UNL     1      -7.714  15.078  68.706  1.00  0.00    -0.141 A  
BRANCH  26  30
HETATM   30  O   UNL     1      -5.808  15.348  67.417  1.00  0.00    -0.321 OA 
HETATM   31  C   UNL     1      -5.799  16.680  67.908  1.00  0.00    -0.127 C  
ENDBRANCH  26  30
ENDBRANCH  23  24
ENDBRANCH  22  23
BRANCH  22  32
HETATM   32  C   UNL     1     -12.177  13.919  69.864  1.00  0.00    -0.333 A  
HETATM   33  N   UNL     1     -12.535  15.213  69.958  1.00  0.00    -0.306 NA 
HETATM   34  N   UNL     1     -12.436  13.020  70.820  1.00  0.00    -0.339 NA 
HETATM   35  C   UNL     1     -13.071  13.453  71.925  1.00  0.00    -0.383 A  
HETATM   36  C   UNL     1     -13.115  15.617  71.115  1.00  0.00    -0.459 A  
HETATM   37  C   UNL     1     -13.424  14.761  72.137  1.00  0.00    -0.491 A  
ENDBRANCH  22  32
ENDBRANCH  21  22
ENDBRANCH  20  21
ENDBRANCH  17  20
ENDBRANCH  16  17
ENDBRANCH  15  16
ENDBRANCH  14  15
ENDBRANCH  13  14
ENDBRANCH  12  13
ENDBRANCH  11  12
ENDBRANCH  10  11
ENDBRANCH   9  10
ENDBRANCH   8   9
ENDBRANCH   7   8
ENDBRANCH   6   7
ENDBRANCH   5   6
ENDBRANCH   4   5
ENDBRANCH   3   4
ENDBRANCH   2   3
TORSDOF 22
ENDMDL
MODEL      135
REMARK 921   NORMALIZED FREE ENERGY PREDICTED BY IDOCK:   -3.49 KCAL/MOL
REMARK 922        TOTAL FREE ENERGY PREDICTED BY IDOCK:  -12.43 KCAL/MOL
REMARK 923 INTER-LIGAND FREE ENERGY PREDICTED BY IDOCK:   -9.52 KCAL/MOL
REMARK 924 INTRA-LIGAND FREE ENERGY PREDICTED BY IDOCK:   -2.91 KCAL/MOL
REMARK 927      BINDING AFFINITY PREDICTED BY RF-SCORE:    0.00 PKD
ROOT
HETATM    1  C   UNL     1     -10.803   5.492  66.577  1.00  0.00    -0.237 C  
HETATM    2  C   UNL     1     -10.838   6.218  67.911  1.00  0.00    -0.417 C  
ENDROOT
BRANCH   2   3
HETATM    3  C   UNL     1      -9.698   5.759  68.814  1.00  0.00    -0.168 C  
BRANCH   3   4
HETATM    4  C   UNL     1     -10.173   5.618  70.254  1.00  0.00    -0.311 C  
BRANCH   4   5
HETATM    5  C   UNL     1     -11.416   6.465  70.496  1.00  0.00    -0.444 C  
BRANCH   5   6
HETATM    6  C   UNL     1     -11.533   6.828  71.970  1.00  0.00    -0.317 C  
BRANCH   6   7
HETATM    7  C   UNL     1     -10.907   8.189  72.229  1.00  0.00    -0.388 C  
BRANCH   7   8
HETATM    8  C   UNL     1     -11.088   9.093  71.021  1.00  0.00    -0.374 C  
BRANCH   8   9
HETATM    9  C   UNL     1     -12.380   9.880  71.155  1.00  0.00    -0.466 C  
BRANCH   9  10
HETATM   10  C   UNL     1     -12.174  11.320  70.715  1.00  0.00    -0.479 C  
BRANCH  10  11
HETATM   11  C   UNL     1     -13.005  12.252  71.583  1.00  0.00    -0.416 C  
BRANCH  11  12
HETATM   12  C   UNL     1     -12.432  13.661  71.533  1.00  0.00    -0.330 C  
BRANCH  12  13
HETATM   13  C   UNL     1     -13.285  14.567  70.661  1.00  0.00    -0.228 C  
BRANCH  13  14
HETATM   14  C   UNL     1     -12.514  15.807  70.193  1.00  0.00    -0.240 C  
BRANCH  14  15
HETATM   15  C   UNL     1     -11.067  15.527  69.759  1.00  0.00    -0.300 C  
BRANCH  15  16
HETATM   16  C   UNL     1     -10.368  16.825  69.368  1.00  0.00    -0.276 C  
BRANCH  16  17
HETATM   17  N   UNL     1      -9.425  16.720  68.178  1.00  0.00    -0.229 N  
HETATM   18  C   UNL     1      -8.365  17.829  68.222  1.00  0.00    -0.276 C  
HETATM   19  C   UNL     1     -10.153  16.800  66.844  1.00  0.00    -0.286 C  
BRANCH  17  20
HETATM   20  C   UNL     1      -8.653  15.368  68.284  1.00  0.00    -0.158 C  
BRANCH  20  21
HETATM   21  C   UNL     1      -8.303  14.671  66.932  1.00  0.00    -0.126 C  
BRANCH  21  22
HETATM   22  N   UNL     1      -8.992  13.387  66.856  1.00  0.00    -0.228 NA 
BRANCH  22  23
HETATM   23  C   UNL     1      -8.933  12.449  67.986  1.00  0.00    -0.194 C  
BRANCH  23  24
HETATM   24  C   UNL     1      -8.200  11.165  67.651  1.00  0.00    -0.118 A  
HETATM   25  C   UNL     1      -7.517  11.040  66.435  1.00  0.00    -0.131 A  
HETATM   26  C   UNL     1      -7.056   8.699  66.886  1.00  0.00    -0.075 A  
HETATM   27  C   UNL     1      -7.649   8.835  68.139  1.00  0.00    -0.097 A  
HETATM   28  C   UNL     1      -8.220  10.061  68.519  1.00  0.00    -0.108 A  
HETATM   29  C   UNL     1      -6.963   9.816  66.056  1.00  0.00    -0.099 A  
BRANCH  26  30
HETATM   30  O   UNL     1      -6.589   7.546  66.324  1.00  0.00    -0.047 OA 
HETATM   31  C   UNL     1      -5.722   7.634  65.203  1.00  0.00    -0.037 C  
ENDBRANCH  26  30
ENDBRANCH  23  24
ENDBRANCH  22  23
BRANCH  22  32
HETATM   32  C   UNL     1     -10.206  13.403  66.188  1.00  0.00    -0.301 A  
HETATM   33  N   UNL     1     -10.205  13.552  64.850  1.00  0.00    -0.354 NA 
HETATM   34  N   UNL     1     -11.307  13.109  66.887  1.00  0.00    -0.304 NA 
HETATM   35  C   UNL     1     -12.459  12.974  66.204  1.00  0.00    -0.120 A  
HETATM   36  C   UNL     1     -11.398  13.470  64.213  1.00  0.00    -0.375 A  
HETATM   37  C   UNL     1     -12.569  13.162  64.850  1.00  0.00    -0.468 A  
ENDBRANCH  22  32
ENDBRANCH  21  22
ENDBRANCH  20  21
ENDBRANCH  17  20
ENDBRANCH  16  17
ENDBRANCH  15  16
ENDBRANCH  14  15
ENDBRANCH  13  14
ENDBRANCH  12  13
ENDBRANCH  11  12
ENDBRANCH  10  11
ENDBRANCH   9  10
ENDBRANCH   8   9
ENDBRANCH   7   8
ENDBRANCH   6   7
ENDBRANCH   5   6
ENDBRANCH   4   5
ENDBRANCH   3   4
ENDBRANCH   2   3
TORSDOF 22
ENDMDL
MODEL      136
REMARK 921   NORMALIZED FREE ENERGY PREDICTED BY IDOCK:   -3.48 KCAL/MOL
REMARK 922        TOTAL FREE ENERGY PREDICTED BY IDOCK:  -12.41 KCAL/MOL
REMARK 923 INTER-LIGAND FREE ENERGY PREDICTED BY IDOCK:   -9.26 KCAL/MOL
REMARK 924 INTRA-LIGAND FREE ENERGY PREDICTED BY IDOCK:   -3.15 KCAL/MOL
REMARK 927      BINDING AFFINITY PREDICTED BY RF-SCORE:    0.00 PKD
ROOT
HETATM    1  C   UNL     1     -10.907   6.563  66.819  1.00  0.00    -0.345 C  
HETATM    2  C   UNL     1      -9.517   6.143  66.375  1.00  0.00    -0.172 C  
ENDROOT
BRANCH   2   3
HETATM    3  C   UNL     1      -9.555   4.799  65.656  1.00  0.00    -0.184 C  
BRANCH   3   4
HETATM    4  C   UNL     1      -8.257   4.032  65.872  1.00  0.00    -0.108 C  
BRANCH   4   5
HETATM    5  C   UNL     1      -7.906   3.976  67.354  1.00  0.00    -0.091 C  
BRANCH   5   6
HETATM    6  C   UNL     1      -8.856   3.043  68.090  1.00  0.00    -0.164 C  
BRANCH   6   7
HETATM    7  C   UNL     1      -9.467   3.751  69.289  1.00  0.00    -0.252 C  
BRANCH   7   8
HETATM    8  C   UNL     1      -8.603   4.931  69.703  1.00  0.00    -0.098 C  
BRANCH   8   9
HETATM    9  C   UNL     1      -9.481   6.049  70.238  1.00  0.00    -0.186 C  
BRANCH   9  10
HETATM   10  C   UNL     1     -10.945   5.647  70.189  1.00  0.00    -0.303 C  
BRANCH  10  11
HETATM   11  C   UNL     1     -11.824   6.845  70.510  1.00  0.00    -0.385 C  
BRANCH  11  12
HETATM   12  C   UNL     1     -12.101   6.904  72.006  1.00  0.00    -0.331 C  
BRANCH  12  13
HETATM   13  C   UNL     1     -12.014   8.330  72.522  1.00  0.00    -0.420 C  
BRANCH  13  14
HETATM   14  C   UNL     1     -13.304   9.116  72.260  1.00  0.00    -0.540 C  
BRANCH  14  15
HETATM   15  C   UNL     1     -13.085  10.517  71.669  1.00  0.00    -0.551 C  
BRANCH  15  16
HETATM   16  C   UNL     1     -13.044  10.452  70.145  1.00  0.00     0.152 C  
BRANCH  16  17
HETATM   17  N   UNL     1     -11.809  11.069  69.503  1.00  0.00    -0.307 N  
HETATM   18  C   UNL     1     -10.566  10.210  69.775  1.00  0.00    -0.260 C  
HETATM   19  C   UNL     1     -11.537  12.482  69.994  1.00  0.00    -0.130 C  
BRANCH  17  20
HETATM   20  C   UNL     1     -12.012  11.071  67.956  1.00  0.00     0.087 C  
BRANCH  20  21
HETATM   21  C   UNL     1     -10.933  10.310  67.124  1.00  0.00    -0.165 C  
BRANCH  21  22
HETATM   22  N   UNL     1     -10.139  11.271  66.364  1.00  0.00    -0.213 NA 
BRANCH  22  23
HETATM   23  C   UNL     1      -9.319  12.269  67.064  1.00  0.00    -0.205 C  
BRANCH  23  24
HETATM   24  C   UNL     1      -9.682  13.695  66.699  1.00  0.00    -0.287 A  
HETATM   25  C   UNL     1     -10.996  14.017  66.338  1.00  0.00    -0.308 A  
HETATM   26  C   UNL     1     -10.327  16.279  65.759  1.00  0.00    -0.374 A  
HETATM   27  C   UNL     1      -9.038  16.000  66.206  1.00  0.00    -0.379 A  
HETATM   28  C   UNL     1      -8.716  14.714  66.671  1.00  0.00    -0.197 A  
HETATM   29  C   UNL     1     -11.308  15.291  65.862  1.00  0.00    -0.172 A  
BRANCH  26  30
HETATM   30  O   UNL     1     -10.752  17.426  65.153  1.00  0.00    -0.684 OA 
HETATM   31  C   UNL     1     -10.682  18.646  65.876  1.00  0.00    -0.227 C  
ENDBRANCH  26  30
ENDBRANCH  23  24
ENDBRANCH  22  23
BRANCH  22  32
HETATM   32  C   UNL     1      -9.576  10.784  65.195  1.00  0.00    -0.245 A  
HETATM   33  N   UNL     1      -8.918   9.611  65.235  1.00  0.00    -0.189 NA 
HETATM   34  N   UNL     1      -9.854  11.426  64.055  1.00  0.00    -0.260 NA 
HETATM   35  C   UNL     1      -9.434  10.861  62.907  1.00  0.00    -0.355 A  
HETATM   36  C   UNL     1      -8.460   9.113  64.061  1.00  0.00    -0.184 A  
HETATM   37  C   UNL     1      -8.709   9.699  62.850  1.00  0.00    -0.227 A  
ENDBRANCH  22  32
ENDBRANCH  21  22
ENDBRANCH  20  21
ENDBRANCH  17  20
ENDBRANCH  16  17
ENDBRANCH  15  16
ENDBRANCH  14  15
ENDBRANCH  13  14
ENDBRANCH  12  13
ENDBRANCH  11  12
ENDBRANCH  10  11
ENDBRANCH   9  10
ENDBRANCH   8   9
ENDBRANCH   7   8
ENDBRANCH   6   7
ENDBRANCH   5   6
ENDBRANCH   4   5
ENDBRANCH   3   4
ENDBRANCH   2   3
TORSDOF 22
ENDMDL
MODEL      137
REMARK 921   NORMALIZED FREE ENERGY PREDICTED BY IDOCK:   -3.46 KCAL/MOL
REMARK 922        TOTAL FREE ENERGY PREDICTED BY IDOCK:  -12.37 KCAL/MOL
REMARK 923 INTER-LIGAND FREE ENERGY PREDICTED BY IDOCK:   -9.23 KCAL/MOL
REMARK 924 INTRA-LIGAND FREE ENERGY PREDICTED BY IDOCK:   -3.14 KCAL/MOL
REMARK 927      BINDING AFFINITY PREDICTED BY RF-SCORE:    0.00 PKD
ROOT
HETATM    1  C   UNL     1     -11.171   2.637  73.601  1.00  0.00    -0.315 C  
HETATM    2  C   UNL     1      -9.922   3.038  74.366  1.00  0.00    -0.172 C  
ENDROOT
BRANCH   2   3
HETATM    3  C   UNL     1      -8.827   3.511  73.416  1.00  0.00    -0.088 C  
BRANCH   3   4
HETATM    4  C   UNL     1      -8.265   4.854  73.864  1.00  0.00    -0.105 C  
BRANCH   4   5
HETATM    5  C   UNL     1      -8.810   5.982  72.996  1.00  0.00    -0.121 C  
BRANCH   5   6
HETATM    6  C   UNL     1      -9.824   6.809  73.773  1.00  0.00    -0.289 C  
BRANCH   6   7
HETATM    7  C   UNL     1     -11.145   6.862  73.023  1.00  0.00    -0.267 C  
BRANCH   7   8
HETATM    8  C   UNL     1     -11.041   6.100  71.712  1.00  0.00    -0.327 C  
BRANCH   8   9
HETATM    9  C   UNL     1     -11.647   6.923  70.588  1.00  0.00    -0.402 C  
BRANCH   9  10
HETATM   10  C   UNL     1     -11.370   6.272  69.244  1.00  0.00    -0.411 C  
BRANCH  10  11
HETATM   11  C   UNL     1     -10.469   7.169  68.409  1.00  0.00    -0.228 C  
BRANCH  11  12
HETATM   12  C   UNL     1      -9.097   6.530  68.251  1.00  0.00    -0.119 C  
BRANCH  12  13
HETATM   13  C   UNL     1      -7.993   7.510  68.610  1.00  0.00    -0.123 C  
BRANCH  13  14
HETATM   14  C   UNL     1      -7.975   7.831  70.109  1.00  0.00    -0.112 C  
BRANCH  14  15
HETATM   15  C   UNL     1      -8.159   9.320  70.441  1.00  0.00    -0.178 C  
BRANCH  15  16
HETATM   16  C   UNL     1      -6.879  10.095  70.138  1.00  0.00    -0.146 C  
BRANCH  16  17
HETATM   17  N   UNL     1      -6.953  11.020  68.931  1.00  0.00    -0.080 N  
HETATM   18  C   UNL     1      -6.218  10.408  67.730  1.00  0.00    -0.056 C  
HETATM   19  C   UNL     1      -6.365  12.395  69.209  1.00  0.00    -0.106 C  
BRANCH  17  20
HETATM   20  C   UNL     1      -8.449  11.154  68.509  1.00  0.00    -0.156 C  
BRANCH  20  21
HETATM   21  C   UNL     1      -8.739  12.115  67.313  1.00  0.00    -0.182 C  
BRANCH  21  22
HETATM   22  N   UNL     1      -9.871  11.605  66.545  1.00  0.00    -0.200 NA 
BRANCH  22  23
HETATM   23  C   UNL     1     -11.214  12.163  66.750  1.00  0.00    -0.322 C  
BRANCH  23  24
HETATM   24  C   UNL     1     -11.569  12.328  68.215  1.00  0.00    -0.385 A  
HETATM   25  C   UNL     1     -11.794  11.202  69.016  1.00  0.00    -0.418 A  
HETATM   26  C   UNL     1     -12.490  12.609  70.870  1.00  0.00    -0.278 A  
HETATM   27  C   UNL     1     -12.178  13.737  70.115  1.00  0.00    -0.425 A  
HETATM   28  C   UNL     1     -11.722  13.598  68.794  1.00  0.00    -0.383 A  
HETATM   29  C   UNL     1     -12.261  11.345  70.324  1.00  0.00    -0.433 A  
BRANCH  26  30
HETATM   30  O   UNL     1     -13.071  12.586  72.105  1.00  0.00    -0.416 OA 
HETATM   31  C   UNL     1     -13.771  13.738  72.552  1.00  0.00    -0.561 C  
ENDBRANCH  26  30
ENDBRANCH  23  24
ENDBRANCH  22  23
BRANCH  22  32
HETATM   32  C   UNL     1      -9.588  11.257  65.234  1.00  0.00    -0.232 A  
HETATM   33  N   UNL     1      -8.516  10.482  64.987  1.00  0.00    -0.175 NA 
HETATM   34  N   UNL     1     -10.488  11.575  64.297  1.00  0.00    -0.310 NA 
HETATM   35  C   UNL     1     -10.284  11.101  63.053  1.00  0.00    -0.214 A  
HETATM   36  C   UNL     1      -8.318  10.080  63.708  1.00  0.00    -0.170 A  
HETATM   37  C   UNL     1      -9.194  10.352  62.692  1.00  0.00    -0.322 A  
ENDBRANCH  22  32
ENDBRANCH  21  22
ENDBRANCH  20  21
ENDBRANCH  17  20
ENDBRANCH  16  17
ENDBRANCH  15  16
ENDBRANCH  14  15
ENDBRANCH  13  14
ENDBRANCH  12  13
ENDBRANCH  11  12
ENDBRANCH  10  11
ENDBRANCH   9  10
ENDBRANCH   8   9
ENDBRANCH   7   8
ENDBRANCH   6   7
ENDBRANCH   5   6
ENDBRANCH   4   5
ENDBRANCH   3   4
ENDBRANCH   2   3
TORSDOF 22
ENDMDL
MODEL      138
REMARK 921   NORMALIZED FREE ENERGY PREDICTED BY IDOCK:   -3.45 KCAL/MOL
REMARK 922        TOTAL FREE ENERGY PREDICTED BY IDOCK:  -12.33 KCAL/MOL
REMARK 923 INTER-LIGAND FREE ENERGY PREDICTED BY IDOCK:   -9.18 KCAL/MOL
REMARK 924 INTRA-LIGAND FREE ENERGY PREDICTED BY IDOCK:   -3.15 KCAL/MOL
REMARK 927      BINDING AFFINITY PREDICTED BY RF-SCORE:    0.00 PKD
ROOT
HETATM    1  C   UNL     1     -10.683  12.723  63.910  1.00  0.00    -0.443 C  
HETATM    2  C   UNL     1     -11.450  13.618  64.867  1.00  0.00    -0.352 C  
ENDROOT
BRANCH   2   3
HETATM    3  C   UNL     1     -11.231  13.187  66.313  1.00  0.00    -0.328 C  
BRANCH   3   4
HETATM    4  C   UNL     1     -11.889  14.168  67.275  1.00  0.00    -0.452 C  
BRANCH   4   5
HETATM    5  C   UNL     1     -11.269  15.553  67.139  1.00  0.00    -0.204 C  
BRANCH   5   6
HETATM    6  C   UNL     1      -9.881  15.578  67.762  1.00  0.00    -0.213 C  
BRANCH   6   7
HETATM    7  C   UNL     1      -8.830  15.846  66.697  1.00  0.00    -0.316 C  
BRANCH   7   8
HETATM    8  C   UNL     1      -7.532  16.309  67.339  1.00  0.00    -0.190 C  
BRANCH   8   9
HETATM    9  C   UNL     1      -6.897  15.161  68.103  1.00  0.00    -0.135 C  
BRANCH   9  10
HETATM   10  C   UNL     1      -7.087  13.853  67.354  1.00  0.00    -0.091 C  
BRANCH  10  11
HETATM   11  C   UNL     1      -7.374  12.728  68.337  1.00  0.00    -0.118 C  
BRANCH  11  12
HETATM   12  C   UNL     1      -8.313  11.710  67.706  1.00  0.00    -0.143 C  
BRANCH  12  13
HETATM   13  C   UNL     1      -7.536  10.641  66.956  1.00  0.00    -0.106 C  
BRANCH  13  14
HETATM   14  C   UNL     1      -8.396   9.941  65.898  1.00  0.00    -0.126 C  
BRANCH  14  15
HETATM   15  C   UNL     1      -9.599   9.172  66.465  1.00  0.00    -0.289 C  
BRANCH  15  16
HETATM   16  C   UNL     1      -9.173   8.319  67.656  1.00  0.00    -0.137 C  
BRANCH  16  17
HETATM   17  N   UNL     1      -9.665   6.878  67.629  1.00  0.00    -0.125 N  
HETATM   18  C   UNL     1      -8.785   6.018  66.712  1.00  0.00    -0.119 C  
HETATM   19  C   UNL     1     -11.109   6.760  67.164  1.00  0.00    -0.333 C  
BRANCH  17  20
HETATM   20  C   UNL     1      -9.516   6.285  69.064  1.00  0.00    -0.128 C  
BRANCH  20  21
HETATM   21  C   UNL     1      -8.923   7.243  70.144  1.00  0.00    -0.148 C  
BRANCH  21  22
HETATM   22  N   UNL     1      -9.892   7.420  71.221  1.00  0.00    -0.177 NA 
BRANCH  22  23
HETATM   23  C   UNL     1     -11.318   7.585  70.912  1.00  0.00    -0.277 C  
BRANCH  23  24
HETATM   24  C   UNL     1     -11.749   9.038  70.860  1.00  0.00    -0.327 A  
HETATM   25  C   UNL     1     -11.158   9.915  69.943  1.00  0.00    -0.318 A  
HETATM   26  C   UNL     1     -12.336  11.800  70.923  1.00  0.00    -0.320 A  
HETATM   27  C   UNL     1     -13.002  10.924  71.777  1.00  0.00    -0.557 A  
HETATM   28  C   UNL     1     -12.709   9.551  71.748  1.00  0.00    -0.492 A  
HETATM   29  C   UNL     1     -11.442  11.281  69.985  1.00  0.00    -0.359 A  
BRANCH  26  30
HETATM   30  O   UNL     1     -12.409  13.162  70.930  1.00  0.00    -0.364 OA 
HETATM   31  C   UNL     1     -13.418  13.788  71.708  1.00  0.00    -0.376 C  
ENDBRANCH  26  30
ENDBRANCH  23  24
ENDBRANCH  22  23
BRANCH  22  32
HETATM   32  C   UNL     1      -9.635   6.696  72.375  1.00  0.00    -0.147 A  
HETATM   33  N   UNL     1     -10.378   6.940  73.469  1.00  0.00    -0.303 NA 
HETATM   34  N   UNL     1      -8.768   5.680  72.293  1.00  0.00    -0.132 NA 
HETATM   35  C   UNL     1      -8.639   4.887  73.372  1.00  0.00    -0.105 A  
HETATM   36  C   UNL     1     -10.168   6.154  74.553  1.00  0.00    -0.300 A  
HETATM   37  C   UNL     1      -9.310   5.088  74.551  1.00  0.00    -0.133 A  
ENDBRANCH  22  32
ENDBRANCH  21  22
ENDBRANCH  20  21
ENDBRANCH  17  20
ENDBRANCH  16  17
ENDBRANCH  15  16
ENDBRANCH  14  15
ENDBRANCH  13  14
ENDBRANCH  12  13
ENDBRANCH  11  12
ENDBRANCH  10  11
ENDBRANCH   9  10
ENDBRANCH   8   9
ENDBRANCH   7   8
ENDBRANCH   6   7
ENDBRANCH   5   6
ENDBRANCH   4   5
ENDBRANCH   3   4
ENDBRANCH   2   3
TORSDOF 22
ENDMDL
MODEL      139
REMARK 921   NORMALIZED FREE ENERGY PREDICTED BY IDOCK:   -3.42 KCAL/MOL
REMARK 922        TOTAL FREE ENERGY PREDICTED BY IDOCK:  -12.26 KCAL/MOL
REMARK 923 INTER-LIGAND FREE ENERGY PREDICTED BY IDOCK:   -9.73 KCAL/MOL
REMARK 924 INTRA-LIGAND FREE ENERGY PREDICTED BY IDOCK:   -2.53 KCAL/MOL
REMARK 927      BINDING AFFINITY PREDICTED BY RF-SCORE:    0.00 PKD
ROOT
HETATM    1  C   UNL     1      -7.966   2.698  63.245  1.00  0.00    -0.073 C  
HETATM    2  C   UNL     1      -6.559   2.150  63.401  1.00  0.00    -0.022 C  
ENDROOT
BRANCH   2   3
HETATM    3  C   UNL     1      -6.287   1.741  64.845  1.00  0.00    -0.019 C  
BRANCH   3   4
HETATM    4  C   UNL     1      -7.514   1.982  65.715  1.00  0.00    -0.066 C  
BRANCH   4   5
HETATM    5  C   UNL     1      -7.105   2.283  67.151  1.00  0.00    -0.048 C  
BRANCH   5   6
HETATM    6  C   UNL     1      -7.938   3.425  67.713  1.00  0.00    -0.080 C  
BRANCH   6   7
HETATM    7  C   UNL     1      -7.429   4.757  67.188  1.00  0.00    -0.086 C  
BRANCH   7   8
HETATM    8  C   UNL     1      -7.400   5.790  68.304  1.00  0.00    -0.080 C  
BRANCH   8   9
HETATM    9  C   UNL     1      -8.711   6.557  68.331  1.00  0.00    -0.121 C  
BRANCH   9  10
HETATM   10  C   UNL     1      -9.200   6.824  66.918  1.00  0.00    -0.162 C  
BRANCH  10  11
HETATM   11  C   UNL     1     -10.492   7.627  66.959  1.00  0.00    -0.419 C  
BRANCH  11  12
HETATM   12  C   UNL     1     -10.250   9.032  66.427  1.00  0.00    -0.297 C  
BRANCH  12  13
HETATM   13  C   UNL     1      -8.973   9.094  65.606  1.00  0.00    -0.249 C  
BRANCH  13  14
HETATM   14  C   UNL     1      -9.012  10.216  64.563  1.00  0.00    -0.253 C  
BRANCH  14  15
HETATM   15  C   UNL     1      -9.544  11.556  65.095  1.00  0.00    -0.235 C  
BRANCH  15  16
HETATM   16  C   UNL     1     -10.230  12.338  63.977  1.00  0.00    -0.373 C  
BRANCH  16  17
HETATM   17  N   UNL     1     -11.658  12.774  64.275  1.00  0.00    -0.350 N  
HETATM   18  C   UNL     1     -12.666  11.854  63.574  1.00  0.00    -0.405 C  
HETATM   19  C   UNL     1     -11.934  14.208  63.847  1.00  0.00    -0.243 C  
BRANCH  17  20
HETATM   20  C   UNL     1     -11.908  12.616  65.806  1.00  0.00    -0.444 C  
BRANCH  20  21
HETATM   21  C   UNL     1     -12.396  13.895  66.556  1.00  0.00    -0.404 C  
BRANCH  21  22
HETATM   22  N   UNL     1     -11.399  14.285  67.549  1.00  0.00    -0.310 NA 
BRANCH  22  23
HETATM   23  C   UNL     1     -10.599  13.261  68.234  1.00  0.00    -0.251 C  
BRANCH  23  24
HETATM   24  C   UNL     1     -11.406  12.446  69.226  1.00  0.00    -0.315 A  
HETATM   25  C   UNL     1     -12.157  13.087  70.218  1.00  0.00    -0.388 A  
HETATM   26  C   UNL     1     -12.698  10.954  71.247  1.00  0.00    -0.437 A  
HETATM   27  C   UNL     1     -12.034  10.300  70.212  1.00  0.00    -0.348 A  
HETATM   28  C   UNL     1     -11.389  11.041  69.208  1.00  0.00    -0.350 A  
HETATM   29  C   UNL     1     -12.784  12.347  71.222  1.00  0.00    -0.347 A  
BRANCH  26  30
HETATM   30  O   UNL     1     -13.245  10.381  72.358  1.00  0.00    -0.307 OA 
HETATM   31  C   UNL     1     -13.826   9.091  72.246  1.00  0.00    -0.484 C  
ENDBRANCH  26  30
ENDBRANCH  23  24
ENDBRANCH  22  23
BRANCH  22  32
HETATM   32  C   UNL     1     -10.715  15.458  67.274  1.00  0.00    -0.307 A  
HETATM   33  N   UNL     1      -9.816  15.462  66.274  1.00  0.00    -0.276 NA 
HETATM   34  N   UNL     1     -11.100  16.569  67.913  1.00  0.00    -0.283 NA 
HETATM   35  C   UNL     1     -10.539  17.731  67.530  1.00  0.00    -0.359 A  
HETATM   36  C   UNL     1      -9.231  16.645  65.966  1.00  0.00    -0.228 A  
HETATM   37  C   UNL     1      -9.573  17.829  66.561  1.00  0.00    -0.315 A  
ENDBRANCH  22  32
ENDBRANCH  21  22
ENDBRANCH  20  21
ENDBRANCH  17  20
ENDBRANCH  16  17
ENDBRANCH  15  16
ENDBRANCH  14  15
ENDBRANCH  13  14
ENDBRANCH  12  13
ENDBRANCH  11  12
ENDBRANCH  10  11
ENDBRANCH   9  10
ENDBRANCH   8   9
ENDBRANCH   7   8
ENDBRANCH   6   7
ENDBRANCH   5   6
ENDBRANCH   4   5
ENDBRANCH   3   4
ENDBRANCH   2   3
TORSDOF 22
ENDMDL
MODEL      140
REMARK 921   NORMALIZED FREE ENERGY PREDICTED BY IDOCK:   -3.41 KCAL/MOL
REMARK 922        TOTAL FREE ENERGY PREDICTED BY IDOCK:  -12.24 KCAL/MOL
REMARK 923 INTER-LIGAND FREE ENERGY PREDICTED BY IDOCK:   -8.58 KCAL/MOL
REMARK 924 INTRA-LIGAND FREE ENERGY PREDICTED BY IDOCK:   -3.66 KCAL/MOL
REMARK 927      BINDING AFFINITY PREDICTED BY RF-SCORE:    0.00 PKD
ROOT
HETATM    1  C   UNL     1     -11.015   6.624  69.920  1.00  0.00    -0.373 C  
HETATM    2  C   UNL     1     -11.436   6.177  71.309  1.00  0.00    -0.311 C  
ENDROOT
BRANCH   2   3
HETATM    3  C   UNL     1     -12.785   6.776  71.690  1.00  0.00    -0.360 C  
BRANCH   3   4
HETATM    4  C   UNL     1     -12.608   8.152  72.320  1.00  0.00    -0.314 C  
BRANCH   4   5
HETATM    5  C   UNL     1     -13.666   9.119  71.803  1.00  0.00    -0.465 C  
BRANCH   5   6
HETATM    6  C   UNL     1     -13.009  10.339  71.174  1.00  0.00    -0.503 C  
BRANCH   6   7
HETATM    7  C   UNL     1     -11.530  10.078  70.937  1.00  0.00    -0.452 C  
BRANCH   7   8
HETATM    8  C   UNL     1     -11.193  10.245  69.464  1.00  0.00    -0.314 C  
BRANCH   8   9
HETATM    9  C   UNL     1     -12.089  11.304  68.847  1.00  0.00    -0.292 C  
BRANCH   9  10
HETATM   10  C   UNL     1     -11.416  12.665  68.893  1.00  0.00    -0.354 C  
BRANCH  10  11
HETATM   11  C   UNL     1     -12.362  13.693  69.494  1.00  0.00    -0.232 C  
BRANCH  11  12
HETATM   12  C   UNL     1     -11.682  14.418  70.647  1.00  0.00    -0.315 C  
BRANCH  12  13
HETATM   13  C   UNL     1     -11.571  15.907  70.366  1.00  0.00    -0.387 C  
BRANCH  13  14
HETATM   14  C   UNL     1     -10.187  16.289  69.829  1.00  0.00    -0.169 C  
BRANCH  14  15
HETATM   15  C   UNL     1      -9.163  15.144  69.843  1.00  0.00     0.123 C  
BRANCH  15  16
HETATM   16  C   UNL     1      -7.773  15.667  69.490  1.00  0.00    -0.185 C  
BRANCH  16  17
HETATM   17  N   UNL     1      -6.714  14.596  69.275  1.00  0.00    -0.124 N  
HETATM   18  C   UNL     1      -6.019  14.243  70.597  1.00  0.00    -0.196 C  
HETATM   19  C   UNL     1      -5.652  15.014  68.268  1.00  0.00    -0.118 C  
BRANCH  17  20
HETATM   20  C   UNL     1      -7.425  13.294  68.791  1.00  0.00    -0.053 C  
BRANCH  20  21
HETATM   21  C   UNL     1      -7.340  12.996  67.261  1.00  0.00    -0.057 C  
BRANCH  21  22
HETATM   22  N   UNL     1      -8.648  12.565  66.777  1.00  0.00    -0.154 NA 
BRANCH  22  23
HETATM   23  C   UNL     1      -9.342  13.337  65.738  1.00  0.00     0.174 C  
BRANCH  23  24
HETATM   24  C   UNL     1      -9.587  14.780  66.136  1.00  0.00    -0.338 A  
HETATM   25  C   UNL     1     -10.889  15.228  66.392  1.00  0.00    -0.317 A  
HETATM   26  C   UNL     1     -10.102  17.515  66.617  1.00  0.00    -0.328 A  
HETATM   27  C   UNL     1      -8.792  17.067  66.460  1.00  0.00    -0.295 A  
HETATM   28  C   UNL     1      -8.536  15.707  66.218  1.00  0.00    -0.265 A  
HETATM   29  C   UNL     1     -11.140  16.583  66.617  1.00  0.00     0.202 A  
BRANCH  26  30
HETATM   30  O   UNL     1     -10.516  18.812  66.715  1.00  0.00    -0.385 OA 
HETATM   31  C   UNL     1     -10.655  19.389  68.006  1.00  0.00    -0.338 C  
ENDBRANCH  26  30
ENDBRANCH  23  24
ENDBRANCH  22  23
BRANCH  22  32
HETATM   32  C   UNL     1      -8.826  11.194  66.688  1.00  0.00    -0.166 A  
HETATM   33  N   UNL     1      -8.002  10.389  67.384  1.00  0.00    -0.107 NA 
HETATM   34  N   UNL     1      -9.908  10.746  66.041  1.00  0.00    -0.225 NA 
HETATM   35  C   UNL     1     -10.157   9.424  66.089  1.00  0.00    -0.254 A  
HETATM   36  C   UNL     1      -8.257   9.059  67.352  1.00  0.00    -0.108 A  
HETATM   37  C   UNL     1      -9.347   8.518  66.724  1.00  0.00    -0.232 A  
ENDBRANCH  22  32
ENDBRANCH  21  22
ENDBRANCH  20  21
ENDBRANCH  17  20
ENDBRANCH  16  17
ENDBRANCH  15  16
ENDBRANCH  14  15
ENDBRANCH  13  14
ENDBRANCH  12  13
ENDBRANCH  11  12
ENDBRANCH  10  11
ENDBRANCH   9  10
ENDBRANCH   8   9
ENDBRANCH   7   8
ENDBRANCH   6   7
ENDBRANCH   5   6
ENDBRANCH   4   5
ENDBRANCH   3   4
ENDBRANCH   2   3
TORSDOF 22
ENDMDL
MODEL      141
REMARK 921   NORMALIZED FREE ENERGY PREDICTED BY IDOCK:   -3.40 KCAL/MOL
REMARK 922        TOTAL FREE ENERGY PREDICTED BY IDOCK:  -12.23 KCAL/MOL
REMARK 923 INTER-LIGAND FREE ENERGY PREDICTED BY IDOCK:   -8.27 KCAL/MOL
REMARK 924 INTRA-LIGAND FREE ENERGY PREDICTED BY IDOCK:   -3.96 KCAL/MOL
REMARK 927      BINDING AFFINITY PREDICTED BY RF-SCORE:    0.00 PKD
ROOT
HETATM    1  C   UNL     1     -10.967  15.361  65.869  1.00  0.00    -0.293 C  
HETATM    2  C   UNL     1     -11.814  14.394  66.677  1.00  0.00    -0.417 C  
ENDROOT
BRANCH   2   3
HETATM    3  C   UNL     1     -12.409  13.310  65.784  1.00  0.00    -0.505 C  
BRANCH   3   4
HETATM    4  C   UNL     1     -12.252  13.675  64.314  1.00  0.00    -0.445 C  
BRANCH   4   5
HETATM    5  C   UNL     1     -11.702  12.495  63.523  1.00  0.00    -0.595 C  
BRANCH   5   6
HETATM    6  C   UNL     1     -10.273  12.189  63.947  1.00  0.00    -0.426 C  
BRANCH   6   7
HETATM    7  C   UNL     1      -9.758  10.959  63.218  1.00  0.00    -0.398 C  
BRANCH   7   8
HETATM    8  C   UNL     1      -9.214   9.945  64.212  1.00  0.00    -0.317 C  
BRANCH   8   9
HETATM    9  C   UNL     1      -9.897  10.123  65.557  1.00  0.00    -0.365 C  
BRANCH   9  10
HETATM   10  C   UNL     1      -9.903   8.815  66.328  1.00  0.00    -0.342 C  
BRANCH  10  11
HETATM   11  C   UNL     1     -10.629   8.996  67.653  1.00  0.00    -0.298 C  
BRANCH  11  12
HETATM   12  C   UNL     1     -11.075  10.442  67.810  1.00  0.00    -0.365 C  
BRANCH  12  13
HETATM   13  C   UNL     1     -11.585  10.707  69.217  1.00  0.00    -0.346 C  
BRANCH  13  14
HETATM   14  C   UNL     1     -10.744   9.987  70.277  1.00  0.00    -0.367 C  
BRANCH  14  15
HETATM   15  C   UNL     1     -11.567   9.256  71.350  1.00  0.00    -0.437 C  
BRANCH  15  16
HETATM   16  C   UNL     1     -11.614   7.760  71.057  1.00  0.00    -0.283 C  
BRANCH  16  17
HETATM   17  N   UNL     1     -10.660   6.908  71.882  1.00  0.00    -0.210 N  
HETATM   18  C   UNL     1     -10.948   5.414  71.680  1.00  0.00    -0.113 C  
HETATM   19  C   UNL     1     -10.735   7.217  73.370  1.00  0.00    -0.369 C  
BRANCH  17  20
HETATM   20  C   UNL     1      -9.210   7.151  71.359  1.00  0.00    -0.150 C  
BRANCH  20  21
HETATM   21  C   UNL     1      -8.923   6.681  69.898  1.00  0.00    -0.144 C  
BRANCH  21  22
HETATM   22  N   UNL     1      -7.510   6.336  69.770  1.00  0.00    -0.079 NA 
BRANCH  22  23
HETATM   23  C   UNL     1      -6.477   7.353  70.007  1.00  0.00    -0.038 C  
BRANCH  23  24
HETATM   24  C   UNL     1      -6.785   8.677  69.336  1.00  0.00    -0.049 A  
HETATM   25  C   UNL     1      -6.582   8.834  67.960  1.00  0.00    -0.061 A  
HETATM   26  C   UNL     1      -7.094  11.204  68.112  1.00  0.00    -0.071 A  
HETATM   27  C   UNL     1      -7.392  11.041  69.463  1.00  0.00    -0.064 A  
HETATM   28  C   UNL     1      -7.236   9.785  70.073  1.00  0.00    -0.130 A  
HETATM   29  C   UNL     1      -6.725  10.087  67.361  1.00  0.00    -0.073 A  
BRANCH  26  30
HETATM   30  O   UNL     1      -7.061  12.378  67.418  1.00  0.00    -0.135 OA 
HETATM   31  C   UNL     1      -8.258  13.134  67.296  1.00  0.00    -0.168 C  
ENDBRANCH  26  30
ENDBRANCH  23  24
ENDBRANCH  22  23
BRANCH  22  32
HETATM   32  C   UNL     1      -7.169   5.062  70.195  1.00  0.00    -0.058 A  
HETATM   33  N   UNL     1      -6.151   4.921  71.063  1.00  0.00    -0.017 NA 
HETATM   34  N   UNL     1      -7.974   4.052  69.846  1.00  0.00    -0.055 NA 
HETATM   35  C   UNL     1      -7.727   2.845  70.389  1.00  0.00    -0.043 A  
HETATM   36  C   UNL     1      -5.901   3.676  71.534  1.00  0.00    -0.013 A  
HETATM   37  C   UNL     1      -6.680   2.591  71.237  1.00  0.00    -0.031 A  
ENDBRANCH  22  32
ENDBRANCH  21  22
ENDBRANCH  20  21
ENDBRANCH  17  20
ENDBRANCH  16  17
ENDBRANCH  15  16
ENDBRANCH  14  15
ENDBRANCH  13  14
ENDBRANCH  12  13
ENDBRANCH  11  12
ENDBRANCH  10  11
ENDBRANCH   9  10
ENDBRANCH   8   9
ENDBRANCH   7   8
ENDBRANCH   6   7
ENDBRANCH   5   6
ENDBRANCH   4   5
ENDBRANCH   3   4
ENDBRANCH   2   3
TORSDOF 22
ENDMDL
MODEL      142
REMARK 921   NORMALIZED FREE ENERGY PREDICTED BY IDOCK:   -3.40 KCAL/MOL
REMARK 922        TOTAL FREE ENERGY PREDICTED BY IDOCK:  -12.23 KCAL/MOL
REMARK 923 INTER-LIGAND FREE ENERGY PREDICTED BY IDOCK:   -9.24 KCAL/MOL
REMARK 924 INTRA-LIGAND FREE ENERGY PREDICTED BY IDOCK:   -2.99 KCAL/MOL
REMARK 927      BINDING AFFINITY PREDICTED BY RF-SCORE:    0.00 PKD
ROOT
HETATM    1  C   UNL     1      -6.845  12.735  68.389  1.00  0.00    -0.091 C  
HETATM    2  C   UNL     1      -6.582  13.460  69.697  1.00  0.00    -0.008 C  
ENDROOT
BRANCH   2   3
HETATM    3  C   UNL     1      -7.149  14.875  69.661  1.00  0.00    -0.179 C  
BRANCH   3   4
HETATM    4  C   UNL     1      -6.699  15.607  68.403  1.00  0.00    -0.116 C  
BRANCH   4   5
HETATM    5  C   UNL     1      -6.647  17.110  68.645  1.00  0.00    -0.180 C  
BRANCH   5   6
HETATM    6  C   UNL     1      -6.482  17.855  67.328  1.00  0.00    -0.183 C  
BRANCH   6   7
HETATM    7  C   UNL     1      -6.805  19.329  67.512  1.00  0.00    -0.220 C  
BRANCH   7   8
HETATM    8  C   UNL     1      -7.638  19.837  66.346  1.00  0.00    -0.310 C  
BRANCH   8   9
HETATM    9  C   UNL     1      -9.108  19.551  66.599  1.00  0.00    -0.406 C  
BRANCH   9  10
HETATM   10  C   UNL     1      -9.455  19.795  68.058  1.00  0.00    -0.466 C  
BRANCH  10  11
HETATM   11  C   UNL     1     -10.110  18.558  68.650  1.00  0.00    -0.406 C  
BRANCH  11  12
HETATM   12  C   UNL     1     -10.460  17.572  67.545  1.00  0.00    -0.355 C  
BRANCH  12  13
HETATM   13  C   UNL     1     -10.394  16.140  68.048  1.00  0.00    -0.271 C  
BRANCH  13  14
HETATM   14  C   UNL     1      -9.928  15.168  66.958  1.00  0.00    -0.242 C  
BRANCH  14  15
HETATM   15  C   UNL     1     -10.886  15.051  65.762  1.00  0.00    -0.355 C  
BRANCH  15  16
HETATM   16  C   UNL     1     -10.355  14.037  64.753  1.00  0.00    -0.380 C  
BRANCH  16  17
HETATM   17  N   UNL     1     -11.058  12.687  64.761  1.00  0.00    -0.289 N  
HETATM   18  C   UNL     1     -11.007  12.037  63.371  1.00  0.00    -0.403 C  
HETATM   19  C   UNL     1     -12.512  12.784  65.195  1.00  0.00    -0.501 C  
BRANCH  17  20
HETATM   20  C   UNL     1     -10.277  11.735  65.720  1.00  0.00    -0.239 C  
BRANCH  20  21
HETATM   21  C   UNL     1     -11.060  11.232  66.972  1.00  0.00    -0.293 C  
BRANCH  21  22
HETATM   22  N   UNL     1     -10.570   9.910  67.352  1.00  0.00    -0.271 NA 
BRANCH  22  23
HETATM   23  C   UNL     1      -9.723   9.143  66.429  1.00  0.00    -0.262 C  
BRANCH  23  24
HETATM   24  C   UNL     1      -9.714   7.657  66.730  1.00  0.00    -0.290 A  
HETATM   25  C   UNL     1      -8.503   6.990  66.948  1.00  0.00    -0.119 A  
HETATM   26  C   UNL     1      -9.648   4.849  67.026  1.00  0.00    -0.159 A  
HETATM   27  C   UNL     1     -10.868   5.510  66.905  1.00  0.00    -0.224 A  
HETATM   28  C   UNL     1     -10.901   6.907  66.755  1.00  0.00    -0.270 A  
HETATM   29  C   UNL     1      -8.473   5.601  67.082  1.00  0.00    -0.110 A  
BRANCH  26  30
HETATM   30  O   UNL     1      -9.447   3.499  67.036  1.00  0.00    -0.197 OA 
HETATM   31  C   UNL     1      -9.097   2.870  68.260  1.00  0.00    -0.171 C  
ENDBRANCH  26  30
ENDBRANCH  23  24
ENDBRANCH  22  23
BRANCH  22  32
HETATM   32  C   UNL     1     -10.242   9.761  68.690  1.00  0.00    -0.190 A  
HETATM   33  N   UNL     1     -11.212   9.424  69.559  1.00  0.00    -0.106 NA 
HETATM   34  N   UNL     1      -8.947   9.802  69.023  1.00  0.00    -0.145 NA 
HETATM   35  C   UNL     1      -8.623   9.504  70.295  1.00  0.00    -0.226 A  
HETATM   36  C   UNL     1     -10.846   9.193  70.843  1.00  0.00    -0.278 A  
HETATM   37  C   UNL     1      -9.544   9.204  71.266  1.00  0.00    -0.331 A  
ENDBRANCH  22  32
ENDBRANCH  21  22
ENDBRANCH  20  21
ENDBRANCH  17  20
ENDBRANCH  16  17
ENDBRANCH  15  16
ENDBRANCH  14  15
ENDBRANCH  13  14
ENDBRANCH  12  13
ENDBRANCH  11  12
ENDBRANCH  10  11
ENDBRANCH   9  10
ENDBRANCH   8   9
ENDBRANCH   7   8
ENDBRANCH   6   7
ENDBRANCH   5   6
ENDBRANCH   4   5
ENDBRANCH   3   4
ENDBRANCH   2   3
TORSDOF 22
ENDMDL
MODEL      143
REMARK 921   NORMALIZED FREE ENERGY PREDICTED BY IDOCK:   -3.40 KCAL/MOL
REMARK 922        TOTAL FREE ENERGY PREDICTED BY IDOCK:  -12.22 KCAL/MOL
REMARK 923 INTER-LIGAND FREE ENERGY PREDICTED BY IDOCK:   -9.38 KCAL/MOL
REMARK 924 INTRA-LIGAND FREE ENERGY PREDICTED BY IDOCK:   -2.84 KCAL/MOL
REMARK 927      BINDING AFFINITY PREDICTED BY RF-SCORE:    0.00 PKD
ROOT
HETATM    1  C   UNL     1     -11.913   5.991  72.194  1.00  0.00    -0.261 C  
HETATM    2  C   UNL     1     -12.706   6.739  71.137  1.00  0.00    -0.254 C  
ENDROOT
BRANCH   2   3
HETATM    3  C   UNL     1     -14.037   7.229  71.697  1.00  0.00    -0.522 C  
BRANCH   3   4
HETATM    4  C   UNL     1     -14.262   8.696  71.352  1.00  0.00    -0.341 C  
BRANCH   4   5
HETATM    5  C   UNL     1     -13.140   9.559  71.915  1.00  0.00    -0.517 C  
BRANCH   5   6
HETATM    6  C   UNL     1     -12.610  10.505  70.847  1.00  0.00    -0.493 C  
BRANCH   6   7
HETATM    7  C   UNL     1     -11.247  10.040  70.361  1.00  0.00    -0.393 C  
BRANCH   7   8
HETATM    8  C   UNL     1     -10.512   9.305  71.470  1.00  0.00    -0.385 C  
BRANCH   8   9
HETATM    9  C   UNL     1      -9.102   8.965  71.017  1.00  0.00    -0.303 C  
BRANCH   9  10
HETATM   10  C   UNL     1      -8.952   7.466  70.825  1.00  0.00    -0.151 C  
BRANCH  10  11
HETATM   11  C   UNL     1      -9.117   7.111  69.355  1.00  0.00    -0.145 C  
BRANCH  11  12
HETATM   12  C   UNL     1      -8.088   6.065  68.951  1.00  0.00    -0.104 C  
BRANCH  12  13
HETATM   13  C   UNL     1      -6.975   6.684  68.123  1.00  0.00    -0.077 C  
BRANCH  13  14
HETATM   14  C   UNL     1      -7.064   8.214  68.093  1.00  0.00    -0.082 C  
BRANCH  14  15
HETATM   15  C   UNL     1      -7.080   8.821  66.682  1.00  0.00    -0.081 C  
BRANCH  15  16
HETATM   16  C   UNL     1      -8.398   8.506  65.981  1.00  0.00    -0.130 C  
BRANCH  16  17
HETATM   17  N   UNL     1      -9.324   9.697  65.776  1.00  0.00    -0.208 N  
HETATM   18  C   UNL     1     -10.636   9.506  66.549  1.00  0.00    -0.062 C  
HETATM   19  C   UNL     1      -9.656   9.937  64.311  1.00  0.00    -0.151 C  
BRANCH  17  20
HETATM   20  C   UNL     1      -8.636  10.960  66.381  1.00  0.00    -0.160 C  
BRANCH  20  21
HETATM   21  C   UNL     1      -9.471  11.755  67.434  1.00  0.00    -0.173 C  
BRANCH  21  22
HETATM   22  N   UNL     1      -9.516  13.163  67.054  1.00  0.00    -0.234 NA 
BRANCH  22  23
HETATM   23  C   UNL     1      -8.270  13.914  66.850  1.00  0.00     0.066 C  
BRANCH  23  24
HETATM   24  C   UNL     1      -8.387  15.374  67.243  1.00  0.00    -0.224 A  
HETATM   25  C   UNL     1      -8.766  15.724  68.545  1.00  0.00    -0.184 A  
HETATM   26  C   UNL     1      -8.873  18.071  67.927  1.00  0.00    -0.268 A  
HETATM   27  C   UNL     1      -8.404  17.745  66.656  1.00  0.00    -0.285 A  
HETATM   28  C   UNL     1      -8.164  16.404  66.315  1.00  0.00    -0.343 A  
HETATM   29  C   UNL     1      -9.017  17.057  68.875  1.00  0.00    -0.210 A  
BRANCH  26  30
HETATM   30  O   UNL     1      -9.282  19.299  68.357  1.00  0.00    -0.327 OA 
HETATM   31  C   UNL     1      -9.917  20.171  67.433  1.00  0.00    -0.430 C  
ENDBRANCH  26  30
ENDBRANCH  23  24
ENDBRANCH  22  23
BRANCH  22  32
HETATM   32  C   UNL     1     -10.543  13.512  66.191  1.00  0.00    -0.290 A  
HETATM   33  N   UNL     1     -10.360  13.346  64.868  1.00  0.00    -0.368 NA 
HETATM   34  N   UNL     1     -11.722  13.844  66.728  1.00  0.00    -0.376 NA 
HETATM   35  C   UNL     1     -12.756  14.031  65.886  1.00  0.00    -0.397 A  
HETATM   36  C   UNL     1     -11.412  13.606  64.056  1.00  0.00    -0.271 A  
HETATM   37  C   UNL     1     -12.655  13.940  64.521  1.00  0.00    -0.246 A  
ENDBRANCH  22  32
ENDBRANCH  21  22
ENDBRANCH  20  21
ENDBRANCH  17  20
ENDBRANCH  16  17
ENDBRANCH  15  16
ENDBRANCH  14  15
ENDBRANCH  13  14
ENDBRANCH  12  13
ENDBRANCH  11  12
ENDBRANCH  10  11
ENDBRANCH   9  10
ENDBRANCH   8   9
ENDBRANCH   7   8
ENDBRANCH   6   7
ENDBRANCH   5   6
ENDBRANCH   4   5
ENDBRANCH   3   4
ENDBRANCH   2   3
TORSDOF 22
ENDMDL
MODEL      144
REMARK 921   NORMALIZED FREE ENERGY PREDICTED BY IDOCK:   -3.39 KCAL/MOL
REMARK 922        TOTAL FREE ENERGY PREDICTED BY IDOCK:  -12.21 KCAL/MOL
REMARK 923 INTER-LIGAND FREE ENERGY PREDICTED BY IDOCK:  -10.10 KCAL/MOL
REMARK 924 INTRA-LIGAND FREE ENERGY PREDICTED BY IDOCK:   -2.10 KCAL/MOL
REMARK 927      BINDING AFFINITY PREDICTED BY RF-SCORE:    0.00 PKD
ROOT
HETATM    1  C   UNL     1     -12.396  16.087  74.529  1.00  0.00    -0.698 C  
HETATM    2  C   UNL     1     -12.400  15.870  73.026  1.00  0.00    -0.605 C  
ENDROOT
BRANCH   2   3
HETATM    3  C   UNL     1     -13.822  15.705  72.501  1.00  0.00    -0.642 C  
BRANCH   3   4
HETATM    4  C   UNL     1     -13.914  14.518  71.550  1.00  0.00    -0.487 C  
BRANCH   4   5
HETATM    5  C   UNL     1     -13.781  13.206  72.314  1.00  0.00    -0.647 C  
BRANCH   5   6
HETATM    6  C   UNL     1     -12.856  12.252  71.573  1.00  0.00    -0.384 C  
BRANCH   6   7
HETATM    7  C   UNL     1     -13.150  10.815  71.974  1.00  0.00    -0.476 C  
BRANCH   7   8
HETATM    8  C   UNL     1     -13.228   9.928  70.742  1.00  0.00    -0.231 C  
BRANCH   8   9
HETATM    9  C   UNL     1     -12.421   8.661  70.968  1.00  0.00    -0.123 C  
BRANCH   9  10
HETATM   10  C   UNL     1     -12.016   8.540  72.427  1.00  0.00    -0.434 C  
BRANCH  10  11
HETATM   11  C   UNL     1     -11.205   7.271  72.638  1.00  0.00    -0.355 C  
BRANCH  11  12
HETATM   12  C   UNL     1     -11.509   6.267  71.535  1.00  0.00    -0.351 C  
BRANCH  12  13
HETATM   13  C   UNL     1     -10.239   5.594  71.043  1.00  0.00    -0.281 C  
BRANCH  13  14
HETATM   14  C   UNL     1      -9.868   6.035  69.623  1.00  0.00    -0.205 C  
BRANCH  14  15
HETATM   15  C   UNL     1      -9.157   4.958  68.790  1.00  0.00    -0.147 C  
BRANCH  15  16
HETATM   16  C   UNL     1      -9.890   4.736  67.470  1.00  0.00    -0.162 C  
BRANCH  16  17
HETATM   17  N   UNL     1      -9.042   4.920  66.219  1.00  0.00    -0.123 N  
HETATM   18  C   UNL     1      -9.707   4.256  65.006  1.00  0.00    -0.189 C  
HETATM   19  C   UNL     1      -7.639   4.352  66.373  1.00  0.00    -0.086 C  
BRANCH  17  20
HETATM   20  C   UNL     1      -8.968   6.446  65.900  1.00  0.00    -0.096 C  
BRANCH  20  21
HETATM   21  C   UNL     1      -7.682   7.185  66.386  1.00  0.00    -0.100 C  
BRANCH  21  22
HETATM   22  N   UNL     1      -7.693   8.556  65.884  1.00  0.00    -0.095 NA 
BRANCH  22  23
HETATM   23  C   UNL     1      -8.842   9.053  65.115  1.00  0.00    -0.182 C  
BRANCH  23  24
HETATM   24  C   UNL     1      -9.698  10.032  65.896  1.00  0.00    -0.309 A  
HETATM   25  C   UNL     1      -9.788  11.368  65.488  1.00  0.00    -0.271 A  
HETATM   26  C   UNL     1     -11.064  11.932  67.477  1.00  0.00    -0.273 A  
HETATM   27  C   UNL     1     -11.063  10.588  67.844  1.00  0.00    -0.367 A  
HETATM   28  C   UNL     1     -10.381   9.643  67.059  1.00  0.00    -0.315 A  
HETATM   29  C   UNL     1     -10.454  12.306  66.279  1.00  0.00    -0.266 A  
BRANCH  26  30
HETATM   30  O   UNL     1     -11.555  12.977  68.204  1.00  0.00    -0.297 OA 
HETATM   31  C   UNL     1     -11.932  14.165  67.523  1.00  0.00    -0.384 C  
ENDBRANCH  26  30
ENDBRANCH  23  24
ENDBRANCH  22  23
BRANCH  22  32
HETATM   32  C   UNL     1      -7.112   9.498  66.719  1.00  0.00    -0.086 A  
HETATM   33  N   UNL     1      -6.530  10.578  66.168  1.00  0.00    -0.113 NA 
HETATM   34  N   UNL     1      -7.300   9.363  68.036  1.00  0.00    -0.079 NA 
HETATM   35  C   UNL     1      -6.866  10.360  68.830  1.00  0.00    -0.061 A  
HETATM   36  C   UNL     1      -6.053  11.527  67.010  1.00  0.00    -0.131 A  
HETATM   37  C   UNL     1      -6.213  11.474  68.368  1.00  0.00    -0.049 A  
ENDBRANCH  22  32
ENDBRANCH  21  22
ENDBRANCH  20  21
ENDBRANCH  17  20
ENDBRANCH  16  17
ENDBRANCH  15  16
ENDBRANCH  14  15
ENDBRANCH  13  14
ENDBRANCH  12  13
ENDBRANCH  11  12
ENDBRANCH  10  11
ENDBRANCH   9  10
ENDBRANCH   8   9
ENDBRANCH   7   8
ENDBRANCH   6   7
ENDBRANCH   5   6
ENDBRANCH   4   5
ENDBRANCH   3   4
ENDBRANCH   2   3
TORSDOF 22
ENDMDL
MODEL      145
REMARK 921   NORMALIZED FREE ENERGY PREDICTED BY IDOCK:   -3.39 KCAL/MOL
REMARK 922        TOTAL FREE ENERGY PREDICTED BY IDOCK:  -12.20 KCAL/MOL
REMARK 923 INTER-LIGAND FREE ENERGY PREDICTED BY IDOCK:   -9.71 KCAL/MOL
REMARK 924 INTRA-LIGAND FREE ENERGY PREDICTED BY IDOCK:   -2.49 KCAL/MOL
REMARK 927      BINDING AFFINITY PREDICTED BY RF-SCORE:    0.00 PKD
ROOT
HETATM    1  C   UNL     1      -7.970  20.079  66.154  1.00  0.00    -0.315 C  
HETATM    2  C   UNL     1      -8.646  19.790  67.483  1.00  0.00    -0.377 C  
ENDROOT
BRANCH   2   3
HETATM    3  C   UNL     1     -10.152  20.014  67.390  1.00  0.00    -0.568 C  
BRANCH   3   4
HETATM    4  C   UNL     1     -10.898  18.686  67.400  1.00  0.00    -0.381 C  
BRANCH   4   5
HETATM    5  C   UNL     1      -9.984  17.560  67.866  1.00  0.00    -0.312 C  
BRANCH   5   6
HETATM    6  C   UNL     1     -10.365  16.252  67.189  1.00  0.00    -0.285 C  
BRANCH   6   7
HETATM    7  C   UNL     1      -9.845  16.227  65.760  1.00  0.00    -0.332 C  
BRANCH   7   8
HETATM    8  C   UNL     1     -10.994  16.039  64.783  1.00  0.00    -0.373 C  
BRANCH   8   9
HETATM    9  C   UNL     1     -11.688  14.715  65.051  1.00  0.00    -0.385 C  
BRANCH   9  10
HETATM   10  C   UNL     1     -10.834  13.558  64.561  1.00  0.00    -0.422 C  
BRANCH  10  11
HETATM   11  C   UNL     1     -10.834  12.439  65.591  1.00  0.00    -0.312 C  
BRANCH  11  12
HETATM   12  C   UNL     1     -11.907  12.695  66.639  1.00  0.00    -0.449 C  
BRANCH  12  13
HETATM   13  C   UNL     1     -11.324  12.643  68.042  1.00  0.00    -0.337 C  
BRANCH  13  14
HETATM   14  C   UNL     1     -11.744  11.374  68.792  1.00  0.00    -0.404 C  
BRANCH  14  15
HETATM   15  C   UNL     1     -10.776  10.192  68.630  1.00  0.00    -0.253 C  
BRANCH  15  16
HETATM   16  C   UNL     1      -9.573  10.358  69.554  1.00  0.00    -0.157 C  
BRANCH  16  17
HETATM   17  N   UNL     1      -8.314   9.622  69.117  1.00  0.00    -0.122 N  
HETATM   18  C   UNL     1      -7.119  10.583  69.043  1.00  0.00    -0.081 C  
HETATM   19  C   UNL     1      -8.471   8.942  67.766  1.00  0.00    -0.125 C  
BRANCH  17  20
HETATM   20  C   UNL     1      -7.961   8.566  70.209  1.00  0.00    -0.103 C  
BRANCH  20  21
HETATM   21  C   UNL     1      -8.430   7.105  69.925  1.00  0.00    -0.140 C  
BRANCH  21  22
HETATM   22  N   UNL     1      -9.721   6.876  70.567  1.00  0.00    -0.173 NA 
BRANCH  22  23
HETATM   23  C   UNL     1     -10.846   6.336  69.793  1.00  0.00    -0.336 C  
BRANCH  23  24
HETATM   24  C   UNL     1     -10.403   5.557  68.569  1.00  0.00    -0.247 A  
HETATM   25  C   UNL     1     -10.750   6.002  67.288  1.00  0.00    -0.400 A  
HETATM   26  C   UNL     1      -9.822   3.990  66.293  1.00  0.00    -0.159 A  
HETATM   27  C   UNL     1      -9.387   3.582  67.551  1.00  0.00    -0.249 A  
HETATM   28  C   UNL     1      -9.677   4.360  68.684  1.00  0.00    -0.190 A  
HETATM   29  C   UNL     1     -10.472   5.219  66.167  1.00  0.00    -0.259 A  
BRANCH  26  30
HETATM   30  O   UNL     1      -9.741   3.280  65.130  1.00  0.00    -0.143 OA 
HETATM   31  C   UNL     1     -10.088   3.921  63.911  1.00  0.00    -0.188 C  
ENDBRANCH  26  30
ENDBRANCH  23  24
ENDBRANCH  22  23
BRANCH  22  32
HETATM   32  C   UNL     1      -9.661   6.430  71.878  1.00  0.00    -0.151 A  
HETATM   33  N   UNL     1     -10.354   7.094  72.820  1.00  0.00    -0.209 NA 
HETATM   34  N   UNL     1      -9.044   5.266  72.112  1.00  0.00    -0.136 NA 
HETATM   35  C   UNL     1      -9.122   4.762  73.358  1.00  0.00    -0.110 A  
HETATM   36  C   UNL     1     -10.352   6.582  74.074  1.00  0.00    -0.340 A  
HETATM   37  C   UNL     1      -9.757   5.393  74.397  1.00  0.00    -0.191 A  
ENDBRANCH  22  32
ENDBRANCH  21  22
ENDBRANCH  20  21
ENDBRANCH  17  20
ENDBRANCH  16  17
ENDBRANCH  15  16
ENDBRANCH  14  15
ENDBRANCH  13  14
ENDBRANCH  12  13
ENDBRANCH  11  12
ENDBRANCH  10  11
ENDBRANCH   9  10
ENDBRANCH   8   9
ENDBRANCH   7   8
ENDBRANCH   6   7
ENDBRANCH   5   6
ENDBRANCH   4   5
ENDBRANCH   3   4
ENDBRANCH   2   3
TORSDOF 22
ENDMDL
MODEL      146
REMARK 921   NORMALIZED FREE ENERGY PREDICTED BY IDOCK:   -3.38 KCAL/MOL
REMARK 922        TOTAL FREE ENERGY PREDICTED BY IDOCK:  -12.17 KCAL/MOL
REMARK 923 INTER-LIGAND FREE ENERGY PREDICTED BY IDOCK:   -8.80 KCAL/MOL
REMARK 924 INTRA-LIGAND FREE ENERGY PREDICTED BY IDOCK:   -3.37 KCAL/MOL
REMARK 927      BINDING AFFINITY PREDICTED BY RF-SCORE:    0.00 PKD
ROOT
HETATM    1  C   UNL     1     -10.193   3.760  64.427  1.00  0.00    -0.227 C  
HETATM    2  C   UNL     1      -9.702   4.826  65.391  1.00  0.00    -0.138 C  
ENDROOT
BRANCH   2   3
HETATM    3  C   UNL     1      -9.738   4.321  66.829  1.00  0.00    -0.241 C  
BRANCH   3   4
HETATM    4  C   UNL     1     -10.183   5.425  67.779  1.00  0.00    -0.230 C  
BRANCH   4   5
HETATM    5  C   UNL     1      -8.977   6.161  68.350  1.00  0.00    -0.115 C  
BRANCH   5   6
HETATM    6  C   UNL     1      -8.905   7.575  67.793  1.00  0.00    -0.132 C  
BRANCH   6   7
HETATM    7  C   UNL     1     -10.301   8.100  67.503  1.00  0.00    -0.330 C  
BRANCH   7   8
HETATM    8  C   UNL     1     -10.254   9.154  66.408  1.00  0.00    -0.300 C  
BRANCH   8   9
HETATM    9  C   UNL     1      -8.953   9.033  65.632  1.00  0.00    -0.249 C  
BRANCH   9  10
HETATM   10  C   UNL     1      -8.976   9.936  64.411  1.00  0.00    -0.275 C  
BRANCH  10  11
HETATM   11  C   UNL     1      -9.730  11.219  64.727  1.00  0.00    -0.298 C  
BRANCH  11  12
HETATM   12  C   UNL     1     -10.402  11.753  63.470  1.00  0.00    -0.490 C  
BRANCH  12  13
HETATM   13  C   UNL     1     -11.850  12.125  63.740  1.00  0.00    -0.592 C  
BRANCH  13  14
HETATM   14  C   UNL     1     -12.072  13.641  63.694  1.00  0.00    -0.397 C  
BRANCH  14  15
HETATM   15  C   UNL     1     -11.603  14.389  64.951  1.00  0.00    -0.395 C  
BRANCH  15  16
HETATM   16  C   UNL     1     -12.419  13.955  66.165  1.00  0.00    -0.436 C  
BRANCH  16  17
HETATM   17  N   UNL     1     -11.626  13.793  67.454  1.00  0.00    -0.341 N  
HETATM   18  C   UNL     1     -11.292  12.316  67.707  1.00  0.00    -0.301 C  
HETATM   19  C   UNL     1     -12.363  14.337  68.669  1.00  0.00    -0.021 C  
BRANCH  17  20
HETATM   20  C   UNL     1     -10.261  14.529  67.284  1.00  0.00    -0.255 C  
BRANCH  20  21
HETATM   21  C   UNL     1      -9.726  15.279  68.543  1.00  0.00    -0.211 C  
BRANCH  21  22
HETATM   22  N   UNL     1      -8.267  15.307  68.508  1.00  0.00    -0.139 NA 
BRANCH  22  23
HETATM   23  C   UNL     1      -7.531  14.388  67.629  1.00  0.00    -0.175 C  
BRANCH  23  24
HETATM   24  C   UNL     1      -7.160  13.086  68.311  1.00  0.00    -0.103 A  
HETATM   25  C   UNL     1      -7.726  11.879  67.883  1.00  0.00    -0.131 A  
HETATM   26  C   UNL     1      -6.693  10.690  69.732  1.00  0.00    -0.130 A  
HETATM   27  C   UNL     1      -6.047  11.865  70.112  1.00  0.00    -0.137 A  
HETATM   28  C   UNL     1      -6.281  13.057  69.407  1.00  0.00    -0.113 A  
HETATM   29  C   UNL     1      -7.503  10.700  68.596  1.00  0.00    -0.098 A  
BRANCH  26  30
HETATM   30  O   UNL     1      -6.678   9.498  70.397  1.00  0.00    -0.068 OA 
HETATM   31  C   UNL     1      -7.877   9.040  71.006  1.00  0.00    -0.142 C  
ENDBRANCH  26  30
ENDBRANCH  23  24
ENDBRANCH  22  23
BRANCH  22  32
HETATM   32  C   UNL     1      -7.694  16.563  68.632  1.00  0.00    -0.216 A  
HETATM   33  N   UNL     1      -8.430  17.643  68.312  1.00  0.00    -0.263 NA 
HETATM   34  N   UNL     1      -6.493  16.646  69.216  1.00  0.00    -0.194 NA 
HETATM   35  C   UNL     1      -6.012  17.876  69.473  1.00  0.00    -0.244 A  
HETATM   36  C   UNL     1      -7.878  18.861  68.532  1.00  0.00    -0.337 A  
HETATM   37  C   UNL     1      -6.662  19.036  69.134  1.00  0.00    -0.337 A  
ENDBRANCH  22  32
ENDBRANCH  21  22
ENDBRANCH  20  21
ENDBRANCH  17  20
ENDBRANCH  16  17
ENDBRANCH  15  16
ENDBRANCH  14  15
ENDBRANCH  13  14
ENDBRANCH  12  13
ENDBRANCH  11  12
ENDBRANCH  10  11
ENDBRANCH   9  10
ENDBRANCH   8   9
ENDBRANCH   7   8
ENDBRANCH   6   7
ENDBRANCH   5   6
ENDBRANCH   4   5
ENDBRANCH   3   4
ENDBRANCH   2   3
TORSDOF 22
ENDMDL
MODEL      147
REMARK 921   NORMALIZED FREE ENERGY PREDICTED BY IDOCK:   -3.35 KCAL/MOL
REMARK 922        TOTAL FREE ENERGY PREDICTED BY IDOCK:  -12.11 KCAL/MOL
REMARK 923 INTER-LIGAND FREE ENERGY PREDICTED BY IDOCK:   -8.58 KCAL/MOL
REMARK 924 INTRA-LIGAND FREE ENERGY PREDICTED BY IDOCK:   -3.53 KCAL/MOL
REMARK 927      BINDING AFFINITY PREDICTED BY RF-SCORE:    0.00 PKD
ROOT
HETATM    1  C   UNL     1      -9.883   3.977  65.657  1.00  0.00    -0.181 C  
HETATM    2  C   UNL     1      -9.744   5.488  65.723  1.00  0.00     0.004 C  
ENDROOT
BRANCH   2   3
HETATM    3  C   UNL     1      -8.376   5.888  66.266  1.00  0.00    -0.117 C  
BRANCH   3   4
HETATM    4  C   UNL     1      -7.897   7.183  65.621  1.00  0.00    -0.112 C  
BRANCH   4   5
HETATM    5  C   UNL     1      -8.465   8.391  66.354  1.00  0.00    -0.127 C  
BRANCH   5   6
HETATM    6  C   UNL     1      -8.471   8.148  67.856  1.00  0.00    -0.132 C  
BRANCH   6   7
HETATM    7  C   UNL     1      -7.109   8.473  68.448  1.00  0.00    -0.084 C  
BRANCH   7   8
HETATM    8  C   UNL     1      -6.535   7.256  69.155  1.00  0.00    -0.036 C  
BRANCH   8   9
HETATM    9  C   UNL     1      -6.881   7.308  70.633  1.00  0.00    -0.053 C  
BRANCH   9  10
HETATM   10  C   UNL     1      -7.656   6.066  71.042  1.00  0.00    -0.097 C  
BRANCH  10  11
HETATM   11  C   UNL     1      -7.766   5.111  69.864  1.00  0.00    -0.068 C  
BRANCH  11  12
HETATM   12  C   UNL     1      -9.190   4.585  69.751  1.00  0.00    -0.191 C  
BRANCH  12  13
HETATM   13  C   UNL     1     -10.175   5.718  69.520  1.00  0.00    -0.306 C  
BRANCH  13  14
HETATM   14  C   UNL     1     -11.264   5.761  70.598  1.00  0.00    -0.196 C  
BRANCH  14  15
HETATM   15  C   UNL     1     -12.126   7.033  70.579  1.00  0.00    -0.278 C  
BRANCH  15  16
HETATM   16  C   UNL     1     -11.402   8.155  69.840  1.00  0.00     0.065 C  
BRANCH  16  17
HETATM   17  N   UNL     1     -11.033   9.360  70.695  1.00  0.00    -0.265 N  
HETATM   18  C   UNL     1      -9.798   9.059  71.556  1.00  0.00    -0.310 C  
HETATM   19  C   UNL     1     -12.166   9.799  71.610  1.00  0.00    -0.404 C  
BRANCH  17  20
HETATM   20  C   UNL     1     -10.631  10.529  69.743  1.00  0.00    -0.227 C  
BRANCH  20  21
HETATM   21  C   UNL     1     -11.256  10.493  68.313  1.00  0.00    -0.291 C  
BRANCH  21  22
HETATM   22  N   UNL     1     -10.847  11.686  67.576  1.00  0.00    -0.224 NA 
BRANCH  22  23
HETATM   23  C   UNL     1      -9.542  12.305  67.838  1.00  0.00    -0.203 C  
BRANCH  23  24
HETATM   24  C   UNL     1      -9.548  13.808  67.633  1.00  0.00    -0.219 A  
HETATM   25  C   UNL     1     -10.378  14.621  68.413  1.00  0.00    -0.237 A  
HETATM   26  C   UNL     1      -9.778  16.570  67.093  1.00  0.00    -0.245 A  
HETATM   27  C   UNL     1      -8.877  15.790  66.372  1.00  0.00    -0.371 A  
HETATM   28  C   UNL     1      -8.764  14.416  66.639  1.00  0.00    -0.131 A  
HETATM   29  C   UNL     1     -10.498  15.984  68.135  1.00  0.00    -0.269 A  
BRANCH  26  30
HETATM   30  O   UNL     1     -10.100  17.875  66.858  1.00  0.00    -0.317 OA 
HETATM   31  C   UNL     1     -10.488  18.692  67.953  1.00  0.00    -0.385 C  
ENDBRANCH  26  30
ENDBRANCH  23  24
ENDBRANCH  22  23
BRANCH  22  32
HETATM   32  C   UNL     1     -11.246  11.728  66.250  1.00  0.00    -0.312 A  
HETATM   33  N   UNL     1     -12.332  12.454  65.924  1.00  0.00    -0.577 NA 
HETATM   34  N   UNL     1     -10.438  11.176  65.338  1.00  0.00    -0.268 NA 
HETATM   35  C   UNL     1     -10.752  11.355  64.041  1.00  0.00    -0.387 A  
HETATM   36  C   UNL     1     -12.644  12.554  64.609  1.00  0.00    -0.426 A  
HETATM   37  C   UNL     1     -11.867  12.030  63.612  1.00  0.00    -0.602 A  
ENDBRANCH  22  32
ENDBRANCH  21  22
ENDBRANCH  20  21
ENDBRANCH  17  20
ENDBRANCH  16  17
ENDBRANCH  15  16
ENDBRANCH  14  15
ENDBRANCH  13  14
ENDBRANCH  12  13
ENDBRANCH  11  12
ENDBRANCH  10  11
ENDBRANCH   9  10
ENDBRANCH   8   9
ENDBRANCH   7   8
ENDBRANCH   6   7
ENDBRANCH   5   6
ENDBRANCH   4   5
ENDBRANCH   3   4
ENDBRANCH   2   3
TORSDOF 22
ENDMDL
MODEL      148
REMARK 921   NORMALIZED FREE ENERGY PREDICTED BY IDOCK:   -3.34 KCAL/MOL
REMARK 922        TOTAL FREE ENERGY PREDICTED BY IDOCK:  -12.09 KCAL/MOL
REMARK 923 INTER-LIGAND FREE ENERGY PREDICTED BY IDOCK:   -8.67 KCAL/MOL
REMARK 924 INTRA-LIGAND FREE ENERGY PREDICTED BY IDOCK:   -3.42 KCAL/MOL
REMARK 927      BINDING AFFINITY PREDICTED BY RF-SCORE:    0.00 PKD
ROOT
HETATM    1  C   UNL     1     -11.463   8.139  72.618  1.00  0.00    -0.454 C  
HETATM    2  C   UNL     1     -10.719   8.881  71.522  1.00  0.00    -0.398 C  
ENDROOT
BRANCH   2   3
HETATM    3  C   UNL     1     -11.692   9.490  70.517  1.00  0.00    -0.285 C  
BRANCH   3   4
HETATM    4  C   UNL     1     -10.959  10.397  69.537  1.00  0.00    -0.307 C  
BRANCH   4   5
HETATM    5  C   UNL     1     -11.929  11.366  68.873  1.00  0.00    -0.371 C  
BRANCH   5   6
HETATM    6  C   UNL     1     -11.590  12.800  69.252  1.00  0.00    -0.372 C  
BRANCH   6   7
HETATM    7  C   UNL     1     -11.512  13.670  68.007  1.00  0.00    -0.345 C  
BRANCH   7   8
HETATM    8  C   UNL     1     -11.807  12.844  66.765  1.00  0.00    -0.452 C  
BRANCH   8   9
HETATM    9  C   UNL     1     -12.569  13.686  65.756  1.00  0.00    -0.511 C  
BRANCH   9  10
HETATM   10  C   UNL     1     -12.272  13.218  64.341  1.00  0.00    -0.449 C  
BRANCH  10  11
HETATM   11  C   UNL     1     -10.783  12.950  64.185  1.00  0.00    -0.443 C  
BRANCH  11  12
HETATM   12  C   UNL     1     -10.563  11.628  63.464  1.00  0.00    -0.496 C  
BRANCH  12  13
HETATM   13  C   UNL     1     -10.034  10.568  64.415  1.00  0.00    -0.410 C  
BRANCH  13  14
HETATM   14  C   UNL     1      -8.991  11.136  65.384  1.00  0.00    -0.154 C  
BRANCH  14  15
HETATM   15  C   UNL     1      -8.836  10.338  66.689  1.00  0.00    -0.148 C  
BRANCH  15  16
HETATM   16  C   UNL     1      -8.825   8.840  66.399  1.00  0.00    -0.147 C  
BRANCH  16  17
HETATM   17  N   UNL     1      -7.629   8.082  66.957  1.00  0.00    -0.095 N  
HETATM   18  C   UNL     1      -6.452   9.033  67.215  1.00  0.00    -0.061 C  
HETATM   19  C   UNL     1      -7.157   6.968  66.035  1.00  0.00    -0.073 C  
BRANCH  17  20
HETATM   20  C   UNL     1      -8.029   7.493  68.345  1.00  0.00    -0.123 C  
BRANCH  20  21
HETATM   21  C   UNL     1      -9.540   7.150  68.534  1.00  0.00    -0.139 C  
BRANCH  21  22
HETATM   22  N   UNL     1      -9.688   5.715  68.754  1.00  0.00    -0.130 NA 
BRANCH  22  23
HETATM   23  C   UNL     1     -10.552   5.218  69.833  1.00  0.00    -0.221 C  
BRANCH  23  24
HETATM   24  C   UNL     1      -9.812   5.028  71.143  1.00  0.00    -0.254 A  
HETATM   25  C   UNL     1      -8.422   5.190  71.197  1.00  0.00    -0.123 A  
HETATM   26  C   UNL     1      -8.380   4.421  73.500  1.00  0.00    -0.098 A  
HETATM   27  C   UNL     1      -9.771   4.347  73.489  1.00  0.00    -0.146 A  
HETATM   28  C   UNL     1     -10.483   4.647  72.316  1.00  0.00    -0.238 A  
HETATM   29  C   UNL     1      -7.717   4.877  72.360  1.00  0.00    -0.092 A  
BRANCH  26  30
HETATM   30  O   UNL     1      -7.549   4.029  74.509  1.00  0.00    -0.072 OA 
HETATM   31  C   UNL     1      -6.979   2.729  74.459  1.00  0.00    -0.040 C  
ENDBRANCH  26  30
ENDBRANCH  23  24
ENDBRANCH  22  23
BRANCH  22  32
HETATM   32  C   UNL     1      -9.699   4.937  67.607  1.00  0.00    -0.159 A  
HETATM   33  N   UNL     1     -10.596   5.218  66.644  1.00  0.00    -0.296 NA 
HETATM   34  N   UNL     1      -8.711   4.049  67.446  1.00  0.00    -0.101 NA 
HETATM   35  C   UNL     1      -8.639   3.407  66.265  1.00  0.00    -0.119 A  
HETATM   36  C   UNL     1     -10.522   4.503  65.495  1.00  0.00    -0.211 A  
HETATM   37  C   UNL     1      -9.539   3.584  65.245  1.00  0.00    -0.140 A  
ENDBRANCH  22  32
ENDBRANCH  21  22
ENDBRANCH  20  21
ENDBRANCH  17  20
ENDBRANCH  16  17
ENDBRANCH  15  16
ENDBRANCH  14  15
ENDBRANCH  13  14
ENDBRANCH  12  13
ENDBRANCH  11  12
ENDBRANCH  10  11
ENDBRANCH   9  10
ENDBRANCH   8   9
ENDBRANCH   7   8
ENDBRANCH   6   7
ENDBRANCH   5   6
ENDBRANCH   4   5
ENDBRANCH   3   4
ENDBRANCH   2   3
TORSDOF 22
ENDMDL
MODEL      149
REMARK 921   NORMALIZED FREE ENERGY PREDICTED BY IDOCK:   -3.34 KCAL/MOL
REMARK 922        TOTAL FREE ENERGY PREDICTED BY IDOCK:  -12.09 KCAL/MOL
REMARK 923 INTER-LIGAND FREE ENERGY PREDICTED BY IDOCK:  -10.30 KCAL/MOL
REMARK 924 INTRA-LIGAND FREE ENERGY PREDICTED BY IDOCK:   -1.79 KCAL/MOL
REMARK 927      BINDING AFFINITY PREDICTED BY RF-SCORE:    0.00 PKD
ROOT
HETATM    1  C   UNL     1      -7.795   7.321  71.869  1.00  0.00    -0.091 C  
HETATM    2  C   UNL     1      -6.710   7.252  70.810  1.00  0.00    -0.048 C  
ENDROOT
BRANCH   2   3
HETATM    3  C   UNL     1      -6.995   6.140  69.805  1.00  0.00    -0.070 C  
BRANCH   3   4
HETATM    4  C   UNL     1      -8.048   5.181  70.345  1.00  0.00    -0.090 C  
BRANCH   4   5
HETATM    5  C   UNL     1      -9.193   5.026  69.352  1.00  0.00    -0.156 C  
BRANCH   5   6
HETATM    6  C   UNL     1     -10.530   5.017  70.079  1.00  0.00    -0.226 C  
BRANCH   6   7
HETATM    7  C   UNL     1     -11.239   6.349  69.895  1.00  0.00    -0.485 C  
BRANCH   7   8
HETATM    8  C   UNL     1     -11.551   6.974  71.245  1.00  0.00    -0.342 C  
BRANCH   8   9
HETATM    9  C   UNL     1     -13.039   7.264  71.347  1.00  0.00    -0.412 C  
BRANCH   9  10
HETATM   10  C   UNL     1     -13.272   8.697  71.796  1.00  0.00    -0.399 C  
BRANCH  10  11
HETATM   11  C   UNL     1     -11.957   9.463  71.791  1.00  0.00    -0.452 C  
BRANCH  11  12
HETATM   12  C   UNL     1     -12.100  10.739  70.974  1.00  0.00    -0.452 C  
BRANCH  12  13
HETATM   13  C   UNL     1     -13.281  11.565  71.453  1.00  0.00    -0.222 C  
BRANCH  13  14
HETATM   14  C   UNL     1     -12.835  12.832  72.191  1.00  0.00    -0.219 C  
BRANCH  14  15
HETATM   15  C   UNL     1     -13.389  14.139  71.602  1.00  0.00    -0.440 C  
BRANCH  15  16
HETATM   16  C   UNL     1     -12.759  14.417  70.240  1.00  0.00    -0.263 C  
BRANCH  16  17
HETATM   17  N   UNL     1     -11.665  15.475  70.237  1.00  0.00    -0.315 N  
HETATM   18  C   UNL     1     -10.280  14.828  70.099  1.00  0.00     0.251 C  
HETATM   19  C   UNL     1     -11.674  16.332  71.494  1.00  0.00    -0.403 C  
BRANCH  17  20
HETATM   20  C   UNL     1     -11.857  16.374  68.977  1.00  0.00     0.059 C  
BRANCH  20  21
HETATM   21  C   UNL     1     -11.529  15.707  67.604  1.00  0.00    -0.167 C  
BRANCH  21  22
HETATM   22  N   UNL     1     -10.304  16.288  67.063  1.00  0.00    -0.289 NA 
BRANCH  22  23
HETATM   23  C   UNL     1      -9.686  15.719  65.859  1.00  0.00    -0.354 C  
BRANCH  23  24
HETATM   24  C   UNL     1      -9.950  14.234  65.704  1.00  0.00    -0.346 A  
HETATM   25  C   UNL     1      -9.348  13.317  66.575  1.00  0.00    -0.221 A  
HETATM   26  C   UNL     1     -10.208  11.454  65.275  1.00  0.00    -0.270 A  
HETATM   27  C   UNL     1     -10.889  12.353  64.458  1.00  0.00    -0.358 A  
HETATM   28  C   UNL     1     -10.759  13.736  64.669  1.00  0.00    -0.427 A  
HETATM   29  C   UNL     1      -9.469  11.944  66.353  1.00  0.00    -0.238 A  
BRANCH  26  30
HETATM   30  O   UNL     1     -10.122  10.102  65.109  1.00  0.00    -0.326 OA 
HETATM   31  C   UNL     1      -9.117   9.581  64.253  1.00  0.00    -0.170 C  
ENDBRANCH  26  30
ENDBRANCH  23  24
ENDBRANCH  22  23
BRANCH  22  32
HETATM   32  C   UNL     1     -10.208  17.667  67.160  1.00  0.00    -0.342 A  
HETATM   33  N   UNL     1      -9.502  18.197  68.175  1.00  0.00    -0.284 NA 
HETATM   34  N   UNL     1     -10.689  18.398  66.147  1.00  0.00    -0.278 NA 
HETATM   35  C   UNL     1     -10.457  19.724  66.173  1.00  0.00    -0.509 A  
HETATM   36  C   UNL     1      -9.347  19.543  68.191  1.00  0.00    -0.350 A  
HETATM   37  C   UNL     1      -9.797  20.362  67.192  1.00  0.00    -0.601 A  
ENDBRANCH  22  32
ENDBRANCH  21  22
ENDBRANCH  20  21
ENDBRANCH  17  20
ENDBRANCH  16  17
ENDBRANCH  15  16
ENDBRANCH  14  15
ENDBRANCH  13  14
ENDBRANCH  12  13
ENDBRANCH  11  12
ENDBRANCH  10  11
ENDBRANCH   9  10
ENDBRANCH   8   9
ENDBRANCH   7   8
ENDBRANCH   6   7
ENDBRANCH   5   6
ENDBRANCH   4   5
ENDBRANCH   3   4
ENDBRANCH   2   3
TORSDOF 22
ENDMDL
MODEL      150
REMARK 921   NORMALIZED FREE ENERGY PREDICTED BY IDOCK:   -3.34 KCAL/MOL
REMARK 922        TOTAL FREE ENERGY PREDICTED BY IDOCK:  -12.09 KCAL/MOL
REMARK 923 INTER-LIGAND FREE ENERGY PREDICTED BY IDOCK:   -9.17 KCAL/MOL
REMARK 924 INTRA-LIGAND FREE ENERGY PREDICTED BY IDOCK:   -2.92 KCAL/MOL
REMARK 927      BINDING AFFINITY PREDICTED BY RF-SCORE:    0.00 PKD
ROOT
HETATM    1  C   UNL     1     -11.510   5.890  71.917  1.00  0.00    -0.287 C  
HETATM    2  C   UNL     1     -12.426   6.692  71.009  1.00  0.00    -0.225 C  
ENDROOT
BRANCH   2   3
HETATM    3  C   UNL     1     -13.716   7.070  71.729  1.00  0.00    -0.309 C  
BRANCH   3   4
HETATM    4  C   UNL     1     -14.013   8.555  71.563  1.00  0.00    -0.410 C  
BRANCH   4   5
HETATM    5  C   UNL     1     -12.949   9.397  72.257  1.00  0.00    -0.479 C  
BRANCH   5   6
HETATM    6  C   UNL     1     -12.581  10.600  71.402  1.00  0.00    -0.526 C  
BRANCH   6   7
HETATM    7  C   UNL     1     -11.328  10.307  70.592  1.00  0.00    -0.431 C  
BRANCH   7   8
HETATM    8  C   UNL     1     -10.411   9.366  71.357  1.00  0.00    -0.358 C  
BRANCH   8   9
HETATM    9  C   UNL     1      -9.118   9.167  70.585  1.00  0.00    -0.307 C  
BRANCH   9  10
HETATM   10  C   UNL     1      -8.966   7.714  70.167  1.00  0.00    -0.146 C  
BRANCH  10  11
HETATM   11  C   UNL     1      -9.617   7.494  68.810  1.00  0.00    -0.149 C  
BRANCH  11  12
HETATM   12  C   UNL     1      -8.949   6.328  68.094  1.00  0.00    -0.115 C  
BRANCH  12  13
HETATM   13  C   UNL     1      -8.103   6.815  66.930  1.00  0.00    -0.109 C  
BRANCH  13  14
HETATM   14  C   UNL     1      -7.818   8.319  67.016  1.00  0.00    -0.096 C  
BRANCH  14  15
HETATM   15  C   UNL     1      -8.054   9.085  65.705  1.00  0.00    -0.115 C  
BRANCH  15  16
HETATM   16  C   UNL     1      -9.535   9.416  65.542  1.00  0.00    -0.260 C  
BRANCH  16  17
HETATM   17  N   UNL     1      -9.924  10.840  65.911  1.00  0.00    -0.239 N  
HETATM   18  C   UNL     1     -10.942  10.847  67.061  1.00  0.00    -0.247 C  
HETATM   19  C   UNL     1     -10.515  11.610  64.739  1.00  0.00    -0.295 C  
BRANCH  17  20
HETATM   20  C   UNL     1      -8.654  11.572  66.444  1.00  0.00    -0.159 C  
BRANCH  20  21
HETATM   21  C   UNL     1      -8.685  11.990  67.947  1.00  0.00    -0.170 C  
BRANCH  21  22
HETATM   22  N   UNL     1      -8.770  13.444  68.044  1.00  0.00    -0.170 NA 
BRANCH  22  23
HETATM   23  C   UNL     1     -10.013  14.083  68.495  1.00  0.00    -0.230 C  
BRANCH  23  24
HETATM   24  C   UNL     1     -10.323  15.367  67.750  1.00  0.00    -0.253 A  
HETATM   25  C   UNL     1     -10.313  15.388  66.350  1.00  0.00    -0.303 A  
HETATM   26  C   UNL     1     -10.631  17.796  66.342  1.00  0.00    -0.218 A  
HETATM   27  C   UNL     1     -10.739  17.774  67.731  1.00  0.00    -0.332 A  
HETATM   28  C   UNL     1     -10.583  16.567  68.431  1.00  0.00    -0.323 A  
HETATM   29  C   UNL     1     -10.453  16.593  65.659  1.00  0.00    -0.313 A  
BRANCH  26  30
HETATM   30  O   UNL     1     -10.617  18.900  65.541  1.00  0.00    -0.572 OA 
HETATM   31  C   UNL     1     -10.061  20.105  66.048  1.00  0.00    -0.383 C  
ENDBRANCH  26  30
ENDBRANCH  23  24
ENDBRANCH  22  23
BRANCH  22  32
HETATM   32  C   UNL     1      -7.613  14.079  68.468  1.00  0.00    -0.130 A  
HETATM   33  N   UNL     1      -7.438  14.293  69.785  1.00  0.00     0.154 NA 
HETATM   34  N   UNL     1      -6.656  14.302  67.560  1.00  0.00    -0.287 NA 
HETATM   35  C   UNL     1      -5.477  14.776  68.004  1.00  0.00    -0.124 A  
HETATM   36  C   UNL     1      -6.258  14.829  70.178  1.00  0.00    -0.166 A  
HETATM   37  C   UNL     1      -5.223  15.078  69.318  1.00  0.00    -0.090 A  
ENDBRANCH  22  32
ENDBRANCH  21  22
ENDBRANCH  20  21
ENDBRANCH  17  20
ENDBRANCH  16  17
ENDBRANCH  15  16
ENDBRANCH  14  15
ENDBRANCH  13  14
ENDBRANCH  12  13
ENDBRANCH  11  12
ENDBRANCH  10  11
ENDBRANCH   9  10
ENDBRANCH   8   9
ENDBRANCH   7   8
ENDBRANCH   6   7
ENDBRANCH   5   6
ENDBRANCH   4   5
ENDBRANCH   3   4
ENDBRANCH   2   3
TORSDOF 22
ENDMDL
MODEL      151
REMARK 921   NORMALIZED FREE ENERGY PREDICTED BY IDOCK:   -3.33 KCAL/MOL
REMARK 922        TOTAL FREE ENERGY PREDICTED BY IDOCK:  -12.06 KCAL/MOL
REMARK 923 INTER-LIGAND FREE ENERGY PREDICTED BY IDOCK:   -8.69 KCAL/MOL
REMARK 924 INTRA-LIGAND FREE ENERGY PREDICTED BY IDOCK:   -3.37 KCAL/MOL
REMARK 927      BINDING AFFINITY PREDICTED BY RF-SCORE:    0.00 PKD
ROOT
HETATM    1  C   UNL     1      -9.845   4.581  65.331  1.00  0.00    -0.204 C  
HETATM    2  C   UNL     1      -9.380   5.499  66.448  1.00  0.00    -0.161 C  
ENDROOT
BRANCH   2   3
HETATM    3  C   UNL     1     -10.133   5.210  67.742  1.00  0.00    -0.197 C  
BRANCH   3   4
HETATM    4  C   UNL     1     -11.037   6.378  68.113  1.00  0.00    -0.358 C  
BRANCH   4   5
HETATM    5  C   UNL     1     -11.396   6.331  69.593  1.00  0.00    -0.492 C  
BRANCH   5   6
HETATM    6  C   UNL     1     -10.545   5.297  70.314  1.00  0.00    -0.288 C  
BRANCH   6   7
HETATM    7  C   UNL     1     -10.787   5.368  71.814  1.00  0.00    -0.242 C  
BRANCH   7   8
HETATM    8  C   UNL     1      -9.655   6.118  72.497  1.00  0.00    -0.149 C  
BRANCH   8   9
HETATM    9  C   UNL     1      -8.341   5.817  71.798  1.00  0.00    -0.120 C  
BRANCH   9  10
HETATM   10  C   UNL     1      -7.478   7.066  71.727  1.00  0.00    -0.087 C  
BRANCH  10  11
HETATM   11  C   UNL     1      -6.644   7.050  70.455  1.00  0.00    -0.051 C  
BRANCH  11  12
HETATM   12  C   UNL     1      -7.529   7.324  69.247  1.00  0.00    -0.096 C  
BRANCH  12  13
HETATM   13  C   UNL     1      -8.237   8.662  69.382  1.00  0.00    -0.113 C  
BRANCH  13  14
HETATM   14  C   UNL     1      -7.290   9.842  69.137  1.00  0.00    -0.079 C  
BRANCH  14  15
HETATM   15  C   UNL     1      -7.955  11.066  68.490  1.00  0.00    -0.137 C  
BRANCH  15  16
HETATM   16  C   UNL     1      -8.077  10.870  66.981  1.00  0.00    -0.131 C  
BRANCH  16  17
HETATM   17  N   UNL     1      -9.446  11.187  66.396  1.00  0.00    -0.187 N  
HETATM   18  C   UNL     1     -10.465  10.103  66.773  1.00  0.00    -0.204 C  
HETATM   19  C   UNL     1      -9.420  11.320  64.881  1.00  0.00    -0.196 C  
BRANCH  17  20
HETATM   20  C   UNL     1      -9.957  12.513  67.039  1.00  0.00    -0.214 C  
BRANCH  20  21
HETATM   21  C   UNL     1     -11.467  12.544  67.437  1.00  0.00    -0.341 C  
BRANCH  21  22
HETATM   22  N   UNL     1     -11.622  13.266  68.696  1.00  0.00    -0.303 NA 
BRANCH  22  23
HETATM   23  C   UNL     1     -12.004  14.684  68.691  1.00  0.00    -0.270 C  
BRANCH  23  24
HETATM   24  C   UNL     1     -10.811  15.619  68.640  1.00  0.00    -0.273 A  
HETATM   25  C   UNL     1     -10.789  16.684  67.732  1.00  0.00    -0.292 A  
HETATM   26  C   UNL     1      -8.496  17.208  68.338  1.00  0.00    -0.241 A  
HETATM   27  C   UNL     1      -8.538  16.213  69.312  1.00  0.00    -0.191 A  
HETATM   28  C   UNL     1      -9.688  15.421  69.461  1.00  0.00    -0.259 A  
HETATM   29  C   UNL     1      -9.639  17.460  67.578  1.00  0.00    -0.257 A  
BRANCH  26  30
HETATM   30  O   UNL     1      -7.413  17.958  67.982  1.00  0.00    -0.220 OA 
HETATM   31  C   UNL     1      -7.207  19.209  68.621  1.00  0.00    -0.321 C  
ENDBRANCH  26  30
ENDBRANCH  23  24
ENDBRANCH  22  23
BRANCH  22  32
HETATM   32  C   UNL     1     -12.161  12.530  69.739  1.00  0.00    -0.224 A  
HETATM   33  N   UNL     1     -11.995  11.195  69.741  1.00  0.00    -0.329 NA 
HETATM   34  N   UNL     1     -12.679  13.202  70.773  1.00  0.00    -0.235 NA 
HETATM   35  C   UNL     1     -13.060  12.488  71.849  1.00  0.00    -0.368 A  
HETATM   36  C   UNL     1     -12.450  10.512  70.819  1.00  0.00    -0.378 A  
HETATM   37  C   UNL     1     -12.983  11.121  71.923  1.00  0.00    -0.477 A  
ENDBRANCH  22  32
ENDBRANCH  21  22
ENDBRANCH  20  21
ENDBRANCH  17  20
ENDBRANCH  16  17
ENDBRANCH  15  16
ENDBRANCH  14  15
ENDBRANCH  13  14
ENDBRANCH  12  13
ENDBRANCH  11  12
ENDBRANCH  10  11
ENDBRANCH   9  10
ENDBRANCH   8   9
ENDBRANCH   7   8
ENDBRANCH   6   7
ENDBRANCH   5   6
ENDBRANCH   4   5
ENDBRANCH   3   4
ENDBRANCH   2   3
TORSDOF 22
ENDMDL
MODEL      152
REMARK 921   NORMALIZED FREE ENERGY PREDICTED BY IDOCK:   -3.32 KCAL/MOL
REMARK 922        TOTAL FREE ENERGY PREDICTED BY IDOCK:  -12.05 KCAL/MOL
REMARK 923 INTER-LIGAND FREE ENERGY PREDICTED BY IDOCK:   -9.09 KCAL/MOL
REMARK 924 INTRA-LIGAND FREE ENERGY PREDICTED BY IDOCK:   -2.96 KCAL/MOL
REMARK 927      BINDING AFFINITY PREDICTED BY RF-SCORE:    0.00 PKD
ROOT
HETATM    1  C   UNL     1     -12.566  12.036  63.617  1.00  0.00    -0.605 C  
HETATM    2  C   UNL     1     -12.446  12.794  64.927  1.00  0.00    -0.563 C  
ENDROOT
BRANCH   2   3
HETATM    3  C   UNL     1     -12.324  14.295  64.682  1.00  0.00    -0.433 C  
BRANCH   3   4
HETATM    4  C   UNL     1     -10.879  14.752  64.838  1.00  0.00    -0.433 C  
BRANCH   4   5
HETATM    5  C   UNL     1     -10.625  15.259  66.252  1.00  0.00    -0.312 C  
BRANCH   5   6
HETATM    6  C   UNL     1      -9.297  14.734  66.775  1.00  0.00    -0.268 C  
BRANCH   6   7
HETATM    7  C   UNL     1      -9.486  14.084  68.136  1.00  0.00    -0.215 C  
BRANCH   7   8
HETATM    8  C   UNL     1      -8.337  13.133  68.433  1.00  0.00    -0.122 C  
BRANCH   8   9
HETATM    9  C   UNL     1      -8.727  11.717  68.046  1.00  0.00    -0.167 C  
BRANCH   9  10
HETATM   10  C   UNL     1     -10.239  11.571  68.016  1.00  0.00    -0.205 C  
BRANCH  10  11
HETATM   11  C   UNL     1     -10.634  10.445  67.073  1.00  0.00    -0.305 C  
BRANCH  11  12
HETATM   12  C   UNL     1      -9.765  10.482  65.823  1.00  0.00    -0.277 C  
BRANCH  12  13
HETATM   13  C   UNL     1      -9.262   9.093  65.466  1.00  0.00    -0.287 C  
BRANCH  13  14
HETATM   14  C   UNL     1      -9.631   8.056  66.533  1.00  0.00    -0.295 C  
BRANCH  14  15
HETATM   15  C   UNL     1      -8.425   7.429  67.250  1.00  0.00    -0.118 C  
BRANCH  15  16
HETATM   16  C   UNL     1      -8.853   6.836  68.590  1.00  0.00    -0.123 C  
BRANCH  16  17
HETATM   17  N   UNL     1      -7.722   6.593  69.580  1.00  0.00    -0.104 N  
HETATM   18  C   UNL     1      -6.363   6.920  68.947  1.00  0.00    -0.028 C  
HETATM   19  C   UNL     1      -7.686   5.160  70.089  1.00  0.00    -0.071 C  
BRANCH  17  20
HETATM   20  C   UNL     1      -7.899   7.580  70.776  1.00  0.00    -0.098 C  
BRANCH  20  21
HETATM   21  C   UNL     1      -9.136   8.529  70.702  1.00  0.00    -0.160 C  
BRANCH  21  22
HETATM   22  N   UNL     1     -10.058   8.209  71.788  1.00  0.00    -0.190 NA 
BRANCH  22  23
HETATM   23  C   UNL     1      -9.541   7.818  73.106  1.00  0.00    -0.275 C  
BRANCH  23  24
HETATM   24  C   UNL     1      -9.675   6.332  73.377  1.00  0.00    -0.170 A  
HETATM   25  C   UNL     1      -8.844   5.710  74.317  1.00  0.00    -0.121 A  
HETATM   26  C   UNL     1      -9.719   3.527  73.708  1.00  0.00    -0.104 A  
HETATM   27  C   UNL     1     -10.617   4.143  72.839  1.00  0.00    -0.245 A  
HETATM   28  C   UNL     1     -10.594   5.537  72.672  1.00  0.00    -0.270 A  
HETATM   29  C   UNL     1      -8.861   4.322  74.469  1.00  0.00    -0.102 A  
BRANCH  26  30
HETATM   30  O   UNL     1      -9.526   2.186  73.869  1.00  0.00    -0.078 OA 
HETATM   31  C   UNL     1      -8.368   1.589  73.304  1.00  0.00    -0.053 C  
ENDBRANCH  26  30
ENDBRANCH  23  24
ENDBRANCH  22  23
BRANCH  22  32
HETATM   32  C   UNL     1     -11.214   8.973  71.829  1.00  0.00    -0.378 A  
HETATM   33  N   UNL     1     -11.297  10.061  71.042  1.00  0.00    -0.365 NA 
HETATM   34  N   UNL     1     -12.250   8.498  72.530  1.00  0.00    -0.371 NA 
HETATM   35  C   UNL     1     -13.416   9.165  72.441  1.00  0.00    -0.476 A  
HETATM   36  C   UNL     1     -12.473  10.735  71.033  1.00  0.00    -0.420 A  
HETATM   37  C   UNL     1     -13.584  10.313  71.711  1.00  0.00    -0.281 A  
ENDBRANCH  22  32
ENDBRANCH  21  22
ENDBRANCH  20  21
ENDBRANCH  17  20
ENDBRANCH  16  17
ENDBRANCH  15  16
ENDBRANCH  14  15
ENDBRANCH  13  14
ENDBRANCH  12  13
ENDBRANCH  11  12
ENDBRANCH  10  11
ENDBRANCH   9  10
ENDBRANCH   8   9
ENDBRANCH   7   8
ENDBRANCH   6   7
ENDBRANCH   5   6
ENDBRANCH   4   5
ENDBRANCH   3   4
ENDBRANCH   2   3
TORSDOF 22
ENDMDL
MODEL      153
REMARK 921   NORMALIZED FREE ENERGY PREDICTED BY IDOCK:   -3.31 KCAL/MOL
REMARK 922        TOTAL FREE ENERGY PREDICTED BY IDOCK:  -12.01 KCAL/MOL
REMARK 923 INTER-LIGAND FREE ENERGY PREDICTED BY IDOCK:   -9.02 KCAL/MOL
REMARK 924 INTRA-LIGAND FREE ENERGY PREDICTED BY IDOCK:   -2.99 KCAL/MOL
REMARK 927      BINDING AFFINITY PREDICTED BY RF-SCORE:    0.00 PKD
ROOT
HETATM    1  C   UNL     1     -12.188  15.494  73.051  1.00  0.00    -0.564 C  
HETATM    2  C   UNL     1     -11.706  15.922  71.676  1.00  0.00    -0.563 C  
ENDROOT
BRANCH   2   3
HETATM    3  C   UNL     1     -11.965  14.832  70.642  1.00  0.00    -0.371 C  
BRANCH   3   4
HETATM    4  C   UNL     1     -11.806  15.378  69.229  1.00  0.00    -0.365 C  
BRANCH   4   5
HETATM    5  C   UNL     1     -11.027  16.687  69.243  1.00  0.00    -0.261 C  
BRANCH   5   6
HETATM    6  C   UNL     1     -10.617  17.078  67.831  1.00  0.00    -0.365 C  
BRANCH   6   7
HETATM    7  C   UNL     1      -9.864  18.399  67.847  1.00  0.00    -0.348 C  
BRANCH   7   8
HETATM    8  C   UNL     1      -8.756  18.389  66.807  1.00  0.00    -0.284 C  
BRANCH   8   9
HETATM    9  C   UNL     1      -7.685  17.388  67.204  1.00  0.00    -0.229 C  
BRANCH   9  10
HETATM   10  C   UNL     1      -7.023  17.805  68.506  1.00  0.00    -0.238 C  
BRANCH  10  11
HETATM   11  C   UNL     1      -6.503  16.579  69.241  1.00  0.00    -0.201 C  
BRANCH  11  12
HETATM   12  C   UNL     1      -7.611  15.545  69.381  1.00  0.00    -0.225 C  
BRANCH  12  13
HETATM   13  C   UNL     1      -7.098  14.149  69.068  1.00  0.00    -0.111 C  
BRANCH  13  14
HETATM   14  C   UNL     1      -7.389  13.741  67.620  1.00  0.00    -0.182 C  
BRANCH  14  15
HETATM   15  C   UNL     1      -8.883  13.611  67.286  1.00  0.00    -0.227 C  
BRANCH  15  16
HETATM   16  C   UNL     1      -9.534  12.543  68.161  1.00  0.00    -0.214 C  
BRANCH  16  17
HETATM   17  N   UNL     1     -10.792  11.911  67.583  1.00  0.00    -0.217 N  
HETATM   18  C   UNL     1     -11.462  12.853  66.574  1.00  0.00    -0.341 C  
HETATM   19  C   UNL     1     -11.810  11.546  68.653  1.00  0.00    -0.318 C  
BRANCH  17  20
HETATM   20  C   UNL     1     -10.375  10.636  66.786  1.00  0.00    -0.245 C  
BRANCH  20  21
HETATM   21  C   UNL     1     -10.292   9.311  67.607  1.00  0.00    -0.253 C  
BRANCH  21  22
HETATM   22  N   UNL     1      -8.925   8.800  67.564  1.00  0.00    -0.134 NA 
BRANCH  22  23
HETATM   23  C   UNL     1      -8.051   8.930  68.738  1.00  0.00    -0.114 C  
BRANCH  23  24
HETATM   24  C   UNL     1      -8.716   8.480  70.024  1.00  0.00    -0.136 A  
HETATM   25  C   UNL     1      -8.486   7.192  70.523  1.00  0.00    -0.139 A  
HETATM   26  C   UNL     1     -10.146   7.524  72.264  1.00  0.00    -0.199 A  
HETATM   27  C   UNL     1     -10.315   8.839  71.837  1.00  0.00    -0.414 A  
HETATM   28  C   UNL     1      -9.606   9.314  70.721  1.00  0.00    -0.341 A  
HETATM   29  C   UNL     1      -9.203   6.720  71.623  1.00  0.00    -0.144 A  
BRANCH  26  30
HETATM   30  O   UNL     1     -10.860   6.882  73.234  1.00  0.00    -0.293 OA 
HETATM   31  C   UNL     1     -11.280   5.545  73.001  1.00  0.00    -0.293 C  
ENDBRANCH  26  30
ENDBRANCH  23  24
ENDBRANCH  22  23
BRANCH  22  32
HETATM   32  C   UNL     1      -8.754   7.626  66.849  1.00  0.00    -0.129 A  
HETATM   33  N   UNL     1      -7.764   7.562  65.939  1.00  0.00    -0.094 NA 
HETATM   34  N   UNL     1      -9.478   6.562  67.214  1.00  0.00    -0.122 NA 
HETATM   35  C   UNL     1      -9.197   5.387  66.620  1.00  0.00    -0.132 A  
HETATM   36  C   UNL     1      -7.560   6.373  65.322  1.00  0.00    -0.091 A  
HETATM   37  C   UNL     1      -8.248   5.234  65.642  1.00  0.00    -0.121 A  
ENDBRANCH  22  32
ENDBRANCH  21  22
ENDBRANCH  20  21
ENDBRANCH  17  20
ENDBRANCH  16  17
ENDBRANCH  15  16
ENDBRANCH  14  15
ENDBRANCH  13  14
ENDBRANCH  12  13
ENDBRANCH  11  12
ENDBRANCH  10  11
ENDBRANCH   9  10
ENDBRANCH   8   9
ENDBRANCH   7   8
ENDBRANCH   6   7
ENDBRANCH   5   6
ENDBRANCH   4   5
ENDBRANCH   3   4
ENDBRANCH   2   3
TORSDOF 22
ENDMDL
MODEL      154
REMARK 921   NORMALIZED FREE ENERGY PREDICTED BY IDOCK:   -3.29 KCAL/MOL
REMARK 922        TOTAL FREE ENERGY PREDICTED BY IDOCK:  -11.98 KCAL/MOL
REMARK 923 INTER-LIGAND FREE ENERGY PREDICTED BY IDOCK:   -9.03 KCAL/MOL
REMARK 924 INTRA-LIGAND FREE ENERGY PREDICTED BY IDOCK:   -2.95 KCAL/MOL
REMARK 927      BINDING AFFINITY PREDICTED BY RF-SCORE:    0.00 PKD
ROOT
HETATM    1  C   UNL     1     -11.234  11.571  68.315  1.00  0.00    -0.322 C  
HETATM    2  C   UNL     1     -10.151  12.627  68.449  1.00  0.00    -0.222 C  
ENDROOT
BRANCH   2   3
HETATM    3  C   UNL     1     -10.665  13.995  68.012  1.00  0.00    -0.253 C  
BRANCH   3   4
HETATM    4  C   UNL     1     -12.143  13.928  67.650  1.00  0.00    -0.342 C  
BRANCH   4   5
HETATM    5  C   UNL     1     -12.335  14.068  66.145  1.00  0.00    -0.491 C  
BRANCH   5   6
HETATM    6  C   UNL     1     -11.182  14.849  65.533  1.00  0.00    -0.348 C  
BRANCH   6   7
HETATM    7  C   UNL     1     -10.577  14.074  64.373  1.00  0.00    -0.196 C  
BRANCH   7   8
HETATM    8  C   UNL     1     -10.943  12.601  64.473  1.00  0.00    -0.365 C  
BRANCH   8   9
HETATM    9  C   UNL     1      -9.746  11.805  64.962  1.00  0.00    -0.212 C  
BRANCH   9  10
HETATM   10  C   UNL     1     -10.046  10.316  64.925  1.00  0.00    -0.346 C  
BRANCH  10  11
HETATM   11  C   UNL     1      -9.203   9.590  65.962  1.00  0.00    -0.248 C  
BRANCH  11  12
HETATM   12  C   UNL     1      -9.498   8.097  65.922  1.00  0.00    -0.082 C  
BRANCH  12  13
HETATM   13  C   UNL     1     -10.353   7.676  67.105  1.00  0.00    -0.385 C  
BRANCH  13  14
HETATM   14  C   UNL     1     -10.831   6.225  66.982  1.00  0.00    -0.458 C  
BRANCH  14  15
HETATM   15  C   UNL     1      -9.710   5.210  66.712  1.00  0.00    -0.178 C  
BRANCH  15  16
HETATM   16  C   UNL     1      -9.256   4.557  68.014  1.00  0.00    -0.132 C  
BRANCH  16  17
HETATM   17  N   UNL     1      -7.799   4.792  68.383  1.00  0.00    -0.081 N  
HETATM   18  C   UNL     1      -7.155   5.817  67.438  1.00  0.00    -0.074 C  
HETATM   19  C   UNL     1      -6.971   3.516  68.348  1.00  0.00    -0.050 C  
BRANCH  17  20
HETATM   20  C   UNL     1      -7.751   5.421  69.810  1.00  0.00    -0.077 C  
BRANCH  20  21
HETATM   21  C   UNL     1      -9.132   5.712  70.476  1.00  0.00    -0.145 C  
BRANCH  21  22
HETATM   22  N   UNL     1      -9.059   5.402  71.901  1.00  0.00    -0.138 NA 
BRANCH  22  23
HETATM   23  C   UNL     1      -9.096   6.483  72.895  1.00  0.00    -0.128 C  
BRANCH  23  24
HETATM   24  C   UNL     1     -10.038   7.608  72.511  1.00  0.00    -0.284 A  
HETATM   25  C   UNL     1     -11.373   7.584  72.934  1.00  0.00    -0.355 A  
HETATM   26  C   UNL     1     -11.876   9.544  71.590  1.00  0.00    -0.397 A  
HETATM   27  C   UNL     1     -10.531   9.634  71.238  1.00  0.00    -0.216 A  
HETATM   28  C   UNL     1      -9.617   8.670  71.694  1.00  0.00    -0.344 A  
HETATM   29  C   UNL     1     -12.280   8.536  72.467  1.00  0.00    -0.383 A  
BRANCH  26  30
HETATM   30  O   UNL     1     -12.898  10.315  71.117  1.00  0.00    -0.351 OA 
HETATM   31  C   UNL     1     -12.986  11.668  71.539  1.00  0.00    -0.358 C  
ENDBRANCH  26  30
ENDBRANCH  23  24
ENDBRANCH  22  23
BRANCH  22  32
HETATM   32  C   UNL     1      -9.710   4.242  72.290  1.00  0.00    -0.152 A  
HETATM   33  N   UNL     1      -9.566   3.137  71.536  1.00  0.00    -0.149 NA 
HETATM   34  N   UNL     1     -10.318   4.238  73.481  1.00  0.00    -0.161 NA 
HETATM   35  C   UNL     1     -10.815   3.066  73.921  1.00  0.00    -0.208 A  
HETATM   36  C   UNL     1     -10.137   1.995  71.989  1.00  0.00    -0.156 A  
HETATM   37  C   UNL     1     -10.767   1.900  73.201  1.00  0.00    -0.238 A  
ENDBRANCH  22  32
ENDBRANCH  21  22
ENDBRANCH  20  21
ENDBRANCH  17  20
ENDBRANCH  16  17
ENDBRANCH  15  16
ENDBRANCH  14  15
ENDBRANCH  13  14
ENDBRANCH  12  13
ENDBRANCH  11  12
ENDBRANCH  10  11
ENDBRANCH   9  10
ENDBRANCH   8   9
ENDBRANCH   7   8
ENDBRANCH   6   7
ENDBRANCH   5   6
ENDBRANCH   4   5
ENDBRANCH   3   4
ENDBRANCH   2   3
TORSDOF 22
ENDMDL
MODEL      155
REMARK 921   NORMALIZED FREE ENERGY PREDICTED BY IDOCK:   -3.28 KCAL/MOL
REMARK 922        TOTAL FREE ENERGY PREDICTED BY IDOCK:  -11.96 KCAL/MOL
REMARK 923 INTER-LIGAND FREE ENERGY PREDICTED BY IDOCK:   -9.51 KCAL/MOL
REMARK 924 INTRA-LIGAND FREE ENERGY PREDICTED BY IDOCK:   -2.44 KCAL/MOL
REMARK 927      BINDING AFFINITY PREDICTED BY RF-SCORE:    0.00 PKD
ROOT
HETATM    1  C   UNL     1      -6.241  19.501  67.289  1.00  0.00    -0.198 C  
HETATM    2  C   UNL     1      -7.642  20.054  67.481  1.00  0.00    -0.327 C  
ENDROOT
BRANCH   2   3
HETATM    3  C   UNL     1      -8.363  19.336  68.617  1.00  0.00    -0.407 C  
BRANCH   3   4
HETATM    4  C   UNL     1      -8.793  17.940  68.187  1.00  0.00    -0.265 C  
BRANCH   4   5
HETATM    5  C   UNL     1     -10.299  17.769  68.342  1.00  0.00    -0.378 C  
BRANCH   5   6
HETATM    6  C   UNL     1     -10.747  16.441  67.749  1.00  0.00    -0.328 C  
BRANCH   6   7
HETATM    7  C   UNL     1     -11.769  15.777  68.657  1.00  0.00    -0.353 C  
BRANCH   7   8
HETATM    8  C   UNL     1     -11.940  14.314  68.279  1.00  0.00    -0.346 C  
BRANCH   8   9
HETATM    9  C   UNL     1     -11.545  14.107  66.827  1.00  0.00    -0.409 C  
BRANCH   9  10
HETATM   10  C   UNL     1     -12.774  13.843  65.974  1.00  0.00    -0.410 C  
BRANCH  10  11
HETATM   11  C   UNL     1     -12.511  12.681  65.029  1.00  0.00    -0.556 C  
BRANCH  11  12
HETATM   12  C   UNL     1     -11.114  12.124  65.263  1.00  0.00    -0.367 C  
BRANCH  12  13
HETATM   13  C   UNL     1     -10.234  12.324  64.041  1.00  0.00    -0.399 C  
BRANCH  13  14
HETATM   14  C   UNL     1     -10.023  11.019  63.264  1.00  0.00    -0.414 C  
BRANCH  14  15
HETATM   15  C   UNL     1      -8.555  10.713  62.928  1.00  0.00    -0.208 C  
BRANCH  15  16
HETATM   16  C   UNL     1      -8.104   9.434  63.628  1.00  0.00    -0.154 C  
BRANCH  16  17
HETATM   17  N   UNL     1      -6.668   9.445  64.132  1.00  0.00    -0.092 N  
HETATM   18  C   UNL     1      -5.762  10.242  63.182  1.00  0.00    -0.140 C  
HETATM   19  C   UNL     1      -6.091   8.046  64.289  1.00  0.00    -0.057 C  
BRANCH  17  20
HETATM   20  C   UNL     1      -6.635  10.193  65.501  1.00  0.00    -0.118 C  
BRANCH  20  21
HETATM   21  C   UNL     1      -7.875   9.982  66.425  1.00  0.00    -0.113 C  
BRANCH  21  22
HETATM   22  N   UNL     1      -7.489   9.169  67.575  1.00  0.00    -0.088 NA 
BRANCH  22  23
HETATM   23  C   UNL     1      -7.513   9.744  68.927  1.00  0.00    -0.075 C  
BRANCH  23  24
HETATM   24  C   UNL     1      -8.916   9.889  69.484  1.00  0.00    -0.224 A  
HETATM   25  C   UNL     1      -9.816  10.788  68.899  1.00  0.00    -0.209 A  
HETATM   26  C   UNL     1     -11.437  10.374  70.660  1.00  0.00    -0.349 A  
HETATM   27  C   UNL     1     -10.590   9.407  71.197  1.00  0.00    -0.403 A  
HETATM   28  C   UNL     1      -9.335   9.168  70.614  1.00  0.00    -0.312 A  
HETATM   29  C   UNL     1     -11.056  11.034  69.491  1.00  0.00    -0.322 A  
BRANCH  26  30
HETATM   30  O   UNL     1     -12.614  10.816  71.192  1.00  0.00    -0.359 OA 
HETATM   31  C   UNL     1     -13.353   9.943  72.034  1.00  0.00    -0.432 C  
ENDBRANCH  26  30
ENDBRANCH  23  24
ENDBRANCH  22  23
BRANCH  22  32
HETATM   32  C   UNL     1      -7.864   7.837  67.512  1.00  0.00    -0.122 A  
HETATM   33  N   UNL     1      -7.334   6.974  68.398  1.00  0.00    -0.097 NA 
HETATM   34  N   UNL     1      -8.856   7.507  66.677  1.00  0.00    -0.139 NA 
HETATM   35  C   UNL     1      -9.319   6.244  66.732  1.00  0.00    -0.142 A  
HETATM   36  C   UNL     1      -7.788   5.697  68.373  1.00  0.00    -0.092 A  
HETATM   37  C   UNL     1      -8.806   5.279  67.560  1.00  0.00    -0.105 A  
ENDBRANCH  22  32
ENDBRANCH  21  22
ENDBRANCH  20  21
ENDBRANCH  17  20
ENDBRANCH  16  17
ENDBRANCH  15  16
ENDBRANCH  14  15
ENDBRANCH  13  14
ENDBRANCH  12  13
ENDBRANCH  11  12
ENDBRANCH  10  11
ENDBRANCH   9  10
ENDBRANCH   8   9
ENDBRANCH   7   8
ENDBRANCH   6   7
ENDBRANCH   5   6
ENDBRANCH   4   5
ENDBRANCH   3   4
ENDBRANCH   2   3
TORSDOF 22
ENDMDL
MODEL      156
REMARK 921   NORMALIZED FREE ENERGY PREDICTED BY IDOCK:   -3.28 KCAL/MOL
REMARK 922        TOTAL FREE ENERGY PREDICTED BY IDOCK:  -11.95 KCAL/MOL
REMARK 923 INTER-LIGAND FREE ENERGY PREDICTED BY IDOCK:   -8.71 KCAL/MOL
REMARK 924 INTRA-LIGAND FREE ENERGY PREDICTED BY IDOCK:   -3.24 KCAL/MOL
REMARK 927      BINDING AFFINITY PREDICTED BY RF-SCORE:    0.00 PKD
ROOT
HETATM    1  C   UNL     1     -10.324   5.332  69.228  1.00  0.00    -0.286 C  
HETATM    2  C   UNL     1      -9.222   5.949  70.071  1.00  0.00    -0.164 C  
ENDROOT
BRANCH   2   3
HETATM    3  C   UNL     1      -9.772   6.468  71.395  1.00  0.00    -0.184 C  
BRANCH   3   4
HETATM    4  C   UNL     1     -11.200   5.985  71.614  1.00  0.00    -0.328 C  
BRANCH   4   5
HETATM    5  C   UNL     1     -12.065   7.103  72.180  1.00  0.00    -0.284 C  
BRANCH   5   6
HETATM    6  C   UNL     1     -13.304   7.304  71.320  1.00  0.00    -0.338 C  
BRANCH   6   7
HETATM    7  C   UNL     1     -13.997   8.606  71.688  1.00  0.00    -0.459 C  
BRANCH   7   8
HETATM    8  C   UNL     1     -12.969   9.686  71.988  1.00  0.00    -0.518 C  
BRANCH   8   9
HETATM    9  C   UNL     1     -12.696  10.499  70.734  1.00  0.00    -0.471 C  
BRANCH   9  10
HETATM   10  C   UNL     1     -11.211  10.494  70.410  1.00  0.00    -0.378 C  
BRANCH  10  11
HETATM   11  C   UNL     1     -10.893   9.357  69.451  1.00  0.00    -0.208 C  
BRANCH  11  12
HETATM   12  C   UNL     1     -10.875   9.872  68.018  1.00  0.00    -0.294 C  
BRANCH  12  13
HETATM   13  C   UNL     1     -10.626   8.741  67.034  1.00  0.00    -0.283 C  
BRANCH  13  14
HETATM   14  C   UNL     1      -9.181   8.732  66.523  1.00  0.00    -0.228 C  
BRANCH  14  15
HETATM   15  C   UNL     1      -8.524  10.119  66.454  1.00  0.00    -0.133 C  
BRANCH  15  16
HETATM   16  C   UNL     1      -7.153  10.093  67.123  1.00  0.00    -0.089 C  
BRANCH  16  17
HETATM   17  N   UNL     1      -6.901  11.207  68.129  1.00  0.00    -0.066 N  
HETATM   18  C   UNL     1      -5.472  11.752  67.993  1.00  0.00    -0.047 C  
HETATM   19  C   UNL     1      -7.113  10.759  69.567  1.00  0.00    -0.132 C  
BRANCH  17  20
HETATM   20  C   UNL     1      -7.858  12.393  67.793  1.00  0.00    -0.154 C  
BRANCH  20  21
HETATM   21  C   UNL     1      -7.969  13.511  68.877  1.00  0.00     0.087 C  
BRANCH  21  22
HETATM   22  N   UNL     1      -8.816  14.590  68.377  1.00  0.00    -0.175 NA 
BRANCH  22  23
HETATM   23  C   UNL     1      -8.769  14.967  66.958  1.00  0.00    -0.237 C  
BRANCH  23  24
HETATM   24  C   UNL     1      -7.885  16.171  66.695  1.00  0.00    -0.288 A  
HETATM   25  C   UNL     1      -6.588  16.220  67.221  1.00  0.00    -0.228 A  
HETATM   26  C   UNL     1      -6.317  18.507  66.447  1.00  0.00    -0.191 A  
HETATM   27  C   UNL     1      -7.567  18.436  65.837  1.00  0.00    -0.167 A  
HETATM   28  C   UNL     1      -8.348  17.276  65.962  1.00  0.00    -0.154 A  
HETATM   29  C   UNL     1      -5.821  17.381  67.107  1.00  0.00    -0.173 A  
BRANCH  26  30
HETATM   30  O   UNL     1      -5.511  19.604  66.534  1.00  0.00    -0.163 OA 
HETATM   31  C   UNL     1      -5.880  20.656  67.413  1.00  0.00    -0.208 C  
ENDBRANCH  26  30
ENDBRANCH  23  24
ENDBRANCH  22  23
BRANCH  22  32
HETATM   32  C   UNL     1     -10.074  14.670  68.951  1.00  0.00    -0.234 A  
HETATM   33  N   UNL     1     -11.054  13.882  68.473  1.00  0.00    -0.253 NA 
HETATM   34  N   UNL     1     -10.209  15.412  70.056  1.00  0.00    -0.285 NA 
HETATM   35  C   UNL     1     -11.392  15.363  70.696  1.00  0.00    -0.332 A  
HETATM   36  C   UNL     1     -12.248  13.914  69.114  1.00  0.00    -0.267 A  
HETATM   37  C   UNL     1     -12.468  14.635  70.256  1.00  0.00    -0.401 A  
ENDBRANCH  22  32
ENDBRANCH  21  22
ENDBRANCH  20  21
ENDBRANCH  17  20
ENDBRANCH  16  17
ENDBRANCH  15  16
ENDBRANCH  14  15
ENDBRANCH  13  14
ENDBRANCH  12  13
ENDBRANCH  11  12
ENDBRANCH  10  11
ENDBRANCH   9  10
ENDBRANCH   8   9
ENDBRANCH   7   8
ENDBRANCH   6   7
ENDBRANCH   5   6
ENDBRANCH   4   5
ENDBRANCH   3   4
ENDBRANCH   2   3
TORSDOF 22
ENDMDL
MODEL      157
REMARK 921   NORMALIZED FREE ENERGY PREDICTED BY IDOCK:   -3.26 KCAL/MOL
REMARK 922        TOTAL FREE ENERGY PREDICTED BY IDOCK:  -11.91 KCAL/MOL
REMARK 923 INTER-LIGAND FREE ENERGY PREDICTED BY IDOCK:   -7.90 KCAL/MOL
REMARK 924 INTRA-LIGAND FREE ENERGY PREDICTED BY IDOCK:   -4.02 KCAL/MOL
REMARK 927      BINDING AFFINITY PREDICTED BY RF-SCORE:    0.00 PKD
ROOT
HETATM    1  C   UNL     1      -9.449   2.101  64.926  1.00  0.00    -0.034 C  
HETATM    2  C   UNL     1      -9.681   3.525  64.453  1.00  0.00    -0.172 C  
ENDROOT
BRANCH   2   3
HETATM    3  C   UNL     1      -8.750   4.498  65.169  1.00  0.00    -0.135 C  
BRANCH   3   4
HETATM    4  C   UNL     1      -9.526   5.694  65.705  1.00  0.00    -0.035 C  
BRANCH   4   5
HETATM    5  C   UNL     1     -10.464   5.266  66.827  1.00  0.00    -0.330 C  
BRANCH   5   6
HETATM    6  C   UNL     1      -9.751   5.330  68.170  1.00  0.00    -0.184 C  
BRANCH   6   7
HETATM    7  C   UNL     1      -9.634   6.772  68.637  1.00  0.00    -0.131 C  
BRANCH   7   8
HETATM    8  C   UNL     1      -8.175   7.198  68.675  1.00  0.00    -0.125 C  
BRANCH   8   9
HETATM    9  C   UNL     1      -8.059   8.582  69.290  1.00  0.00    -0.113 C  
BRANCH   9  10
HETATM   10  C   UNL     1      -7.554   8.489  70.720  1.00  0.00    -0.074 C  
BRANCH  10  11
HETATM   11  C   UNL     1      -6.812   7.177  70.924  1.00  0.00    -0.053 C  
BRANCH  11  12
HETATM   12  C   UNL     1      -7.272   6.512  72.214  1.00  0.00    -0.086 C  
BRANCH  12  13
HETATM   13  C   UNL     1      -8.759   6.204  72.170  1.00  0.00    -0.131 C  
BRANCH  13  14
HETATM   14  C   UNL     1      -9.389   6.207  73.568  1.00  0.00    -0.134 C  
BRANCH  14  15
HETATM   15  C   UNL     1     -10.657   7.065  73.690  1.00  0.00    -0.383 C  
BRANCH  15  16
HETATM   16  C   UNL     1     -10.708   8.103  72.573  1.00  0.00    -0.349 C  
BRANCH  16  17
HETATM   17  N   UNL     1     -11.995   8.117  71.760  1.00  0.00    -0.288 N  
HETATM   18  C   UNL     1     -13.150   8.711  72.578  1.00  0.00    -0.289 C  
HETATM   19  C   UNL     1     -12.404   6.731  71.284  1.00  0.00    -0.344 C  
BRANCH  17  20
HETATM   20  C   UNL     1     -11.790   9.063  70.537  1.00  0.00    -0.073 C  
BRANCH  20  21
HETATM   21  C   UNL     1     -11.011  10.386  70.818  1.00  0.00    -0.014 C  
BRANCH  21  22
HETATM   22  N   UNL     1     -11.518  11.442  69.945  1.00  0.00    -0.287 NA 
BRANCH  22  23
HETATM   23  C   UNL     1     -11.892  11.137  68.558  1.00  0.00    -0.260 C  
BRANCH  23  24
HETATM   24  C   UNL     1     -10.694  10.975  67.643  1.00  0.00    -0.281 A  
HETATM   25  C   UNL     1     -10.637   9.907  66.740  1.00  0.00    -0.214 A  
HETATM   26  C   UNL     1      -8.363  10.498  66.121  1.00  0.00    -0.155 A  
HETATM   27  C   UNL     1      -8.443  11.619  66.945  1.00  0.00    -0.168 A  
HETATM   28  C   UNL     1      -9.601  11.855  67.703  1.00  0.00    -0.185 A  
HETATM   29  C   UNL     1      -9.478   9.668  65.998  1.00  0.00    -0.284 A  
BRANCH  26  30
HETATM   30  O   UNL     1      -7.265  10.062  65.439  1.00  0.00    -0.125 OA 
HETATM   31  C   UNL     1      -7.178   8.688  65.089  1.00  0.00    -0.087 C  
ENDBRANCH  26  30
ENDBRANCH  23  24
ENDBRANCH  22  23
BRANCH  22  32
HETATM   32  C   UNL     1     -12.322  12.386  70.562  1.00  0.00    -0.262 A  
HETATM   33  N   UNL     1     -12.996  12.035  71.673  1.00  0.00    -0.391 NA 
HETATM   34  N   UNL     1     -12.262  13.645  70.114  1.00  0.00    -0.345 NA 
HETATM   35  C   UNL     1     -12.925  14.585  70.812  1.00  0.00    -0.343 A  
HETATM   36  C   UNL     1     -13.699  13.003  72.307  1.00  0.00    -0.512 A  
HETATM   37  C   UNL     1     -13.684  14.317  71.923  1.00  0.00    -0.524 A  
ENDBRANCH  22  32
ENDBRANCH  21  22
ENDBRANCH  20  21
ENDBRANCH  17  20
ENDBRANCH  16  17
ENDBRANCH  15  16
ENDBRANCH  14  15
ENDBRANCH  13  14
ENDBRANCH  12  13
ENDBRANCH  11  12
ENDBRANCH  10  11
ENDBRANCH   9  10
ENDBRANCH   8   9
ENDBRANCH   7   8
ENDBRANCH   6   7
ENDBRANCH   5   6
ENDBRANCH   4   5
ENDBRANCH   3   4
ENDBRANCH   2   3
TORSDOF 22
ENDMDL
MODEL      158
REMARK 921   NORMALIZED FREE ENERGY PREDICTED BY IDOCK:   -3.26 KCAL/MOL
REMARK 922        TOTAL FREE ENERGY PREDICTED BY IDOCK:  -11.91 KCAL/MOL
REMARK 923 INTER-LIGAND FREE ENERGY PREDICTED BY IDOCK:   -8.91 KCAL/MOL
REMARK 924 INTRA-LIGAND FREE ENERGY PREDICTED BY IDOCK:   -3.00 KCAL/MOL
REMARK 927      BINDING AFFINITY PREDICTED BY RF-SCORE:    0.00 PKD
ROOT
HETATM    1  C   UNL     1     -11.917  13.208  69.259  1.00  0.00    -0.344 C  
HETATM    2  C   UNL     1     -12.253  14.379  70.166  1.00  0.00    -0.401 C  
ENDROOT
BRANCH   2   3
HETATM    3  C   UNL     1     -12.082  15.705  69.431  1.00  0.00    -0.287 C  
BRANCH   3   4
HETATM    4  C   UNL     1     -10.614  15.968  69.124  1.00  0.00    -0.260 C  
BRANCH   4   5
HETATM    5  C   UNL     1     -10.359  17.460  68.955  1.00  0.00    -0.319 C  
BRANCH   5   6
HETATM    6  C   UNL     1     -10.672  17.896  67.531  1.00  0.00    -0.333 C  
BRANCH   6   7
HETATM    7  C   UNL     1     -10.684  19.413  67.434  1.00  0.00    -0.594 C  
BRANCH   7   8
HETATM    8  C   UNL     1      -9.658  19.886  66.417  1.00  0.00    -0.537 C  
BRANCH   8   9
HETATM    9  C   UNL     1      -8.518  18.886  66.332  1.00  0.00    -0.302 C  
BRANCH   9  10
HETATM   10  C   UNL     1      -7.359  19.324  67.211  1.00  0.00    -0.244 C  
BRANCH  10  11
HETATM   11  C   UNL     1      -6.223  18.318  67.113  1.00  0.00    -0.184 C  
BRANCH  11  12
HETATM   12  C   UNL     1      -6.782  16.906  67.023  1.00  0.00    -0.242 C  
BRANCH  12  13
HETATM   13  C   UNL     1      -7.089  16.351  68.404  1.00  0.00    -0.156 C  
BRANCH  13  14
HETATM   14  C   UNL     1      -5.905  15.568  68.985  1.00  0.00    -0.104 C  
BRANCH  14  15
HETATM   15  C   UNL     1      -6.298  14.281  69.725  1.00  0.00    -0.144 C  
BRANCH  15  16
HETATM   16  C   UNL     1      -5.479  13.100  69.211  1.00  0.00    -0.076 C  
BRANCH  16  17
HETATM   17  N   UNL     1      -6.280  11.847  68.888  1.00  0.00    -0.059 N  
HETATM   18  C   UNL     1      -6.471  10.983  70.143  1.00  0.00    -0.128 C  
HETATM   19  C   UNL     1      -5.629  10.995  67.809  1.00  0.00    -0.039 C  
BRANCH  17  20
HETATM   20  C   UNL     1      -7.708  12.284  68.434  1.00  0.00    -0.141 C  
BRANCH  20  21
HETATM   21  C   UNL     1      -7.991  12.208  66.901  1.00  0.00    -0.089 C  
BRANCH  21  22
HETATM   22  N   UNL     1      -9.139  11.338  66.663  1.00  0.00    -0.174 NA 
BRANCH  22  23
HETATM   23  C   UNL     1      -9.727  10.572  67.769  1.00  0.00    -0.160 C  
BRANCH  23  24
HETATM   24  C   UNL     1      -9.569   9.073  67.601  1.00  0.00    -0.183 A  
HETATM   25  C   UNL     1      -8.326   8.467  67.821  1.00  0.00    -0.130 A  
HETATM   26  C   UNL     1      -9.180   6.333  67.038  1.00  0.00    -0.124 A  
HETATM   27  C   UNL     1     -10.445   6.901  66.906  1.00  0.00    -0.349 A  
HETATM   28  C   UNL     1     -10.638   8.264  67.184  1.00  0.00    -0.340 A  
HETATM   29  C   UNL     1      -8.135   7.116  67.530  1.00  0.00    -0.113 A  
BRANCH  26  30
HETATM   30  O   UNL     1      -8.809   5.071  66.674  1.00  0.00    -0.112 OA 
HETATM   31  C   UNL     1      -8.125   4.260  67.618  1.00  0.00    -0.095 C  
ENDBRANCH  26  30
ENDBRANCH  23  24
ENDBRANCH  22  23
BRANCH  22  32
HETATM   32  C   UNL     1     -10.058  11.808  65.738  1.00  0.00    -0.237 A  
HETATM   33  N   UNL     1     -10.551  13.051  65.892  1.00  0.00    -0.271 NA 
HETATM   34  N   UNL     1     -10.287  11.063  64.651  1.00  0.00    -0.330 NA 
HETATM   35  C   UNL     1     -11.060  11.594  63.686  1.00  0.00    -0.425 A  
HETATM   36  C   UNL     1     -11.375  13.519  64.924  1.00  0.00    -0.334 A  
HETATM   37  C   UNL     1     -11.652  12.827  63.776  1.00  0.00    -0.548 A  
ENDBRANCH  22  32
ENDBRANCH  21  22
ENDBRANCH  20  21
ENDBRANCH  17  20
ENDBRANCH  16  17
ENDBRANCH  15  16
ENDBRANCH  14  15
ENDBRANCH  13  14
ENDBRANCH  12  13
ENDBRANCH  11  12
ENDBRANCH  10  11
ENDBRANCH   9  10
ENDBRANCH   8   9
ENDBRANCH   7   8
ENDBRANCH   6   7
ENDBRANCH   5   6
ENDBRANCH   4   5
ENDBRANCH   3   4
ENDBRANCH   2   3
TORSDOF 22
ENDMDL
MODEL      159
REMARK 921   NORMALIZED FREE ENERGY PREDICTED BY IDOCK:   -3.23 KCAL/MOL
REMARK 922        TOTAL FREE ENERGY PREDICTED BY IDOCK:  -11.84 KCAL/MOL
REMARK 923 INTER-LIGAND FREE ENERGY PREDICTED BY IDOCK:   -8.85 KCAL/MOL
REMARK 924 INTRA-LIGAND FREE ENERGY PREDICTED BY IDOCK:   -2.99 KCAL/MOL
REMARK 927      BINDING AFFINITY PREDICTED BY RF-SCORE:    0.00 PKD
ROOT
HETATM    1  C   UNL     1      -6.434   5.058  64.509  1.00  0.00    -0.038 C  
HETATM    2  C   UNL     1      -7.529   4.367  65.302  1.00  0.00    -0.077 C  
ENDROOT
BRANCH   2   3
HETATM    3  C   UNL     1      -8.893   4.977  64.997  1.00  0.00    -0.149 C  
BRANCH   3   4
HETATM    4  C   UNL     1      -9.336   5.903  66.122  1.00  0.00    -0.150 C  
BRANCH   4   5
HETATM    5  C   UNL     1      -8.948   5.325  67.478  1.00  0.00    -0.108 C  
BRANCH   5   6
HETATM    6  C   UNL     1      -8.479   6.431  68.412  1.00  0.00    -0.116 C  
BRANCH   6   7
HETATM    7  C   UNL     1      -7.104   6.926  67.995  1.00  0.00    -0.086 C  
BRANCH   7   8
HETATM    8  C   UNL     1      -7.184   8.367  67.516  1.00  0.00    -0.088 C  
BRANCH   8   9
HETATM    9  C   UNL     1      -8.246   9.114  68.304  1.00  0.00    -0.116 C  
BRANCH   9  10
HETATM   10  C   UNL     1      -9.162   9.882  67.366  1.00  0.00    -0.151 C  
BRANCH  10  11
HETATM   11  C   UNL     1     -10.614   9.673  67.771  1.00  0.00    -0.320 C  
BRANCH  11  12
HETATM   12  C   UNL     1     -11.279  11.016  68.039  1.00  0.00    -0.372 C  
BRANCH  12  13
HETATM   13  C   UNL     1     -11.156  11.405  69.502  1.00  0.00    -0.274 C  
BRANCH  13  14
HETATM   14  C   UNL     1     -12.415  11.046  70.300  1.00  0.00    -0.365 C  
BRANCH  14  15
HETATM   15  C   UNL     1     -12.579  11.831  71.611  1.00  0.00    -0.249 C  
BRANCH  15  16
HETATM   16  C   UNL     1     -13.485  13.040  71.398  1.00  0.00     0.017 C  
BRANCH  16  17
HETATM   17  N   UNL     1     -12.819  14.393  71.605  1.00  0.00    -0.326 N  
HETATM   18  C   UNL     1     -12.257  14.511  73.029  1.00  0.00    -0.084 C  
HETATM   19  C   UNL     1     -13.766  15.558  71.361  1.00  0.00    -0.443 C  
BRANCH  17  20
HETATM   20  C   UNL     1     -11.596  14.488  70.641  1.00  0.00    -0.222 C  
BRANCH  20  21
HETATM   21  C   UNL     1     -11.234  15.919  70.133  1.00  0.00    -0.364 C  
BRANCH  21  22
HETATM   22  N   UNL     1     -10.435  15.815  68.917  1.00  0.00    -0.214 NA 
BRANCH  22  23
HETATM   23  C   UNL     1     -11.042  16.090  67.608  1.00  0.00    -0.243 C  
BRANCH  23  24
HETATM   24  C   UNL     1     -11.105  14.866  66.715  1.00  0.00    -0.335 A  
HETATM   25  C   UNL     1      -9.959  14.423  66.045  1.00  0.00    -0.337 A  
HETATM   26  C   UNL     1     -11.254  12.757  64.843  1.00  0.00    -0.297 A  
HETATM   27  C   UNL     1     -12.383  13.125  65.573  1.00  0.00    -0.529 A  
HETATM   28  C   UNL     1     -12.310  14.175  66.502  1.00  0.00    -0.405 A  
HETATM   29  C   UNL     1     -10.039  13.388  65.112  1.00  0.00    -0.266 A  
BRANCH  26  30
HETATM   30  O   UNL     1     -11.202  11.861  63.815  1.00  0.00    -0.375 OA 
HETATM   31  C   UNL     1     -10.179  10.877  63.816  1.00  0.00    -0.343 C  
ENDBRANCH  26  30
ENDBRANCH  23  24
ENDBRANCH  22  23
BRANCH  22  32
HETATM   32  C   UNL     1      -9.117  16.227  69.036  1.00  0.00    -0.255 A  
HETATM   33  N   UNL     1      -8.201  15.344  69.474  1.00  0.00    -0.242 NA 
HETATM   34  N   UNL     1      -8.796  17.433  68.557  1.00  0.00    -0.273 NA 
HETATM   35  C   UNL     1      -7.491  17.765  68.534  1.00  0.00    -0.272 A  
HETATM   36  C   UNL     1      -6.907  15.745  69.491  1.00  0.00    -0.187 A  
HETATM   37  C   UNL     1      -6.490  16.957  69.010  1.00  0.00    -0.202 A  
ENDBRANCH  22  32
ENDBRANCH  21  22
ENDBRANCH  20  21
ENDBRANCH  17  20
ENDBRANCH  16  17
ENDBRANCH  15  16
ENDBRANCH  14  15
ENDBRANCH  13  14
ENDBRANCH  12  13
ENDBRANCH  11  12
ENDBRANCH  10  11
ENDBRANCH   9  10
ENDBRANCH   8   9
ENDBRANCH   7   8
ENDBRANCH   6   7
ENDBRANCH   5   6
ENDBRANCH   4   5
ENDBRANCH   3   4
ENDBRANCH   2   3
TORSDOF 22
ENDMDL
MODEL      160
REMARK 921   NORMALIZED FREE ENERGY PREDICTED BY IDOCK:   -3.22 KCAL/MOL
REMARK 922        TOTAL FREE ENERGY PREDICTED BY IDOCK:  -11.81 KCAL/MOL
REMARK 923 INTER-LIGAND FREE ENERGY PREDICTED BY IDOCK:   -9.18 KCAL/MOL
REMARK 924 INTRA-LIGAND FREE ENERGY PREDICTED BY IDOCK:   -2.64 KCAL/MOL
REMARK 927      BINDING AFFINITY PREDICTED BY RF-SCORE:    0.00 PKD
ROOT
HETATM    1  C   UNL     1      -9.907  11.364  63.116  1.00  0.00    -0.413 C  
HETATM    2  C   UNL     1     -10.207  11.804  64.538  1.00  0.00    -0.327 C  
ENDROOT
BRANCH   2   3
HETATM    3  C   UNL     1     -11.689  12.121  64.711  1.00  0.00    -0.390 C  
BRANCH   3   4
HETATM    4  C   UNL     1     -11.956  13.602  64.475  1.00  0.00    -0.454 C  
BRANCH   4   5
HETATM    5  C   UNL     1     -11.370  14.441  65.604  1.00  0.00    -0.330 C  
BRANCH   5   6
HETATM    6  C   UNL     1     -12.048  14.103  66.924  1.00  0.00    -0.466 C  
BRANCH   6   7
HETATM    7  C   UNL     1     -11.139  14.460  68.089  1.00  0.00    -0.279 C  
BRANCH   7   8
HETATM    8  C   UNL     1     -11.070  15.968  68.264  1.00  0.00    -0.351 C  
BRANCH   8   9
HETATM    9  C   UNL     1     -10.578  16.303  69.662  1.00  0.00    -0.320 C  
BRANCH   9  10
HETATM   10  C   UNL     1     -11.046  15.254  70.656  1.00  0.00    -0.341 C  
BRANCH  10  11
HETATM   11  C   UNL     1     -11.930  15.898  71.713  1.00  0.00    -0.573 C  
BRANCH  11  12
HETATM   12  C   UNL     1     -13.365  15.416  71.558  1.00  0.00    -0.586 C  
BRANCH  12  13
HETATM   13  C   UNL     1     -13.409  13.979  71.067  1.00  0.00    -0.241 C  
BRANCH  13  14
HETATM   14  C   UNL     1     -13.561  12.981  72.220  1.00  0.00    -0.643 C  
BRANCH  14  15
HETATM   15  C   UNL     1     -13.282  11.520  71.836  1.00  0.00    -0.479 C  
BRANCH  15  16
HETATM   16  C   UNL     1     -12.041  11.429  70.954  1.00  0.00    -0.277 C  
BRANCH  16  17
HETATM   17  N   UNL     1     -11.760  10.051  70.371  1.00  0.00    -0.279 N  
HETATM   18  C   UNL     1     -11.511  10.138  68.859  1.00  0.00    -0.064 C  
HETATM   19  C   UNL     1     -12.894   9.067  70.618  1.00  0.00     0.336 C  
BRANCH  17  20
HETATM   20  C   UNL     1     -10.439   9.512  71.003  1.00  0.00    -0.306 C  
BRANCH  20  21
HETATM   21  C   UNL     1      -9.135   9.767  70.185  1.00  0.00    -0.197 C  
BRANCH  21  22
HETATM   22  N   UNL     1      -8.759   8.545  69.479  1.00  0.00    -0.134 NA 
BRANCH  22  23
HETATM   23  C   UNL     1      -7.417   8.412  68.897  1.00  0.00    -0.091 C  
BRANCH  23  24
HETATM   24  C   UNL     1      -7.357   8.844  67.445  1.00  0.00    -0.081 A  
HETATM   25  C   UNL     1      -8.282   8.342  66.522  1.00  0.00    -0.106 A  
HETATM   26  C   UNL     1      -7.105   9.420  64.691  1.00  0.00    -0.100 A  
HETATM   27  C   UNL     1      -6.235  10.004  65.610  1.00  0.00    -0.088 A  
HETATM   28  C   UNL     1      -6.358   9.715  66.979  1.00  0.00    -0.065 A  
HETATM   29  C   UNL     1      -8.147   8.619  65.160  1.00  0.00    -0.143 A  
BRANCH  26  30
HETATM   30  O   UNL     1      -7.024   9.490  63.331  1.00  0.00    -0.096 OA 
HETATM   31  C   UNL     1      -6.289   8.492  62.637  1.00  0.00    -0.088 C  
ENDBRANCH  26  30
ENDBRANCH  23  24
ENDBRANCH  22  23
BRANCH  22  32
HETATM   32  C   UNL     1      -9.273   7.372  70.009  1.00  0.00    -0.148 A  
HETATM   33  N   UNL     1     -10.206   6.702  69.309  1.00  0.00    -0.175 NA 
HETATM   34  N   UNL     1      -8.699   6.883  71.114  1.00  0.00    -0.135 NA 
HETATM   35  C   UNL     1      -9.099   5.668  71.535  1.00  0.00    -0.140 A  
HETATM   36  C   UNL     1     -10.622   5.512  69.805  1.00  0.00    -0.318 A  
HETATM   37  C   UNL     1     -10.081   4.934  70.921  1.00  0.00    -0.292 A  
ENDBRANCH  22  32
ENDBRANCH  21  22
ENDBRANCH  20  21
ENDBRANCH  17  20
ENDBRANCH  16  17
ENDBRANCH  15  16
ENDBRANCH  14  15
ENDBRANCH  13  14
ENDBRANCH  12  13
ENDBRANCH  11  12
ENDBRANCH  10  11
ENDBRANCH   9  10
ENDBRANCH   8   9
ENDBRANCH   7   8
ENDBRANCH   6   7
ENDBRANCH   5   6
ENDBRANCH   4   5
ENDBRANCH   3   4
ENDBRANCH   2   3
TORSDOF 22
ENDMDL
MODEL      161
REMARK 921   NORMALIZED FREE ENERGY PREDICTED BY IDOCK:   -3.21 KCAL/MOL
REMARK 922        TOTAL FREE ENERGY PREDICTED BY IDOCK:  -11.78 KCAL/MOL
REMARK 923 INTER-LIGAND FREE ENERGY PREDICTED BY IDOCK:  -10.08 KCAL/MOL
REMARK 924 INTRA-LIGAND FREE ENERGY PREDICTED BY IDOCK:   -1.70 KCAL/MOL
REMARK 927      BINDING AFFINITY PREDICTED BY RF-SCORE:    0.00 PKD
ROOT
HETATM    1  C   UNL     1      -8.795  10.084  62.948  1.00  0.00    -0.238 C  
HETATM    2  C   UNL     1      -8.346   9.191  64.091  1.00  0.00    -0.182 C  
ENDROOT
BRANCH   2   3
HETATM    3  C   UNL     1      -7.506   8.026  63.577  1.00  0.00    -0.122 C  
BRANCH   3   4
HETATM    4  C   UNL     1      -7.737   6.779  64.420  1.00  0.00    -0.109 C  
BRANCH   4   5
HETATM    5  C   UNL     1      -8.630   7.095  65.614  1.00  0.00    -0.119 C  
BRANCH   5   6
HETATM    6  C   UNL     1      -8.450   6.049  66.704  1.00  0.00    -0.112 C  
BRANCH   6   7
HETATM    7  C   UNL     1      -8.377   6.716  68.068  1.00  0.00    -0.117 C  
BRANCH   7   8
HETATM    8  C   UNL     1      -8.514   8.224  67.927  1.00  0.00    -0.132 C  
BRANCH   8   9
HETATM    9  C   UNL     1      -8.167   8.898  69.244  1.00  0.00    -0.114 C  
BRANCH   9  10
HETATM   10  C   UNL     1      -8.959   8.279  70.383  1.00  0.00    -0.146 C  
BRANCH  10  11
HETATM   11  C   UNL     1     -10.449   8.473  70.145  1.00  0.00    -0.226 C  
BRANCH  11  12
HETATM   12  C   UNL     1     -10.944   9.695  70.904  1.00  0.00    -0.412 C  
BRANCH  12  13
HETATM   13  C   UNL     1     -12.159   9.357  71.753  1.00  0.00    -0.454 C  
BRANCH  13  14
HETATM   14  C   UNL     1     -13.098  10.557  71.917  1.00  0.00    -0.567 C  
BRANCH  14  15
HETATM   15  C   UNL     1     -12.671  11.808  71.134  1.00  0.00    -0.405 C  
BRANCH  15  16
HETATM   16  C   UNL     1     -13.042  13.071  71.905  1.00  0.00    -0.384 C  
BRANCH  16  17
HETATM   17  N   UNL     1     -12.699  14.380  71.207  1.00  0.00    -0.323 N  
HETATM   18  C   UNL     1     -11.422  14.995  71.798  1.00  0.00    -0.305 C  
HETATM   19  C   UNL     1     -13.818  15.407  71.302  1.00  0.00    -0.434 C  
BRANCH  17  20
HETATM   20  C   UNL     1     -12.385  14.069  69.711  1.00  0.00    -0.291 C  
BRANCH  20  21
HETATM   21  C   UNL     1     -11.482  15.104  68.971  1.00  0.00    -0.309 C  
BRANCH  21  22
HETATM   22  N   UNL     1     -11.495  14.823  67.539  1.00  0.00    -0.344 NA 
BRANCH  22  23
HETATM   23  C   UNL     1     -11.145  15.877  66.576  1.00  0.00    -0.028 C  
BRANCH  23  24
HETATM   24  C   UNL     1     -10.284  16.969  67.181  1.00  0.00    -0.306 A  
HETATM   25  C   UNL     1      -8.917  16.753  67.390  1.00  0.00    -0.211 A  
HETATM   26  C   UNL     1      -8.716  18.879  68.548  1.00  0.00    -0.347 A  
HETATM   27  C   UNL     1     -10.053  19.148  68.262  1.00  0.00    -0.499 A  
HETATM   28  C   UNL     1     -10.834  18.197  67.585  1.00  0.00    -0.260 A  
HETATM   29  C   UNL     1      -8.148  17.695  68.076  1.00  0.00    -0.243 A  
BRANCH  26  30
HETATM   30  O   UNL     1      -7.876  19.634  69.314  1.00  0.00    -0.290 OA 
HETATM   31  C   UNL     1      -6.481  19.581  69.054  1.00  0.00    -0.307 C  
ENDBRANCH  26  30
ENDBRANCH  23  24
ENDBRANCH  22  23
BRANCH  22  32
HETATM   32  C   UNL     1     -11.070  13.554  67.180  1.00  0.00    -0.293 A  
HETATM   33  N   UNL     1      -9.817  13.400  66.714  1.00  0.00    -0.258 NA 
HETATM   34  N   UNL     1     -11.874  12.524  67.465  1.00  0.00    -0.450 NA 
HETATM   35  C   UNL     1     -11.392  11.284  67.256  1.00  0.00    -0.255 A  
HETATM   36  C   UNL     1      -9.398  12.136  66.460  1.00  0.00    -0.228 A  
HETATM   37  C   UNL     1     -10.151  11.027  66.733  1.00  0.00    -0.260 A  
ENDBRANCH  22  32
ENDBRANCH  21  22
ENDBRANCH  20  21
ENDBRANCH  17  20
ENDBRANCH  16  17
ENDBRANCH  15  16
ENDBRANCH  14  15
ENDBRANCH  13  14
ENDBRANCH  12  13
ENDBRANCH  11  12
ENDBRANCH  10  11
ENDBRANCH   9  10
ENDBRANCH   8   9
ENDBRANCH   7   8
ENDBRANCH   6   7
ENDBRANCH   5   6
ENDBRANCH   4   5
ENDBRANCH   3   4
ENDBRANCH   2   3
TORSDOF 22
ENDMDL
MODEL      162
REMARK 921   NORMALIZED FREE ENERGY PREDICTED BY IDOCK:   -3.20 KCAL/MOL
REMARK 922        TOTAL FREE ENERGY PREDICTED BY IDOCK:  -11.77 KCAL/MOL
REMARK 923 INTER-LIGAND FREE ENERGY PREDICTED BY IDOCK:   -9.62 KCAL/MOL
REMARK 924 INTRA-LIGAND FREE ENERGY PREDICTED BY IDOCK:   -2.15 KCAL/MOL
REMARK 927      BINDING AFFINITY PREDICTED BY RF-SCORE:    0.00 PKD
ROOT
HETATM    1  C   UNL     1     -10.323   4.646  66.470  1.00  0.00    -0.235 C  
HETATM    2  C   UNL     1     -10.043   4.201  65.046  1.00  0.00    -0.220 C  
ENDROOT
BRANCH   2   3
HETATM    3  C   UNL     1      -8.790   3.335  64.979  1.00  0.00    -0.128 C  
BRANCH   3   4
HETATM    4  C   UNL     1      -7.888   3.776  63.834  1.00  0.00    -0.084 C  
BRANCH   4   5
HETATM    5  C   UNL     1      -7.987   5.281  63.620  1.00  0.00    -0.101 C  
BRANCH   5   6
HETATM    6  C   UNL     1      -6.781   5.985  64.224  1.00  0.00    -0.041 C  
BRANCH   6   7
HETATM    7  C   UNL     1      -5.606   5.939  63.259  1.00  0.00    -0.017 C  
BRANCH   7   8
HETATM    8  C   UNL     1      -5.590   7.182  62.385  1.00  0.00    -0.037 C  
BRANCH   8   9
HETATM    9  C   UNL     1      -5.979   8.397  63.210  1.00  0.00    -0.077 C  
BRANCH   9  10
HETATM   10  C   UNL     1      -6.971   9.261  62.451  1.00  0.00    -0.097 C  
BRANCH  10  11
HETATM   11  C   UNL     1      -8.309   9.274  63.173  1.00  0.00    -0.196 C  
BRANCH  11  12
HETATM   12  C   UNL     1      -8.431  10.530  64.024  1.00  0.00    -0.118 C  
BRANCH  12  13
HETATM   13  C   UNL     1      -8.360  10.197  65.505  1.00  0.00    -0.160 C  
BRANCH  13  14
HETATM   14  C   UNL     1      -9.753  10.059  66.130  1.00  0.00    -0.286 C  
BRANCH  14  15
HETATM   15  C   UNL     1     -10.773  11.099  65.643  1.00  0.00    -0.250 C  
BRANCH  15  16
HETATM   16  C   UNL     1     -10.551  12.434  66.349  1.00  0.00    -0.244 C  
BRANCH  16  17
HETATM   17  N   UNL     1     -11.410  13.584  65.843  1.00  0.00    -0.305 N  
HETATM   18  C   UNL     1     -12.498  13.074  64.887  1.00  0.00    -0.455 C  
HETATM   19  C   UNL     1     -10.598  14.652  65.125  1.00  0.00    -0.421 C  
BRANCH  17  20
HETATM   20  C   UNL     1     -12.155  14.211  67.062  1.00  0.00    -0.414 C  
BRANCH  20  21
HETATM   21  C   UNL     1     -11.570  13.873  68.469  1.00  0.00    -0.332 C  
BRANCH  21  22
HETATM   22  N   UNL     1     -11.441  15.101  69.248  1.00  0.00    -0.290 NA 
BRANCH  22  23
HETATM   23  C   UNL     1     -11.432  16.406  68.574  1.00  0.00    -0.209 C  
BRANCH  23  24
HETATM   24  C   UNL     1     -10.073  17.076  68.600  1.00  0.00    -0.303 A  
HETATM   25  C   UNL     1      -8.907  16.303  68.666  1.00  0.00    -0.226 A  
HETATM   26  C   UNL     1      -7.547  18.299  68.920  1.00  0.00    -0.222 A  
HETATM   27  C   UNL     1      -8.687  19.083  68.761  1.00  0.00    -0.351 A  
HETATM   28  C   UNL     1      -9.944  18.475  68.604  1.00  0.00    -0.419 A  
HETATM   29  C   UNL     1      -7.662  16.911  68.836  1.00  0.00    -0.237 A  
BRANCH  26  30
HETATM   30  O   UNL     1      -6.290  18.737  69.221  1.00  0.00    -0.257 OA 
HETATM   31  C   UNL     1      -5.841  19.963  68.662  1.00  0.00    -0.237 C  
ENDBRANCH  26  30
ENDBRANCH  23  24
ENDBRANCH  22  23
BRANCH  22  32
HETATM   32  C   UNL     1     -12.083  15.094  70.477  1.00  0.00    -0.343 A  
HETATM   33  N   UNL     1     -12.964  14.112  70.739  1.00  0.00    -0.308 NA 
HETATM   34  N   UNL     1     -11.674  15.973  71.399  1.00  0.00    -0.454 NA 
HETATM   35  C   UNL     1     -12.192  15.860  72.636  1.00  0.00    -0.502 A  
HETATM   36  C   UNL     1     -13.506  14.076  71.981  1.00  0.00    -0.439 A  
HETATM   37  C   UNL     1     -13.136  14.929  72.986  1.00  0.00    -0.605 A  
ENDBRANCH  22  32
ENDBRANCH  21  22
ENDBRANCH  20  21
ENDBRANCH  17  20
ENDBRANCH  16  17
ENDBRANCH  15  16
ENDBRANCH  14  15
ENDBRANCH  13  14
ENDBRANCH  12  13
ENDBRANCH  11  12
ENDBRANCH  10  11
ENDBRANCH   9  10
ENDBRANCH   8   9
ENDBRANCH   7   8
ENDBRANCH   6   7
ENDBRANCH   5   6
ENDBRANCH   4   5
ENDBRANCH   3   4
ENDBRANCH   2   3
TORSDOF 22
ENDMDL
MODEL      163
REMARK 921   NORMALIZED FREE ENERGY PREDICTED BY IDOCK:   -3.19 KCAL/MOL
REMARK 922        TOTAL FREE ENERGY PREDICTED BY IDOCK:  -11.75 KCAL/MOL
REMARK 923 INTER-LIGAND FREE ENERGY PREDICTED BY IDOCK:   -8.83 KCAL/MOL
REMARK 924 INTRA-LIGAND FREE ENERGY PREDICTED BY IDOCK:   -2.92 KCAL/MOL
REMARK 927      BINDING AFFINITY PREDICTED BY RF-SCORE:    0.00 PKD
ROOT
HETATM    1  C   UNL     1      -5.662  17.166  70.138  1.00  0.00    -0.221 C  
HETATM    2  C   UNL     1      -5.396  18.133  68.997  1.00  0.00    -0.192 C  
ENDROOT
BRANCH   2   3
HETATM    3  C   UNL     1      -5.476  17.424  67.649  1.00  0.00    -0.137 C  
BRANCH   3   4
HETATM    4  C   UNL     1      -5.368  18.423  66.505  1.00  0.00    -0.168 C  
BRANCH   4   5
HETATM    5  C   UNL     1      -6.667  18.474  65.711  1.00  0.00    -0.316 C  
BRANCH   5   6
HETATM    6  C   UNL     1      -7.159  19.908  65.587  1.00  0.00    -0.337 C  
BRANCH   6   7
HETATM    7  C   UNL     1      -8.305  20.157  66.555  1.00  0.00    -0.314 C  
BRANCH   7   8
HETATM    8  C   UNL     1      -8.790  18.845  67.149  1.00  0.00    -0.298 C  
BRANCH   8   9
HETATM    9  C   UNL     1     -10.144  18.483  66.564  1.00  0.00    -0.425 C  
BRANCH   9  10
HETATM   10  C   UNL     1     -10.566  17.095  67.015  1.00  0.00    -0.227 C  
BRANCH  10  11
HETATM   11  C   UNL     1     -10.201  16.070  65.953  1.00  0.00    -0.386 C  
BRANCH  11  12
HETATM   12  C   UNL     1      -8.991  15.262  66.401  1.00  0.00    -0.339 C  
BRANCH  12  13
HETATM   13  C   UNL     1      -8.935  15.157  67.916  1.00  0.00    -0.174 C  
BRANCH  13  14
HETATM   14  C   UNL     1      -7.567  14.673  68.408  1.00  0.00    -0.119 C  
BRANCH  14  15
HETATM   15  C   UNL     1      -6.893  13.638  67.493  1.00  0.00    -0.152 C  
BRANCH  15  16
HETATM   16  C   UNL     1      -6.411  12.441  68.308  1.00  0.00    -0.057 C  
BRANCH  16  17
HETATM   17  N   UNL     1      -7.168  11.144  68.062  1.00  0.00    -0.077 N  
HETATM   18  C   UNL     1      -7.928  10.708  69.323  1.00  0.00    -0.135 C  
HETATM   19  C   UNL     1      -6.256  10.005  67.630  1.00  0.00    -0.058 C  
BRANCH  17  20
HETATM   20  C   UNL     1      -8.248  11.408  66.967  1.00  0.00    -0.160 C  
BRANCH  20  21
HETATM   21  C   UNL     1      -8.732  10.157  66.168  1.00  0.00    -0.142 C  
BRANCH  21  22
HETATM   22  N   UNL     1     -10.192  10.112  66.178  1.00  0.00    -0.235 NA 
BRANCH  22  23
HETATM   23  C   UNL     1     -10.906   9.569  67.341  1.00  0.00    -0.145 C  
BRANCH  23  24
HETATM   24  C   UNL     1     -10.480   8.157  67.691  1.00  0.00    -0.300 A  
HETATM   25  C   UNL     1      -9.557   7.935  68.720  1.00  0.00    -0.152 A  
HETATM   26  C   UNL     1      -9.468   5.567  68.186  1.00  0.00    -0.114 A  
HETATM   27  C   UNL     1     -10.456   5.759  67.223  1.00  0.00    -0.330 A  
HETATM   28  C   UNL     1     -10.958   7.047  66.975  1.00  0.00    -0.357 A  
HETATM   29  C   UNL     1      -9.050   6.655  68.953  1.00  0.00    -0.132 A  
BRANCH  26  30
HETATM   30  O   UNL     1      -8.787   4.411  68.439  1.00  0.00    -0.098 OA 
HETATM   31  C   UNL     1      -9.175   3.227  67.759  1.00  0.00    -0.195 C  
ENDBRANCH  26  30
ENDBRANCH  23  24
ENDBRANCH  22  23
BRANCH  22  32
HETATM   32  C   UNL     1     -10.822  11.183  65.566  1.00  0.00    -0.136 A  
HETATM   33  N   UNL     1     -10.704  11.327  64.233  1.00  0.00    -0.353 NA 
HETATM   34  N   UNL     1     -11.649  11.927  66.309  1.00  0.00    -0.491 NA 
HETATM   35  C   UNL     1     -12.375  12.868  65.677  1.00  0.00    -0.423 A  
HETATM   36  C   UNL     1     -11.407  12.328  63.650  1.00  0.00    -0.470 A  
HETATM   37  C   UNL     1     -12.283  13.128  64.333  1.00  0.00    -0.462 A  
ENDBRANCH  22  32
ENDBRANCH  21  22
ENDBRANCH  20  21
ENDBRANCH  17  20
ENDBRANCH  16  17
ENDBRANCH  15  16
ENDBRANCH  14  15
ENDBRANCH  13  14
ENDBRANCH  12  13
ENDBRANCH  11  12
ENDBRANCH  10  11
ENDBRANCH   9  10
ENDBRANCH   8   9
ENDBRANCH   7   8
ENDBRANCH   6   7
ENDBRANCH   5   6
ENDBRANCH   4   5
ENDBRANCH   3   4
ENDBRANCH   2   3
TORSDOF 22
ENDMDL
MODEL      164
REMARK 921   NORMALIZED FREE ENERGY PREDICTED BY IDOCK:   -3.16 KCAL/MOL
REMARK 922        TOTAL FREE ENERGY PREDICTED BY IDOCK:  -11.67 KCAL/MOL
REMARK 923 INTER-LIGAND FREE ENERGY PREDICTED BY IDOCK:   -8.84 KCAL/MOL
REMARK 924 INTRA-LIGAND FREE ENERGY PREDICTED BY IDOCK:   -2.84 KCAL/MOL
REMARK 927      BINDING AFFINITY PREDICTED BY RF-SCORE:    0.00 PKD
ROOT
HETATM    1  C   UNL     1      -7.970   8.019  70.783  1.00  0.00    -0.099 C  
HETATM    2  C   UNL     1      -8.351   9.471  70.557  1.00  0.00    -0.203 C  
ENDROOT
BRANCH   2   3
HETATM    3  C   UNL     1      -9.672   9.578  69.802  1.00  0.00    -0.234 C  
BRANCH   3   4
HETATM    4  C   UNL     1      -9.771  10.912  69.073  1.00  0.00    -0.181 C  
BRANCH   4   5
HETATM    5  C   UNL     1     -11.228  11.330  68.912  1.00  0.00    -0.315 C  
BRANCH   5   6
HETATM    6  C   UNL     1     -11.425  12.764  69.381  1.00  0.00    -0.321 C  
BRANCH   6   7
HETATM    7  C   UNL     1     -12.120  13.581  68.304  1.00  0.00    -0.295 C  
BRANCH   7   8
HETATM    8  C   UNL     1     -11.358  13.482  66.991  1.00  0.00    -0.348 C  
BRANCH   8   9
HETATM    9  C   UNL     1     -12.337  13.371  65.835  1.00  0.00    -0.493 C  
BRANCH   9  10
HETATM   10  C   UNL     1     -11.695  13.856  64.546  1.00  0.00    -0.430 C  
BRANCH  10  11
HETATM   11  C   UNL     1     -10.294  13.278  64.414  1.00  0.00    -0.372 C  
BRANCH  11  12
HETATM   12  C   UNL     1     -10.270  12.210  63.331  1.00  0.00    -0.422 C  
BRANCH  12  13
HETATM   13  C   UNL     1     -10.416  10.821  63.930  1.00  0.00    -0.251 C  
BRANCH  13  14
HETATM   14  C   UNL     1      -9.099  10.308  64.521  1.00  0.00    -0.270 C  
BRANCH  14  15
HETATM   15  C   UNL     1      -9.223   9.726  65.938  1.00  0.00    -0.236 C  
BRANCH  15  16
HETATM   16  C   UNL     1      -8.898   8.235  65.931  1.00  0.00    -0.160 C  
BRANCH  16  17
HETATM   17  N   UNL     1      -7.491   7.878  66.389  1.00  0.00    -0.086 N  
HETATM   18  C   UNL     1      -6.866   9.034  67.183  1.00  0.00    -0.074 C  
HETATM   19  C   UNL     1      -6.567   7.530  65.232  1.00  0.00    -0.044 C  
BRANCH  17  20
HETATM   20  C   UNL     1      -7.590   6.672  67.374  1.00  0.00    -0.104 C  
BRANCH  20  21
HETATM   21  C   UNL     1      -9.032   6.243  67.789  1.00  0.00    -0.112 C  
BRANCH  21  22
HETATM   22  N   UNL     1      -9.117   4.785  67.811  1.00  0.00    -0.112 NA 
BRANCH  22  23
HETATM   23  C   UNL     1      -9.606   4.092  69.010  1.00  0.00    -0.162 C  
BRANCH  23  24
HETATM   24  C   UNL     1     -10.303   5.019  69.986  1.00  0.00    -0.303 A  
HETATM   25  C   UNL     1     -11.213   5.976  69.521  1.00  0.00    -0.416 A  
HETATM   26  C   UNL     1     -11.411   6.931  71.746  1.00  0.00    -0.275 A  
HETATM   27  C   UNL     1     -10.582   5.926  72.238  1.00  0.00    -0.260 A  
HETATM   28  C   UNL     1     -10.029   4.976  71.363  1.00  0.00    -0.259 A  
HETATM   29  C   UNL     1     -11.749   6.926  70.392  1.00  0.00    -0.377 A  
BRANCH  26  30
HETATM   30  O   UNL     1     -11.905   7.997  72.441  1.00  0.00    -0.345 OA 
HETATM   31  C   UNL     1     -12.676   8.967  71.747  1.00  0.00    -0.364 C  
ENDBRANCH  26  30
ENDBRANCH  23  24
ENDBRANCH  22  23
BRANCH  22  32
HETATM   32  C   UNL     1      -9.492   4.195  66.614  1.00  0.00    -0.191 A  
HETATM   33  N   UNL     1     -10.265   4.893  65.763  1.00  0.00    -0.201 NA 
HETATM   34  N   UNL     1      -8.933   3.022  66.296  1.00  0.00    -0.144 NA 
HETATM   35  C   UNL     1      -9.181   2.529  65.068  1.00  0.00    -0.128 A  
HETATM   36  C   UNL     1     -10.538   4.329  64.562  1.00  0.00    -0.083 A  
HETATM   37  C   UNL     1     -10.000   3.139  64.153  1.00  0.00    -0.166 A  
ENDBRANCH  22  32
ENDBRANCH  21  22
ENDBRANCH  20  21
ENDBRANCH  17  20
ENDBRANCH  16  17
ENDBRANCH  15  16
ENDBRANCH  14  15
ENDBRANCH  13  14
ENDBRANCH  12  13
ENDBRANCH  11  12
ENDBRANCH  10  11
ENDBRANCH   9  10
ENDBRANCH   8   9
ENDBRANCH   7   8
ENDBRANCH   6   7
ENDBRANCH   5   6
ENDBRANCH   4   5
ENDBRANCH   3   4
ENDBRANCH   2   3
TORSDOF 22
ENDMDL
MODEL      165
REMARK 921   NORMALIZED FREE ENERGY PREDICTED BY IDOCK:   -3.16 KCAL/MOL
REMARK 922        TOTAL FREE ENERGY PREDICTED BY IDOCK:  -11.67 KCAL/MOL
REMARK 923 INTER-LIGAND FREE ENERGY PREDICTED BY IDOCK:   -8.99 KCAL/MOL
REMARK 924 INTRA-LIGAND FREE ENERGY PREDICTED BY IDOCK:   -2.68 KCAL/MOL
REMARK 927      BINDING AFFINITY PREDICTED BY RF-SCORE:    0.00 PKD
ROOT
HETATM    1  C   UNL     1      -9.430   5.745  70.667  1.00  0.00    -0.198 C  
HETATM    2  C   UNL     1      -8.609   5.994  71.920  1.00  0.00    -0.137 C  
ENDROOT
BRANCH   2   3
HETATM    3  C   UNL     1      -9.433   6.720  72.979  1.00  0.00    -0.159 C  
BRANCH   3   4
HETATM    4  C   UNL     1     -10.923   6.508  72.744  1.00  0.00    -0.286 C  
BRANCH   4   5
HETATM    5  C   UNL     1     -11.654   7.843  72.691  1.00  0.00    -0.435 C  
BRANCH   5   6
HETATM    6  C   UNL     1     -12.877   7.745  71.791  1.00  0.00    -0.352 C  
BRANCH   6   7
HETATM    7  C   UNL     1     -13.709   9.013  71.891  1.00  0.00    -0.495 C  
BRANCH   7   8
HETATM    8  C   UNL     1     -12.812  10.240  71.844  1.00  0.00    -0.528 C  
BRANCH   8   9
HETATM    9  C   UNL     1     -12.495  10.591  70.401  1.00  0.00    -0.392 C  
BRANCH   9  10
HETATM   10  C   UNL     1     -10.999  10.506  70.149  1.00  0.00    -0.338 C  
BRANCH  10  11
HETATM   11  C   UNL     1     -10.633   9.115  69.656  1.00  0.00    -0.237 C  
BRANCH  11  12
HETATM   12  C   UNL     1     -10.690   9.068  68.136  1.00  0.00    -0.165 C  
BRANCH  12  13
HETATM   13  C   UNL     1     -10.446   7.658  67.623  1.00  0.00    -0.313 C  
BRANCH  13  14
HETATM   14  C   UNL     1      -9.188   7.574  66.752  1.00  0.00    -0.192 C  
BRANCH  14  15
HETATM   15  C   UNL     1      -8.592   8.936  66.364  1.00  0.00    -0.136 C  
BRANCH  15  16
HETATM   16  C   UNL     1      -7.134   9.025  66.804  1.00  0.00    -0.082 C  
BRANCH  16  17
HETATM   17  N   UNL     1      -6.849  10.045  67.897  1.00  0.00    -0.074 N  
HETATM   18  C   UNL     1      -5.558  10.819  67.596  1.00  0.00    -0.043 C  
HETATM   19  C   UNL     1      -6.723   9.412  69.274  1.00  0.00    -0.049 C  
BRANCH  17  20
HETATM   20  C   UNL     1      -8.002  11.097  67.896  1.00  0.00    -0.114 C  
BRANCH  20  21
HETATM   21  C   UNL     1      -7.764  12.373  68.763  1.00  0.00    -0.007 C  
BRANCH  21  22
HETATM   22  N   UNL     1      -8.348  13.531  68.091  1.00  0.00    -0.160 NA 
BRANCH  22  23
HETATM   23  C   UNL     1      -7.483  14.502  67.409  1.00  0.00    -0.169 C  
BRANCH  23  24
HETATM   24  C   UNL     1      -7.989  15.927  67.522  1.00  0.00    -0.166 A  
HETATM   25  C   UNL     1      -8.462  16.411  68.748  1.00  0.00    -0.249 A  
HETATM   26  C   UNL     1      -9.183  18.480  67.701  1.00  0.00    -0.281 A  
HETATM   27  C   UNL     1      -8.630  18.050  66.497  1.00  0.00    -0.280 A  
HETATM   28  C   UNL     1      -8.039  16.779  66.407  1.00  0.00    -0.355 A  
HETATM   29  C   UNL     1      -9.062  17.668  68.830  1.00  0.00    -0.206 A  
BRANCH  26  30
HETATM   30  O   UNL     1      -9.909  19.617  67.907  1.00  0.00    -0.353 OA 
HETATM   31  C   UNL     1     -10.598  20.197  66.808  1.00  0.00    -0.220 C  
ENDBRANCH  26  30
ENDBRANCH  23  24
ENDBRANCH  22  23
BRANCH  22  32
HETATM   32  C   UNL     1      -9.561  13.302  67.463  1.00  0.00    -0.218 A  
HETATM   33  N   UNL     1     -10.686  13.328  68.200  1.00  0.00    -0.242 NA 
HETATM   34  N   UNL     1      -9.567  13.227  66.127  1.00  0.00    -0.241 NA 
HETATM   35  C   UNL     1     -10.764  13.160  65.514  1.00  0.00    -0.283 A  
HETATM   36  C   UNL     1     -11.865  13.194  67.545  1.00  0.00    -0.360 A  
HETATM   37  C   UNL     1     -11.961  13.123  66.182  1.00  0.00    -0.478 A  
ENDBRANCH  22  32
ENDBRANCH  21  22
ENDBRANCH  20  21
ENDBRANCH  17  20
ENDBRANCH  16  17
ENDBRANCH  15  16
ENDBRANCH  14  15
ENDBRANCH  13  14
ENDBRANCH  12  13
ENDBRANCH  11  12
ENDBRANCH  10  11
ENDBRANCH   9  10
ENDBRANCH   8   9
ENDBRANCH   7   8
ENDBRANCH   6   7
ENDBRANCH   5   6
ENDBRANCH   4   5
ENDBRANCH   3   4
ENDBRANCH   2   3
TORSDOF 22
ENDMDL
MODEL      166
REMARK 921   NORMALIZED FREE ENERGY PREDICTED BY IDOCK:   -3.14 KCAL/MOL
REMARK 922        TOTAL FREE ENERGY PREDICTED BY IDOCK:  -11.64 KCAL/MOL
REMARK 923 INTER-LIGAND FREE ENERGY PREDICTED BY IDOCK:   -9.72 KCAL/MOL
REMARK 924 INTRA-LIGAND FREE ENERGY PREDICTED BY IDOCK:   -1.92 KCAL/MOL
REMARK 927      BINDING AFFINITY PREDICTED BY RF-SCORE:    0.00 PKD
ROOT
HETATM    1  C   UNL     1     -11.370   8.700  72.204  1.00  0.00    -0.434 C  
HETATM    2  C   UNL     1      -9.936   8.403  71.801  1.00  0.00    -0.312 C  
ENDROOT
BRANCH   2   3
HETATM    3  C   UNL     1      -9.889   7.472  70.593  1.00  0.00    -0.179 C  
BRANCH   3   4
HETATM    4  C   UNL     1      -8.474   6.961  70.359  1.00  0.00    -0.134 C  
BRANCH   4   5
HETATM    5  C   UNL     1      -8.319   6.438  68.936  1.00  0.00    -0.121 C  
BRANCH   5   6
HETATM    6  C   UNL     1      -8.409   7.582  67.937  1.00  0.00    -0.123 C  
BRANCH   6   7
HETATM    7  C   UNL     1      -9.244   7.168  66.736  1.00  0.00    -0.188 C  
BRANCH   7   8
HETATM    8  C   UNL     1      -8.531   7.533  65.444  1.00  0.00    -0.105 C  
BRANCH   8   9
HETATM    9  C   UNL     1      -7.581   8.692  65.690  1.00  0.00    -0.086 C  
BRANCH   9  10
HETATM   10  C   UNL     1      -7.986   9.898  64.860  1.00  0.00    -0.138 C  
BRANCH  10  11
HETATM   11  C   UNL     1      -8.718   9.444  63.606  1.00  0.00    -0.222 C  
BRANCH  11  12
HETATM   12  C   UNL     1      -9.449  10.620  62.974  1.00  0.00    -0.363 C  
BRANCH  12  13
HETATM   13  C   UNL     1     -10.459  11.218  63.938  1.00  0.00    -0.452 C  
BRANCH  13  14
HETATM   14  C   UNL     1     -10.551  12.742  63.802  1.00  0.00    -0.370 C  
BRANCH  14  15
HETATM   15  C   UNL     1     -10.822  13.482  65.121  1.00  0.00    -0.336 C  
BRANCH  15  16
HETATM   16  C   UNL     1     -11.732  12.650  66.021  1.00  0.00    -0.417 C  
BRANCH  16  17
HETATM   17  N   UNL     1     -11.136  12.268  67.368  1.00  0.00    -0.266 N  
HETATM   18  C   UNL     1      -9.622  12.517  67.385  1.00  0.00    -0.192 C  
HETATM   19  C   UNL     1     -11.391  10.813  67.732  1.00  0.00    -0.279 C  
BRANCH  17  20
HETATM   20  C   UNL     1     -11.748  13.205  68.456  1.00  0.00    -0.352 C  
BRANCH  20  21
HETATM   21  C   UNL     1     -11.933  14.700  68.046  1.00  0.00    -0.257 C  
BRANCH  21  22
HETATM   22  N   UNL     1     -11.386  15.561  69.091  1.00  0.00    -0.304 NA 
BRANCH  22  23
HETATM   23  C   UNL     1     -10.654  16.783  68.733  1.00  0.00    -0.348 C  
BRANCH  23  24
HETATM   24  C   UNL     1      -9.199  16.524  68.394  1.00  0.00    -0.222 A  
HETATM   25  C   UNL     1      -8.860  15.857  67.211  1.00  0.00    -0.213 A  
HETATM   26  C   UNL     1      -6.523  15.792  67.868  1.00  0.00    -0.151 A  
HETATM   27  C   UNL     1      -6.833  16.539  69.002  1.00  0.00    -0.203 A  
HETATM   28  C   UNL     1      -8.164  16.901  69.265  1.00  0.00     0.058 A  
HETATM   29  C   UNL     1      -7.537  15.487  66.960  1.00  0.00    -0.228 A  
BRANCH  26  30
HETATM   30  O   UNL     1      -5.310  15.250  67.553  1.00  0.00    -0.312 OA 
HETATM   31  C   UNL     1      -5.164  13.838  67.585  1.00  0.00     0.066 C  
ENDBRANCH  26  30
ENDBRANCH  23  24
ENDBRANCH  22  23
BRANCH  22  32
HETATM   32  C   UNL     1     -12.160  15.670  70.235  1.00  0.00    -0.385 A  
HETATM   33  N   UNL     1     -13.408  15.166  70.221  1.00  0.00    -0.032 NA 
HETATM   34  N   UNL     1     -11.571  16.127  71.345  1.00  0.00    -0.458 NA 
HETATM   35  C   UNL     1     -12.282  16.086  72.488  1.00  0.00    -0.519 A  
HETATM   36  C   UNL     1     -14.108  15.203  71.381  1.00  0.00    -0.504 A  
HETATM   37  C   UNL     1     -13.578  15.643  72.564  1.00  0.00    -0.642 A  
ENDBRANCH  22  32
ENDBRANCH  21  22
ENDBRANCH  20  21
ENDBRANCH  17  20
ENDBRANCH  16  17
ENDBRANCH  15  16
ENDBRANCH  14  15
ENDBRANCH  13  14
ENDBRANCH  12  13
ENDBRANCH  11  12
ENDBRANCH  10  11
ENDBRANCH   9  10
ENDBRANCH   8   9
ENDBRANCH   7   8
ENDBRANCH   6   7
ENDBRANCH   5   6
ENDBRANCH   4   5
ENDBRANCH   3   4
ENDBRANCH   2   3
TORSDOF 22
ENDMDL
MODEL      167
REMARK 921   NORMALIZED FREE ENERGY PREDICTED BY IDOCK:   -3.14 KCAL/MOL
REMARK 922        TOTAL FREE ENERGY PREDICTED BY IDOCK:  -11.64 KCAL/MOL
REMARK 923 INTER-LIGAND FREE ENERGY PREDICTED BY IDOCK:   -8.00 KCAL/MOL
REMARK 924 INTRA-LIGAND FREE ENERGY PREDICTED BY IDOCK:   -3.64 KCAL/MOL
REMARK 927      BINDING AFFINITY PREDICTED BY RF-SCORE:    0.00 PKD
ROOT
HETATM    1  C   UNL     1     -11.004  17.191  68.478  1.00  0.00    -0.204 C  
HETATM    2  C   UNL     1     -10.501  17.652  67.122  1.00  0.00    -0.319 C  
ENDROOT
BRANCH   2   3
HETATM    3  C   UNL     1      -9.213  16.929  66.741  1.00  0.00    -0.266 C  
BRANCH   3   4
HETATM    4  C   UNL     1      -9.511  15.725  65.857  1.00  0.00    -0.377 C  
BRANCH   4   5
HETATM    5  C   UNL     1      -9.464  14.437  66.670  1.00  0.00    -0.300 C  
BRANCH   5   6
HETATM    6  C   UNL     1     -10.751  13.646  66.487  1.00  0.00    -0.284 C  
BRANCH   6   7
HETATM    7  C   UNL     1     -11.611  13.742  67.737  1.00  0.00    -0.381 C  
BRANCH   7   8
HETATM    8  C   UNL     1     -11.900  12.355  68.288  1.00  0.00    -0.364 C  
BRANCH   8   9
HETATM    9  C   UNL     1     -10.662  11.806  68.978  1.00  0.00    -0.209 C  
BRANCH   9  10
HETATM   10  C   UNL     1     -11.045  11.074  70.253  1.00  0.00    -0.085 C  
BRANCH  10  11
HETATM   11  C   UNL     1     -12.526  10.728  70.229  1.00  0.00    -0.395 C  
BRANCH  11  12
HETATM   12  C   UNL     1     -13.036  10.521  71.648  1.00  0.00    -0.551 C  
BRANCH  12  13
HETATM   13  C   UNL     1     -12.590   9.176  72.199  1.00  0.00    -0.451 C  
BRANCH  13  14
HETATM   14  C   UNL     1     -12.462   8.118  71.097  1.00  0.00    -0.195 C  
BRANCH  14  15
HETATM   15  C   UNL     1     -11.822   6.799  71.556  1.00  0.00    -0.378 C  
BRANCH  15  16
HETATM   16  C   UNL     1     -11.219   6.956  72.949  1.00  0.00    -0.217 C  
BRANCH  16  17
HETATM   17  N   UNL     1      -9.840   6.338  73.131  1.00  0.00    -0.163 N  
HETATM   18  C   UNL     1      -9.854   5.293  74.255  1.00  0.00    -0.191 C  
HETATM   19  C   UNL     1      -8.770   7.373  73.447  1.00  0.00    -0.159 C  
BRANCH  17  20
HETATM   20  C   UNL     1      -9.471   5.572  71.823  1.00  0.00    -0.149 C  
BRANCH  20  21
HETATM   21  C   UNL     1      -8.052   5.857  71.240  1.00  0.00    -0.118 C  
BRANCH  21  22
HETATM   22  N   UNL     1      -8.183   6.511  69.941  1.00  0.00    -0.124 NA 
BRANCH  22  23
HETATM   23  C   UNL     1      -8.256   7.976  69.856  1.00  0.00    -0.119 C  
BRANCH  23  24
HETATM   24  C   UNL     1      -8.808   8.464  68.530  1.00  0.00    -0.136 A  
HETATM   25  C   UNL     1      -8.016   9.252  67.686  1.00  0.00    -0.103 A  
HETATM   26  C   UNL     1      -9.896   9.609  66.188  1.00  0.00    -0.265 A  
HETATM   27  C   UNL     1     -10.666   8.749  66.969  1.00  0.00    -0.186 A  
HETATM   28  C   UNL     1     -10.126   8.182  68.136  1.00  0.00    -0.237 A  
HETATM   29  C   UNL     1      -8.561   9.825  66.535  1.00  0.00    -0.135 A  
BRANCH  26  30
HETATM   30  O   UNL     1     -10.319  10.340  65.117  1.00  0.00    -0.286 OA 
HETATM   31  C   UNL     1      -9.524  10.353  63.941  1.00  0.00    -0.304 C  
ENDBRANCH  26  30
ENDBRANCH  23  24
ENDBRANCH  22  23
BRANCH  22  32
HETATM   32  C   UNL     1      -7.492   5.909  68.901  1.00  0.00    -0.085 A  
HETATM   33  N   UNL     1      -8.165   5.104  68.059  1.00  0.00    -0.098 NA 
HETATM   34  N   UNL     1      -6.226   6.287  68.694  1.00  0.00    -0.034 NA 
HETATM   35  C   UNL     1      -5.611   5.817  67.593  1.00  0.00    -0.012 A  
HETATM   36  C   UNL     1      -7.486   4.605  66.998  1.00  0.00    -0.086 A  
HETATM   37  C   UNL     1      -6.193   4.948  66.706  1.00  0.00    -0.032 A  
ENDBRANCH  22  32
ENDBRANCH  21  22
ENDBRANCH  20  21
ENDBRANCH  17  20
ENDBRANCH  16  17
ENDBRANCH  15  16
ENDBRANCH  14  15
ENDBRANCH  13  14
ENDBRANCH  12  13
ENDBRANCH  11  12
ENDBRANCH  10  11
ENDBRANCH   9  10
ENDBRANCH   8   9
ENDBRANCH   7   8
ENDBRANCH   6   7
ENDBRANCH   5   6
ENDBRANCH   4   5
ENDBRANCH   3   4
ENDBRANCH   2   3
TORSDOF 22
ENDMDL
MODEL      168
REMARK 921   NORMALIZED FREE ENERGY PREDICTED BY IDOCK:   -3.13 KCAL/MOL
REMARK 922        TOTAL FREE ENERGY PREDICTED BY IDOCK:  -11.60 KCAL/MOL
REMARK 923 INTER-LIGAND FREE ENERGY PREDICTED BY IDOCK:   -7.58 KCAL/MOL
REMARK 924 INTRA-LIGAND FREE ENERGY PREDICTED BY IDOCK:   -4.03 KCAL/MOL
REMARK 927      BINDING AFFINITY PREDICTED BY RF-SCORE:    0.00 PKD
ROOT
HETATM    1  C   UNL     1     -11.074  11.309  68.704  1.00  0.00    -0.286 C  
HETATM    2  C   UNL     1      -9.974  12.308  68.393  1.00  0.00    -0.210 C  
ENDROOT
BRANCH   2   3
HETATM    3  C   UNL     1     -10.558  13.678  68.062  1.00  0.00    -0.256 C  
BRANCH   3   4
HETATM    4  C   UNL     1     -12.068  13.594  67.885  1.00  0.00    -0.318 C  
BRANCH   4   5
HETATM    5  C   UNL     1     -12.440  13.654  66.409  1.00  0.00    -0.377 C  
BRANCH   5   6
HETATM    6  C   UNL     1     -11.276  14.189  65.588  1.00  0.00    -0.308 C  
BRANCH   6   7
HETATM    7  C   UNL     1     -11.108  13.372  64.316  1.00  0.00    -0.396 C  
BRANCH   7   8
HETATM    8  C   UNL     1     -11.145  11.886  64.633  1.00  0.00    -0.373 C  
BRANCH   8   9
HETATM    9  C   UNL     1      -9.737  11.382  64.900  1.00  0.00    -0.283 C  
BRANCH   9  10
HETATM   10  C   UNL     1      -9.733   9.870  65.053  1.00  0.00    -0.359 C  
BRANCH  10  11
HETATM   11  C   UNL     1      -8.802   9.465  66.186  1.00  0.00    -0.178 C  
BRANCH  11  12
HETATM   12  C   UNL     1      -9.062   8.019  66.584  1.00  0.00    -0.199 C  
BRANCH  12  13
HETATM   13  C   UNL     1     -10.460   7.852  67.153  1.00  0.00    -0.414 C  
BRANCH  13  14
HETATM   14  C   UNL     1     -11.035   6.460  66.867  1.00  0.00    -0.413 C  
BRANCH  14  15
HETATM   15  C   UNL     1      -9.975   5.371  66.639  1.00  0.00    -0.220 C  
BRANCH  15  16
HETATM   16  C   UNL     1      -9.892   4.447  67.851  1.00  0.00    -0.080 C  
BRANCH  16  17
HETATM   17  N   UNL     1      -8.483   4.045  68.263  1.00  0.00    -0.091 N  
HETATM   18  C   UNL     1      -7.454   4.529  67.232  1.00  0.00    -0.078 C  
HETATM   19  C   UNL     1      -8.327   2.541  68.431  1.00  0.00    -0.065 C  
BRANCH  17  20
HETATM   20  C   UNL     1      -8.139   4.770  69.601  1.00  0.00    -0.065 C  
BRANCH  20  21
HETATM   21  C   UNL     1      -8.297   6.323  69.598  1.00  0.00    -0.125 C  
BRANCH  21  22
HETATM   22  N   UNL     1      -8.468   6.796  70.968  1.00  0.00    -0.131 NA 
BRANCH  22  23
HETATM   23  C   UNL     1      -7.455   7.666  71.581  1.00  0.00    -0.076 C  
BRANCH  23  24
HETATM   24  C   UNL     1      -6.830   8.632  70.593  1.00  0.00    -0.045 A  
HETATM   25  C   UNL     1      -7.451   9.855  70.314  1.00  0.00    -0.173 A  
HETATM   26  C   UNL     1      -5.833  10.326  68.565  1.00  0.00    -0.040 A  
HETATM   27  C   UNL     1      -5.151   9.157  68.897  1.00  0.00    -0.033 A  
HETATM   28  C   UNL     1      -5.648   8.313  69.904  1.00  0.00    -0.025 A  
HETATM   29  C   UNL     1      -6.961  10.684  69.303  1.00  0.00    -0.096 A  
BRANCH  26  30
HETATM   30  O   UNL     1      -5.555  11.166  67.526  1.00  0.00    -0.043 OA 
HETATM   31  C   UNL     1      -6.482  12.197  67.215  1.00  0.00    -0.152 C  
ENDBRANCH  26  30
ENDBRANCH  23  24
ENDBRANCH  22  23
BRANCH  22  32
HETATM   32  C   UNL     1      -9.772   7.084  71.338  1.00  0.00    -0.169 A  
HETATM   33  N   UNL     1      -9.981   7.934  72.360  1.00  0.00    -0.208 NA 
HETATM   34  N   UNL     1     -10.757   6.626  70.558  1.00  0.00    -0.235 NA 
HETATM   35  C   UNL     1     -12.009   7.037  70.833  1.00  0.00    -0.364 A  
HETATM   36  C   UNL     1     -11.263   8.270  72.639  1.00  0.00    -0.340 A  
HETATM   37  C   UNL     1     -12.328   7.857  71.885  1.00  0.00    -0.350 A  
ENDBRANCH  22  32
ENDBRANCH  21  22
ENDBRANCH  20  21
ENDBRANCH  17  20
ENDBRANCH  16  17
ENDBRANCH  15  16
ENDBRANCH  14  15
ENDBRANCH  13  14
ENDBRANCH  12  13
ENDBRANCH  11  12
ENDBRANCH  10  11
ENDBRANCH   9  10
ENDBRANCH   8   9
ENDBRANCH   7   8
ENDBRANCH   6   7
ENDBRANCH   5   6
ENDBRANCH   4   5
ENDBRANCH   3   4
ENDBRANCH   2   3
TORSDOF 22
ENDMDL
MODEL      169
REMARK 921   NORMALIZED FREE ENERGY PREDICTED BY IDOCK:   -3.12 KCAL/MOL
REMARK 922        TOTAL FREE ENERGY PREDICTED BY IDOCK:  -11.57 KCAL/MOL
REMARK 923 INTER-LIGAND FREE ENERGY PREDICTED BY IDOCK:   -8.82 KCAL/MOL
REMARK 924 INTRA-LIGAND FREE ENERGY PREDICTED BY IDOCK:   -2.76 KCAL/MOL
REMARK 927      BINDING AFFINITY PREDICTED BY RF-SCORE:    0.00 PKD
ROOT
HETATM    1  C   UNL     1      -8.357  20.397  67.219  1.00  0.00    -0.398 C  
HETATM    2  C   UNL     1      -9.449  19.420  66.820  1.00  0.00    -0.404 C  
ENDROOT
BRANCH   2   3
HETATM    3  C   UNL     1      -9.272  18.082  67.530  1.00  0.00    -0.253 C  
BRANCH   3   4
HETATM    4  C   UNL     1     -10.526  17.227  67.392  1.00  0.00    -0.338 C  
BRANCH   4   5
HETATM    5  C   UNL     1     -10.408  16.288  66.198  1.00  0.00    -0.352 C  
BRANCH   5   6
HETATM    6  C   UNL     1      -9.271  15.299  66.410  1.00  0.00    -0.342 C  
BRANCH   6   7
HETATM    7  C   UNL     1      -9.732  14.145  67.286  1.00  0.00    -0.236 C  
BRANCH   7   8
HETATM    8  C   UNL     1     -11.143  13.724  66.907  1.00  0.00    -0.311 C  
BRANCH   8   9
HETATM    9  C   UNL     1     -11.855  13.154  68.121  1.00  0.00    -0.386 C  
BRANCH   9  10
HETATM   10  C   UNL     1     -11.753  14.112  69.296  1.00  0.00    -0.368 C  
BRANCH  10  11
HETATM   11  C   UNL     1     -12.169  13.408  70.578  1.00  0.00    -0.425 C  
BRANCH  11  12
HETATM   12  C   UNL     1     -12.092  11.899  70.394  1.00  0.00    -0.421 C  
BRANCH  12  13
HETATM   13  C   UNL     1     -12.744  11.173  71.558  1.00  0.00    -0.499 C  
BRANCH  13  14
HETATM   14  C   UNL     1     -13.561   9.961  71.095  1.00  0.00    -0.223 C  
BRANCH  14  15
HETATM   15  C   UNL     1     -13.335   8.689  71.926  1.00  0.00    -0.418 C  
BRANCH  15  16
HETATM   16  C   UNL     1     -11.855   8.527  72.260  1.00  0.00    -0.383 C  
BRANCH  16  17
HETATM   17  N   UNL     1     -11.105   7.513  71.407  1.00  0.00    -0.236 N  
HETATM   18  C   UNL     1     -12.076   6.730  70.511  1.00  0.00    -0.274 C  
HETATM   19  C   UNL     1     -10.309   6.520  72.240  1.00  0.00    -0.191 C  
BRANCH  17  20
HETATM   20  C   UNL     1     -10.152   8.291  70.448  1.00  0.00    -0.190 C  
BRANCH  20  21
HETATM   21  C   UNL     1     -10.476   8.183  68.925  1.00  0.00    -0.185 C  
BRANCH  21  22
HETATM   22  N   UNL     1      -9.358   7.546  68.235  1.00  0.00    -0.141 NA 
BRANCH  22  23
HETATM   23  C   UNL     1      -9.416   6.118  67.896  1.00  0.00    -0.115 C  
BRANCH  23  24
HETATM   24  C   UNL     1      -8.914   5.224  69.014  1.00  0.00    -0.126 A  
HETATM   25  C   UNL     1      -9.602   4.048  69.337  1.00  0.00    -0.257 A  
HETATM   26  C   UNL     1      -8.160   3.684  71.257  1.00  0.00    -0.064 A  
HETATM   27  C   UNL     1      -7.409   4.798  70.891  1.00  0.00    -0.063 A  
HETATM   28  C   UNL     1      -7.785   5.566  69.776  1.00  0.00    -0.078 A  
HETATM   29  C   UNL     1      -9.233   3.296  70.454  1.00  0.00    -0.218 A  
BRANCH  26  30
HETATM   30  O   UNL     1      -8.005   2.929  72.384  1.00  0.00    -0.054 OA 
HETATM   31  C   UNL     1      -7.449   3.535  73.542  1.00  0.00    -0.061 C  
ENDBRANCH  26  30
ENDBRANCH  23  24
ENDBRANCH  22  23
BRANCH  22  32
HETATM   32  C   UNL     1      -8.717   8.334  67.292  1.00  0.00    -0.123 A  
HETATM   33  N   UNL     1      -9.063   8.204  65.998  1.00  0.00    -0.184 NA 
HETATM   34  N   UNL     1      -7.902   9.298  67.735  1.00  0.00    -0.092 NA 
HETATM   35  C   UNL     1      -7.404  10.156  66.826  1.00  0.00    -0.104 A  
HETATM   36  C   UNL     1      -8.488   9.051  65.111  1.00  0.00    -0.167 A  
HETATM   37  C   UNL     1      -7.653  10.071  65.480  1.00  0.00    -0.136 A  
ENDBRANCH  22  32
ENDBRANCH  21  22
ENDBRANCH  20  21
ENDBRANCH  17  20
ENDBRANCH  16  17
ENDBRANCH  15  16
ENDBRANCH  14  15
ENDBRANCH  13  14
ENDBRANCH  12  13
ENDBRANCH  11  12
ENDBRANCH  10  11
ENDBRANCH   9  10
ENDBRANCH   8   9
ENDBRANCH   7   8
ENDBRANCH   6   7
ENDBRANCH   5   6
ENDBRANCH   4   5
ENDBRANCH   3   4
ENDBRANCH   2   3
TORSDOF 22
ENDMDL
MODEL      170
REMARK 921   NORMALIZED FREE ENERGY PREDICTED BY IDOCK:   -3.11 KCAL/MOL
REMARK 922        TOTAL FREE ENERGY PREDICTED BY IDOCK:  -11.57 KCAL/MOL
REMARK 923 INTER-LIGAND FREE ENERGY PREDICTED BY IDOCK:   -9.29 KCAL/MOL
REMARK 924 INTRA-LIGAND FREE ENERGY PREDICTED BY IDOCK:   -2.28 KCAL/MOL
REMARK 927      BINDING AFFINITY PREDICTED BY RF-SCORE:    0.00 PKD
ROOT
HETATM    1  C   UNL     1      -9.195   4.089  63.530  1.00  0.00    -0.130 C  
HETATM    2  C   UNL     1      -7.815   3.484  63.342  1.00  0.00    -0.068 C  
ENDROOT
BRANCH   2   3
HETATM    3  C   UNL     1      -7.528   2.432  64.408  1.00  0.00    -0.063 C  
BRANCH   3   4
HETATM    4  C   UNL     1      -8.793   2.093  65.187  1.00  0.00    -0.122 C  
BRANCH   4   5
HETATM    5  C   UNL     1      -8.491   1.962  66.674  1.00  0.00    -0.097 C  
BRANCH   5   6
HETATM    6  C   UNL     1      -9.276   2.995  67.469  1.00  0.00    -0.233 C  
BRANCH   6   7
HETATM    7  C   UNL     1      -8.746   4.391  67.188  1.00  0.00    -0.106 C  
BRANCH   7   8
HETATM    8  C   UNL     1      -8.452   5.118  68.491  1.00  0.00    -0.088 C  
BRANCH   8   9
HETATM    9  C   UNL     1      -9.195   6.443  68.521  1.00  0.00    -0.124 C  
BRANCH   9  10
HETATM   10  C   UNL     1      -9.232   7.063  67.135  1.00  0.00    -0.153 C  
BRANCH  10  11
HETATM   11  C   UNL     1     -10.509   7.873  66.962  1.00  0.00    -0.419 C  
BRANCH  11  12
HETATM   12  C   UNL     1     -10.195   9.206  66.297  1.00  0.00    -0.257 C  
BRANCH  12  13
HETATM   13  C   UNL     1      -9.264   9.019  65.112  1.00  0.00    -0.159 C  
BRANCH  13  14
HETATM   14  C   UNL     1      -9.220  10.261  64.214  1.00  0.00    -0.300 C  
BRANCH  14  15
HETATM   15  C   UNL     1      -9.530  11.579  64.940  1.00  0.00    -0.151 C  
BRANCH  15  16
HETATM   16  C   UNL     1     -10.351  12.500  64.043  1.00  0.00    -0.404 C  
BRANCH  16  17
HETATM   17  N   UNL     1     -11.743  12.835  64.560  1.00  0.00    -0.346 N  
HETATM   18  C   UNL     1     -12.812  12.020  63.817  1.00  0.00    -0.320 C  
HETATM   19  C   UNL     1     -12.081  14.312  64.424  1.00  0.00    -0.468 C  
BRANCH  17  20
HETATM   20  C   UNL     1     -11.825  12.404  66.057  1.00  0.00    -0.395 C  
BRANCH  20  21
HETATM   21  C   UNL     1     -12.094  13.547  67.085  1.00  0.00    -0.340 C  
BRANCH  21  22
HETATM   22  N   UNL     1     -11.125  13.460  68.173  1.00  0.00    -0.247 NA 
BRANCH  22  23
HETATM   23  C   UNL     1     -10.701  14.673  68.884  1.00  0.00    -0.248 C  
BRANCH  23  24
HETATM   24  C   UNL     1      -9.917  15.630  68.007  1.00  0.00    -0.222 A  
HETATM   25  C   UNL     1      -9.029  15.135  67.044  1.00  0.00    -0.255 A  
HETATM   26  C   UNL     1      -8.251  17.382  66.547  1.00  0.00    -0.276 A  
HETATM   27  C   UNL     1      -9.198  17.893  67.433  1.00  0.00    -0.253 A  
HETATM   28  C   UNL     1     -10.025  17.022  68.161  1.00  0.00    -0.287 A  
HETATM   29  C   UNL     1      -8.199  16.004  66.333  1.00  0.00    -0.309 A  
BRANCH  26  30
HETATM   30  O   UNL     1      -7.291  18.087  65.882  1.00  0.00    -0.428 OA 
HETATM   31  C   UNL     1      -7.131  19.468  66.173  1.00  0.00    -0.259 C  
ENDBRANCH  26  30
ENDBRANCH  23  24
ENDBRANCH  22  23
BRANCH  22  32
HETATM   32  C   UNL     1     -11.232  12.333  68.973  1.00  0.00    -0.265 A  
HETATM   33  N   UNL     1     -10.309  11.362  68.849  1.00  0.00    -0.204 NA 
HETATM   34  N   UNL     1     -12.155  12.342  69.941  1.00  0.00    -0.281 NA 
HETATM   35  C   UNL     1     -12.152  11.315  70.811  1.00  0.00    -0.349 A  
HETATM   36  C   UNL     1     -10.384  10.317  69.708  1.00  0.00    -0.246 A  
HETATM   37  C   UNL     1     -11.289  10.252  70.733  1.00  0.00    -0.421 A  
ENDBRANCH  22  32
ENDBRANCH  21  22
ENDBRANCH  20  21
ENDBRANCH  17  20
ENDBRANCH  16  17
ENDBRANCH  15  16
ENDBRANCH  14  15
ENDBRANCH  13  14
ENDBRANCH  12  13
ENDBRANCH  11  12
ENDBRANCH  10  11
ENDBRANCH   9  10
ENDBRANCH   8   9
ENDBRANCH   7   8
ENDBRANCH   6   7
ENDBRANCH   5   6
ENDBRANCH   4   5
ENDBRANCH   3   4
ENDBRANCH   2   3
TORSDOF 22
ENDMDL
MODEL      171
REMARK 921   NORMALIZED FREE ENERGY PREDICTED BY IDOCK:   -3.10 KCAL/MOL
REMARK 922        TOTAL FREE ENERGY PREDICTED BY IDOCK:  -11.54 KCAL/MOL
REMARK 923 INTER-LIGAND FREE ENERGY PREDICTED BY IDOCK:   -9.31 KCAL/MOL
REMARK 924 INTRA-LIGAND FREE ENERGY PREDICTED BY IDOCK:   -2.23 KCAL/MOL
REMARK 927      BINDING AFFINITY PREDICTED BY RF-SCORE:    0.00 PKD
ROOT
HETATM    1  C   UNL     1     -11.633  14.296  65.525  1.00  0.00    -0.338 C  
HETATM    2  C   UNL     1     -10.620  15.395  65.798  1.00  0.00    -0.361 C  
ENDROOT
BRANCH   2   3
HETATM    3  C   UNL     1      -9.691  15.010  66.945  1.00  0.00    -0.247 C  
BRANCH   3   4
HETATM    4  C   UNL     1      -9.572  16.148  67.950  1.00  0.00    -0.223 C  
BRANCH   4   5
HETATM    5  C   UNL     1     -10.950  16.598  68.419  1.00  0.00    -0.345 C  
BRANCH   5   6
HETATM    6  C   UNL     1     -11.139  16.280  69.895  1.00  0.00    -0.347 C  
BRANCH   6   7
HETATM    7  C   UNL     1     -12.333  15.358  70.088  1.00  0.00    -0.395 C  
BRANCH   7   8
HETATM    8  C   UNL     1     -12.155  14.517  71.342  1.00  0.00    -0.420 C  
BRANCH   8   9
HETATM    9  C   UNL     1     -13.490  13.922  71.756  1.00  0.00    -0.464 C  
BRANCH   9  10
HETATM   10  C   UNL     1     -13.364  12.422  71.960  1.00  0.00    -0.511 C  
BRANCH  10  11
HETATM   11  C   UNL     1     -12.536  11.814  70.838  1.00  0.00    -0.416 C  
BRANCH  11  12
HETATM   12  C   UNL     1     -12.142  10.387  71.195  1.00  0.00    -0.487 C  
BRANCH  12  13
HETATM   13  C   UNL     1     -13.288   9.657  71.874  1.00  0.00    -0.526 C  
BRANCH  13  14
HETATM   14  C   UNL     1     -13.244   8.148  71.612  1.00  0.00    -0.357 C  
BRANCH  14  15
HETATM   15  C   UNL     1     -11.973   7.452  72.122  1.00  0.00    -0.307 C  
BRANCH  15  16
HETATM   16  C   UNL     1     -11.288   6.696  70.987  1.00  0.00    -0.315 C  
BRANCH  16  17
HETATM   17  N   UNL     1      -9.905   6.149  71.316  1.00  0.00    -0.175 N  
HETATM   18  C   UNL     1      -9.961   4.634  71.557  1.00  0.00    -0.195 C  
HETATM   19  C   UNL     1      -9.287   6.811  72.538  1.00  0.00    -0.139 C  
BRANCH  17  20
HETATM   20  C   UNL     1      -8.988   6.363  70.072  1.00  0.00    -0.146 C  
BRANCH  20  21
HETATM   21  C   UNL     1      -9.712   6.753  68.746  1.00  0.00    -0.132 C  
BRANCH  21  22
HETATM   22  N   UNL     1      -8.790   7.492  67.889  1.00  0.00    -0.126 NA 
BRANCH  22  23
HETATM   23  C   UNL     1      -7.888   6.773  66.980  1.00  0.00    -0.104 C  
BRANCH  23  24
HETATM   24  C   UNL     1      -8.435   5.426  66.548  1.00  0.00    -0.113 A  
HETATM   25  C   UNL     1      -7.835   4.244  67.002  1.00  0.00    -0.097 A  
HETATM   26  C   UNL     1      -9.260   2.915  65.551  1.00  0.00    -0.123 A  
HETATM   27  C   UNL     1      -9.928   4.075  65.164  1.00  0.00    -0.203 A  
HETATM   28  C   UNL     1      -9.516   5.324  65.658  1.00  0.00    -0.097 A  
HETATM   29  C   UNL     1      -8.239   3.007  66.497  1.00  0.00    -0.087 A  
BRANCH  26  30
HETATM   30  O   UNL     1      -9.450   1.659  65.054  1.00  0.00    -0.096 OA 
HETATM   31  C   UNL     1      -9.532   1.485  63.647  1.00  0.00    -0.110 C  
ENDBRANCH  26  30
ENDBRANCH  23  24
ENDBRANCH  22  23
BRANCH  22  32
HETATM   32  C   UNL     1      -9.277   8.688  67.385  1.00  0.00    -0.136 A  
HETATM   33  N   UNL     1      -9.005   9.010  66.108  1.00  0.00    -0.165 NA 
HETATM   34  N   UNL     1     -10.129   9.384  68.147  1.00  0.00    -0.173 NA 
HETATM   35  C   UNL     1     -10.718  10.461  67.594  1.00  0.00    -0.286 A  
HETATM   36  C   UNL     1      -9.572  10.137  65.614  1.00  0.00    -0.243 A  
HETATM   37  C   UNL     1     -10.462  10.900  66.320  1.00  0.00    -0.304 A  
ENDBRANCH  22  32
ENDBRANCH  21  22
ENDBRANCH  20  21
ENDBRANCH  17  20
ENDBRANCH  16  17
ENDBRANCH  15  16
ENDBRANCH  14  15
ENDBRANCH  13  14
ENDBRANCH  12  13
ENDBRANCH  11  12
ENDBRANCH  10  11
ENDBRANCH   9  10
ENDBRANCH   8   9
ENDBRANCH   7   8
ENDBRANCH   6   7
ENDBRANCH   5   6
ENDBRANCH   4   5
ENDBRANCH   3   4
ENDBRANCH   2   3
TORSDOF 22
ENDMDL
MODEL      172
REMARK 921   NORMALIZED FREE ENERGY PREDICTED BY IDOCK:   -3.10 KCAL/MOL
REMARK 922        TOTAL FREE ENERGY PREDICTED BY IDOCK:  -11.53 KCAL/MOL
REMARK 923 INTER-LIGAND FREE ENERGY PREDICTED BY IDOCK:   -9.21 KCAL/MOL
REMARK 924 INTRA-LIGAND FREE ENERGY PREDICTED BY IDOCK:   -2.32 KCAL/MOL
REMARK 927      BINDING AFFINITY PREDICTED BY RF-SCORE:    0.00 PKD
ROOT
HETATM    1  C   UNL     1     -10.676  19.267  65.842  1.00  0.00    -0.463 C  
HETATM    2  C   UNL     1      -9.875  20.368  66.515  1.00  0.00    -0.452 C  
ENDROOT
BRANCH   2   3
HETATM    3  C   UNL     1     -10.076  20.346  68.026  1.00  0.00    -0.367 C  
BRANCH   3   4
HETATM    4  C   UNL     1      -9.492  19.076  68.631  1.00  0.00    -0.457 C  
BRANCH   4   5
HETATM    5  C   UNL     1      -8.164  19.369  69.317  1.00  0.00    -0.069 C  
BRANCH   5   6
HETATM    6  C   UNL     1      -7.269  20.202  68.412  1.00  0.00    -0.259 C  
BRANCH   6   7
HETATM    7  C   UNL     1      -5.814  19.803  68.596  1.00  0.00    -0.264 C  
BRANCH   7   8
HETATM    8  C   UNL     1      -5.132  19.650  67.246  1.00  0.00    -0.158 C  
BRANCH   8   9
HETATM    9  C   UNL     1      -6.166  19.332  66.180  1.00  0.00    -0.195 C  
BRANCH   9  10
HETATM   10  C   UNL     1      -6.064  17.877  65.756  1.00  0.00    -0.233 C  
BRANCH  10  11
HETATM   11  C   UNL     1      -5.757  17.004  66.963  1.00  0.00    -0.212 C  
BRANCH  11  12
HETATM   12  C   UNL     1      -6.830  15.937  67.122  1.00  0.00    -0.199 C  
BRANCH  12  13
HETATM   13  C   UNL     1      -8.214  16.559  67.190  1.00  0.00    -0.207 C  
BRANCH  13  14
HETATM   14  C   UNL     1      -9.050  16.240  65.945  1.00  0.00    -0.246 C  
BRANCH  14  15
HETATM   15  C   UNL     1     -10.275  15.352  66.213  1.00  0.00    -0.303 C  
BRANCH  15  16
HETATM   16  C   UNL     1     -10.161  14.041  65.442  1.00  0.00    -0.347 C  
BRANCH  16  17
HETATM   17  N   UNL     1     -11.482  13.337  65.163  1.00  0.00    -0.290 N  
HETATM   18  C   UNL     1     -11.581  12.929  63.687  1.00  0.00    -0.485 C  
HETATM   19  C   UNL     1     -12.689  14.196  65.509  1.00  0.00    -0.443 C  
BRANCH  17  20
HETATM   20  C   UNL     1     -11.514  12.014  65.989  1.00  0.00    -0.338 C  
BRANCH  20  21
HETATM   21  C   UNL     1     -10.877  10.765  65.304  1.00  0.00     0.006 C  
BRANCH  21  22
HETATM   22  N   UNL     1      -9.978  10.102  66.244  1.00  0.00    -0.229 NA 
BRANCH  22  23
HETATM   23  C   UNL     1     -10.379   8.845  66.890  1.00  0.00    -0.262 C  
BRANCH  23  24
HETATM   24  C   UNL     1     -10.351   8.923  68.404  1.00  0.00    -0.237 A  
HETATM   25  C   UNL     1      -9.556   8.036  69.140  1.00  0.00    -0.156 A  
HETATM   26  C   UNL     1     -10.485   8.867  71.225  1.00  0.00    -0.287 A  
HETATM   27  C   UNL     1     -11.209   9.819  70.509  1.00  0.00    -0.381 A  
HETATM   28  C   UNL     1     -11.145   9.845  69.106  1.00  0.00    -0.197 A  
HETATM   29  C   UNL     1      -9.634   8.004  70.533  1.00  0.00    -0.170 A  
BRANCH  26  30
HETATM   30  O   UNL     1     -10.554   8.627  72.566  1.00  0.00    -0.300 OA 
HETATM   31  C   UNL     1      -9.517   7.875  73.180  1.00  0.00    -0.278 C  
ENDBRANCH  26  30
ENDBRANCH  23  24
ENDBRANCH  22  23
BRANCH  22  32
HETATM   32  C   UNL     1      -8.630  10.181  65.932  1.00  0.00    -0.147 A  
HETATM   33  N   UNL     1      -7.832  10.944  66.701  1.00  0.00    -0.140 NA 
HETATM   34  N   UNL     1      -8.163   9.368  64.978  1.00  0.00    -0.131 NA 
HETATM   35  C   UNL     1      -6.830   9.338  64.786  1.00  0.00    -0.087 A  
HETATM   36  C   UNL     1      -6.504  10.928  66.429  1.00  0.00    -0.130 A  
HETATM   37  C   UNL     1      -5.942  10.119  65.480  1.00  0.00    -0.097 A  
ENDBRANCH  22  32
ENDBRANCH  21  22
ENDBRANCH  20  21
ENDBRANCH  17  20
ENDBRANCH  16  17
ENDBRANCH  15  16
ENDBRANCH  14  15
ENDBRANCH  13  14
ENDBRANCH  12  13
ENDBRANCH  11  12
ENDBRANCH  10  11
ENDBRANCH   9  10
ENDBRANCH   8   9
ENDBRANCH   7   8
ENDBRANCH   6   7
ENDBRANCH   5   6
ENDBRANCH   4   5
ENDBRANCH   3   4
ENDBRANCH   2   3
TORSDOF 22
ENDMDL
MODEL      173
REMARK 921   NORMALIZED FREE ENERGY PREDICTED BY IDOCK:   -3.09 KCAL/MOL
REMARK 922        TOTAL FREE ENERGY PREDICTED BY IDOCK:  -11.51 KCAL/MOL
REMARK 923 INTER-LIGAND FREE ENERGY PREDICTED BY IDOCK:   -9.22 KCAL/MOL
REMARK 924 INTRA-LIGAND FREE ENERGY PREDICTED BY IDOCK:   -2.29 KCAL/MOL
REMARK 927      BINDING AFFINITY PREDICTED BY RF-SCORE:    0.00 PKD
ROOT
HETATM    1  C   UNL     1     -11.383   3.073  73.391  1.00  0.00    -0.211 C  
HETATM    2  C   UNL     1     -10.312   4.148  73.450  1.00  0.00    -0.232 C  
ENDROOT
BRANCH   2   3
HETATM    3  C   UNL     1      -9.401   4.079  72.229  1.00  0.00    -0.174 C  
BRANCH   3   4
HETATM    4  C   UNL     1      -8.512   5.314  72.147  1.00  0.00    -0.126 C  
BRANCH   4   5
HETATM    5  C   UNL     1      -8.857   6.145  70.918  1.00  0.00    -0.136 C  
BRANCH   5   6
HETATM    6  C   UNL     1     -10.032   7.066  71.211  1.00  0.00    -0.196 C  
BRANCH   6   7
HETATM    7  C   UNL     1     -11.175   6.787  70.248  1.00  0.00    -0.385 C  
BRANCH   7   8
HETATM    8  C   UNL     1     -10.726   5.825  69.160  1.00  0.00    -0.370 C  
BRANCH   8   9
HETATM    9  C   UNL     1     -11.022   6.418  67.793  1.00  0.00    -0.425 C  
BRANCH   9  10
HETATM   10  C   UNL     1      -9.851   6.195  66.851  1.00  0.00    -0.194 C  
BRANCH  10  11
HETATM   11  C   UNL     1      -9.179   7.522  66.533  1.00  0.00    -0.217 C  
BRANCH  11  12
HETATM   12  C   UNL     1      -7.667   7.378  66.629  1.00  0.00    -0.101 C  
BRANCH  12  13
HETATM   13  C   UNL     1      -7.068   8.468  67.501  1.00  0.00    -0.080 C  
BRANCH  13  14
HETATM   14  C   UNL     1      -7.847   8.650  68.810  1.00  0.00    -0.106 C  
BRANCH  14  15
HETATM   15  C   UNL     1      -8.439  10.054  69.005  1.00  0.00    -0.147 C  
BRANCH  15  16
HETATM   16  C   UNL     1      -7.327  11.075  69.222  1.00  0.00    -0.113 C  
BRANCH  16  17
HETATM   17  N   UNL     1      -7.286  12.212  68.211  1.00  0.00    -0.088 N  
HETATM   18  C   UNL     1      -5.967  12.195  67.425  1.00  0.00    -0.139 C  
HETATM   19  C   UNL     1      -7.445  13.580  68.858  1.00  0.00    -0.017 C  
BRANCH  17  20
HETATM   20  C   UNL     1      -8.422  11.980  67.168  1.00  0.00    -0.180 C  
BRANCH  20  21
HETATM   21  C   UNL     1      -9.415  13.166  66.961  1.00  0.00    -0.242 C  
BRANCH  21  22
HETATM   22  N   UNL     1     -10.785  12.663  66.989  1.00  0.00    -0.243 NA 
BRANCH  22  23
HETATM   23  C   UNL     1     -11.760  13.229  67.931  1.00  0.00    -0.357 C  
BRANCH  23  24
HETATM   24  C   UNL     1     -11.449  14.663  68.315  1.00  0.00    -0.337 A  
HETATM   25  C   UNL     1     -11.151  15.608  67.326  1.00  0.00    -0.238 A  
HETATM   26  C   UNL     1     -10.605  17.265  69.016  1.00  0.00    -0.247 A  
HETATM   27  C   UNL     1     -10.989  16.365  70.007  1.00  0.00    -0.322 A  
HETATM   28  C   UNL     1     -11.406  15.070  69.659  1.00  0.00    -0.309 A  
HETATM   29  C   UNL     1     -10.723  16.890  67.677  1.00  0.00    -0.290 A  
BRANCH  26  30
HETATM   30  O   UNL     1     -10.048  18.497  69.202  1.00  0.00    -0.347 OA 
HETATM   31  C   UNL     1     -10.100  19.439  68.140  1.00  0.00    -0.425 C  
ENDBRANCH  26  30
ENDBRANCH  23  24
ENDBRANCH  22  23
BRANCH  22  32
HETATM   32  C   UNL     1     -11.314  12.314  65.757  1.00  0.00    -0.355 A  
HETATM   33  N   UNL     1     -12.512  12.813  65.403  1.00  0.00    -0.614 NA 
HETATM   34  N   UNL     1     -10.533  11.627  64.916  1.00  0.00    -0.274 NA 
HETATM   35  C   UNL     1     -10.993  11.424  63.667  1.00  0.00    -0.363 A  
HETATM   36  C   UNL     1     -12.962  12.530  64.156  1.00  0.00    -0.132 A  
HETATM   37  C   UNL     1     -12.224  11.844  63.230  1.00  0.00    -0.487 A  
ENDBRANCH  22  32
ENDBRANCH  21  22
ENDBRANCH  20  21
ENDBRANCH  17  20
ENDBRANCH  16  17
ENDBRANCH  15  16
ENDBRANCH  14  15
ENDBRANCH  13  14
ENDBRANCH  12  13
ENDBRANCH  11  12
ENDBRANCH  10  11
ENDBRANCH   9  10
ENDBRANCH   8   9
ENDBRANCH   7   8
ENDBRANCH   6   7
ENDBRANCH   5   6
ENDBRANCH   4   5
ENDBRANCH   3   4
ENDBRANCH   2   3
TORSDOF 22
ENDMDL
MODEL      174
REMARK 921   NORMALIZED FREE ENERGY PREDICTED BY IDOCK:   -3.08 KCAL/MOL
REMARK 922        TOTAL FREE ENERGY PREDICTED BY IDOCK:  -11.50 KCAL/MOL
REMARK 923 INTER-LIGAND FREE ENERGY PREDICTED BY IDOCK:   -8.57 KCAL/MOL
REMARK 924 INTRA-LIGAND FREE ENERGY PREDICTED BY IDOCK:   -2.92 KCAL/MOL
REMARK 927      BINDING AFFINITY PREDICTED BY RF-SCORE:    0.00 PKD
ROOT
HETATM    1  C   UNL     1     -10.917   6.511  69.607  1.00  0.00    -0.394 C  
HETATM    2  C   UNL     1     -11.007   5.918  71.002  1.00  0.00    -0.335 C  
ENDROOT
BRANCH   2   3
HETATM    3  C   UNL     1     -12.215   6.467  71.753  1.00  0.00    -0.374 C  
BRANCH   3   4
HETATM    4  C   UNL     1     -11.878   7.792  72.425  1.00  0.00    -0.371 C  
BRANCH   4   5
HETATM    5  C   UNL     1     -13.036   8.773  72.290  1.00  0.00    -0.458 C  
BRANCH   5   6
HETATM    6  C   UNL     1     -12.547  10.098  71.725  1.00  0.00    -0.500 C  
BRANCH   6   7
HETATM    7  C   UNL     1     -11.108   9.972  71.253  1.00  0.00    -0.185 C  
BRANCH   7   8
HETATM    8  C   UNL     1     -11.012  10.265  69.764  1.00  0.00    -0.338 C  
BRANCH   8   9
HETATM    9  C   UNL     1     -12.131  11.205  69.351  1.00  0.00    -0.396 C  
BRANCH   9  10
HETATM   10  C   UNL     1     -11.610  12.626  69.217  1.00  0.00    -0.376 C  
BRANCH  10  11
HETATM   11  C   UNL     1     -12.467  13.573  70.043  1.00  0.00    -0.231 C  
BRANCH  11  12
HETATM   12  C   UNL     1     -11.588  14.608  70.730  1.00  0.00    -0.289 C  
BRANCH  12  13
HETATM   13  C   UNL     1     -11.797  15.988  70.129  1.00  0.00    -0.253 C  
BRANCH  13  14
HETATM   14  C   UNL     1     -10.623  16.412  69.240  1.00  0.00    -0.311 C  
BRANCH  14  15
HETATM   15  C   UNL     1      -9.299  15.697  69.553  1.00  0.00    -0.263 C  
BRANCH  15  16
HETATM   16  C   UNL     1      -8.133  16.419  68.886  1.00  0.00    -0.236 C  
BRANCH  16  17
HETATM   17  N   UNL     1      -6.793  15.702  68.971  1.00  0.00    -0.130 N  
HETATM   18  C   UNL     1      -6.022  16.133  70.227  1.00  0.00    -0.072 C  
HETATM   19  C   UNL     1      -5.914  15.952  67.755  1.00  0.00    -0.147 C  
BRANCH  17  20
HETATM   20  C   UNL     1      -7.066  14.173  69.127  1.00  0.00    -0.099 C  
BRANCH  20  21
HETATM   21  C   UNL     1      -6.999  13.329  67.816  1.00  0.00    -0.153 C  
BRANCH  21  22
HETATM   22  N   UNL     1      -7.607  12.023  68.048  1.00  0.00    -0.111 NA 
BRANCH  22  23
HETATM   23  C   UNL     1      -8.442  11.402  67.011  1.00  0.00    -0.159 C  
BRANCH  23  24
HETATM   24  C   UNL     1      -9.459  12.359  66.419  1.00  0.00    -0.240 A  
HETATM   25  C   UNL     1     -10.598  11.864  65.773  1.00  0.00    -0.309 A  
HETATM   26  C   UNL     1     -11.226  14.105  65.075  1.00  0.00    -0.356 A  
HETATM   27  C   UNL     1     -10.149  14.618  65.794  1.00  0.00    -0.364 A  
HETATM   28  C   UNL     1      -9.268  13.750  66.460  1.00  0.00    -0.210 A  
HETATM   29  C   UNL     1     -11.463  12.730  65.100  1.00  0.00    -0.356 A  
BRANCH  26  30
HETATM   30  O   UNL     1     -12.077  14.803  64.269  1.00  0.00    -0.474 OA 
HETATM   31  C   UNL     1     -11.773  16.156  63.963  1.00  0.00     0.335 C  
ENDBRANCH  26  30
ENDBRANCH  23  24
ENDBRANCH  22  23
BRANCH  22  32
HETATM   32  C   UNL     1      -6.836  11.130  68.774  1.00  0.00    -0.079 A  
HETATM   33  N   UNL     1      -7.264  10.745  69.990  1.00  0.00    -0.124 NA 
HETATM   34  N   UNL     1      -5.785  10.572  68.161  1.00  0.00    -0.043 NA 
HETATM   35  C   UNL     1      -5.133   9.593  68.816  1.00  0.00    -0.037 A  
HETATM   36  C   UNL     1      -6.539   9.801  70.637  1.00  0.00    -0.113 A  
HETATM   37  C   UNL     1      -5.459   9.172  70.079  1.00  0.00    -0.028 A  
ENDBRANCH  22  32
ENDBRANCH  21  22
ENDBRANCH  20  21
ENDBRANCH  17  20
ENDBRANCH  16  17
ENDBRANCH  15  16
ENDBRANCH  14  15
ENDBRANCH  13  14
ENDBRANCH  12  13
ENDBRANCH  11  12
ENDBRANCH  10  11
ENDBRANCH   9  10
ENDBRANCH   8   9
ENDBRANCH   7   8
ENDBRANCH   6   7
ENDBRANCH   5   6
ENDBRANCH   4   5
ENDBRANCH   3   4
ENDBRANCH   2   3
TORSDOF 22
ENDMDL
MODEL      175
REMARK 921   NORMALIZED FREE ENERGY PREDICTED BY IDOCK:   -3.06 KCAL/MOL
REMARK 922        TOTAL FREE ENERGY PREDICTED BY IDOCK:  -11.44 KCAL/MOL
REMARK 923 INTER-LIGAND FREE ENERGY PREDICTED BY IDOCK:   -8.61 KCAL/MOL
REMARK 924 INTRA-LIGAND FREE ENERGY PREDICTED BY IDOCK:   -2.83 KCAL/MOL
REMARK 927      BINDING AFFINITY PREDICTED BY RF-SCORE:    0.00 PKD
ROOT
HETATM    1  C   UNL     1      -9.122  17.278  67.292  1.00  0.00    -0.231 C  
HETATM    2  C   UNL     1      -8.099  16.719  68.264  1.00  0.00    -0.202 C  
ENDROOT
BRANCH   2   3
HETATM    3  C   UNL     1      -8.414  15.269  68.617  1.00  0.00    -0.168 C  
BRANCH   3   4
HETATM    4  C   UNL     1      -9.097  14.565  67.451  1.00  0.00    -0.201 C  
BRANCH   4   5
HETATM    5  C   UNL     1      -9.963  13.415  67.950  1.00  0.00    -0.236 C  
BRANCH   5   6
HETATM    6  C   UNL     1      -9.675  12.150  67.156  1.00  0.00    -0.203 C  
BRANCH   6   7
HETATM    7  C   UNL     1     -10.965  11.576  66.591  1.00  0.00    -0.349 C  
BRANCH   7   8
HETATM    8  C   UNL     1     -11.015  11.770  65.084  1.00  0.00    -0.351 C  
BRANCH   8   9
HETATM    9  C   UNL     1      -9.825  11.084  64.437  1.00  0.00    -0.351 C  
BRANCH   9  10
HETATM   10  C   UNL     1      -9.575   9.731  65.081  1.00  0.00    -0.356 C  
BRANCH  10  11
HETATM   11  C   UNL     1      -8.493   8.983  64.317  1.00  0.00    -0.185 C  
BRANCH  11  12
HETATM   12  C   UNL     1      -7.322   8.674  65.238  1.00  0.00    -0.085 C  
BRANCH  12  13
HETATM   13  C   UNL     1      -7.660   9.004  66.682  1.00  0.00    -0.089 C  
BRANCH  13  14
HETATM   14  C   UNL     1      -6.842   8.165  67.670  1.00  0.00    -0.070 C  
BRANCH  14  15
HETATM   15  C   UNL     1      -7.677   7.196  68.521  1.00  0.00    -0.120 C  
BRANCH  15  16
HETATM   16  C   UNL     1      -9.166   7.469  68.333  1.00  0.00    -0.139 C  
BRANCH  16  17
HETATM   17  N   UNL     1     -10.015   6.243  68.025  1.00  0.00    -0.130 N  
HETATM   18  C   UNL     1      -9.211   4.954  68.243  1.00  0.00    -0.123 C  
HETATM   19  C   UNL     1     -10.552   6.243  66.602  1.00  0.00    -0.198 C  
BRANCH  17  20
HETATM   20  C   UNL     1     -11.198   6.200  69.042  1.00  0.00    -0.304 C  
BRANCH  20  21
HETATM   21  C   UNL     1     -10.874   5.594  70.443  1.00  0.00    -0.256 C  
BRANCH  21  22
HETATM   22  N   UNL     1     -10.419   6.654  71.337  1.00  0.00    -0.212 NA 
BRANCH  22  23
HETATM   23  C   UNL     1     -11.379   7.358  72.198  1.00  0.00    -0.271 C  
BRANCH  23  24
HETATM   24  C   UNL     1     -11.790   8.709  71.645  1.00  0.00    -0.389 A  
HETATM   25  C   UNL     1     -11.018   9.329  70.655  1.00  0.00    -0.336 A  
HETATM   26  C   UNL     1     -12.380  11.335  70.791  1.00  0.00    -0.398 A  
HETATM   27  C   UNL     1     -13.212  10.694  71.707  1.00  0.00    -0.526 A  
HETATM   28  C   UNL     1     -12.917   9.389  72.133  1.00  0.00    -0.503 A  
HETATM   29  C   UNL     1     -11.307  10.631  70.244  1.00  0.00    -0.401 A  
BRANCH  26  30
HETATM   30  O   UNL     1     -12.454  12.638  70.393  1.00  0.00    -0.246 OA 
HETATM   31  C   UNL     1     -12.667  13.642  71.374  1.00  0.00    -0.352 C  
ENDBRANCH  26  30
ENDBRANCH  23  24
ENDBRANCH  22  23
BRANCH  22  32
HETATM   32  C   UNL     1      -9.174   6.451  71.912  1.00  0.00    -0.149 A  
HETATM   33  N   UNL     1      -8.296   7.470  71.927  1.00  0.00    -0.105 NA 
HETATM   34  N   UNL     1      -8.970   5.302  72.566  1.00  0.00    -0.130 NA 
HETATM   35  C   UNL     1      -7.818   5.175  73.252  1.00  0.00    -0.104 A  
HETATM   36  C   UNL     1      -7.124   7.273  72.578  1.00  0.00    -0.068 A  
HETATM   37  C   UNL     1      -6.838   6.133  73.281  1.00  0.00    -0.075 A  
ENDBRANCH  22  32
ENDBRANCH  21  22
ENDBRANCH  20  21
ENDBRANCH  17  20
ENDBRANCH  16  17
ENDBRANCH  15  16
ENDBRANCH  14  15
ENDBRANCH  13  14
ENDBRANCH  12  13
ENDBRANCH  11  12
ENDBRANCH  10  11
ENDBRANCH   9  10
ENDBRANCH   8   9
ENDBRANCH   7   8
ENDBRANCH   6   7
ENDBRANCH   5   6
ENDBRANCH   4   5
ENDBRANCH   3   4
ENDBRANCH   2   3
TORSDOF 22
ENDMDL
MODEL      176
REMARK 921   NORMALIZED FREE ENERGY PREDICTED BY IDOCK:   -3.03 KCAL/MOL
REMARK 922        TOTAL FREE ENERGY PREDICTED BY IDOCK:  -11.37 KCAL/MOL
REMARK 923 INTER-LIGAND FREE ENERGY PREDICTED BY IDOCK:   -8.40 KCAL/MOL
REMARK 924 INTRA-LIGAND FREE ENERGY PREDICTED BY IDOCK:   -2.97 KCAL/MOL
REMARK 927      BINDING AFFINITY PREDICTED BY RF-SCORE:    0.00 PKD
ROOT
HETATM    1  C   UNL     1     -12.498  15.464  70.377  1.00  0.00    -0.447 C  
HETATM    2  C   UNL     1     -11.884  15.690  69.007  1.00  0.00    -0.379 C  
ENDROOT
BRANCH   2   3
HETATM    3  C   UNL     1     -11.459  14.369  68.374  1.00  0.00    -0.329 C  
BRANCH   3   4
HETATM    4  C   UNL     1     -11.321  14.513  66.864  1.00  0.00    -0.355 C  
BRANCH   4   5
HETATM    5  C   UNL     1     -10.920  15.935  66.493  1.00  0.00    -0.121 C  
BRANCH   5   6
HETATM    6  C   UNL     1      -9.429  16.007  66.197  1.00  0.00    -0.371 C  
BRANCH   6   7
HETATM    7  C   UNL     1      -8.806  17.195  66.913  1.00  0.00    -0.255 C  
BRANCH   7   8
HETATM    8  C   UNL     1      -7.433  17.499  66.338  1.00  0.00    -0.334 C  
BRANCH   8   9
HETATM    9  C   UNL     1      -6.392  16.601  66.985  1.00  0.00    -0.222 C  
BRANCH   9  10
HETATM   10  C   UNL     1      -5.885  17.219  68.277  1.00  0.00    -0.140 C  
BRANCH  10  11
HETATM   11  C   UNL     1      -5.709  16.141  69.335  1.00  0.00    -0.128 C  
BRANCH  11  12
HETATM   12  C   UNL     1      -6.884  15.174  69.296  1.00  0.00    -0.153 C  
BRANCH  12  13
HETATM   13  C   UNL     1      -6.419  13.740  69.483  1.00  0.00    -0.105 C  
BRANCH  13  14
HETATM   14  C   UNL     1      -6.265  13.007  68.146  1.00  0.00    -0.102 C  
BRANCH  14  15
HETATM   15  C   UNL     1      -7.564  12.890  67.334  1.00  0.00    -0.150 C  
BRANCH  15  16
HETATM   16  C   UNL     1      -8.577  12.020  68.072  1.00  0.00    -0.170 C  
BRANCH  16  17
HETATM   17  N   UNL     1      -9.391  11.084  67.190  1.00  0.00    -0.163 N  
HETATM   18  C   UNL     1      -9.509  11.642  65.765  1.00  0.00    -0.226 C  
HETATM   19  C   UNL     1     -10.792  10.838  67.730  1.00  0.00    -0.269 C  
BRANCH  17  20
HETATM   20  C   UNL     1      -8.620   9.733  67.070  1.00  0.00    -0.124 C  
BRANCH  20  21
HETATM   21  C   UNL     1      -9.501   8.445  67.015  1.00  0.00    -0.174 C  
BRANCH  21  22
HETATM   22  N   UNL     1      -8.740   7.315  67.540  1.00  0.00    -0.121 NA 
BRANCH  22  23
HETATM   23  C   UNL     1      -8.582   7.140  68.990  1.00  0.00    -0.129 C  
BRANCH  23  24
HETATM   24  C   UNL     1      -9.839   7.480  69.767  1.00  0.00    -0.180 A  
HETATM   25  C   UNL     1      -9.947   8.710  70.427  1.00  0.00    -0.212 A  
HETATM   26  C   UNL     1     -12.048   8.029  71.439  1.00  0.00    -0.305 A  
HETATM   27  C   UNL     1     -11.999   6.841  70.713  1.00  0.00    -0.433 A  
HETATM   28  C   UNL     1     -10.899   6.566  69.884  1.00  0.00    -0.341 A  
HETATM   29  C   UNL     1     -11.035   8.973  71.261  1.00  0.00    -0.384 A  
BRANCH  26  30
HETATM   30  O   UNL     1     -12.971   8.372  72.384  1.00  0.00    -0.322 OA 
HETATM   31  C   UNL     1     -13.572   9.657  72.318  1.00  0.00    -0.367 C  
ENDBRANCH  26  30
ENDBRANCH  23  24
ENDBRANCH  22  23
BRANCH  22  32
HETATM   32  C   UNL     1      -8.871   6.132  66.830  1.00  0.00    -0.117 A  
HETATM   33  N   UNL     1      -7.806   5.316  66.732  1.00  0.00    -0.100 NA 
HETATM   34  N   UNL     1     -10.095   5.785  66.416  1.00  0.00    -0.158 NA 
HETATM   35  C   UNL     1     -10.242   4.566  65.865  1.00  0.00    -0.263 A  
HETATM   36  C   UNL     1      -7.988   4.124  66.114  1.00  0.00    -0.098 A  
HETATM   37  C   UNL     1      -9.207   3.687  65.671  1.00  0.00    -0.156 A  
ENDBRANCH  22  32
ENDBRANCH  21  22
ENDBRANCH  20  21
ENDBRANCH  17  20
ENDBRANCH  16  17
ENDBRANCH  15  16
ENDBRANCH  14  15
ENDBRANCH  13  14
ENDBRANCH  12  13
ENDBRANCH  11  12
ENDBRANCH  10  11
ENDBRANCH   9  10
ENDBRANCH   8   9
ENDBRANCH   7   8
ENDBRANCH   6   7
ENDBRANCH   5   6
ENDBRANCH   4   5
ENDBRANCH   3   4
ENDBRANCH   2   3
TORSDOF 22
ENDMDL
MODEL      177
REMARK 921   NORMALIZED FREE ENERGY PREDICTED BY IDOCK:   -3.02 KCAL/MOL
REMARK 922        TOTAL FREE ENERGY PREDICTED BY IDOCK:  -11.36 KCAL/MOL
REMARK 923 INTER-LIGAND FREE ENERGY PREDICTED BY IDOCK:   -7.46 KCAL/MOL
REMARK 924 INTRA-LIGAND FREE ENERGY PREDICTED BY IDOCK:   -3.90 KCAL/MOL
REMARK 927      BINDING AFFINITY PREDICTED BY RF-SCORE:    0.00 PKD
ROOT
HETATM    1  C   UNL     1      -7.262   5.436  74.531  1.00  0.00    -0.082 C  
HETATM    2  C   UNL     1      -6.398   6.678  74.405  1.00  0.00    -0.076 C  
ENDROOT
BRANCH   2   3
HETATM    3  C   UNL     1      -6.432   7.225  72.981  1.00  0.00    -0.063 C  
BRANCH   3   4
HETATM    4  C   UNL     1      -7.536   6.558  72.171  1.00  0.00    -0.097 C  
BRANCH   4   5
HETATM    5  C   UNL     1      -8.314   7.593  71.368  1.00  0.00    -0.111 C  
BRANCH   5   6
HETATM    6  C   UNL     1      -9.109   8.499  72.297  1.00  0.00    -0.318 C  
BRANCH   6   7
HETATM    7  C   UNL     1     -10.000   7.670  73.207  1.00  0.00    -0.379 C  
BRANCH   7   8
HETATM    8  C   UNL     1     -11.359   7.451  72.561  1.00  0.00    -0.358 C  
BRANCH   8   9
HETATM    9  C   UNL     1     -11.654   5.964  72.474  1.00  0.00    -0.327 C  
BRANCH   9  10
HETATM   10  C   UNL     1     -10.768   5.188  73.434  1.00  0.00    -0.331 C  
BRANCH  10  11
HETATM   11  C   UNL     1     -10.128   4.011  72.714  1.00  0.00    -0.219 C  
BRANCH  11  12
HETATM   12  C   UNL     1     -10.387   4.111  71.218  1.00  0.00     0.057 C  
BRANCH  12  13
HETATM   13  C   UNL     1      -9.113   3.871  70.426  1.00  0.00    -0.188 C  
BRANCH  13  14
HETATM   14  C   UNL     1      -9.015   4.788  69.202  1.00  0.00    -0.133 C  
BRANCH  14  15
HETATM   15  C   UNL     1      -8.438   4.114  67.948  1.00  0.00    -0.102 C  
BRANCH  15  16
HETATM   16  C   UNL     1      -7.531   5.080  67.193  1.00  0.00    -0.087 C  
BRANCH  16  17
HETATM   17  N   UNL     1      -7.956   5.385  65.763  1.00  0.00    -0.104 N  
HETATM   18  C   UNL     1      -8.915   4.308  65.238  1.00  0.00    -0.137 C  
HETATM   19  C   UNL     1      -6.775   5.486  64.809  1.00  0.00    -0.044 C  
BRANCH  17  20
HETATM   20  C   UNL     1      -8.756   6.724  65.766  1.00  0.00    -0.110 C  
BRANCH  20  21
HETATM   21  C   UNL     1      -7.928   8.017  65.490  1.00  0.00    -0.117 C  
BRANCH  21  22
HETATM   22  N   UNL     1      -8.407   9.093  66.352  1.00  0.00    -0.120 NA 
BRANCH  22  23
HETATM   23  C   UNL     1      -9.849   9.323  66.516  1.00  0.00    -0.263 C  
BRANCH  23  24
HETATM   24  C   UNL     1     -10.345  10.536  65.753  1.00  0.00    -0.270 A  
HETATM   25  C   UNL     1     -11.025  11.559  66.424  1.00  0.00    -0.336 A  
HETATM   26  C   UNL     1     -11.511  12.672  64.320  1.00  0.00    -0.363 A  
HETATM   27  C   UNL     1     -10.756  11.711  63.651  1.00  0.00    -0.500 A  
HETATM   28  C   UNL     1     -10.178  10.647  64.363  1.00  0.00    -0.400 A  
HETATM   29  C   UNL     1     -11.610  12.607  65.711  1.00  0.00    -0.431 A  
BRANCH  26  30
HETATM   30  O   UNL     1     -12.245  13.674  63.755  1.00  0.00    -0.606 OA 
HETATM   31  C   UNL     1     -12.207  14.965  64.345  1.00  0.00    -0.381 C  
ENDBRANCH  26  30
ENDBRANCH  23  24
ENDBRANCH  22  23
BRANCH  22  32
HETATM   32  C   UNL     1      -7.658   9.313  67.497  1.00  0.00    -0.088 A  
HETATM   33  N   UNL     1      -6.496   8.651  67.646  1.00  0.00    -0.060 NA 
HETATM   34  N   UNL     1      -8.050  10.292  68.320  1.00  0.00    -0.105 NA 
HETATM   35  C   UNL     1      -7.236  10.604  69.346  1.00  0.00    -0.126 A  
HETATM   36  C   UNL     1      -5.740   8.955  68.729  1.00  0.00    -0.041 A  
HETATM   37  C   UNL     1      -6.060   9.949  69.613  1.00  0.00    -0.042 A  
ENDBRANCH  22  32
ENDBRANCH  21  22
ENDBRANCH  20  21
ENDBRANCH  17  20
ENDBRANCH  16  17
ENDBRANCH  15  16
ENDBRANCH  14  15
ENDBRANCH  13  14
ENDBRANCH  12  13
ENDBRANCH  11  12
ENDBRANCH  10  11
ENDBRANCH   9  10
ENDBRANCH   8   9
ENDBRANCH   7   8
ENDBRANCH   6   7
ENDBRANCH   5   6
ENDBRANCH   4   5
ENDBRANCH   3   4
ENDBRANCH   2   3
TORSDOF 22
ENDMDL
MODEL      178
REMARK 921   NORMALIZED FREE ENERGY PREDICTED BY IDOCK:   -3.00 KCAL/MOL
REMARK 922        TOTAL FREE ENERGY PREDICTED BY IDOCK:  -11.30 KCAL/MOL
REMARK 923 INTER-LIGAND FREE ENERGY PREDICTED BY IDOCK:   -8.65 KCAL/MOL
REMARK 924 INTRA-LIGAND FREE ENERGY PREDICTED BY IDOCK:   -2.65 KCAL/MOL
REMARK 927      BINDING AFFINITY PREDICTED BY RF-SCORE:    0.00 PKD
ROOT
HETATM    1  C   UNL     1      -7.891   3.435  63.528  1.00  0.00    -0.076 C  
HETATM    2  C   UNL     1      -6.432   3.634  63.160  1.00  0.00    -0.026 C  
ENDROOT
BRANCH   2   3
HETATM    3  C   UNL     1      -5.549   3.639  64.403  1.00  0.00    -0.013 C  
BRANCH   3   4
HETATM    4  C   UNL     1      -6.364   3.303  65.646  1.00  0.00    -0.032 C  
BRANCH   4   5
HETATM    5  C   UNL     1      -5.867   4.100  66.846  1.00  0.00    -0.023 C  
BRANCH   5   6
HETATM    6  C   UNL     1      -6.878   5.170  67.229  1.00  0.00    -0.060 C  
BRANCH   6   7
HETATM    7  C   UNL     1      -6.492   6.506  66.613  1.00  0.00    -0.043 C  
BRANCH   7   8
HETATM    8  C   UNL     1      -6.574   7.611  67.653  1.00  0.00    -0.062 C  
BRANCH   8   9
HETATM    9  C   UNL     1      -8.028   7.906  67.979  1.00  0.00    -0.128 C  
BRANCH   9  10
HETATM   10  C   UNL     1      -8.843   8.034  66.703  1.00  0.00    -0.166 C  
BRANCH  10  11
HETATM   11  C   UNL     1     -10.294   8.341  67.042  1.00  0.00    -0.393 C  
BRANCH  11  12
HETATM   12  C   UNL     1     -10.661   9.734  66.552  1.00  0.00    -0.150 C  
BRANCH  12  13
HETATM   13  C   UNL     1      -9.822  10.128  65.347  1.00  0.00    -0.375 C  
BRANCH  13  14
HETATM   14  C   UNL     1      -9.721  11.650  65.191  1.00  0.00    -0.245 C  
BRANCH  14  15
HETATM   15  C   UNL     1      -9.681  12.423  66.518  1.00  0.00    -0.245 C  
BRANCH  15  16
HETATM   16  C   UNL     1      -9.483  13.914  66.260  1.00  0.00    -0.215 C  
BRANCH  16  17
HETATM   17  N   UNL     1     -10.707  14.782  66.513  1.00  0.00    -0.312 N  
HETATM   18  C   UNL     1     -11.341  15.231  65.189  1.00  0.00    -0.321 C  
HETATM   19  C   UNL     1     -10.389  16.019  67.340  1.00  0.00    -0.294 C  
BRANCH  17  20
HETATM   20  C   UNL     1     -11.780  13.915  67.241  1.00  0.00    -0.386 C  
BRANCH  20  21
HETATM   21  C   UNL     1     -12.492  14.586  68.457  1.00  0.00     0.201 C  
BRANCH  21  22
HETATM   22  N   UNL     1     -12.220  13.813  69.666  1.00  0.00    -0.329 NA 
BRANCH  22  23
HETATM   23  C   UNL     1     -11.043  12.937  69.732  1.00  0.00     0.189 C  
BRANCH  23  24
HETATM   24  C   UNL     1     -11.376  11.532  70.195  1.00  0.00    -0.146 A  
HETATM   25  C   UNL     1     -12.600  11.269  70.823  1.00  0.00    -0.425 A  
HETATM   26  C   UNL     1     -11.910   8.991  71.305  1.00  0.00    -0.312 A  
HETATM   27  C   UNL     1     -10.729   9.211  70.600  1.00  0.00    -0.313 A  
HETATM   28  C   UNL     1     -10.462  10.475  70.050  1.00  0.00    -0.163 A  
HETATM   29  C   UNL     1     -12.855  10.015  71.380  1.00  0.00    -0.519 A  
BRANCH  26  30
HETATM   30  O   UNL     1     -12.245   7.871  72.010  1.00  0.00    -0.297 OA 
HETATM   31  C   UNL     1     -13.510   7.269  71.777  1.00  0.00    -0.300 C  
ENDBRANCH  26  30
ENDBRANCH  23  24
ENDBRANCH  22  23
BRANCH  22  32
HETATM   32  C   UNL     1     -12.531  14.447  70.858  1.00  0.00    -0.354 A  
HETATM   33  N   UNL     1     -11.529  14.941  71.608  1.00  0.00    -0.302 NA 
HETATM   34  N   UNL     1     -13.822  14.677  71.123  1.00  0.00    -0.341 NA 
HETATM   35  C   UNL     1     -14.110  15.428  72.203  1.00  0.00    -0.553 A  
HETATM   36  C   UNL     1     -11.868  15.638  72.720  1.00  0.00    -0.474 A  
HETATM   37  C   UNL     1     -13.162  15.928  73.059  1.00  0.00    -0.648 A  
ENDBRANCH  22  32
ENDBRANCH  21  22
ENDBRANCH  20  21
ENDBRANCH  17  20
ENDBRANCH  16  17
ENDBRANCH  15  16
ENDBRANCH  14  15
ENDBRANCH  13  14
ENDBRANCH  12  13
ENDBRANCH  11  12
ENDBRANCH  10  11
ENDBRANCH   9  10
ENDBRANCH   8   9
ENDBRANCH   7   8
ENDBRANCH   6   7
ENDBRANCH   5   6
ENDBRANCH   4   5
ENDBRANCH   3   4
ENDBRANCH   2   3
TORSDOF 22
ENDMDL
MODEL      179
REMARK 921   NORMALIZED FREE ENERGY PREDICTED BY IDOCK:   -2.99 KCAL/MOL
REMARK 922        TOTAL FREE ENERGY PREDICTED BY IDOCK:  -11.28 KCAL/MOL
REMARK 923 INTER-LIGAND FREE ENERGY PREDICTED BY IDOCK:   -8.55 KCAL/MOL
REMARK 924 INTRA-LIGAND FREE ENERGY PREDICTED BY IDOCK:   -2.74 KCAL/MOL
REMARK 927      BINDING AFFINITY PREDICTED BY RF-SCORE:    0.00 PKD
ROOT
HETATM    1  C   UNL     1     -10.110   7.450  73.312  1.00  0.00    -0.367 C  
HETATM    2  C   UNL     1     -11.513   7.820  72.865  1.00  0.00    -0.359 C  
ENDROOT
BRANCH   2   3
HETATM    3  C   UNL     1     -11.860   7.148  71.540  1.00  0.00    -0.348 C  
BRANCH   3   4
HETATM    4  C   UNL     1     -11.532   8.064  70.368  1.00  0.00    -0.140 C  
BRANCH   4   5
HETATM    5  C   UNL     1     -11.662   9.526  70.775  1.00  0.00    -0.370 C  
BRANCH   5   6
HETATM    6  C   UNL     1     -10.910  10.419  69.798  1.00  0.00    -0.342 C  
BRANCH   6   7
HETATM    7  C   UNL     1     -11.875  11.360  69.095  1.00  0.00    -0.413 C  
BRANCH   7   8
HETATM    8  C   UNL     1     -11.790  12.753  69.699  1.00  0.00    -0.384 C  
BRANCH   8   9
HETATM    9  C   UNL     1     -11.838  13.797  68.596  1.00  0.00    -0.409 C  
BRANCH   9  10
HETATM   10  C   UNL     1     -11.571  13.156  67.244  1.00  0.00    -0.404 C  
BRANCH  10  11
HETATM   11  C   UNL     1     -12.059  14.069  66.131  1.00  0.00    -0.471 C  
BRANCH  11  12
HETATM   12  C   UNL     1     -11.221  13.858  64.878  1.00  0.00    -0.356 C  
BRANCH  12  13
HETATM   13  C   UNL     1     -12.070  13.324  63.736  1.00  0.00    -0.546 C  
BRANCH  13  14
HETATM   14  C   UNL     1     -11.682  11.891  63.353  1.00  0.00    -0.500 C  
BRANCH  14  15
HETATM   15  C   UNL     1     -10.560  11.287  64.213  1.00  0.00    -0.422 C  
BRANCH  15  16
HETATM   16  C   UNL     1      -9.643  10.418  63.357  1.00  0.00    -0.312 C  
BRANCH  16  17
HETATM   17  N   UNL     1      -8.648   9.568  64.134  1.00  0.00    -0.189 N  
HETATM   18  C   UNL     1      -8.161   8.385  63.284  1.00  0.00    -0.151 C  
HETATM   19  C   UNL     1      -9.226   9.024  65.432  1.00  0.00    -0.176 C  
BRANCH  17  20
HETATM   20  C   UNL     1      -7.390  10.441  64.434  1.00  0.00    -0.002 C  
BRANCH  20  21
HETATM   21  C   UNL     1      -6.300   9.783  65.337  1.00  0.00    -0.082 C  
BRANCH  21  22
HETATM   22  N   UNL     1      -6.689   9.912  66.738  1.00  0.00    -0.078 NA 
BRANCH  22  23
HETATM   23  C   UNL     1      -6.124   9.007  67.748  1.00  0.00    -0.051 C  
BRANCH  23  24
HETATM   24  C   UNL     1      -6.970   7.769  67.972  1.00  0.00    -0.080 A  
HETATM   25  C   UNL     1      -6.802   6.644  67.157  1.00  0.00    -0.069 A  
HETATM   26  C   UNL     1      -8.710   5.555  68.193  1.00  0.00    -0.102 A  
HETATM   27  C   UNL     1      -8.829   6.628  69.074  1.00  0.00    -0.128 A  
HETATM   28  C   UNL     1      -7.965   7.730  68.963  1.00  0.00    -0.123 A  
HETATM   29  C   UNL     1      -7.671   5.557  67.261  1.00  0.00    -0.100 A  
BRANCH  26  30
HETATM   30  O   UNL     1      -9.555   4.489  68.085  1.00  0.00    -0.144 OA 
HETATM   31  C   UNL     1      -9.284   3.323  68.848  1.00  0.00    -0.163 C  
ENDBRANCH  26  30
ENDBRANCH  23  24
ENDBRANCH  22  23
BRANCH  22  32
HETATM   32  C   UNL     1      -6.891  11.210  67.180  1.00  0.00    -0.107 A  
HETATM   33  N   UNL     1      -8.044  11.508  67.805  1.00  0.00    -0.127 NA 
HETATM   34  N   UNL     1      -5.861  12.061  67.106  1.00  0.00    -0.145 NA 
HETATM   35  C   UNL     1      -6.014  13.271  67.676  1.00  0.00    -0.120 A  
HETATM   36  C   UNL     1      -8.175  12.759  68.309  1.00  0.00    -0.159 A  
HETATM   37  C   UNL     1      -7.170  13.687  68.286  1.00  0.00    -0.111 A  
ENDBRANCH  22  32
ENDBRANCH  21  22
ENDBRANCH  20  21
ENDBRANCH  17  20
ENDBRANCH  16  17
ENDBRANCH  15  16
ENDBRANCH  14  15
ENDBRANCH  13  14
ENDBRANCH  12  13
ENDBRANCH  11  12
ENDBRANCH  10  11
ENDBRANCH   9  10
ENDBRANCH   8   9
ENDBRANCH   7   8
ENDBRANCH   6   7
ENDBRANCH   5   6
ENDBRANCH   4   5
ENDBRANCH   3   4
ENDBRANCH   2   3
TORSDOF 22
ENDMDL
MODEL      180
REMARK 921   NORMALIZED FREE ENERGY PREDICTED BY IDOCK:   -2.96 KCAL/MOL
REMARK 922        TOTAL FREE ENERGY PREDICTED BY IDOCK:  -11.22 KCAL/MOL
REMARK 923 INTER-LIGAND FREE ENERGY PREDICTED BY IDOCK:   -7.65 KCAL/MOL
REMARK 924 INTRA-LIGAND FREE ENERGY PREDICTED BY IDOCK:   -3.57 KCAL/MOL
REMARK 927      BINDING AFFINITY PREDICTED BY RF-SCORE:    0.00 PKD
ROOT
HETATM    1  C   UNL     1      -5.694  11.721  67.473  1.00  0.00    -0.084 C  
HETATM    2  C   UNL     1      -6.367  12.015  68.802  1.00  0.00    -0.071 C  
ENDROOT
BRANCH   2   3
HETATM    3  C   UNL     1      -7.289  13.226  68.692  1.00  0.00    -0.101 C  
BRANCH   3   4
HETATM    4  C   UNL     1      -6.846  14.142  67.559  1.00  0.00    -0.151 C  
BRANCH   4   5
HETATM    5  C   UNL     1      -7.376  15.554  67.770  1.00  0.00    -0.174 C  
BRANCH   5   6
HETATM    6  C   UNL     1      -7.861  16.143  66.453  1.00  0.00    -0.197 C  
BRANCH   6   7
HETATM    7  C   UNL     1      -8.434  17.533  66.676  1.00  0.00    -0.288 C  
BRANCH   7   8
HETATM    8  C   UNL     1      -9.834  17.628  66.092  1.00  0.00    -0.253 C  
BRANCH   8   9
HETATM    9  C   UNL     1     -10.846  17.822  67.208  1.00  0.00    -0.164 C  
BRANCH   9  10
HETATM   10  C   UNL     1     -10.156  17.804  68.562  1.00  0.00    -0.377 C  
BRANCH  10  11
HETATM   11  C   UNL     1     -10.623  16.601  69.367  1.00  0.00    -0.333 C  
BRANCH  11  12
HETATM   12  C   UNL     1     -11.735  15.875  68.623  1.00  0.00    -0.328 C  
BRANCH  12  13
HETATM   13  C   UNL     1     -11.592  14.369  68.763  1.00  0.00    -0.348 C  
BRANCH  13  14
HETATM   14  C   UNL     1     -10.669  13.778  67.691  1.00  0.00    -0.256 C  
BRANCH  14  15
HETATM   15  C   UNL     1     -11.077  14.112  66.248  1.00  0.00    -0.318 C  
BRANCH  15  16
HETATM   16  C   UNL     1     -10.166  13.394  65.257  1.00  0.00    -0.298 C  
BRANCH  16  17
HETATM   17  N   UNL     1     -10.604  11.985  64.879  1.00  0.00    -0.279 N  
HETATM   18  C   UNL     1      -9.993  11.567  63.535  1.00  0.00    -0.399 C  
HETATM   19  C   UNL     1     -12.116  11.845  64.788  1.00  0.00    -0.097 C  
BRANCH  17  20
HETATM   20  C   UNL     1     -10.039  10.996  65.946  1.00  0.00    -0.249 C  
BRANCH  20  21
HETATM   21  C   UNL     1      -9.741   9.548  65.446  1.00  0.00    -0.244 C  
BRANCH  21  22
HETATM   22  N   UNL     1      -9.771   8.628  66.579  1.00  0.00    -0.234 NA 
BRANCH  22  23
HETATM   23  C   UNL     1     -10.680   8.875  67.706  1.00  0.00    -0.137 C  
BRANCH  23  24
HETATM   24  C   UNL     1     -10.003   8.726  69.055  1.00  0.00    -0.197 A  
HETATM   25  C   UNL     1      -8.894   9.517  69.377  1.00  0.00    -0.172 A  
HETATM   26  C   UNL     1      -8.563   8.286  71.444  1.00  0.00    -0.149 A  
HETATM   27  C   UNL     1      -9.721   7.556  71.182  1.00  0.00    -0.168 A  
HETATM   28  C   UNL     1     -10.436   7.774  69.992  1.00  0.00    -0.230 A  
HETATM   29  C   UNL     1      -8.178   9.288  70.553  1.00  0.00    -0.219 A  
BRANCH  26  30
HETATM   30  O   UNL     1      -7.692   8.092  72.477  1.00  0.00    -0.103 OA 
HETATM   31  C   UNL     1      -7.317   6.764  72.815  1.00  0.00    -0.080 C  
ENDBRANCH  26  30
ENDBRANCH  23  24
ENDBRANCH  22  23
BRANCH  22  32
HETATM   32  C   UNL     1      -9.603   7.290  66.261  1.00  0.00    -0.037 A  
HETATM   33  N   UNL     1     -10.561   6.415  66.617  1.00  0.00    -0.216 NA 
HETATM   34  N   UNL     1      -8.571   6.961  65.475  1.00  0.00    -0.118 NA 
HETATM   35  C   UNL     1      -8.501   5.688  65.043  1.00  0.00    -0.135 A  
HETATM   36  C   UNL     1     -10.414   5.131  66.211  1.00  0.00    -0.289 A  
HETATM   37  C   UNL     1      -9.397   4.712  65.398  1.00  0.00    -0.160 A  
ENDBRANCH  22  32
ENDBRANCH  21  22
ENDBRANCH  20  21
ENDBRANCH  17  20
ENDBRANCH  16  17
ENDBRANCH  15  16
ENDBRANCH  14  15
ENDBRANCH  13  14
ENDBRANCH  12  13
ENDBRANCH  11  12
ENDBRANCH  10  11
ENDBRANCH   9  10
ENDBRANCH   8   9
ENDBRANCH   7   8
ENDBRANCH   6   7
ENDBRANCH   5   6
ENDBRANCH   4   5
ENDBRANCH   3   4
ENDBRANCH   2   3
TORSDOF 22
ENDMDL
MODEL      181
REMARK 921   NORMALIZED FREE ENERGY PREDICTED BY IDOCK:   -2.96 KCAL/MOL
REMARK 922        TOTAL FREE ENERGY PREDICTED BY IDOCK:  -11.21 KCAL/MOL
REMARK 923 INTER-LIGAND FREE ENERGY PREDICTED BY IDOCK:   -7.66 KCAL/MOL
REMARK 924 INTRA-LIGAND FREE ENERGY PREDICTED BY IDOCK:   -3.56 KCAL/MOL
REMARK 927      BINDING AFFINITY PREDICTED BY RF-SCORE:    0.00 PKD
ROOT
HETATM    1  C   UNL     1     -10.384  16.124  69.173  1.00  0.00    -0.259 C  
HETATM    2  C   UNL     1     -10.786  17.000  68.000  1.00  0.00    -0.365 C  
ENDROOT
BRANCH   2   3
HETATM    3  C   UNL     1     -10.511  16.298  66.674  1.00  0.00    -0.290 C  
BRANCH   3   4
HETATM    4  C   UNL     1     -10.550  14.785  66.844  1.00  0.00    -0.294 C  
BRANCH   4   5
HETATM    5  C   UNL     1     -11.927  14.239  66.487  1.00  0.00    -0.448 C  
BRANCH   5   6
HETATM    6  C   UNL     1     -12.003  12.750  66.788  1.00  0.00    -0.389 C  
BRANCH   6   7
HETATM    7  C   UNL     1     -11.889  12.508  68.285  1.00  0.00    -0.361 C  
BRANCH   7   8
HETATM    8  C   UNL     1     -11.710  11.026  68.569  1.00  0.00    -0.348 C  
BRANCH   8   9
HETATM    9  C   UNL     1     -10.862  10.839  69.815  1.00  0.00    -0.284 C  
BRANCH   9  10
HETATM   10  C   UNL     1      -9.444  10.444  69.439  1.00  0.00    -0.204 C  
BRANCH  10  11
HETATM   11  C   UNL     1      -8.876   9.490  70.479  1.00  0.00    -0.253 C  
BRANCH  11  12
HETATM   12  C   UNL     1      -8.035   8.419  69.800  1.00  0.00    -0.104 C  
BRANCH  12  13
HETATM   13  C   UNL     1      -7.137   7.713  70.803  1.00  0.00    -0.054 C  
BRANCH  13  14
HETATM   14  C   UNL     1      -5.902   7.099  70.135  1.00  0.00    -0.024 C  
BRANCH  14  15
HETATM   15  C   UNL     1      -5.888   5.563  70.117  1.00  0.00    -0.021 C  
BRANCH  15  16
HETATM   16  C   UNL     1      -6.667   5.037  68.915  1.00  0.00    -0.050 C  
BRANCH  16  17
HETATM   17  N   UNL     1      -7.215   3.625  69.066  1.00  0.00    -0.049 N  
HETATM   18  C   UNL     1      -7.503   3.307  70.540  1.00  0.00    -0.040 C  
HETATM   19  C   UNL     1      -6.270   2.566  68.519  1.00  0.00    -0.028 C  
BRANCH  17  20
HETATM   20  C   UNL     1      -8.586   3.552  68.324  1.00  0.00    -0.093 C  
BRANCH  20  21
HETATM   21  C   UNL     1      -9.848   3.874  69.185  1.00  0.00     0.049 C  
BRANCH  21  22
HETATM   22  N   UNL     1     -10.204   5.280  69.015  1.00  0.00    -0.209 NA 
BRANCH  22  23
HETATM   23  C   UNL     1     -10.812   5.741  67.760  1.00  0.00    -0.167 C  
BRANCH  23  24
HETATM   24  C   UNL     1      -9.990   6.807  67.061  1.00  0.00    -0.234 A  
HETATM   25  C   UNL     1     -10.438   8.133  67.028  1.00  0.00    -0.396 A  
HETATM   26  C   UNL     1      -8.620   8.755  65.543  1.00  0.00    -0.174 A  
HETATM   27  C   UNL     1      -8.110   7.462  65.645  1.00  0.00    -0.129 A  
HETATM   28  C   UNL     1      -8.792   6.493  66.398  1.00  0.00    -0.149 A  
HETATM   29  C   UNL     1      -9.764   9.090  66.267  1.00  0.00    -0.345 A  
BRANCH  26  30
HETATM   30  O   UNL     1      -8.152   9.757  64.743  1.00  0.00    -0.131 OA 
HETATM   31  C   UNL     1      -7.229   9.435  63.713  1.00  0.00    -0.102 C  
ENDBRANCH  26  30
ENDBRANCH  23  24
ENDBRANCH  22  23
BRANCH  22  32
HETATM   32  C   UNL     1     -10.684   5.911  70.151  1.00  0.00    -0.318 A  
HETATM   33  N   UNL     1      -9.943   5.875  71.273  1.00  0.00    -0.183 NA 
HETATM   34  N   UNL     1     -11.786   6.661  70.029  1.00  0.00    -0.367 NA 
HETATM   35  C   UNL     1     -12.159   7.394  71.095  1.00  0.00    -0.325 A  
HETATM   36  C   UNL     1     -10.392   6.580  72.340  1.00  0.00    -0.188 A  
HETATM   37  C   UNL     1     -11.501   7.380  72.298  1.00  0.00    -0.329 A  
ENDBRANCH  22  32
ENDBRANCH  21  22
ENDBRANCH  20  21
ENDBRANCH  17  20
ENDBRANCH  16  17
ENDBRANCH  15  16
ENDBRANCH  14  15
ENDBRANCH  13  14
ENDBRANCH  12  13
ENDBRANCH  11  12
ENDBRANCH  10  11
ENDBRANCH   9  10
ENDBRANCH   8   9
ENDBRANCH   7   8
ENDBRANCH   6   7
ENDBRANCH   5   6
ENDBRANCH   4   5
ENDBRANCH   3   4
ENDBRANCH   2   3
TORSDOF 22
ENDMDL
MODEL      182
REMARK 921   NORMALIZED FREE ENERGY PREDICTED BY IDOCK:   -2.93 KCAL/MOL
REMARK 922        TOTAL FREE ENERGY PREDICTED BY IDOCK:  -11.15 KCAL/MOL
REMARK 923 INTER-LIGAND FREE ENERGY PREDICTED BY IDOCK:   -8.53 KCAL/MOL
REMARK 924 INTRA-LIGAND FREE ENERGY PREDICTED BY IDOCK:   -2.62 KCAL/MOL
REMARK 927      BINDING AFFINITY PREDICTED BY RF-SCORE:    0.00 PKD
ROOT
HETATM    1  C   UNL     1      -8.897  20.041  66.880  1.00  0.00    -0.433 C  
HETATM    2  C   UNL     1     -10.394  19.787  66.830  1.00  0.00    -0.604 C  
ENDROOT
BRANCH   2   3
HETATM    3  C   UNL     1     -10.730  18.393  67.349  1.00  0.00    -0.397 C  
BRANCH   3   4
HETATM    4  C   UNL     1     -10.337  17.328  66.332  1.00  0.00    -0.316 C  
BRANCH   4   5
HETATM    5  C   UNL     1     -10.565  15.933  66.899  1.00  0.00    -0.309 C  
BRANCH   5   6
HETATM    6  C   UNL     1      -9.694  15.709  68.127  1.00  0.00    -0.204 C  
BRANCH   6   7
HETATM    7  C   UNL     1      -8.234  15.961  67.790  1.00  0.00    -0.157 C  
BRANCH   7   8
HETATM    8  C   UNL     1      -7.551  16.712  68.922  1.00  0.00    -0.240 C  
BRANCH   8   9
HETATM    9  C   UNL     1      -6.045  16.671  68.733  1.00  0.00    -0.144 C  
BRANCH   9  10
HETATM   10  C   UNL     1      -5.518  15.264  68.960  1.00  0.00    -0.098 C  
BRANCH  10  11
HETATM   11  C   UNL     1      -6.131  14.677  70.222  1.00  0.00    -0.167 C  
BRANCH  11  12
HETATM   12  C   UNL     1      -5.856  13.181  70.288  1.00  0.00    -0.156 C  
BRANCH  12  13
HETATM   13  C   UNL     1      -6.088  12.523  68.939  1.00  0.00    -0.075 C  
BRANCH  13  14
HETATM   14  C   UNL     1      -7.580  12.334  68.640  1.00  0.00    -0.089 C  
BRANCH  14  15
HETATM   15  C   UNL     1      -7.876  11.650  67.296  1.00  0.00    -0.157 C  
BRANCH  15  16
HETATM   16  C   UNL     1      -8.986  12.390  66.555  1.00  0.00    -0.145 C  
BRANCH  16  17
HETATM   17  N   UNL     1     -10.188  11.538  66.172  1.00  0.00    -0.225 N  
HETATM   18  C   UNL     1     -10.260  11.350  64.650  1.00  0.00    -0.294 C  
HETATM   19  C   UNL     1     -11.505  12.132  66.649  1.00  0.00    -0.365 C  
BRANCH  17  20
HETATM   20  C   UNL     1      -9.992  10.115  66.781  1.00  0.00    -0.211 C  
BRANCH  20  21
HETATM   21  C   UNL     1     -10.951   9.734  67.953  1.00  0.00    -0.188 C  
BRANCH  21  22
HETATM   22  N   UNL     1     -10.510   8.478  68.551  1.00  0.00    -0.196 NA 
BRANCH  22  23
HETATM   23  C   UNL     1      -9.189   7.926  68.221  1.00  0.00    -0.137 C  
BRANCH  23  24
HETATM   24  C   UNL     1      -9.265   6.711  67.316  1.00  0.00    -0.129 A  
HETATM   25  C   UNL     1      -8.177   6.369  66.505  1.00  0.00    -0.113 A  
HETATM   26  C   UNL     1      -9.475   4.620  65.430  1.00  0.00    -0.171 A  
HETATM   27  C   UNL     1     -10.533   4.888  66.297  1.00  0.00    -0.349 A  
HETATM   28  C   UNL     1     -10.429   5.929  67.233  1.00  0.00    -0.325 A  
HETATM   29  C   UNL     1      -8.289   5.342  65.565  1.00  0.00    -0.133 A  
BRANCH  26  30
HETATM   30  O   UNL     1      -9.479   3.744  64.383  1.00  0.00    -0.140 OA 
HETATM   31  C   UNL     1      -9.867   4.213  63.100  1.00  0.00    -0.103 C  
ENDBRANCH  26  30
ENDBRANCH  23  24
ENDBRANCH  22  23
BRANCH  22  32
HETATM   32  C   UNL     1     -10.904   8.276  69.865  1.00  0.00    -0.213 A  
HETATM   33  N   UNL     1     -11.504   7.116  70.188  1.00  0.00    -0.241 NA 
HETATM   34  N   UNL     1     -10.523   9.178  70.776  1.00  0.00    -0.235 NA 
HETATM   35  C   UNL     1     -10.774   8.899  72.068  1.00  0.00    -0.319 A  
HETATM   36  C   UNL     1     -11.794   6.907  71.495  1.00  0.00    -0.324 A  
HETATM   37  C   UNL     1     -11.430   7.772  72.492  1.00  0.00    -0.428 A  
ENDBRANCH  22  32
ENDBRANCH  21  22
ENDBRANCH  20  21
ENDBRANCH  17  20
ENDBRANCH  16  17
ENDBRANCH  15  16
ENDBRANCH  14  15
ENDBRANCH  13  14
ENDBRANCH  12  13
ENDBRANCH  11  12
ENDBRANCH  10  11
ENDBRANCH   9  10
ENDBRANCH   8   9
ENDBRANCH   7   8
ENDBRANCH   6   7
ENDBRANCH   5   6
ENDBRANCH   4   5
ENDBRANCH   3   4
ENDBRANCH   2   3
TORSDOF 22
ENDMDL
MODEL      183
REMARK 921   NORMALIZED FREE ENERGY PREDICTED BY IDOCK:   -2.93 KCAL/MOL
REMARK 922        TOTAL FREE ENERGY PREDICTED BY IDOCK:  -11.15 KCAL/MOL
REMARK 923 INTER-LIGAND FREE ENERGY PREDICTED BY IDOCK:   -9.49 KCAL/MOL
REMARK 924 INTRA-LIGAND FREE ENERGY PREDICTED BY IDOCK:   -1.65 KCAL/MOL
REMARK 927      BINDING AFFINITY PREDICTED BY RF-SCORE:    0.00 PKD
ROOT
HETATM    1  C   UNL     1      -8.513  20.283  66.904  1.00  0.00    -0.354 C  
HETATM    2  C   UNL     1      -9.820  19.626  67.313  1.00  0.00    -0.492 C  
ENDROOT
BRANCH   2   3
HETATM    3  C   UNL     1      -9.569  18.445  68.246  1.00  0.00    -0.355 C  
BRANCH   3   4
HETATM    4  C   UNL     1     -10.697  17.426  68.143  1.00  0.00    -0.343 C  
BRANCH   4   5
HETATM    5  C   UNL     1     -10.564  16.604  66.867  1.00  0.00    -0.229 C  
BRANCH   5   6
HETATM    6  C   UNL     1      -9.344  15.697  66.944  1.00  0.00    -0.252 C  
BRANCH   6   7
HETATM    7  C   UNL     1      -9.758  14.291  67.349  1.00  0.00    -0.235 C  
BRANCH   7   8
HETATM    8  C   UNL     1     -11.243  14.084  67.101  1.00  0.00    -0.327 C  
BRANCH   8   9
HETATM    9  C   UNL     1     -11.876  13.404  68.303  1.00  0.00    -0.393 C  
BRANCH   9  10
HETATM   10  C   UNL     1     -11.905  14.347  69.494  1.00  0.00    -0.376 C  
BRANCH  10  11
HETATM   11  C   UNL     1     -12.520  13.647  70.696  1.00  0.00    -0.417 C  
BRANCH  11  12
HETATM   12  C   UNL     1     -12.212  12.158  70.647  1.00  0.00    -0.392 C  
BRANCH  12  13
HETATM   13  C   UNL     1     -13.019  11.398  71.687  1.00  0.00    -0.523 C  
BRANCH  13  14
HETATM   14  C   UNL     1     -13.252   9.939  71.280  1.00  0.00    -0.465 C  
BRANCH  14  15
HETATM   15  C   UNL     1     -12.680   8.907  72.264  1.00  0.00    -0.464 C  
BRANCH  15  16
HETATM   16  C   UNL     1     -11.192   8.693  72.007  1.00  0.00    -0.364 C  
BRANCH  16  17
HETATM   17  N   UNL     1     -10.820   7.324  71.456  1.00  0.00    -0.224 N  
HETATM   18  C   UNL     1     -11.733   6.236  72.038  1.00  0.00    -0.322 C  
HETATM   19  C   UNL     1      -9.375   6.947  71.745  1.00  0.00    -0.145 C  
BRANCH  17  20
HETATM   20  C   UNL     1     -11.071   7.332  69.916  1.00  0.00    -0.212 C  
BRANCH  20  21
HETATM   21  C   UNL     1     -10.316   6.241  69.094  1.00  0.00    -0.216 C  
BRANCH  21  22
HETATM   22  N   UNL     1      -9.080   6.805  68.561  1.00  0.00    -0.130 NA 
BRANCH  22  23
HETATM   23  C   UNL     1      -8.054   5.925  67.985  1.00  0.00    -0.105 C  
BRANCH  23  24
HETATM   24  C   UNL     1      -8.505   5.248  66.706  1.00  0.00    -0.107 A  
HETATM   25  C   UNL     1      -9.347   4.130  66.760  1.00  0.00    -0.190 A  
HETATM   26  C   UNL     1      -9.143   3.810  64.360  1.00  0.00    -0.129 A  
HETATM   27  C   UNL     1      -8.384   4.975  64.281  1.00  0.00    -0.136 A  
HETATM   28  C   UNL     1      -8.064   5.689  65.447  1.00  0.00    -0.126 A  
HETATM   29  C   UNL     1      -9.650   3.416  65.599  1.00  0.00    -0.080 A  
BRANCH  26  30
HETATM   30  O   UNL     1      -9.414   2.940  63.345  1.00  0.00    -0.094 OA 
HETATM   31  C   UNL     1     -10.753   2.818  62.887  1.00  0.00    -0.197 C  
ENDBRANCH  26  30
ENDBRANCH  23  24
ENDBRANCH  22  23
BRANCH  22  32
HETATM   32  C   UNL     1      -9.213   8.026  67.919  1.00  0.00    -0.131 A  
HETATM   33  N   UNL     1     -10.083   8.128  66.898  1.00  0.00    -0.270 NA 
HETATM   34  N   UNL     1      -8.587   9.082  68.452  1.00  0.00    -0.129 NA 
HETATM   35  C   UNL     1      -8.844  10.291  67.917  1.00  0.00    -0.122 A  
HETATM   36  C   UNL     1     -10.262   9.355  66.351  1.00  0.00    -0.230 A  
HETATM   37  C   UNL     1      -9.670  10.488  66.841  1.00  0.00    -0.218 A  
ENDBRANCH  22  32
ENDBRANCH  21  22
ENDBRANCH  20  21
ENDBRANCH  17  20
ENDBRANCH  16  17
ENDBRANCH  15  16
ENDBRANCH  14  15
ENDBRANCH  13  14
ENDBRANCH  12  13
ENDBRANCH  11  12
ENDBRANCH  10  11
ENDBRANCH   9  10
ENDBRANCH   8   9
ENDBRANCH   7   8
ENDBRANCH   6   7
ENDBRANCH   5   6
ENDBRANCH   4   5
ENDBRANCH   3   4
ENDBRANCH   2   3
TORSDOF 22
ENDMDL
MODEL      184
REMARK 921   NORMALIZED FREE ENERGY PREDICTED BY IDOCK:   -2.92 KCAL/MOL
REMARK 922        TOTAL FREE ENERGY PREDICTED BY IDOCK:  -11.13 KCAL/MOL
REMARK 923 INTER-LIGAND FREE ENERGY PREDICTED BY IDOCK:   -7.95 KCAL/MOL
REMARK 924 INTRA-LIGAND FREE ENERGY PREDICTED BY IDOCK:   -3.18 KCAL/MOL
REMARK 927      BINDING AFFINITY PREDICTED BY RF-SCORE:    0.00 PKD
ROOT
HETATM    1  C   UNL     1     -11.989   6.892  71.987  1.00  0.00    -0.342 C  
HETATM    2  C   UNL     1     -10.797   7.708  72.457  1.00  0.00    -0.367 C  
ENDROOT
BRANCH   2   3
HETATM    3  C   UNL     1      -9.756   6.819  73.130  1.00  0.00    -0.189 C  
BRANCH   3   4
HETATM    4  C   UNL     1      -8.611   6.509  72.174  1.00  0.00    -0.123 C  
BRANCH   4   5
HETATM    5  C   UNL     1      -8.632   7.458  70.983  1.00  0.00    -0.134 C  
BRANCH   5   6
HETATM    6  C   UNL     1      -8.480   6.683  69.683  1.00  0.00    -0.132 C  
BRANCH   6   7
HETATM    7  C   UNL     1      -9.803   6.045  69.291  1.00  0.00    -0.191 C  
BRANCH   7   8
HETATM    8  C   UNL     1     -10.659   7.034  68.516  1.00  0.00    -0.235 C  
BRANCH   8   9
HETATM    9  C   UNL     1     -10.936   6.494  67.123  1.00  0.00    -0.480 C  
BRANCH   9  10
HETATM   10  C   UNL     1     -10.699   4.994  67.077  1.00  0.00    -0.025 C  
BRANCH  10  11
HETATM   11  C   UNL     1     -10.318   4.572  65.666  1.00  0.00    -0.274 C  
BRANCH  11  12
HETATM   12  C   UNL     1      -8.905   4.006  65.654  1.00  0.00    -0.123 C  
BRANCH  12  13
HETATM   13  C   UNL     1      -7.962   4.909  64.877  1.00  0.00    -0.096 C  
BRANCH  13  14
HETATM   14  C   UNL     1      -7.590   6.169  65.667  1.00  0.00    -0.085 C  
BRANCH  14  15
HETATM   15  C   UNL     1      -8.191   7.468  65.108  1.00  0.00    -0.122 C  
BRANCH  15  16
HETATM   16  C   UNL     1      -7.116   8.293  64.407  1.00  0.00    -0.078 C  
BRANCH  16  17
HETATM   17  N   UNL     1      -7.330   9.800  64.443  1.00  0.00    -0.127 N  
HETATM   18  C   UNL     1      -8.079  10.275  63.190  1.00  0.00    -0.158 C  
HETATM   19  C   UNL     1      -6.025  10.575  64.549  1.00  0.00    -0.058 C  
BRANCH  17  20
HETATM   20  C   UNL     1      -8.249  10.134  65.658  1.00  0.00    -0.150 C  
BRANCH  20  21
HETATM   21  C   UNL     1      -9.629  10.779  65.316  1.00  0.00    -0.229 C  
BRANCH  21  22
HETATM   22  N   UNL     1      -9.947  11.800  66.310  1.00  0.00    -0.213 NA 
BRANCH  22  23
HETATM   23  C   UNL     1     -10.547  13.074  65.893  1.00  0.00    -0.275 C  
BRANCH  23  24
HETATM   24  C   UNL     1     -10.080  14.249  66.730  1.00  0.00    -0.264 A  
HETATM   25  C   UNL     1     -11.015  15.101  67.331  1.00  0.00    -0.314 A  
HETATM   26  C   UNL     1      -9.245  16.593  68.067  1.00  0.00    -0.223 A  
HETATM   27  C   UNL     1      -8.300  15.704  67.558  1.00  0.00    -0.186 A  
HETATM   28  C   UNL     1      -8.716  14.540  66.891  1.00  0.00    -0.237 A  
HETATM   29  C   UNL     1     -10.599  16.265  67.980  1.00  0.00    -0.308 A  
BRANCH  26  30
HETATM   30  O   UNL     1      -9.002  17.821  68.610  1.00  0.00    -0.287 OA 
HETATM   31  C   UNL     1      -9.063  18.964  67.769  1.00  0.00    -0.290 C  
ENDBRANCH  26  30
ENDBRANCH  23  24
ENDBRANCH  22  23
BRANCH  22  32
HETATM   32  C   UNL     1     -10.405  11.320  67.526  1.00  0.00    -0.194 A  
HETATM   33  N   UNL     1      -9.510  11.058  68.496  1.00  0.00    -0.182 NA 
HETATM   34  N   UNL     1     -11.727  11.296  67.729  1.00  0.00    -0.599 NA 
HETATM   35  C   UNL     1     -12.161  10.977  68.963  1.00  0.00    -0.215 A  
HETATM   36  C   UNL     1      -9.993  10.680  69.705  1.00  0.00    -0.050 A  
HETATM   37  C   UNL     1     -11.329  10.640  69.999  1.00  0.00    -0.400 A  
ENDBRANCH  22  32
ENDBRANCH  21  22
ENDBRANCH  20  21
ENDBRANCH  17  20
ENDBRANCH  16  17
ENDBRANCH  15  16
ENDBRANCH  14  15
ENDBRANCH  13  14
ENDBRANCH  12  13
ENDBRANCH  11  12
ENDBRANCH  10  11
ENDBRANCH   9  10
ENDBRANCH   8   9
ENDBRANCH   7   8
ENDBRANCH   6   7
ENDBRANCH   5   6
ENDBRANCH   4   5
ENDBRANCH   3   4
ENDBRANCH   2   3
TORSDOF 22
ENDMDL
MODEL      185
REMARK 921   NORMALIZED FREE ENERGY PREDICTED BY IDOCK:   -2.90 KCAL/MOL
REMARK 922        TOTAL FREE ENERGY PREDICTED BY IDOCK:  -11.09 KCAL/MOL
REMARK 923 INTER-LIGAND FREE ENERGY PREDICTED BY IDOCK:   -8.43 KCAL/MOL
REMARK 924 INTRA-LIGAND FREE ENERGY PREDICTED BY IDOCK:   -2.65 KCAL/MOL
REMARK 927      BINDING AFFINITY PREDICTED BY RF-SCORE:    0.00 PKD
ROOT
HETATM    1  C   UNL     1     -12.899  13.683  65.533  1.00  0.00    -0.443 C  
HETATM    2  C   UNL     1     -11.860  12.603  65.289  1.00  0.00    -0.452 C  
ENDROOT
BRANCH   2   3
HETATM    3  C   UNL     1     -11.432  11.951  66.599  1.00  0.00    -0.382 C  
BRANCH   3   4
HETATM    4  C   UNL     1     -10.074  12.477  67.047  1.00  0.00    -0.222 C  
BRANCH   4   5
HETATM    5  C   UNL     1      -9.718  13.754  66.296  1.00  0.00    -0.297 C  
BRANCH   5   6
HETATM    6  C   UNL     1      -9.806  14.958  67.223  1.00  0.00    -0.229 C  
BRANCH   6   7
HETATM    7  C   UNL     1      -9.459  16.231  66.468  1.00  0.00    -0.289 C  
BRANCH   7   8
HETATM    8  C   UNL     1      -8.113  16.768  66.927  1.00  0.00    -0.246 C  
BRANCH   8   9
HETATM    9  C   UNL     1      -8.068  16.818  68.444  1.00  0.00    -0.219 C  
BRANCH   9  10
HETATM   10  C   UNL     1      -6.746  16.271  68.955  1.00  0.00    -0.182 C  
BRANCH  10  11
HETATM   11  C   UNL     1      -6.912  14.818  69.374  1.00  0.00    -0.167 C  
BRANCH  11  12
HETATM   12  C   UNL     1      -5.577  14.253  69.839  1.00  0.00    -0.104 C  
BRANCH  12  13
HETATM   13  C   UNL     1      -5.779  13.105  70.814  1.00  0.00    -0.170 C  
BRANCH  13  14
HETATM   14  C   UNL     1      -5.963  11.765  70.093  1.00  0.00    -0.162 C  
BRANCH  14  15
HETATM   15  C   UNL     1      -5.523  10.540  70.911  1.00  0.00    -0.093 C  
BRANCH  15  16
HETATM   16  C   UNL     1      -6.131   9.267  70.331  1.00  0.00    -0.046 C  
BRANCH  16  17
HETATM   17  N   UNL     1      -6.754   8.324  71.351  1.00  0.00    -0.051 N  
HETATM   18  C   UNL     1      -6.224   8.619  72.761  1.00  0.00    -0.068 C  
HETATM   19  C   UNL     1      -6.492   6.859  71.033  1.00  0.00    -0.044 C  
BRANCH  17  20
HETATM   20  C   UNL     1      -8.290   8.595  71.393  1.00  0.00    -0.168 C  
BRANCH  20  21
HETATM   21  C   UNL     1      -8.841   9.579  70.314  1.00  0.00    -0.243 C  
BRANCH  21  22
HETATM   22  N   UNL     1      -9.632   8.835  69.338  1.00  0.00    -0.161 NA 
BRANCH  22  23
HETATM   23  C   UNL     1     -11.085   8.704  69.511  1.00  0.00     0.033 C  
BRANCH  23  24
HETATM   24  C   UNL     1     -11.681   9.806  70.364  1.00  0.00    -0.301 A  
HETATM   25  C   UNL     1     -12.463   9.488  71.481  1.00  0.00    -0.463 A  
HETATM   26  C   UNL     1     -13.022  11.828  71.810  1.00  0.00    -0.361 A  
HETATM   27  C   UNL     1     -12.171  12.167  70.760  1.00  0.00    -0.367 A  
HETATM   28  C   UNL     1     -11.506  11.162  70.039  1.00  0.00    -0.376 A  
HETATM   29  C   UNL     1     -13.133  10.489  72.186  1.00  0.00    -0.413 A  
BRANCH  26  30
HETATM   30  O   UNL     1     -13.838  12.673  72.505  1.00  0.00    -0.435 OA 
HETATM   31  C   UNL     1     -13.986  14.010  72.049  1.00  0.00    -0.506 C  
ENDBRANCH  26  30
ENDBRANCH  23  24
ENDBRANCH  22  23
BRANCH  22  32
HETATM   32  C   UNL     1      -9.220   8.962  68.021  1.00  0.00    -0.139 A  
HETATM   33  N   UNL     1     -10.071   8.608  67.041  1.00  0.00    -0.244 NA 
HETATM   34  N   UNL     1      -8.057   9.580  67.788  1.00  0.00    -0.106 NA 
HETATM   35  C   UNL     1      -7.737   9.837  66.506  1.00  0.00    -0.105 A  
HETATM   36  C   UNL     1      -9.678   8.830  65.763  1.00  0.00    -0.052 A  
HETATM   37  C   UNL     1      -8.511   9.466  65.437  1.00  0.00    -0.159 A  
ENDBRANCH  22  32
ENDBRANCH  21  22
ENDBRANCH  20  21
ENDBRANCH  17  20
ENDBRANCH  16  17
ENDBRANCH  15  16
ENDBRANCH  14  15
ENDBRANCH  13  14
ENDBRANCH  12  13
ENDBRANCH  11  12
ENDBRANCH  10  11
ENDBRANCH   9  10
ENDBRANCH   8   9
ENDBRANCH   7   8
ENDBRANCH   6   7
ENDBRANCH   5   6
ENDBRANCH   4   5
ENDBRANCH   3   4
ENDBRANCH   2   3
TORSDOF 22
ENDMDL
MODEL      186
REMARK 921   NORMALIZED FREE ENERGY PREDICTED BY IDOCK:   -2.88 KCAL/MOL
REMARK 922        TOTAL FREE ENERGY PREDICTED BY IDOCK:  -11.03 KCAL/MOL
REMARK 923 INTER-LIGAND FREE ENERGY PREDICTED BY IDOCK:   -8.61 KCAL/MOL
REMARK 924 INTRA-LIGAND FREE ENERGY PREDICTED BY IDOCK:   -2.42 KCAL/MOL
REMARK 927      BINDING AFFINITY PREDICTED BY RF-SCORE:    0.00 PKD
ROOT
HETATM    1  C   UNL     1     -10.966   3.114  63.319  1.00  0.00    -0.135 C  
HETATM    2  C   UNL     1      -9.584   2.484  63.294  1.00  0.00    -0.098 C  
ENDROOT
BRANCH   2   3
HETATM    3  C   UNL     1      -8.539   3.433  63.872  1.00  0.00    -0.090 C  
BRANCH   3   4
HETATM    4  C   UNL     1      -8.718   3.581  65.378  1.00  0.00    -0.120 C  
BRANCH   4   5
HETATM    5  C   UNL     1      -8.627   2.225  66.066  1.00  0.00    -0.111 C  
BRANCH   5   6
HETATM    6  C   UNL     1      -7.298   2.084  66.792  1.00  0.00    -0.056 C  
BRANCH   6   7
HETATM    7  C   UNL     1      -6.781   3.450  67.215  1.00  0.00    -0.045 C  
BRANCH   7   8
HETATM    8  C   UNL     1      -6.188   3.382  68.613  1.00  0.00    -0.029 C  
BRANCH   8   9
HETATM    9  C   UNL     1      -6.864   2.277  69.406  1.00  0.00    -0.033 C  
BRANCH   9  10
HETATM   10  C   UNL     1      -7.758   2.866  70.484  1.00  0.00    -0.043 C  
BRANCH  10  11
HETATM   11  C   UNL     1      -9.197   2.917  69.994  1.00  0.00    -0.211 C  
BRANCH  11  12
HETATM   12  C   UNL     1      -9.695   4.355  69.984  1.00  0.00    -0.286 C  
BRANCH  12  13
HETATM   13  C   UNL     1      -9.630   4.946  68.586  1.00  0.00    -0.215 C  
BRANCH  13  14
HETATM   14  C   UNL     1     -10.812   5.880  68.301  1.00  0.00    -0.325 C  
BRANCH  14  15
HETATM   15  C   UNL     1     -10.603   7.329  68.768  1.00  0.00    -0.202 C  
BRANCH  15  16
HETATM   16  C   UNL     1      -9.520   8.005  67.932  1.00  0.00    -0.145 C  
BRANCH  16  17
HETATM   17  N   UNL     1      -9.187   9.434  68.339  1.00  0.00    -0.128 N  
HETATM   18  C   UNL     1      -7.740   9.784  67.965  1.00  0.00    -0.083 C  
HETATM   19  C   UNL     1      -9.374   9.679  69.829  1.00  0.00    -0.218 C  
BRANCH  17  20
HETATM   20  C   UNL     1     -10.098  10.400  67.521  1.00  0.00    -0.192 C  
BRANCH  20  21
HETATM   21  C   UNL     1     -10.544  11.705  68.253  1.00  0.00    -0.205 C  
BRANCH  21  22
HETATM   22  N   UNL     1     -10.426  12.838  67.340  1.00  0.00    -0.228 NA 
BRANCH  22  23
HETATM   23  C   UNL     1      -9.214  13.668  67.347  1.00  0.00    -0.222 C  
BRANCH  23  24
HETATM   24  C   UNL     1      -9.515  15.154  67.313  1.00  0.00    -0.214 A  
HETATM   25  C   UNL     1     -10.120  15.775  68.412  1.00  0.00    -0.222 A  
HETATM   26  C   UNL     1     -10.328  17.855  67.175  1.00  0.00    -0.367 A  
HETATM   27  C   UNL     1      -9.641  17.277  66.109  1.00  0.00    -0.224 A  
HETATM   28  C   UNL     1      -9.239  15.933  66.177  1.00  0.00    -0.384 A  
HETATM   29  C   UNL     1     -10.531  17.107  68.335  1.00  0.00    -0.376 A  
BRANCH  26  30
HETATM   30  O   UNL     1     -10.902  19.093  67.201  1.00  0.00    -0.464 OA 
HETATM   31  C   UNL     1     -10.256  20.160  66.522  1.00  0.00    -0.433 C  
ENDBRANCH  26  30
ENDBRANCH  23  24
ENDBRANCH  22  23
BRANCH  22  32
HETATM   32  C   UNL     1     -10.986  12.650  66.086  1.00  0.00    -0.282 A  
HETATM   33  N   UNL     1     -12.310  12.835  65.936  1.00  0.00    -0.576 NA 
HETATM   34  N   UNL     1     -10.156  12.453  65.056  1.00  0.00    -0.270 NA 
HETATM   35  C   UNL     1     -10.694  12.426  63.822  1.00  0.00    -0.451 A  
HETATM   36  C   UNL     1     -12.815  12.737  64.683  1.00  0.00    -0.274 A  
HETATM   37  C   UNL     1     -12.037  12.548  63.573  1.00  0.00    -0.653 A  
ENDBRANCH  22  32
ENDBRANCH  21  22
ENDBRANCH  20  21
ENDBRANCH  17  20
ENDBRANCH  16  17
ENDBRANCH  15  16
ENDBRANCH  14  15
ENDBRANCH  13  14
ENDBRANCH  12  13
ENDBRANCH  11  12
ENDBRANCH  10  11
ENDBRANCH   9  10
ENDBRANCH   8   9
ENDBRANCH   7   8
ENDBRANCH   6   7
ENDBRANCH   5   6
ENDBRANCH   4   5
ENDBRANCH   3   4
ENDBRANCH   2   3
TORSDOF 22
ENDMDL
MODEL      187
REMARK 921   NORMALIZED FREE ENERGY PREDICTED BY IDOCK:   -2.87 KCAL/MOL
REMARK 922        TOTAL FREE ENERGY PREDICTED BY IDOCK:  -11.01 KCAL/MOL
REMARK 923 INTER-LIGAND FREE ENERGY PREDICTED BY IDOCK:   -8.03 KCAL/MOL
REMARK 924 INTRA-LIGAND FREE ENERGY PREDICTED BY IDOCK:   -2.98 KCAL/MOL
REMARK 927      BINDING AFFINITY PREDICTED BY RF-SCORE:    0.00 PKD
ROOT
HETATM    1  C   UNL     1      -6.152  19.661  70.213  1.00  0.00    -0.292 C  
HETATM    2  C   UNL     1      -5.428  19.755  68.882  1.00  0.00    -0.227 C  
ENDROOT
BRANCH   2   3
HETATM    3  C   UNL     1      -5.251  18.375  68.257  1.00  0.00    -0.168 C  
BRANCH   3   4
HETATM    4  C   UNL     1      -5.417  18.441  66.744  1.00  0.00    -0.160 C  
BRANCH   4   5
HETATM    5  C   UNL     1      -6.893  18.468  66.366  1.00  0.00    -0.245 C  
BRANCH   5   6
HETATM    6  C   UNL     1      -7.261  19.813  65.757  1.00  0.00    -0.336 C  
BRANCH   6   7
HETATM    7  C   UNL     1      -8.278  20.527  66.632  1.00  0.00    -0.163 C  
BRANCH   7   8
HETATM    8  C   UNL     1      -8.866  19.566  67.653  1.00  0.00    -0.367 C  
BRANCH   8   9
HETATM    9  C   UNL     1     -10.305  19.244  67.290  1.00  0.00    -0.538 C  
BRANCH   9  10
HETATM   10  C   UNL     1     -10.645  17.815  67.678  1.00  0.00    -0.385 C  
BRANCH  10  11
HETATM   11  C   UNL     1     -10.458  16.893  66.483  1.00  0.00    -0.253 C  
BRANCH  11  12
HETATM   12  C   UNL     1      -9.308  15.930  66.740  1.00  0.00    -0.262 C  
BRANCH  12  13
HETATM   13  C   UNL     1      -8.815  16.039  68.174  1.00  0.00    -0.178 C  
BRANCH  13  14
HETATM   14  C   UNL     1      -7.699  15.032  68.476  1.00  0.00    -0.121 C  
BRANCH  14  15
HETATM   15  C   UNL     1      -7.477  13.983  67.376  1.00  0.00    -0.147 C  
BRANCH  15  16
HETATM   16  C   UNL     1      -7.448  12.580  67.976  1.00  0.00    -0.117 C  
BRANCH  16  17
HETATM   17  N   UNL     1      -8.416  11.587  67.348  1.00  0.00    -0.142 N  
HETATM   18  C   UNL     1      -7.773  10.885  66.144  1.00  0.00    -0.133 C  
HETATM   19  C   UNL     1      -9.712  12.240  66.890  1.00  0.00    -0.212 C  
BRANCH  17  20
HETATM   20  C   UNL     1      -8.721  10.472  68.395  1.00  0.00    -0.137 C  
BRANCH  20  21
HETATM   21  C   UNL     1     -10.142   9.832  68.320  1.00  0.00    -0.163 C  
BRANCH  21  22
HETATM   22  N   UNL     1     -10.139   8.559  69.035  1.00  0.00    -0.195 NA 
BRANCH  22  23
HETATM   23  C   UNL     1      -8.961   7.684  68.980  1.00  0.00    -0.137 C  
BRANCH  23  24
HETATM   24  C   UNL     1      -9.059   6.626  67.898  1.00  0.00    -0.114 A  
HETATM   25  C   UNL     1      -8.356   6.780  66.697  1.00  0.00    -0.118 A  
HETATM   26  C   UNL     1      -9.433   4.813  65.765  1.00  0.00    -0.167 A  
HETATM   27  C   UNL     1     -10.066   4.595  66.987  1.00  0.00    -0.207 A  
HETATM   28  C   UNL     1      -9.882   5.498  68.047  1.00  0.00    -0.173 A  
HETATM   29  C   UNL     1      -8.553   5.888  65.641  1.00  0.00    -0.155 A  
BRANCH  26  30
HETATM   30  O   UNL     1      -9.622   4.111  64.610  1.00  0.00    -0.159 OA 
HETATM   31  C   UNL     1      -8.558   4.038  63.673  1.00  0.00    -0.100 C  
ENDBRANCH  26  30
ENDBRANCH  23  24
ENDBRANCH  22  23
BRANCH  22  32
HETATM   32  C   UNL     1     -10.794   8.563  70.256  1.00  0.00    -0.238 A  
HETATM   33  N   UNL     1     -11.760   9.476  70.469  1.00  0.00    -0.251 NA 
HETATM   34  N   UNL     1     -10.543   7.557  71.102  1.00  0.00    -0.221 NA 
HETATM   35  C   UNL     1     -11.294   7.482  72.217  1.00  0.00    -0.292 A  
HETATM   36  C   UNL     1     -12.447   9.397  71.634  1.00  0.00    -0.378 A  
HETATM   37  C   UNL     1     -12.262   8.395  72.548  1.00  0.00    -0.381 A  
ENDBRANCH  22  32
ENDBRANCH  21  22
ENDBRANCH  20  21
ENDBRANCH  17  20
ENDBRANCH  16  17
ENDBRANCH  15  16
ENDBRANCH  14  15
ENDBRANCH  13  14
ENDBRANCH  12  13
ENDBRANCH  11  12
ENDBRANCH  10  11
ENDBRANCH   9  10
ENDBRANCH   8   9
ENDBRANCH   7   8
ENDBRANCH   6   7
ENDBRANCH   5   6
ENDBRANCH   4   5
ENDBRANCH   3   4
ENDBRANCH   2   3
TORSDOF 22
ENDMDL
MODEL      188
REMARK 921   NORMALIZED FREE ENERGY PREDICTED BY IDOCK:   -2.87 KCAL/MOL
REMARK 922        TOTAL FREE ENERGY PREDICTED BY IDOCK:  -11.00 KCAL/MOL
REMARK 923 INTER-LIGAND FREE ENERGY PREDICTED BY IDOCK:   -8.85 KCAL/MOL
REMARK 924 INTRA-LIGAND FREE ENERGY PREDICTED BY IDOCK:   -2.15 KCAL/MOL
REMARK 927      BINDING AFFINITY PREDICTED BY RF-SCORE:    0.00 PKD
ROOT
HETATM    1  C   UNL     1     -11.936  16.802  73.229  1.00  0.00    -0.229 C  
HETATM    2  C   UNL     1     -13.040  15.886  73.727  1.00  0.00    -0.533 C  
ENDROOT
BRANCH   2   3
HETATM    3  C   UNL     1     -12.714  14.425  73.431  1.00  0.00    -0.289 C  
BRANCH   3   4
HETATM    4  C   UNL     1     -13.783  13.802  72.543  1.00  0.00    -0.667 C  
BRANCH   4   5
HETATM    5  C   UNL     1     -13.185  12.708  71.668  1.00  0.00    -0.394 C  
BRANCH   5   6
HETATM    6  C   UNL     1     -12.222  13.307  70.653  1.00  0.00    -0.417 C  
BRANCH   6   7
HETATM    7  C   UNL     1     -12.754  14.636  70.141  1.00  0.00    -0.268 C  
BRANCH   7   8
HETATM    8  C   UNL     1     -11.777  15.252  69.153  1.00  0.00    -0.355 C  
BRANCH   8   9
HETATM    9  C   UNL     1     -11.769  14.445  67.866  1.00  0.00    -0.388 C  
BRANCH   9  10
HETATM   10  C   UNL     1     -10.706  14.971  66.915  1.00  0.00    -0.308 C  
BRANCH  10  11
HETATM   11  C   UNL     1     -11.265  15.048  65.503  1.00  0.00    -0.344 C  
BRANCH  11  12
HETATM   12  C   UNL     1     -10.521  14.081  64.593  1.00  0.00    -0.398 C  
BRANCH  12  13
HETATM   13  C   UNL     1     -11.274  12.768  64.459  1.00  0.00    -0.373 C  
BRANCH  13  14
HETATM   14  C   UNL     1     -10.475  11.588  65.024  1.00  0.00    -0.344 C  
BRANCH  14  15
HETATM   15  C   UNL     1     -10.802  11.242  66.485  1.00  0.00    -0.319 C  
BRANCH  15  16
HETATM   16  C   UNL     1      -9.525  10.909  67.251  1.00  0.00    -0.159 C  
BRANCH  16  17
HETATM   17  N   UNL     1      -9.643   9.751  68.233  1.00  0.00    -0.143 N  
HETATM   18  C   UNL     1     -10.633   8.698  67.718  1.00  0.00    -0.183 C  
HETATM   19  C   UNL     1     -10.089  10.198  69.617  1.00  0.00    -0.234 C  
BRANCH  17  20
HETATM   20  C   UNL     1      -8.255   9.043  68.322  1.00  0.00    -0.116 C  
BRANCH  20  21
HETATM   21  C   UNL     1      -7.913   8.378  69.691  1.00  0.00    -0.106 C  
BRANCH  21  22
HETATM   22  N   UNL     1      -8.484   7.035  69.734  1.00  0.00    -0.136 NA 
BRANCH  22  23
HETATM   23  C   UNL     1      -7.647   5.867  69.432  1.00  0.00    -0.092 C  
BRANCH  23  24
HETATM   24  C   UNL     1      -8.073   5.144  68.169  1.00  0.00    -0.094 A  
HETATM   25  C   UNL     1      -8.663   3.877  68.247  1.00  0.00    -0.126 A  
HETATM   26  C   UNL     1      -8.629   3.666  65.827  1.00  0.00    -0.114 A  
HETATM   27  C   UNL     1      -8.131   4.963  65.733  1.00  0.00    -0.112 A  
HETATM   28  C   UNL     1      -7.852   5.698  66.897  1.00  0.00    -0.101 A  
HETATM   29  C   UNL     1      -8.926   3.145  67.088  1.00  0.00    -0.181 A  
BRANCH  26  30
HETATM   30  O   UNL     1      -8.815   2.785  64.802  1.00  0.00    -0.107 OA 
HETATM   31  C   UNL     1      -8.065   1.579  64.793  1.00  0.00    -0.069 C  
ENDBRANCH  26  30
ENDBRANCH  23  24
ENDBRANCH  22  23
BRANCH  22  32
HETATM   32  C   UNL     1      -9.427   6.823  70.727  1.00  0.00    -0.165 A  
HETATM   33  N   UNL     1     -10.333   5.843  70.559  1.00  0.00    -0.219 NA 
HETATM   34  N   UNL     1      -9.288   7.499  71.873  1.00  0.00    -0.142 NA 
HETATM   35  C   UNL     1     -10.113   7.177  72.888  1.00  0.00    -0.210 A  
HETATM   36  C   UNL     1     -11.183   5.597  71.585  1.00  0.00    -0.134 A  
HETATM   37  C   UNL     1     -11.103   6.233  72.795  1.00  0.00    -0.284 A  
ENDBRANCH  22  32
ENDBRANCH  21  22
ENDBRANCH  20  21
ENDBRANCH  17  20
ENDBRANCH  16  17
ENDBRANCH  15  16
ENDBRANCH  14  15
ENDBRANCH  13  14
ENDBRANCH  12  13
ENDBRANCH  11  12
ENDBRANCH  10  11
ENDBRANCH   9  10
ENDBRANCH   8   9
ENDBRANCH   7   8
ENDBRANCH   6   7
ENDBRANCH   5   6
ENDBRANCH   4   5
ENDBRANCH   3   4
ENDBRANCH   2   3
TORSDOF 22
ENDMDL
MODEL      189
REMARK 921   NORMALIZED FREE ENERGY PREDICTED BY IDOCK:   -2.86 KCAL/MOL
REMARK 922        TOTAL FREE ENERGY PREDICTED BY IDOCK:  -11.00 KCAL/MOL
REMARK 923 INTER-LIGAND FREE ENERGY PREDICTED BY IDOCK:   -8.43 KCAL/MOL
REMARK 924 INTRA-LIGAND FREE ENERGY PREDICTED BY IDOCK:   -2.57 KCAL/MOL
REMARK 927      BINDING AFFINITY PREDICTED BY RF-SCORE:    0.00 PKD
ROOT
HETATM    1  C   UNL     1     -10.837  19.147  65.689  1.00  0.00    -0.218 C  
HETATM    2  C   UNL     1      -9.715  20.131  65.973  1.00  0.00    -0.431 C  
ENDROOT
BRANCH   2   3
HETATM    3  C   UNL     1      -9.693  20.524  67.447  1.00  0.00    -0.587 C  
BRANCH   3   4
HETATM    4  C   UNL     1      -9.685  19.288  68.337  1.00  0.00    -0.474 C  
BRANCH   4   5
HETATM    5  C   UNL     1      -8.501  19.323  69.294  1.00  0.00    -0.040 C  
BRANCH   5   6
HETATM    6  C   UNL     1      -7.228  19.705  68.553  1.00  0.00    -0.363 C  
BRANCH   6   7
HETATM    7  C   UNL     1      -6.084  18.793  68.965  1.00  0.00    -0.242 C  
BRANCH   7   8
HETATM    8  C   UNL     1      -5.721  17.852  67.828  1.00  0.00    -0.149 C  
BRANCH   8   9
HETATM    9  C   UNL     1      -6.467  18.255  66.568  1.00  0.00    -0.229 C  
BRANCH   9  10
HETATM   10  C   UNL     1      -7.455  17.172  66.165  1.00  0.00    -0.295 C  
BRANCH  10  11
HETATM   11  C   UNL     1      -7.680  16.217  67.327  1.00  0.00    -0.212 C  
BRANCH  11  12
HETATM   12  C   UNL     1      -8.803  15.245  66.993  1.00  0.00    -0.261 C  
BRANCH  12  13
HETATM   13  C   UNL     1     -10.032  15.982  66.488  1.00  0.00    -0.293 C  
BRANCH  13  14
HETATM   14  C   UNL     1     -10.495  15.459  65.124  1.00  0.00    -0.439 C  
BRANCH  14  15
HETATM   15  C   UNL     1     -11.041  14.023  65.147  1.00  0.00    -0.341 C  
BRANCH  15  16
HETATM   16  C   UNL     1      -9.974  13.041  64.672  1.00  0.00    -0.126 C  
BRANCH  16  17
HETATM   17  N   UNL     1     -10.507  11.740  64.087  1.00  0.00    -0.313 N  
HETATM   18  C   UNL     1      -9.655  11.291  62.891  1.00  0.00    -0.352 C  
HETATM   19  C   UNL     1     -11.955  11.849  63.635  1.00  0.00    -0.476 C  
BRANCH  17  20
HETATM   20  C   UNL     1     -10.367  10.625  65.169  1.00  0.00    -0.261 C  
BRANCH  20  21
HETATM   21  C   UNL     1      -8.965   9.948  65.278  1.00  0.00    -0.191 C  
BRANCH  21  22
HETATM   22  N   UNL     1      -8.892   9.180  66.517  1.00  0.00    -0.130 NA 
BRANCH  22  23
HETATM   23  C   UNL     1      -9.304   7.770  66.538  1.00  0.00    -0.189 C  
BRANCH  23  24
HETATM   24  C   UNL     1      -9.662   7.279  67.927  1.00  0.00    -0.161 A  
HETATM   25  C   UNL     1     -10.759   7.824  68.606  1.00  0.00    -0.084 A  
HETATM   26  C   UNL     1     -10.190   6.577  70.611  1.00  0.00    -0.187 A  
HETATM   27  C   UNL     1      -9.153   5.957  69.918  1.00  0.00    -0.156 A  
HETATM   28  C   UNL     1      -8.889   6.307  68.584  1.00  0.00    -0.119 A  
HETATM   29  C   UNL     1     -11.009   7.483  69.936  1.00  0.00    -0.223 A  
BRANCH  26  30
HETATM   30  O   UNL     1     -10.477   6.448  71.939  1.00  0.00    -0.204 OA 
HETATM   31  C   UNL     1     -11.758   5.963  72.317  1.00  0.00    -0.252 C  
ENDBRANCH  26  30
ENDBRANCH  23  24
ENDBRANCH  22  23
BRANCH  22  32
HETATM   32  C   UNL     1      -7.812   9.474  67.334  1.00  0.00    -0.102 A  
HETATM   33  N   UNL     1      -6.574   9.165  66.906  1.00  0.00    -0.067 NA 
HETATM   34  N   UNL     1      -8.043  10.196  68.437  1.00  0.00    -0.101 NA 
HETATM   35  C   UNL     1      -6.973  10.610  69.143  1.00  0.00    -0.085 A  
HETATM   36  C   UNL     1      -5.532   9.549  67.682  1.00  0.00    -0.037 A  
HETATM   37  C   UNL     1      -5.678  10.298  68.818  1.00  0.00    -0.041 A  
ENDBRANCH  22  32
ENDBRANCH  21  22
ENDBRANCH  20  21
ENDBRANCH  17  20
ENDBRANCH  16  17
ENDBRANCH  15  16
ENDBRANCH  14  15
ENDBRANCH  13  14
ENDBRANCH  12  13
ENDBRANCH  11  12
ENDBRANCH  10  11
ENDBRANCH   9  10
ENDBRANCH   8   9
ENDBRANCH   7   8
ENDBRANCH   6   7
ENDBRANCH   5   6
ENDBRANCH   4   5
ENDBRANCH   3   4
ENDBRANCH   2   3
TORSDOF 22
ENDMDL
MODEL      190
REMARK 921   NORMALIZED FREE ENERGY PREDICTED BY IDOCK:   -2.85 KCAL/MOL
REMARK 922        TOTAL FREE ENERGY PREDICTED BY IDOCK:  -10.97 KCAL/MOL
REMARK 923 INTER-LIGAND FREE ENERGY PREDICTED BY IDOCK:   -8.56 KCAL/MOL
REMARK 924 INTRA-LIGAND FREE ENERGY PREDICTED BY IDOCK:   -2.41 KCAL/MOL
REMARK 927      BINDING AFFINITY PREDICTED BY RF-SCORE:    0.00 PKD
ROOT
HETATM    1  C   UNL     1      -5.414  13.587  71.083  1.00  0.00    -0.204 C  
HETATM    2  C   UNL     1      -6.191  14.709  70.418  1.00  0.00    -0.168 C  
ENDROOT
BRANCH   2   3
HETATM    3  C   UNL     1      -5.347  15.976  70.320  1.00  0.00    -0.159 C  
BRANCH   3   4
HETATM    4  C   UNL     1      -5.361  16.527  68.900  1.00  0.00    -0.122 C  
BRANCH   4   5
HETATM    5  C   UNL     1      -6.495  17.529  68.724  1.00  0.00    -0.207 C  
BRANCH   5   6
HETATM    6  C   UNL     1      -5.968  18.829  68.135  1.00  0.00    -0.214 C  
BRANCH   6   7
HETATM    7  C   UNL     1      -6.728  20.014  68.709  1.00  0.00    -0.344 C  
BRANCH   7   8
HETATM    8  C   UNL     1      -7.454  20.764  67.604  1.00  0.00    -0.276 C  
BRANCH   8   9
HETATM    9  C   UNL     1      -8.306  19.797  66.799  1.00  0.00    -0.354 C  
BRANCH   9  10
HETATM   10  C   UNL     1      -9.757  20.249  66.789  1.00  0.00    -0.571 C  
BRANCH  10  11
HETATM   11  C   UNL     1     -10.672  19.064  67.058  1.00  0.00    -0.516 C  
BRANCH  11  12
HETATM   12  C   UNL     1      -9.953  17.764  66.727  1.00  0.00    -0.333 C  
BRANCH  12  13
HETATM   13  C   UNL     1      -9.695  16.947  67.982  1.00  0.00    -0.256 C  
BRANCH  13  14
HETATM   14  C   UNL     1     -10.635  17.341  69.128  1.00  0.00    -0.209 C  
BRANCH  14  15
HETATM   15  C   UNL     1     -11.718  16.299  69.447  1.00  0.00    -0.109 C  
BRANCH  15  16
HETATM   16  C   UNL     1     -11.322  15.478  70.671  1.00  0.00    -0.343 C  
BRANCH  16  17
HETATM   17  N   UNL     1     -12.453  14.686  71.312  1.00  0.00    -0.317 N  
HETATM   18  C   UNL     1     -13.802  15.047  70.673  1.00  0.00     0.103 C  
HETATM   19  C   UNL     1     -12.553  14.914  72.813  1.00  0.00    -0.385 C  
BRANCH  17  20
HETATM   20  C   UNL     1     -12.219  13.172  71.017  1.00  0.00    -0.165 C  
BRANCH  20  21
HETATM   21  C   UNL     1     -12.231  12.758  69.512  1.00  0.00    -0.102 C  
BRANCH  21  22
HETATM   22  N   UNL     1     -11.223  11.727  69.284  1.00  0.00    -0.258 NA 
BRANCH  22  23
HETATM   23  C   UNL     1     -11.631  10.363  68.922  1.00  0.00    -0.139 C  
BRANCH  23  24
HETATM   24  C   UNL     1     -10.999   9.303  69.804  1.00  0.00    -0.213 A  
HETATM   25  C   UNL     1     -10.512   8.117  69.240  1.00  0.00    -0.221 A  
HETATM   26  C   UNL     1     -10.065   7.204  71.446  1.00  0.00    -0.188 A  
HETATM   27  C   UNL     1     -10.457   8.414  72.014  1.00  0.00    -0.384 A  
HETATM   28  C   UNL     1     -10.924   9.457  71.198  1.00  0.00    -0.430 A  
HETATM   29  C   UNL     1     -10.063   7.078  70.056  1.00  0.00    -0.196 A  
BRANCH  26  30
HETATM   30  O   UNL     1      -9.726   6.061  72.111  1.00  0.00    -0.156 OA 
HETATM   31  C   UNL     1      -8.504   6.027  72.832  1.00  0.00    -0.117 C  
ENDBRANCH  26  30
ENDBRANCH  23  24
ENDBRANCH  22  23
BRANCH  22  32
HETATM   32  C   UNL     1     -10.060  12.160  68.668  1.00  0.00    -0.151 A  
HETATM   33  N   UNL     1      -8.941  11.427  68.812  1.00  0.00    -0.128 NA 
HETATM   34  N   UNL     1     -10.148  13.199  67.830  1.00  0.00    -0.226 NA 
HETATM   35  C   UNL     1      -9.050  13.517  67.119  1.00  0.00    -0.232 A  
HETATM   36  C   UNL     1      -7.843  11.822  68.123  1.00  0.00    -0.135 A  
HETATM   37  C   UNL     1      -7.849  12.866  67.238  1.00  0.00    -0.134 A  
ENDBRANCH  22  32
ENDBRANCH  21  22
ENDBRANCH  20  21
ENDBRANCH  17  20
ENDBRANCH  16  17
ENDBRANCH  15  16
ENDBRANCH  14  15
ENDBRANCH  13  14
ENDBRANCH  12  13
ENDBRANCH  11  12
ENDBRANCH  10  11
ENDBRANCH   9  10
ENDBRANCH   8   9
ENDBRANCH   7   8
ENDBRANCH   6   7
ENDBRANCH   5   6
ENDBRANCH   4   5
ENDBRANCH   3   4
ENDBRANCH   2   3
TORSDOF 22
ENDMDL
MODEL      191
REMARK 921   NORMALIZED FREE ENERGY PREDICTED BY IDOCK:   -2.84 KCAL/MOL
REMARK 922        TOTAL FREE ENERGY PREDICTED BY IDOCK:  -10.95 KCAL/MOL
REMARK 923 INTER-LIGAND FREE ENERGY PREDICTED BY IDOCK:   -7.81 KCAL/MOL
REMARK 924 INTRA-LIGAND FREE ENERGY PREDICTED BY IDOCK:   -3.15 KCAL/MOL
REMARK 927      BINDING AFFINITY PREDICTED BY RF-SCORE:    0.00 PKD
ROOT
HETATM    1  C   UNL     1     -10.686   5.359  66.920  1.00  0.00    -0.264 C  
HETATM    2  C   UNL     1     -10.804   6.465  67.954  1.00  0.00    -0.404 C  
ENDROOT
BRANCH   2   3
HETATM    3  C   UNL     1      -9.564   6.520  68.840  1.00  0.00    -0.128 C  
BRANCH   3   4
HETATM    4  C   UNL     1      -9.915   7.035  70.230  1.00  0.00    -0.186 C  
BRANCH   4   5
HETATM    5  C   UNL     1     -11.425   7.036  70.437  1.00  0.00    -0.355 C  
BRANCH   5   6
HETATM    6  C   UNL     1     -11.758   7.018  71.922  1.00  0.00    -0.333 C  
BRANCH   6   7
HETATM    7  C   UNL     1     -12.145   8.411  72.392  1.00  0.00    -0.443 C  
BRANCH   7   8
HETATM    8  C   UNL     1     -12.351   9.334  71.202  1.00  0.00    -0.363 C  
BRANCH   8   9
HETATM    9  C   UNL     1     -13.086  10.587  71.643  1.00  0.00    -0.551 C  
BRANCH   9  10
HETATM   10  C   UNL     1     -12.493  11.815  70.973  1.00  0.00    -0.411 C  
BRANCH  10  11
HETATM   11  C   UNL     1     -13.025  13.077  71.637  1.00  0.00    -0.417 C  
BRANCH  11  12
HETATM   12  C   UNL     1     -12.037  14.220  71.452  1.00  0.00    -0.354 C  
BRANCH  12  13
HETATM   13  C   UNL     1     -12.599  15.284  70.525  1.00  0.00    -0.450 C  
BRANCH  13  14
HETATM   14  C   UNL     1     -12.037  15.163  69.104  1.00  0.00    -0.258 C  
BRANCH  14  15
HETATM   15  C   UNL     1     -10.874  14.169  68.964  1.00  0.00    -0.273 C  
BRANCH  15  16
HETATM   16  C   UNL     1     -10.400  14.105  67.515  1.00  0.00    -0.248 C  
BRANCH  16  17
HETATM   17  N   UNL     1     -10.359  12.709  66.909  1.00  0.00    -0.232 N  
HETATM   18  C   UNL     1     -10.420  12.779  65.376  1.00  0.00    -0.286 C  
HETATM   19  C   UNL     1     -11.496  11.824  67.397  1.00  0.00    -0.305 C  
BRANCH  17  20
HETATM   20  C   UNL     1      -8.986  12.061  67.265  1.00  0.00    -0.180 C  
BRANCH  20  21
HETATM   21  C   UNL     1      -9.014  10.968  68.380  1.00  0.00    -0.158 C  
BRANCH  21  22
HETATM   22  N   UNL     1      -7.883  10.062  68.200  1.00  0.00    -0.089 NA 
BRANCH  22  23
HETATM   23  C   UNL     1      -7.300   9.866  66.866  1.00  0.00    -0.091 C  
BRANCH  23  24
HETATM   24  C   UNL     1      -7.404   8.434  66.380  1.00  0.00    -0.083 A  
HETATM   25  C   UNL     1      -6.513   7.463  66.852  1.00  0.00    -0.056 A  
HETATM   26  C   UNL     1      -7.403   5.826  65.294  1.00  0.00    -0.075 A  
HETATM   27  C   UNL     1      -8.358   6.754  64.883  1.00  0.00    -0.025 A  
HETATM   28  C   UNL     1      -8.357   8.052  65.421  1.00  0.00    -0.161 A  
HETATM   29  C   UNL     1      -6.508   6.179  66.304  1.00  0.00    -0.047 A  
BRANCH  26  30
HETATM   30  O   UNL     1      -7.189   4.586  64.766  1.00  0.00    -0.061 OA 
HETATM   31  C   UNL     1      -6.899   3.510  65.647  1.00  0.00    -0.053 C  
ENDBRANCH  26  30
ENDBRANCH  23  24
ENDBRANCH  22  23
BRANCH  22  32
HETATM   32  C   UNL     1      -6.963  10.048  69.236  1.00  0.00    -0.063 A  
HETATM   33  N   UNL     1      -6.367  11.202  69.587  1.00  0.00    -0.103 NA 
HETATM   34  N   UNL     1      -6.835   8.918  69.940  1.00  0.00    -0.045 NA 
HETATM   35  C   UNL     1      -6.057   8.956  71.038  1.00  0.00    -0.049 A  
HETATM   36  C   UNL     1      -5.544  11.177  70.663  1.00  0.00    -0.131 A  
HETATM   37  C   UNL     1      -5.365  10.068  71.444  1.00  0.00    -0.075 A  
ENDBRANCH  22  32
ENDBRANCH  21  22
ENDBRANCH  20  21
ENDBRANCH  17  20
ENDBRANCH  16  17
ENDBRANCH  15  16
ENDBRANCH  14  15
ENDBRANCH  13  14
ENDBRANCH  12  13
ENDBRANCH  11  12
ENDBRANCH  10  11
ENDBRANCH   9  10
ENDBRANCH   8   9
ENDBRANCH   7   8
ENDBRANCH   6   7
ENDBRANCH   5   6
ENDBRANCH   4   5
ENDBRANCH   3   4
ENDBRANCH   2   3
TORSDOF 22
ENDMDL
MODEL      192
REMARK 921   NORMALIZED FREE ENERGY PREDICTED BY IDOCK:   -2.83 KCAL/MOL
REMARK 922        TOTAL FREE ENERGY PREDICTED BY IDOCK:  -10.92 KCAL/MOL
REMARK 923 INTER-LIGAND FREE ENERGY PREDICTED BY IDOCK:   -8.71 KCAL/MOL
REMARK 924 INTRA-LIGAND FREE ENERGY PREDICTED BY IDOCK:   -2.21 KCAL/MOL
REMARK 927      BINDING AFFINITY PREDICTED BY RF-SCORE:    0.00 PKD
ROOT
HETATM    1  C   UNL     1     -11.121   2.071  63.309  1.00  0.00    -0.210 C  
HETATM    2  C   UNL     1     -10.557   3.456  63.571  1.00  0.00    -0.260 C  
ENDROOT
BRANCH   2   3
HETATM    3  C   UNL     1      -9.825   3.506  64.907  1.00  0.00    -0.134 C  
BRANCH   3   4
HETATM    4  C   UNL     1     -10.406   4.593  65.802  1.00  0.00    -0.295 C  
BRANCH   4   5
HETATM    5  C   UNL     1      -9.468   4.890  66.965  1.00  0.00    -0.158 C  
BRANCH   5   6
HETATM    6  C   UNL     1     -10.258   5.076  68.252  1.00  0.00    -0.143 C  
BRANCH   6   7
HETATM    7  C   UNL     1      -9.460   4.563  69.440  1.00  0.00    -0.244 C  
BRANCH   7   8
HETATM    8  C   UNL     1      -9.482   5.579  70.570  1.00  0.00    -0.209 C  
BRANCH   8   9
HETATM    9  C   UNL     1      -8.112   5.653  71.222  1.00  0.00    -0.114 C  
BRANCH   9  10
HETATM   10  C   UNL     1      -7.043   5.131  70.277  1.00  0.00    -0.054 C  
BRANCH  10  11
HETATM   11  C   UNL     1      -5.750   5.906  70.476  1.00  0.00    -0.013 C  
BRANCH  11  12
HETATM   12  C   UNL     1      -5.540   6.876  69.322  1.00  0.00    -0.015 C  
BRANCH  12  13
HETATM   13  C   UNL     1      -6.430   6.522  68.142  1.00  0.00    -0.049 C  
BRANCH  13  14
HETATM   14  C   UNL     1      -7.444   7.630  67.835  1.00  0.00    -0.108 C  
BRANCH  14  15
HETATM   15  C   UNL     1      -6.854   8.844  67.100  1.00  0.00    -0.074 C  
BRANCH  15  16
HETATM   16  C   UNL     1      -6.476   9.937  68.096  1.00  0.00    -0.055 C  
BRANCH  16  17
HETATM   17  N   UNL     1      -7.595  10.908  68.445  1.00  0.00    -0.098 N  
HETATM   18  C   UNL     1      -7.023  12.243  68.942  1.00  0.00    -0.098 C  
HETATM   19  C   UNL     1      -8.537  10.361  69.508  1.00  0.00    -0.093 C  
BRANCH  17  20
HETATM   20  C   UNL     1      -8.390  11.229  67.142  1.00  0.00    -0.151 C  
BRANCH  20  21
HETATM   21  C   UNL     1      -8.806  12.720  66.943  1.00  0.00    -0.194 C  
BRANCH  21  22
HETATM   22  N   UNL     1     -10.251  12.847  67.109  1.00  0.00    -0.237 NA 
BRANCH  22  23
HETATM   23  C   UNL     1     -10.800  13.642  68.215  1.00  0.00    -0.251 C  
BRANCH  23  24
HETATM   24  C   UNL     1     -11.602  12.813  69.199  1.00  0.00    -0.373 A  
HETATM   25  C   UNL     1     -12.189  13.419  70.317  1.00  0.00    -0.405 A  
HETATM   26  C   UNL     1     -12.872  11.255  71.184  1.00  0.00    -0.352 A  
HETATM   27  C   UNL     1     -12.377  10.650  70.031  1.00  0.00    -0.341 A  
HETATM   28  C   UNL     1     -11.743  11.424  69.045  1.00  0.00    -0.409 A  
HETATM   29  C   UNL     1     -12.805  12.644  71.301  1.00  0.00    -0.344 A  
BRANCH  26  30
HETATM   30  O   UNL     1     -13.380  10.626  72.283  1.00  0.00    -0.386 OA 
HETATM   31  C   UNL     1     -13.404   9.207  72.308  1.00  0.00    -0.477 C  
ENDBRANCH  26  30
ENDBRANCH  23  24
ENDBRANCH  22  23
BRANCH  22  32
HETATM   32  C   UNL     1     -10.979  12.921  65.933  1.00  0.00    -0.276 A  
HETATM   33  N   UNL     1     -11.513  14.103  65.577  1.00  0.00    -0.317 NA 
HETATM   34  N   UNL     1     -10.978  11.850  65.130  1.00  0.00    -0.306 NA 
HETATM   35  C   UNL     1     -11.556  11.980  63.921  1.00  0.00    -0.449 A  
HETATM   36  C   UNL     1     -12.139  14.169  64.377  1.00  0.00    -0.463 A  
HETATM   37  C   UNL     1     -12.175  13.126  63.491  1.00  0.00    -0.552 A  
ENDBRANCH  22  32
ENDBRANCH  21  22
ENDBRANCH  20  21
ENDBRANCH  17  20
ENDBRANCH  16  17
ENDBRANCH  15  16
ENDBRANCH  14  15
ENDBRANCH  13  14
ENDBRANCH  12  13
ENDBRANCH  11  12
ENDBRANCH  10  11
ENDBRANCH   9  10
ENDBRANCH   8   9
ENDBRANCH   7   8
ENDBRANCH   6   7
ENDBRANCH   5   6
ENDBRANCH   4   5
ENDBRANCH   3   4
ENDBRANCH   2   3
TORSDOF 22
ENDMDL
MODEL      193
REMARK 921   NORMALIZED FREE ENERGY PREDICTED BY IDOCK:   -2.83 KCAL/MOL
REMARK 922        TOTAL FREE ENERGY PREDICTED BY IDOCK:  -10.91 KCAL/MOL
REMARK 923 INTER-LIGAND FREE ENERGY PREDICTED BY IDOCK:   -8.68 KCAL/MOL
REMARK 924 INTRA-LIGAND FREE ENERGY PREDICTED BY IDOCK:   -2.23 KCAL/MOL
REMARK 927      BINDING AFFINITY PREDICTED BY RF-SCORE:    0.00 PKD
ROOT
HETATM    1  C   UNL     1     -10.781  19.176  65.714  1.00  0.00    -0.388 C  
HETATM    2  C   UNL     1      -9.832  20.221  66.273  1.00  0.00    -0.471 C  
ENDROOT
BRANCH   2   3
HETATM    3  C   UNL     1     -10.006  20.367  67.782  1.00  0.00    -0.477 C  
BRANCH   3   4
HETATM    4  C   UNL     1      -9.584  19.092  68.500  1.00  0.00    -0.454 C  
BRANCH   4   5
HETATM    5  C   UNL     1      -8.311  19.325  69.305  1.00  0.00    -0.051 C  
BRANCH   5   6
HETATM    6  C   UNL     1      -7.282  20.071  68.468  1.00  0.00    -0.284 C  
BRANCH   6   7
HETATM    7  C   UNL     1      -5.892  19.511  68.721  1.00  0.00    -0.252 C  
BRANCH   7   8
HETATM    8  C   UNL     1      -5.308  18.946  67.436  1.00  0.00    -0.158 C  
BRANCH   8   9
HETATM    9  C   UNL     1      -6.379  18.901  66.359  1.00  0.00    -0.214 C  
BRANCH   9  10
HETATM   10  C   UNL     1      -6.712  17.463  65.999  1.00  0.00    -0.199 C  
BRANCH  10  11
HETATM   11  C   UNL     1      -6.713  16.601  67.252  1.00  0.00    -0.213 C  
BRANCH  11  12
HETATM   12  C   UNL     1      -7.802  15.542  67.156  1.00  0.00    -0.256 C  
BRANCH  12  13
HETATM   13  C   UNL     1      -9.183  16.176  67.167  1.00  0.00    -0.220 C  
BRANCH  13  14
HETATM   14  C   UNL     1      -9.964  15.875  65.883  1.00  0.00    -0.377 C  
BRANCH  14  15
HETATM   15  C   UNL     1     -10.769  14.567  65.922  1.00  0.00    -0.308 C  
BRANCH  15  16
HETATM   16  C   UNL     1     -10.061  13.480  65.119  1.00  0.00    -0.256 C  
BRANCH  16  17
HETATM   17  N   UNL     1     -10.914  12.267  64.778  1.00  0.00    -0.293 N  
HETATM   18  C   UNL     1     -10.604  11.763  63.361  1.00  0.00    -0.420 C  
HETATM   19  C   UNL     1     -12.405  12.553  64.873  1.00  0.00    -0.470 C  
BRANCH  17  20
HETATM   20  C   UNL     1     -10.529  11.110  65.750  1.00  0.00    -0.246 C  
BRANCH  20  21
HETATM   21  C   UNL     1      -9.190  10.371  65.438  1.00  0.00    -0.193 C  
BRANCH  21  22
HETATM   22  N   UNL     1      -9.054   9.219  66.325  1.00  0.00    -0.160 NA 
BRANCH  22  23
HETATM   23  C   UNL     1      -7.983   8.238  66.102  1.00  0.00    -0.100 C  
BRANCH  23  24
HETATM   24  C   UNL     1      -8.494   6.916  65.563  1.00  0.00    -0.122 A  
HETATM   25  C   UNL     1      -9.328   6.110  66.348  1.00  0.00    -0.173 A  
HETATM   26  C   UNL     1      -9.242   4.335  64.693  1.00  0.00    -0.156 A  
HETATM   27  C   UNL     1      -8.492   5.163  63.860  1.00  0.00    -0.119 A  
HETATM   28  C   UNL     1      -8.118   6.446  64.294  1.00  0.00    -0.063 A  
HETATM   29  C   UNL     1      -9.685   4.831  65.919  1.00  0.00    -0.203 A  
BRANCH  26  30
HETATM   30  O   UNL     1      -9.558   3.026  64.472  1.00  0.00    -0.150 OA 
HETATM   31  C   UNL     1      -9.022   2.038  65.340  1.00  0.00    -0.120 C  
ENDBRANCH  26  30
ENDBRANCH  23  24
ENDBRANCH  22  23
BRANCH  22  32
HETATM   32  C   UNL     1      -9.343   9.459  67.658  1.00  0.00    -0.127 A  
HETATM   33  N   UNL     1     -10.446   8.902  68.191  1.00  0.00    -0.219 NA 
HETATM   34  N   UNL     1      -8.424  10.100  68.389  1.00  0.00    -0.115 NA 
HETATM   35  C   UNL     1      -8.641  10.195  69.715  1.00  0.00    -0.128 A  
HETATM   36  C   UNL     1     -10.653   9.076  69.518  1.00  0.00    -0.225 A  
HETATM   37  C   UNL     1      -9.761   9.709  70.341  1.00  0.00    -0.304 A  
ENDBRANCH  22  32
ENDBRANCH  21  22
ENDBRANCH  20  21
ENDBRANCH  17  20
ENDBRANCH  16  17
ENDBRANCH  15  16
ENDBRANCH  14  15
ENDBRANCH  13  14
ENDBRANCH  12  13
ENDBRANCH  11  12
ENDBRANCH  10  11
ENDBRANCH   9  10
ENDBRANCH   8   9
ENDBRANCH   7   8
ENDBRANCH   6   7
ENDBRANCH   5   6
ENDBRANCH   4   5
ENDBRANCH   3   4
ENDBRANCH   2   3
TORSDOF 22
ENDMDL
MODEL      194
REMARK 921   NORMALIZED FREE ENERGY PREDICTED BY IDOCK:   -2.79 KCAL/MOL
REMARK 922        TOTAL FREE ENERGY PREDICTED BY IDOCK:  -10.83 KCAL/MOL
REMARK 923 INTER-LIGAND FREE ENERGY PREDICTED BY IDOCK:   -7.75 KCAL/MOL
REMARK 924 INTRA-LIGAND FREE ENERGY PREDICTED BY IDOCK:   -3.09 KCAL/MOL
REMARK 927      BINDING AFFINITY PREDICTED BY RF-SCORE:    0.00 PKD
ROOT
HETATM    1  C   UNL     1     -11.303  12.039  65.307  1.00  0.00    -0.366 C  
HETATM    2  C   UNL     1     -12.027  12.991  66.243  1.00  0.00    -0.477 C  
ENDROOT
BRANCH   2   3
HETATM    3  C   UNL     1     -11.512  12.852  67.671  1.00  0.00    -0.383 C  
BRANCH   3   4
HETATM    4  C   UNL     1     -12.094  13.940  68.564  1.00  0.00    -0.331 C  
BRANCH   4   5
HETATM    5  C   UNL     1     -11.520  15.302  68.197  1.00  0.00    -0.357 C  
BRANCH   5   6
HETATM    6  C   UNL     1     -10.016  15.324  68.425  1.00  0.00    -0.220 C  
BRANCH   6   7
HETATM    7  C   UNL     1      -9.286  15.541  67.109  1.00  0.00    -0.227 C  
BRANCH   7   8
HETATM    8  C   UNL     1      -7.821  15.857  67.362  1.00  0.00    -0.195 C  
BRANCH   8   9
HETATM    9  C   UNL     1      -7.135  14.654  67.987  1.00  0.00    -0.146 C  
BRANCH   9  10
HETATM   10  C   UNL     1      -7.611  13.369  67.332  1.00  0.00    -0.138 C  
BRANCH  10  11
HETATM   11  C   UNL     1      -7.758  12.275  68.378  1.00  0.00    -0.141 C  
BRANCH  11  12
HETATM   12  C   UNL     1      -8.526  11.097  67.797  1.00  0.00    -0.124 C  
BRANCH  12  13
HETATM   13  C   UNL     1      -7.623  10.224  66.941  1.00  0.00    -0.105 C  
BRANCH  13  14
HETATM   14  C   UNL     1      -8.375   9.605  65.758  1.00  0.00    -0.132 C  
BRANCH  14  15
HETATM   15  C   UNL     1      -9.477   8.612  66.157  1.00  0.00    -0.308 C  
BRANCH  15  16
HETATM   16  C   UNL     1      -8.960   7.637  67.210  1.00  0.00    -0.127 C  
BRANCH  16  17
HETATM   17  N   UNL     1      -9.083   6.164  66.844  1.00  0.00    -0.123 N  
HETATM   18  C   UNL     1      -8.053   5.781  65.772  1.00  0.00    -0.116 C  
HETATM   19  C   UNL     1     -10.469   5.799  66.335  1.00  0.00    -0.157 C  
BRANCH  17  20
HETATM   20  C   UNL     1      -8.738   5.317  68.108  1.00  0.00    -0.102 C  
BRANCH  20  21
HETATM   21  C   UNL     1      -7.827   6.009  69.169  1.00  0.00    -0.099 C  
BRANCH  21  22
HETATM   22  N   UNL     1      -8.489   5.980  70.470  1.00  0.00    -0.131 NA 
BRANCH  22  23
HETATM   23  C   UNL     1      -9.921   5.666  70.563  1.00  0.00    -0.205 C  
BRANCH  23  24
HETATM   24  C   UNL     1     -10.768   6.871  70.924  1.00  0.00    -0.258 A  
HETATM   25  C   UNL     1     -11.922   6.713  71.702  1.00  0.00    -0.395 A  
HETATM   26  C   UNL     1     -12.506   9.049  71.385  1.00  0.00    -0.317 A  
HETATM   27  C   UNL     1     -11.313   9.241  70.692  1.00  0.00    -0.330 A  
HETATM   28  C   UNL     1     -10.450   8.158  70.460  1.00  0.00    -0.222 A  
HETATM   29  C   UNL     1     -12.784   7.789  71.917  1.00  0.00    -0.328 A  
BRANCH  26  30
HETATM   30  O   UNL     1     -13.503   9.964  71.565  1.00  0.00    -0.361 OA 
HETATM   31  C   UNL     1     -13.152  11.317  71.814  1.00  0.00    -0.422 C  
ENDBRANCH  26  30
ENDBRANCH  23  24
ENDBRANCH  22  23
BRANCH  22  32
HETATM   32  C   UNL     1      -7.724   5.483  71.514  1.00  0.00    -0.106 A  
HETATM   33  N   UNL     1      -7.635   6.200  72.648  1.00  0.00    -0.100 NA 
HETATM   34  N   UNL     1      -7.245   4.239  71.398  1.00  0.00    -0.042 NA 
HETATM   35  C   UNL     1      -6.636   3.706  72.474  1.00  0.00    -0.021 A  
HETATM   36  C   UNL     1      -6.959   5.647  73.684  1.00  0.00    -0.085 A  
HETATM   37  C   UNL     1      -6.447   4.378  73.654  1.00  0.00    -0.051 A  
ENDBRANCH  22  32
ENDBRANCH  21  22
ENDBRANCH  20  21
ENDBRANCH  17  20
ENDBRANCH  16  17
ENDBRANCH  15  16
ENDBRANCH  14  15
ENDBRANCH  13  14
ENDBRANCH  12  13
ENDBRANCH  11  12
ENDBRANCH  10  11
ENDBRANCH   9  10
ENDBRANCH   8   9
ENDBRANCH   7   8
ENDBRANCH   6   7
ENDBRANCH   5   6
ENDBRANCH   4   5
ENDBRANCH   3   4
ENDBRANCH   2   3
TORSDOF 22
ENDMDL
MODEL      195
REMARK 921   NORMALIZED FREE ENERGY PREDICTED BY IDOCK:   -2.78 KCAL/MOL
REMARK 922        TOTAL FREE ENERGY PREDICTED BY IDOCK:  -10.80 KCAL/MOL
REMARK 923 INTER-LIGAND FREE ENERGY PREDICTED BY IDOCK:   -7.03 KCAL/MOL
REMARK 924 INTRA-LIGAND FREE ENERGY PREDICTED BY IDOCK:   -3.77 KCAL/MOL
REMARK 927      BINDING AFFINITY PREDICTED BY RF-SCORE:    0.00 PKD
ROOT
HETATM    1  C   UNL     1     -11.127  16.665  68.576  1.00  0.00    -0.301 C  
HETATM    2  C   UNL     1     -10.454  17.519  67.517  1.00  0.00    -0.355 C  
ENDROOT
BRANCH   2   3
HETATM    3  C   UNL     1      -8.954  17.249  67.468  1.00  0.00    -0.222 C  
BRANCH   3   4
HETATM    4  C   UNL     1      -8.619  16.253  66.364  1.00  0.00    -0.361 C  
BRANCH   4   5
HETATM    5  C   UNL     1      -8.141  14.934  66.957  1.00  0.00    -0.200 C  
BRANCH   5   6
HETATM    6  C   UNL     1      -9.299  13.953  67.075  1.00  0.00    -0.255 C  
BRANCH   6   7
HETATM    7  C   UNL     1      -9.396  13.423  68.497  1.00  0.00    -0.097 C  
BRANCH   7   8
HETATM    8  C   UNL     1      -9.380  11.903  68.496  1.00  0.00    -0.142 C  
BRANCH   8   9
HETATM    9  C   UNL     1      -7.948  11.402  68.566  1.00  0.00    -0.143 C  
BRANCH   9  10
HETATM   10  C   UNL     1      -7.838  10.233  69.530  1.00  0.00    -0.172 C  
BRANCH  10  11
HETATM   11  C   UNL     1      -9.225   9.797  69.977  1.00  0.00    -0.266 C  
BRANCH  11  12
HETATM   12  C   UNL     1      -9.138   9.065  71.309  1.00  0.00    -0.302 C  
BRANCH  12  13
HETATM   13  C   UNL     1      -9.352   7.572  71.126  1.00  0.00    -0.155 C  
BRANCH  13  14
HETATM   14  C   UNL     1     -10.660   7.264  70.389  1.00  0.00    -0.240 C  
BRANCH  14  15
HETATM   15  C   UNL     1     -11.110   5.798  70.480  1.00  0.00    -0.280 C  
BRANCH  15  16
HETATM   16  C   UNL     1     -10.202   5.021  71.429  1.00  0.00    -0.200 C  
BRANCH  16  17
HETATM   17  N   UNL     1      -9.267   4.024  70.759  1.00  0.00    -0.115 N  
HETATM   18  C   UNL     1      -9.631   2.585  71.153  1.00  0.00    -0.147 C  
HETATM   19  C   UNL     1      -7.806   4.265  71.107  1.00  0.00    -0.071 C  
BRANCH  17  20
HETATM   20  C   UNL     1      -9.472   4.123  69.216  1.00  0.00    -0.188 C  
BRANCH  20  21
HETATM   21  C   UNL     1      -8.174   4.271  68.361  1.00  0.00    -0.084 C  
BRANCH  21  22
HETATM   22  N   UNL     1      -8.364   5.325  67.370  1.00  0.00    -0.107 NA 
BRANCH  22  23
HETATM   23  C   UNL     1      -7.541   6.541  67.418  1.00  0.00    -0.100 C  
BRANCH  23  24
HETATM   24  C   UNL     1      -8.232   7.747  66.811  1.00  0.00    -0.120 A  
HETATM   25  C   UNL     1      -9.582   7.997  67.084  1.00  0.00    -0.227 A  
HETATM   26  C   UNL     1      -9.610   9.825  65.485  1.00  0.00    -0.282 A  
HETATM   27  C   UNL     1      -8.244   9.648  65.276  1.00  0.00    -0.131 A  
HETATM   28  C   UNL     1      -7.559   8.613  65.933  1.00  0.00    -0.089 A  
HETATM   29  C   UNL     1     -10.262   9.018  66.418  1.00  0.00    -0.297 A  
BRANCH  26  30
HETATM   30  O   UNL     1     -10.433  10.686  64.820  1.00  0.00    -0.325 OA 
HETATM   31  C   UNL     1      -9.861  11.802  64.153  1.00  0.00    -0.223 C  
ENDBRANCH  26  30
ENDBRANCH  23  24
ENDBRANCH  22  23
BRANCH  22  32
HETATM   32  C   UNL     1      -8.666   4.888  66.090  1.00  0.00    -0.117 A  
HETATM   33  N   UNL     1      -7.656   4.570  65.260  1.00  0.00    -0.080 NA 
HETATM   34  N   UNL     1      -9.950   4.652  65.799  1.00  0.00    -0.214 NA 
HETATM   35  C   UNL     1     -10.223   4.082  64.610  1.00  0.00    -0.214 A  
HETATM   36  C   UNL     1      -7.982   4.057  64.049  1.00  0.00    -0.089 A  
HETATM   37  C   UNL     1      -9.268   3.774  63.675  1.00  0.00    -0.119 A  
ENDBRANCH  22  32
ENDBRANCH  21  22
ENDBRANCH  20  21
ENDBRANCH  17  20
ENDBRANCH  16  17
ENDBRANCH  15  16
ENDBRANCH  14  15
ENDBRANCH  13  14
ENDBRANCH  12  13
ENDBRANCH  11  12
ENDBRANCH  10  11
ENDBRANCH   9  10
ENDBRANCH   8   9
ENDBRANCH   7   8
ENDBRANCH   6   7
ENDBRANCH   5   6
ENDBRANCH   4   5
ENDBRANCH   3   4
ENDBRANCH   2   3
TORSDOF 22
ENDMDL
MODEL      196
REMARK 921   NORMALIZED FREE ENERGY PREDICTED BY IDOCK:   -2.77 KCAL/MOL
REMARK 922        TOTAL FREE ENERGY PREDICTED BY IDOCK:  -10.78 KCAL/MOL
REMARK 923 INTER-LIGAND FREE ENERGY PREDICTED BY IDOCK:   -8.23 KCAL/MOL
REMARK 924 INTRA-LIGAND FREE ENERGY PREDICTED BY IDOCK:   -2.56 KCAL/MOL
REMARK 927      BINDING AFFINITY PREDICTED BY RF-SCORE:    0.00 PKD
ROOT
HETATM    1  C   UNL     1     -12.207   8.931  71.682  1.00  0.00    -0.409 C  
HETATM    2  C   UNL     1     -13.116   9.987  71.076  1.00  0.00    -0.435 C  
ENDROOT
BRANCH   2   3
HETATM    3  C   UNL     1     -13.138  11.247  71.935  1.00  0.00    -0.510 C  
BRANCH   3   4
HETATM    4  C   UNL     1     -12.856  12.482  71.089  1.00  0.00    -0.303 C  
BRANCH   4   5
HETATM    5  C   UNL     1     -11.795  12.183  70.037  1.00  0.00    -0.383 C  
BRANCH   5   6
HETATM    6  C   UNL     1     -11.784  13.267  68.969  1.00  0.00    -0.368 C  
BRANCH   6   7
HETATM    7  C   UNL     1     -11.887  12.646  67.586  1.00  0.00    -0.390 C  
BRANCH   7   8
HETATM    8  C   UNL     1     -11.460  11.188  67.627  1.00  0.00    -0.328 C  
BRANCH   8   9
HETATM    9  C   UNL     1     -10.111  11.026  66.948  1.00  0.00    -0.248 C  
BRANCH   9  10
HETATM   10  C   UNL     1     -10.126   9.832  66.010  1.00  0.00    -0.322 C  
BRANCH  10  11
HETATM   11  C   UNL     1      -8.718   9.281  65.846  1.00  0.00    -0.179 C  
BRANCH  11  12
HETATM   12  C   UNL     1      -7.702  10.280  66.381  1.00  0.00    -0.116 C  
BRANCH  12  13
HETATM   13  C   UNL     1      -6.346   9.625  66.583  1.00  0.00    -0.066 C  
BRANCH  13  14
HETATM   14  C   UNL     1      -5.658  10.112  67.864  1.00  0.00    -0.038 C  
BRANCH  14  15
HETATM   15  C   UNL     1      -6.623  10.570  68.968  1.00  0.00    -0.060 C  
BRANCH  15  16
HETATM   16  C   UNL     1      -6.578   9.605  70.148  1.00  0.00    -0.081 C  
BRANCH  16  17
HETATM   17  N   UNL     1      -7.892   8.903  70.461  1.00  0.00    -0.097 N  
HETATM   18  C   UNL     1      -9.084   9.835  70.200  1.00  0.00    -0.197 C  
HETATM   19  C   UNL     1      -7.968   8.412  71.899  1.00  0.00    -0.136 C  
BRANCH  17  20
HETATM   20  C   UNL     1      -8.051   7.702  69.478  1.00  0.00    -0.127 C  
BRANCH  20  21
HETATM   21  C   UNL     1      -8.317   6.311  70.134  1.00  0.00    -0.129 C  
BRANCH  21  22
HETATM   22  N   UNL     1      -9.721   6.217  70.521  1.00  0.00    -0.172 NA 
BRANCH  22  23
HETATM   23  C   UNL     1     -10.768   6.157  69.492  1.00  0.00    -0.320 C  
BRANCH  23  24
HETATM   24  C   UNL     1     -10.336   5.398  68.252  1.00  0.00    -0.213 A  
HETATM   25  C   UNL     1     -10.657   5.887  66.980  1.00  0.00    -0.376 A  
HETATM   26  C   UNL     1      -9.781   3.874  65.940  1.00  0.00    -0.161 A  
HETATM   27  C   UNL     1      -9.370   3.420  67.192  1.00  0.00    -0.224 A  
HETATM   28  C   UNL     1      -9.649   4.177  68.342  1.00  0.00    -0.190 A  
HETATM   29  C   UNL     1     -10.392   5.125  65.841  1.00  0.00    -0.165 A  
BRANCH  26  30
HETATM   30  O   UNL     1      -9.710   3.192  64.760  1.00  0.00    -0.156 OA 
HETATM   31  C   UNL     1     -10.773   3.327  63.828  1.00  0.00    -0.225 C  
ENDBRANCH  26  30
ENDBRANCH  23  24
ENDBRANCH  22  23
BRANCH  22  32
HETATM   32  C   UNL     1      -9.977   5.449  71.645  1.00  0.00    -0.186 A  
HETATM   33  N   UNL     1     -11.223   5.443  72.154  1.00  0.00    -0.181 NA 
HETATM   34  N   UNL     1      -9.011   4.627  72.071  1.00  0.00    -0.125 NA 
HETATM   35  C   UNL     1      -9.317   3.773  73.066  1.00  0.00    -0.106 A  
HETATM   36  C   UNL     1     -11.466   4.611  73.196  1.00  0.00    -0.224 A  
HETATM   37  C   UNL     1     -10.540   3.731  73.686  1.00  0.00    -0.285 A  
ENDBRANCH  22  32
ENDBRANCH  21  22
ENDBRANCH  20  21
ENDBRANCH  17  20
ENDBRANCH  16  17
ENDBRANCH  15  16
ENDBRANCH  14  15
ENDBRANCH  13  14
ENDBRANCH  12  13
ENDBRANCH  11  12
ENDBRANCH  10  11
ENDBRANCH   9  10
ENDBRANCH   8   9
ENDBRANCH   7   8
ENDBRANCH   6   7
ENDBRANCH   5   6
ENDBRANCH   4   5
ENDBRANCH   3   4
ENDBRANCH   2   3
TORSDOF 22
ENDMDL
MODEL      197
REMARK 921   NORMALIZED FREE ENERGY PREDICTED BY IDOCK:   -2.75 KCAL/MOL
REMARK 922        TOTAL FREE ENERGY PREDICTED BY IDOCK:  -10.74 KCAL/MOL
REMARK 923 INTER-LIGAND FREE ENERGY PREDICTED BY IDOCK:   -7.86 KCAL/MOL
REMARK 924 INTRA-LIGAND FREE ENERGY PREDICTED BY IDOCK:   -2.88 KCAL/MOL
REMARK 927      BINDING AFFINITY PREDICTED BY RF-SCORE:    0.00 PKD
ROOT
HETATM    1  C   UNL     1     -11.459  16.269  64.552  1.00  0.00    -0.171 C  
HETATM    2  C   UNL     1     -11.150  15.393  65.753  1.00  0.00    -0.260 C  
ENDROOT
BRANCH   2   3
HETATM    3  C   UNL     1     -11.790  14.017  65.606  1.00  0.00    -0.384 C  
BRANCH   3   4
HETATM    4  C   UNL     1     -12.216  13.770  64.165  1.00  0.00    -0.443 C  
BRANCH   4   5
HETATM    5  C   UNL     1     -11.765  12.392  63.699  1.00  0.00    -0.596 C  
BRANCH   5   6
HETATM    6  C   UNL     1     -10.844  11.757  64.730  1.00  0.00    -0.358 C  
BRANCH   6   7
HETATM    7  C   UNL     1     -10.149  10.540  64.140  1.00  0.00    -0.351 C  
BRANCH   7   8
HETATM    8  C   UNL     1      -9.600   9.655  65.247  1.00  0.00    -0.347 C  
BRANCH   8   9
HETATM    9  C   UNL     1     -10.306   9.968  66.555  1.00  0.00    -0.268 C  
BRANCH   9  10
HETATM   10  C   UNL     1      -9.316  10.494  67.581  1.00  0.00    -0.160 C  
BRANCH  10  11
HETATM   11  C   UNL     1     -10.062  11.128  68.745  1.00  0.00    -0.211 C  
BRANCH  11  12
HETATM   12  C   UNL     1     -11.554  11.167  68.450  1.00  0.00    -0.376 C  
BRANCH  12  13
HETATM   13  C   UNL     1     -12.358  10.650  69.631  1.00  0.00    -0.209 C  
BRANCH  13  14
HETATM   14  C   UNL     1     -11.559  10.705  70.938  1.00  0.00    -0.311 C  
BRANCH  14  15
HETATM   15  C   UNL     1     -11.816   9.526  71.888  1.00  0.00    -0.349 C  
BRANCH  15  16
HETATM   16  C   UNL     1     -12.330   8.318  71.111  1.00  0.00    -0.206 C  
BRANCH  16  17
HETATM   17  N   UNL     1     -11.391   7.120  71.080  1.00  0.00    -0.265 N  
HETATM   18  C   UNL     1     -11.455   6.411  69.720  1.00  0.00    -0.399 C  
HETATM   19  C   UNL     1     -11.699   6.104  72.170  1.00  0.00    -0.309 C  
BRANCH  17  20
HETATM   20  C   UNL     1      -9.929   7.642  71.235  1.00  0.00    -0.179 C  
BRANCH  20  21
HETATM   21  C   UNL     1      -9.017   7.508  69.975  1.00  0.00    -0.144 C  
BRANCH  21  22
HETATM   22  N   UNL     1      -7.661   7.165  70.391  1.00  0.00    -0.088 NA 
BRANCH  22  23
HETATM   23  C   UNL     1      -6.984   5.996  69.813  1.00  0.00    -0.067 C  
BRANCH  23  24
HETATM   24  C   UNL     1      -7.671   5.472  68.567  1.00  0.00    -0.085 A  
HETATM   25  C   UNL     1      -7.431   6.072  67.325  1.00  0.00    -0.081 A  
HETATM   26  C   UNL     1      -9.135   4.692  66.281  1.00  0.00    -0.122 A  
HETATM   27  C   UNL     1      -9.316   4.021  67.489  1.00  0.00    -0.219 A  
HETATM   28  C   UNL     1      -8.589   4.411  68.626  1.00  0.00    -0.108 A  
HETATM   29  C   UNL     1      -8.165   5.692  66.200  1.00  0.00    -0.110 A  
BRANCH  26  30
HETATM   30  O   UNL     1      -9.861   4.525  65.138  1.00  0.00    -0.177 OA 
HETATM   31  C   UNL     1      -9.289   3.789  64.066  1.00  0.00    -0.144 C  
ENDBRANCH  26  30
ENDBRANCH  23  24
ENDBRANCH  22  23
BRANCH  22  32
HETATM   32  C   UNL     1      -6.828   8.242  70.646  1.00  0.00    -0.038 A  
HETATM   33  N   UNL     1      -6.813   9.267  69.774  1.00  0.00    -0.050 NA 
HETATM   34  N   UNL     1      -6.201   8.280  71.827  1.00  0.00    -0.045 NA 
HETATM   35  C   UNL     1      -5.518   9.399  72.131  1.00  0.00    -0.063 A  
HETATM   36  C   UNL     1      -6.060  10.347  70.096  1.00  0.00    -0.097 A  
HETATM   37  C   UNL     1      -5.397  10.473  71.286  1.00  0.00    -0.070 A  
ENDBRANCH  22  32
ENDBRANCH  21  22
ENDBRANCH  20  21
ENDBRANCH  17  20
ENDBRANCH  16  17
ENDBRANCH  15  16
ENDBRANCH  14  15
ENDBRANCH  13  14
ENDBRANCH  12  13
ENDBRANCH  11  12
ENDBRANCH  10  11
ENDBRANCH   9  10
ENDBRANCH   8   9
ENDBRANCH   7   8
ENDBRANCH   6   7
ENDBRANCH   5   6
ENDBRANCH   4   5
ENDBRANCH   3   4
ENDBRANCH   2   3
TORSDOF 22
ENDMDL
MODEL      198
REMARK 921   NORMALIZED FREE ENERGY PREDICTED BY IDOCK:   -2.73 KCAL/MOL
REMARK 922        TOTAL FREE ENERGY PREDICTED BY IDOCK:  -10.69 KCAL/MOL
REMARK 923 INTER-LIGAND FREE ENERGY PREDICTED BY IDOCK:   -8.89 KCAL/MOL
REMARK 924 INTRA-LIGAND FREE ENERGY PREDICTED BY IDOCK:   -1.80 KCAL/MOL
REMARK 927      BINDING AFFINITY PREDICTED BY RF-SCORE:    0.00 PKD
ROOT
HETATM    1  C   UNL     1      -9.294  11.003  62.399  1.00  0.00    -0.226 C  
HETATM    2  C   UNL     1      -9.330  11.533  63.821  1.00  0.00    -0.075 C  
ENDROOT
BRANCH   2   3
HETATM    3  C   UNL     1     -10.659  11.205  64.493  1.00  0.00    -0.397 C  
BRANCH   3   4
HETATM    4  C   UNL     1     -11.592  12.409  64.461  1.00  0.00    -0.409 C  
BRANCH   4   5
HETATM    5  C   UNL     1     -10.967  13.593  65.188  1.00  0.00    -0.334 C  
BRANCH   5   6
HETATM    6  C   UNL     1     -10.636  13.221  66.625  1.00  0.00    -0.283 C  
BRANCH   6   7
HETATM    7  C   UNL     1     -10.204  14.453  67.403  1.00  0.00    -0.247 C  
BRANCH   7   8
HETATM    8  C   UNL     1     -11.381  15.395  67.600  1.00  0.00    -0.292 C  
BRANCH   8   9
HETATM    9  C   UNL     1     -11.104  16.330  68.765  1.00  0.00    -0.355 C  
BRANCH   9  10
HETATM   10  C   UNL     1     -10.591  15.550  69.963  1.00  0.00    -0.337 C  
BRANCH  10  11
HETATM   11  C   UNL     1     -11.469  15.822  71.175  1.00  0.00    -0.466 C  
BRANCH  11  12
HETATM   12  C   UNL     1     -12.793  15.083  71.036  1.00  0.00    -0.451 C  
BRANCH  12  13
HETATM   13  C   UNL     1     -12.582  13.579  71.041  1.00  0.00    -0.438 C  
BRANCH  13  14
HETATM   14  C   UNL     1     -13.516  12.870  72.028  1.00  0.00    -0.568 C  
BRANCH  14  15
HETATM   15  C   UNL     1     -13.355  11.343  72.069  1.00  0.00    -0.388 C  
BRANCH  15  16
HETATM   16  C   UNL     1     -12.093  10.920  71.323  1.00  0.00    -0.217 C  
BRANCH  16  17
HETATM   17  N   UNL     1     -11.933   9.420  71.119  1.00  0.00    -0.317 N  
HETATM   18  C   UNL     1     -11.457   9.112  69.693  1.00  0.00     0.199 C  
HETATM   19  C   UNL     1     -13.221   8.652  71.376  1.00  0.00    -0.236 C  
BRANCH  17  20
HETATM   20  C   UNL     1     -10.809   8.914  72.076  1.00  0.00    -0.334 C  
BRANCH  20  21
HETATM   21  C   UNL     1      -9.390   8.760  71.445  1.00  0.00    -0.258 C  
BRANCH  21  22
HETATM   22  N   UNL     1      -9.136   7.350  71.162  1.00  0.00    -0.147 NA 
BRANCH  22  23
HETATM   23  C   UNL     1      -7.908   6.947  70.464  1.00  0.00    -0.105 C  
BRANCH  23  24
HETATM   24  C   UNL     1      -8.096   6.811  68.966  1.00  0.00    -0.117 A  
HETATM   25  C   UNL     1      -9.258   6.221  68.453  1.00  0.00    -0.112 A  
HETATM   26  C   UNL     1      -8.355   6.303  66.200  1.00  0.00    -0.130 A  
HETATM   27  C   UNL     1      -7.236   6.977  66.685  1.00  0.00    -0.083 A  
HETATM   28  C   UNL     1      -7.106   7.227  68.061  1.00  0.00    -0.081 A  
HETATM   29  C   UNL     1      -9.376   5.961  67.087  1.00  0.00    -0.118 A  
BRANCH  26  30
HETATM   30  O   UNL     1      -8.555   5.866  64.922  1.00  0.00    -0.127 OA 
HETATM   31  C   UNL     1      -8.749   4.477  64.698  1.00  0.00    -0.147 C  
ENDBRANCH  26  30
ENDBRANCH  23  24
ENDBRANCH  22  23
BRANCH  22  32
HETATM   32  C   UNL     1      -9.557   6.464  72.141  1.00  0.00    -0.149 A  
HETATM   33  N   UNL     1      -8.845   6.372  73.279  1.00  0.00    -0.125 NA 
HETATM   34  N   UNL     1     -10.740   5.863  71.970  1.00  0.00    -0.224 NA 
HETATM   35  C   UNL     1     -11.214   5.125  72.991  1.00  0.00    -0.322 A  
HETATM   36  C   UNL     1      -9.331   5.568  74.255  1.00  0.00    -0.133 A  
HETATM   37  C   UNL     1     -10.537   4.926  74.167  1.00  0.00    -0.345 A  
ENDBRANCH  22  32
ENDBRANCH  21  22
ENDBRANCH  20  21
ENDBRANCH  17  20
ENDBRANCH  16  17
ENDBRANCH  15  16
ENDBRANCH  14  15
ENDBRANCH  13  14
ENDBRANCH  12  13
ENDBRANCH  11  12
ENDBRANCH  10  11
ENDBRANCH   9  10
ENDBRANCH   8   9
ENDBRANCH   7   8
ENDBRANCH   6   7
ENDBRANCH   5   6
ENDBRANCH   4   5
ENDBRANCH   3   4
ENDBRANCH   2   3
TORSDOF 22
ENDMDL
MODEL      199
REMARK 921   NORMALIZED FREE ENERGY PREDICTED BY IDOCK:   -2.69 KCAL/MOL
REMARK 922        TOTAL FREE ENERGY PREDICTED BY IDOCK:  -10.61 KCAL/MOL
REMARK 923 INTER-LIGAND FREE ENERGY PREDICTED BY IDOCK:   -8.76 KCAL/MOL
REMARK 924 INTRA-LIGAND FREE ENERGY PREDICTED BY IDOCK:   -1.85 KCAL/MOL
REMARK 927      BINDING AFFINITY PREDICTED BY RF-SCORE:    0.00 PKD
ROOT
HETATM    1  C   UNL     1      -5.334  19.310  68.159  1.00  0.00    -0.188 C  
HETATM    2  C   UNL     1      -6.731  19.719  67.724  1.00  0.00    -0.275 C  
ENDROOT
BRANCH   2   3
HETATM    3  C   UNL     1      -7.781  19.197  68.699  1.00  0.00    -0.387 C  
BRANCH   3   4
HETATM    4  C   UNL     1      -8.594  18.074  68.068  1.00  0.00    -0.267 C  
BRANCH   4   5
HETATM    5  C   UNL     1     -10.028  18.094  68.581  1.00  0.00    -0.409 C  
BRANCH   5   6
HETATM    6  C   UNL     1     -10.909  17.187  67.733  1.00  0.00    -0.270 C  
BRANCH   6   7
HETATM    7  C   UNL     1     -11.331  15.965  68.532  1.00  0.00    -0.374 C  
BRANCH   7   8
HETATM    8  C   UNL     1     -10.587  14.732  68.045  1.00  0.00    -0.244 C  
BRANCH   8   9
HETATM    9  C   UNL     1     -10.815  14.547  66.554  1.00  0.00    -0.314 C  
BRANCH   9  10
HETATM   10  C   UNL     1     -12.184  13.942  66.297  1.00  0.00    -0.498 C  
BRANCH  10  11
HETATM   11  C   UNL     1     -12.035  12.602  65.593  1.00  0.00    -0.507 C  
BRANCH  11  12
HETATM   12  C   UNL     1     -10.573  12.350  65.253  1.00  0.00    -0.322 C  
BRANCH  12  13
HETATM   13  C   UNL     1     -10.380  12.193  63.754  1.00  0.00    -0.465 C  
BRANCH  13  14
HETATM   14  C   UNL     1     -10.151  10.731  63.354  1.00  0.00    -0.345 C  
BRANCH  14  15
HETATM   15  C   UNL     1      -8.694  10.390  63.005  1.00  0.00    -0.206 C  
BRANCH  15  16
HETATM   16  C   UNL     1      -8.366   8.961  63.428  1.00  0.00    -0.176 C  
BRANCH  16  17
HETATM   17  N   UNL     1      -7.176   8.820  64.367  1.00  0.00    -0.092 N  
HETATM   18  C   UNL     1      -6.463  10.168  64.548  1.00  0.00    -0.124 C  
HETATM   19  C   UNL     1      -6.161   7.798  63.879  1.00  0.00    -0.057 C  
BRANCH  17  20
HETATM   20  C   UNL     1      -7.710   8.413  65.775  1.00  0.00    -0.094 C  
BRANCH  20  21
HETATM   21  C   UNL     1      -8.751   7.250  65.802  1.00  0.00    -0.109 C  
BRANCH  21  22
HETATM   22  N   UNL     1      -8.143   6.069  66.409  1.00  0.00    -0.108 NA 
BRANCH  22  23
HETATM   23  C   UNL     1      -7.911   6.021  67.859  1.00  0.00    -0.106 C  
BRANCH  23  24
HETATM   24  C   UNL     1      -9.091   6.530  68.664  1.00  0.00    -0.128 A  
HETATM   25  C   UNL     1      -8.987   7.723  69.389  1.00  0.00    -0.142 A  
HETATM   26  C   UNL     1     -11.174   7.359  70.382  1.00  0.00    -0.262 A  
HETATM   27  C   UNL     1     -11.329   6.221  69.594  1.00  0.00    -0.492 A  
HETATM   28  C   UNL     1     -10.293   5.807  68.742  1.00  0.00    -0.289 A  
HETATM   29  C   UNL     1     -10.014   8.123  70.246  1.00  0.00    -0.189 A  
BRANCH  26  30
HETATM   30  O   UNL     1     -12.024   7.804  71.352  1.00  0.00    -0.291 OA 
HETATM   31  C   UNL     1     -13.347   7.288  71.391  1.00  0.00    -0.331 C  
ENDBRANCH  26  30
ENDBRANCH  23  24
ENDBRANCH  22  23
BRANCH  22  32
HETATM   32  C   UNL     1      -8.511   4.857  65.847  1.00  0.00    -0.119 A  
HETATM   33  N   UNL     1      -9.721   4.755  65.267  1.00  0.00    -0.129 NA 
HETATM   34  N   UNL     1      -7.581   3.899  65.768  1.00  0.00    -0.084 NA 
HETATM   35  C   UNL     1      -7.896   2.783  65.084  1.00  0.00    -0.081 A  
HETATM   36  C   UNL     1     -10.016   3.588  64.644  1.00  0.00    -0.153 A  
HETATM   37  C   UNL     1      -9.121   2.562  64.507  1.00  0.00    -0.128 A  
ENDBRANCH  22  32
ENDBRANCH  21  22
ENDBRANCH  20  21
ENDBRANCH  17  20
ENDBRANCH  16  17
ENDBRANCH  15  16
ENDBRANCH  14  15
ENDBRANCH  13  14
ENDBRANCH  12  13
ENDBRANCH  11  12
ENDBRANCH  10  11
ENDBRANCH   9  10
ENDBRANCH   8   9
ENDBRANCH   7   8
ENDBRANCH   6   7
ENDBRANCH   5   6
ENDBRANCH   4   5
ENDBRANCH   3   4
ENDBRANCH   2   3
TORSDOF 22
ENDMDL
MODEL      200
REMARK 921   NORMALIZED FREE ENERGY PREDICTED BY IDOCK:   -2.68 KCAL/MOL
REMARK 922        TOTAL FREE ENERGY PREDICTED BY IDOCK:  -10.57 KCAL/MOL
REMARK 923 INTER-LIGAND FREE ENERGY PREDICTED BY IDOCK:   -8.48 KCAL/MOL
REMARK 924 INTRA-LIGAND FREE ENERGY PREDICTED BY IDOCK:   -2.09 KCAL/MOL
REMARK 927      BINDING AFFINITY PREDICTED BY RF-SCORE:    0.00 PKD
ROOT
HETATM    1  C   UNL     1     -11.858   5.890  72.321  1.00  0.00    -0.266 C  
HETATM    2  C   UNL     1     -12.621   6.720  71.304  1.00  0.00    -0.328 C  
ENDROOT
BRANCH   2   3
HETATM    3  C   UNL     1     -14.041   7.004  71.783  1.00  0.00    -0.376 C  
BRANCH   3   4
HETATM    4  C   UNL     1     -14.369   8.486  71.655  1.00  0.00    -0.497 C  
BRANCH   4   5
HETATM    5  C   UNL     1     -13.270   9.336  72.279  1.00  0.00    -0.535 C  
BRANCH   5   6
HETATM    6  C   UNL     1     -12.907  10.493  71.361  1.00  0.00    -0.551 C  
BRANCH   6   7
HETATM    7  C   UNL     1     -11.568  10.234  70.690  1.00  0.00    -0.435 C  
BRANCH   7   8
HETATM    8  C   UNL     1     -10.729   9.285  71.531  1.00  0.00    -0.425 C  
BRANCH   8   9
HETATM    9  C   UNL     1      -9.366   9.094  70.888  1.00  0.00    -0.335 C  
BRANCH   9  10
HETATM   10  C   UNL     1      -9.183   7.652  70.448  1.00  0.00    -0.156 C  
BRANCH  10  11
HETATM   11  C   UNL     1      -9.317   7.549  68.936  1.00  0.00    -0.142 C  
BRANCH  11  12
HETATM   12  C   UNL     1      -8.536   6.349  68.423  1.00  0.00    -0.116 C  
BRANCH  12  13
HETATM   13  C   UNL     1      -7.390   6.785  67.524  1.00  0.00    -0.096 C  
BRANCH  13  14
HETATM   14  C   UNL     1      -6.894   8.194  67.870  1.00  0.00    -0.073 C  
BRANCH  14  15
HETATM   15  C   UNL     1      -6.853   9.162  66.678  1.00  0.00    -0.080 C  
BRANCH  15  16
HETATM   16  C   UNL     1      -8.166   9.107  65.903  1.00  0.00    -0.113 C  
BRANCH  16  17
HETATM   17  N   UNL     1      -9.027  10.359  65.997  1.00  0.00    -0.154 N  
HETATM   18  C   UNL     1     -10.396  10.035  66.612  1.00  0.00    -0.213 C  
HETATM   19  C   UNL     1      -9.249  11.022  64.646  1.00  0.00    -0.168 C  
BRANCH  17  20
HETATM   20  C   UNL     1      -8.332  11.358  66.974  1.00  0.00    -0.161 C  
BRANCH  20  21
HETATM   21  C   UNL     1      -9.229  11.940  68.110  1.00  0.00    -0.187 C  
BRANCH  21  22
HETATM   22  N   UNL     1      -9.203  13.399  68.050  1.00  0.00    -0.203 NA 
BRANCH  22  23
HETATM   23  C   UNL     1      -8.958  14.080  66.772  1.00  0.00    -0.197 C  
BRANCH  23  24
HETATM   24  C   UNL     1      -8.485  15.511  66.945  1.00  0.00    -0.289 A  
HETATM   25  C   UNL     1      -9.416  16.550  67.069  1.00  0.00    -0.249 A  
HETATM   26  C   UNL     1      -7.639  18.205  67.000  1.00  0.00    -0.214 A  
HETATM   27  C   UNL     1      -6.699  17.177  66.974  1.00  0.00    -0.227 A  
HETATM   28  C   UNL     1      -7.119  15.837  66.944  1.00  0.00    -0.074 A  
HETATM   29  C   UNL     1      -8.994  17.880  67.083  1.00  0.00    -0.252 A  
BRANCH  26  30
HETATM   30  O   UNL     1      -7.391  19.542  66.890  1.00  0.00    -0.215 OA 
HETATM   31  C   UNL     1      -6.048  19.997  66.967  1.00  0.00    -0.178 C  
ENDBRANCH  26  30
ENDBRANCH  23  24
ENDBRANCH  22  23
BRANCH  22  32
HETATM   32  C   UNL     1     -10.106  14.043  68.880  1.00  0.00    -0.126 A  
HETATM   33  N   UNL     1     -11.403  13.693  68.819  1.00  0.00    -0.269 NA 
HETATM   34  N   UNL     1      -9.616  14.867  69.813  1.00  0.00     0.045 NA 
HETATM   35  C   UNL     1     -10.482  15.370  70.714  1.00  0.00     0.084 A  
HETATM   36  C   UNL     1     -12.248  14.272  69.706  1.00  0.00    -0.339 A  
HETATM   37  C   UNL     1     -11.829  15.116  70.699  1.00  0.00    -0.371 A  
ENDBRANCH  22  32
ENDBRANCH  21  22
ENDBRANCH  20  21
ENDBRANCH  17  20
ENDBRANCH  16  17
ENDBRANCH  15  16
ENDBRANCH  14  15
ENDBRANCH  13  14
ENDBRANCH  12  13
ENDBRANCH  11  12
ENDBRANCH  10  11
ENDBRANCH   9  10
ENDBRANCH   8   9
ENDBRANCH   7   8
ENDBRANCH   6   7
ENDBRANCH   5   6
ENDBRANCH   4   5
ENDBRANCH   3   4
ENDBRANCH   2   3
TORSDOF 22
ENDMDL
MODEL      201
REMARK 921   NORMALIZED FREE ENERGY PREDICTED BY IDOCK:   -2.66 KCAL/MOL
REMARK 922        TOTAL FREE ENERGY PREDICTED BY IDOCK:  -10.54 KCAL/MOL
REMARK 923 INTER-LIGAND FREE ENERGY PREDICTED BY IDOCK:   -8.06 KCAL/MOL
REMARK 924 INTRA-LIGAND FREE ENERGY PREDICTED BY IDOCK:   -2.47 KCAL/MOL
REMARK 927      BINDING AFFINITY PREDICTED BY RF-SCORE:    0.00 PKD
ROOT
HETATM    1  C   UNL     1      -5.609  12.181  69.038  1.00  0.00    -0.059 C  
HETATM    2  C   UNL     1      -6.172  13.537  69.429  1.00  0.00    -0.107 C  
ENDROOT
BRANCH   2   3
HETATM    3  C   UNL     1      -5.487  14.658  68.655  1.00  0.00    -0.094 C  
BRANCH   3   4
HETATM    4  C   UNL     1      -5.156  15.826  69.574  1.00  0.00    -0.103 C  
BRANCH   4   5
HETATM    5  C   UNL     1      -6.128  16.978  69.352  1.00  0.00    -0.225 C  
BRANCH   5   6
HETATM    6  C   UNL     1      -5.794  17.713  68.062  1.00  0.00    -0.154 C  
BRANCH   6   7
HETATM    7  C   UNL     1      -7.068  18.054  67.305  1.00  0.00    -0.204 C  
BRANCH   7   8
HETATM    8  C   UNL     1      -8.160  17.047  67.627  1.00  0.00    -0.190 C  
BRANCH   8   9
HETATM    9  C   UNL     1      -8.833  16.589  66.344  1.00  0.00    -0.345 C  
BRANCH   9  10
HETATM   10  C   UNL     1     -10.317  16.361  66.574  1.00  0.00    -0.306 C  
BRANCH  10  11
HETATM   11  C   UNL     1     -10.723  16.908  67.934  1.00  0.00    -0.344 C  
BRANCH  11  12
HETATM   12  C   UNL     1     -11.564  15.882  68.679  1.00  0.00    -0.383 C  
BRANCH  12  13
HETATM   13  C   UNL     1     -10.911  14.510  68.644  1.00  0.00    -0.259 C  
BRANCH  13  14
HETATM   14  C   UNL     1     -11.883  13.422  68.176  1.00  0.00    -0.396 C  
BRANCH  14  15
HETATM   15  C   UNL     1     -11.622  12.908  66.752  1.00  0.00    -0.416 C  
BRANCH  15  16
HETATM   16  C   UNL     1     -11.364  11.404  66.768  1.00  0.00    -0.179 C  
BRANCH  16  17
HETATM   17  N   UNL     1      -9.970  10.982  66.323  1.00  0.00    -0.217 N  
HETATM   18  C   UNL     1      -8.975  12.141  66.475  1.00  0.00    -0.179 C  
HETATM   19  C   UNL     1      -9.935  10.500  64.880  1.00  0.00    -0.334 C  
BRANCH  17  20
HETATM   20  C   UNL     1      -9.475   9.850  67.276  1.00  0.00    -0.153 C  
BRANCH  20  21
HETATM   21  C   UNL     1     -10.539   9.270  68.261  1.00  0.00    -0.189 C  
BRANCH  21  22
HETATM   22  N   UNL     1     -10.041   8.023  68.832  1.00  0.00    -0.196 NA 
BRANCH  22  23
HETATM   23  C   UNL     1      -8.775   7.447  68.360  1.00  0.00    -0.123 C  
BRANCH  23  24
HETATM   24  C   UNL     1      -8.973   6.305  67.382  1.00  0.00    -0.109 A  
HETATM   25  C   UNL     1      -7.948   5.952  66.495  1.00  0.00    -0.102 A  
HETATM   26  C   UNL     1      -9.407   4.366  65.375  1.00  0.00    -0.164 A  
HETATM   27  C   UNL     1     -10.403   4.638  66.311  1.00  0.00    -0.293 A  
HETATM   28  C   UNL     1     -10.188   5.605  67.308  1.00  0.00    -0.250 A  
HETATM   29  C   UNL     1      -8.171   5.002  65.497  1.00  0.00    -0.118 A  
BRANCH  26  30
HETATM   30  O   UNL     1      -9.517   3.566  64.275  1.00  0.00    -0.131 OA 
HETATM   31  C   UNL     1     -10.502   3.876  63.300  1.00  0.00    -0.181 C  
ENDBRANCH  26  30
ENDBRANCH  23  24
ENDBRANCH  22  23
BRANCH  22  32
HETATM   32  C   UNL     1     -10.277   7.856  70.188  1.00  0.00    -0.202 A  
HETATM   33  N   UNL     1      -9.493   7.009  70.880  1.00  0.00    -0.161 NA 
HETATM   34  N   UNL     1     -11.167   8.667  70.770  1.00  0.00    -0.257 NA 
HETATM   35  C   UNL     1     -11.279   8.606  72.110  1.00  0.00    -0.367 A  
HETATM   36  C   UNL     1      -9.685   6.937  72.220  1.00  0.00    -0.146 A  
HETATM   37  C   UNL     1     -10.566   7.737  72.896  1.00  0.00    -0.428 A  
ENDBRANCH  22  32
ENDBRANCH  21  22
ENDBRANCH  20  21
ENDBRANCH  17  20
ENDBRANCH  16  17
ENDBRANCH  15  16
ENDBRANCH  14  15
ENDBRANCH  13  14
ENDBRANCH  12  13
ENDBRANCH  11  12
ENDBRANCH  10  11
ENDBRANCH   9  10
ENDBRANCH   8   9
ENDBRANCH   7   8
ENDBRANCH   6   7
ENDBRANCH   5   6
ENDBRANCH   4   5
ENDBRANCH   3   4
ENDBRANCH   2   3
TORSDOF 22
ENDMDL
MODEL      202
REMARK 921   NORMALIZED FREE ENERGY PREDICTED BY IDOCK:   -2.66 KCAL/MOL
REMARK 922        TOTAL FREE ENERGY PREDICTED BY IDOCK:  -10.54 KCAL/MOL
REMARK 923 INTER-LIGAND FREE ENERGY PREDICTED BY IDOCK:   -7.92 KCAL/MOL
REMARK 924 INTRA-LIGAND FREE ENERGY PREDICTED BY IDOCK:   -2.62 KCAL/MOL
REMARK 927      BINDING AFFINITY PREDICTED BY RF-SCORE:    0.00 PKD
ROOT
HETATM    1  C   UNL     1     -10.315  15.427  65.773  1.00  0.00    -0.381 C  
HETATM    2  C   UNL     1     -11.026  14.609  66.836  1.00  0.00    -0.324 C  
ENDROOT
BRANCH   2   3
HETATM    3  C   UNL     1     -12.098  13.719  66.216  1.00  0.00    -0.484 C  
BRANCH   3   4
HETATM    4  C   UNL     1     -11.956  13.679  64.700  1.00  0.00    -0.441 C  
BRANCH   4   5
HETATM    5  C   UNL     1     -11.457  12.314  64.242  1.00  0.00    -0.429 C  
BRANCH   5   6
HETATM    6  C   UNL     1     -10.827  11.562  65.405  1.00  0.00    -0.318 C  
BRANCH   6   7
HETATM    7  C   UNL     1     -10.024  10.377  64.892  1.00  0.00    -0.409 C  
BRANCH   7   8
HETATM    8  C   UNL     1      -9.705   9.422  66.031  1.00  0.00    -0.345 C  
BRANCH   8   9
HETATM    9  C   UNL     1     -10.538   9.777  67.251  1.00  0.00    -0.320 C  
BRANCH   9  10
HETATM   10  C   UNL     1      -9.645   9.994  68.461  1.00  0.00    -0.157 C  
BRANCH  10  11
HETATM   11  C   UNL     1     -10.418  10.717  69.553  1.00  0.00    -0.236 C  
BRANCH  11  12
HETATM   12  C   UNL     1     -11.842  10.990  69.092  1.00  0.00    -0.407 C  
BRANCH  12  13
HETATM   13  C   UNL     1     -12.853  10.452  70.091  1.00  0.00    -0.086 C  
BRANCH  13  14
HETATM   14  C   UNL     1     -12.269  10.357  71.505  1.00  0.00    -0.418 C  
BRANCH  14  15
HETATM   15  C   UNL     1     -12.580   9.040  72.232  1.00  0.00    -0.445 C  
BRANCH  15  16
HETATM   16  C   UNL     1     -12.733   7.901  71.229  1.00  0.00    -0.229 C  
BRANCH  16  17
HETATM   17  N   UNL     1     -11.572   6.918  71.182  1.00  0.00    -0.300 N  
HETATM   18  C   UNL     1     -11.343   6.412  69.751  1.00  0.00    -0.427 C  
HETATM   19  C   UNL     1     -11.783   5.717  72.092  1.00  0.00    -0.163 C  
BRANCH  17  20
HETATM   20  C   UNL     1     -10.272   7.678  71.593  1.00  0.00    -0.185 C  
BRANCH  20  21
HETATM   21  C   UNL     1      -9.023   7.433  70.690  1.00  0.00    -0.155 C  
BRANCH  21  22
HETATM   22  N   UNL     1      -8.258   6.305  71.216  1.00  0.00    -0.121 NA 
BRANCH  22  23
HETATM   23  C   UNL     1      -7.740   5.276  70.306  1.00  0.00    -0.072 C  
BRANCH  23  24
HETATM   24  C   UNL     1      -7.544   5.782  68.890  1.00  0.00    -0.089 A  
HETATM   25  C   UNL     1      -8.176   5.140  67.818  1.00  0.00    -0.098 A  
HETATM   26  C   UNL     1      -6.986   6.535  66.226  1.00  0.00    -0.066 A  
HETATM   27  C   UNL     1      -6.423   7.244  67.285  1.00  0.00    -0.059 A  
HETATM   28  C   UNL     1      -6.699   6.869  68.610  1.00  0.00    -0.060 A  
HETATM   29  C   UNL     1      -7.888   5.508  66.503  1.00  0.00    -0.101 A  
BRANCH  26  30
HETATM   30  O   UNL     1      -6.705   6.688  64.899  1.00  0.00    -0.047 OA 
HETATM   31  C   UNL     1      -7.626   6.184  63.943  1.00  0.00    -0.089 C  
ENDBRANCH  26  30
ENDBRANCH  23  24
ENDBRANCH  22  23
BRANCH  22  32
HETATM   32  C   UNL     1      -7.424   6.600  72.283  1.00  0.00    -0.094 A  
HETATM   33  N   UNL     1      -6.289   7.283  72.046  1.00  0.00    -0.043 NA 
HETATM   34  N   UNL     1      -7.869   6.332  73.515  1.00  0.00    -0.098 NA 
HETATM   35  C   UNL     1      -7.124   6.760  74.551  1.00  0.00    -0.098 A  
HETATM   36  C   UNL     1      -5.540   7.639  73.118  1.00  0.00    -0.044 A  
HETATM   37  C   UNL     1      -5.927   7.413  74.411  1.00  0.00    -0.080 A  
ENDBRANCH  22  32
ENDBRANCH  21  22
ENDBRANCH  20  21
ENDBRANCH  17  20
ENDBRANCH  16  17
ENDBRANCH  15  16
ENDBRANCH  14  15
ENDBRANCH  13  14
ENDBRANCH  12  13
ENDBRANCH  11  12
ENDBRANCH  10  11
ENDBRANCH   9  10
ENDBRANCH   8   9
ENDBRANCH   7   8
ENDBRANCH   6   7
ENDBRANCH   5   6
ENDBRANCH   4   5
ENDBRANCH   3   4
ENDBRANCH   2   3
TORSDOF 22
ENDMDL
MODEL      203
REMARK 921   NORMALIZED FREE ENERGY PREDICTED BY IDOCK:   -2.64 KCAL/MOL
REMARK 922        TOTAL FREE ENERGY PREDICTED BY IDOCK:  -10.49 KCAL/MOL
REMARK 923 INTER-LIGAND FREE ENERGY PREDICTED BY IDOCK:   -8.51 KCAL/MOL
REMARK 924 INTRA-LIGAND FREE ENERGY PREDICTED BY IDOCK:   -1.98 KCAL/MOL
REMARK 927      BINDING AFFINITY PREDICTED BY RF-SCORE:    0.00 PKD
ROOT
HETATM    1  C   UNL     1      -7.243   1.753  68.318  1.00  0.00    -0.043 C  
HETATM    2  C   UNL     1      -7.610   2.773  67.255  1.00  0.00    -0.069 C  
ENDROOT
BRANCH   2   3
HETATM    3  C   UNL     1      -6.670   3.973  67.301  1.00  0.00    -0.047 C  
BRANCH   3   4
HETATM    4  C   UNL     1      -7.457   5.277  67.312  1.00  0.00    -0.084 C  
BRANCH   4   5
HETATM    5  C   UNL     1      -8.547   5.238  68.375  1.00  0.00    -0.095 C  
BRANCH   5   6
HETATM    6  C   UNL     1      -7.983   5.640  69.730  1.00  0.00    -0.098 C  
BRANCH   6   7
HETATM    7  C   UNL     1      -7.809   7.148  69.803  1.00  0.00    -0.118 C  
BRANCH   7   8
HETATM    8  C   UNL     1      -6.483   7.497  70.460  1.00  0.00    -0.038 C  
BRANCH   8   9
HETATM    9  C   UNL     1      -6.687   8.608  71.474  1.00  0.00    -0.078 C  
BRANCH   9  10
HETATM   10  C   UNL     1      -6.940   8.028  72.856  1.00  0.00    -0.109 C  
BRANCH  10  11
HETATM   11  C   UNL     1      -6.718   6.524  72.836  1.00  0.00    -0.068 C  
BRANCH  11  12
HETATM   12  C   UNL     1      -7.671   5.842  73.807  1.00  0.00    -0.096 C  
BRANCH  12  13
HETATM   13  C   UNL     1      -9.088   5.822  73.259  1.00  0.00    -0.133 C  
BRANCH  13  14
HETATM   14  C   UNL     1     -10.066   6.580  74.164  1.00  0.00    -0.374 C  
BRANCH  14  15
HETATM   15  C   UNL     1     -10.861   7.686  73.454  1.00  0.00    -0.274 C  
BRANCH  15  16
HETATM   16  C   UNL     1     -10.565   7.676  71.957  1.00  0.00    -0.220 C  
BRANCH  16  17
HETATM   17  N   UNL     1     -11.790   7.626  71.055  1.00  0.00    -0.295 N  
HETATM   18  C   UNL     1     -12.961   6.932  71.764  1.00  0.00    -0.277 C  
HETATM   19  C   UNL     1     -11.524   6.904  69.742  1.00  0.00    -0.196 C  
BRANCH  17  20
HETATM   20  C   UNL     1     -12.251   9.090  70.775  1.00  0.00    -0.076 C  
BRANCH  20  21
HETATM   21  C   UNL     1     -11.146  10.188  70.880  1.00  0.00    -0.253 C  
BRANCH  21  22
HETATM   22  N   UNL     1     -11.510  11.325  70.040  1.00  0.00    -0.293 NA 
BRANCH  22  23
HETATM   23  C   UNL     1     -11.872  11.116  68.632  1.00  0.00    -0.287 C  
BRANCH  23  24
HETATM   24  C   UNL     1     -11.249  12.141  67.703  1.00  0.00    -0.345 A  
HETATM   25  C   UNL     1      -9.922  12.547  67.892  1.00  0.00    -0.212 A  
HETATM   26  C   UNL     1     -10.151  14.236  66.161  1.00  0.00    -0.313 A  
HETATM   27  C   UNL     1     -11.439  13.777  65.898  1.00  0.00    -0.330 A  
HETATM   28  C   UNL     1     -11.987  12.736  66.667  1.00  0.00    -0.411 A  
HETATM   29  C   UNL     1      -9.388  13.591  67.135  1.00  0.00    -0.240 A  
BRANCH  26  30
HETATM   30  O   UNL     1      -9.540  15.320  65.601  1.00  0.00    -0.336 OA 
HETATM   31  C   UNL     1      -9.574  16.559  66.296  1.00  0.00    -0.306 C  
ENDBRANCH  26  30
ENDBRANCH  23  24
ENDBRANCH  22  23
BRANCH  22  32
HETATM   32  C   UNL     1     -12.229  12.325  70.675  1.00  0.00    -0.287 A  
HETATM   33  N   UNL     1     -13.039  11.991  71.695  1.00  0.00    -0.397 NA 
HETATM   34  N   UNL     1     -11.957  13.593  70.345  1.00  0.00    -0.322 NA 
HETATM   35  C   UNL     1     -12.544  14.563  71.071  1.00  0.00    -0.340 A  
HETATM   36  C   UNL     1     -13.657  12.999  72.357  1.00  0.00    -0.529 A  
HETATM   37  C   UNL     1     -13.427  14.322  72.092  1.00  0.00    -0.524 A  
ENDBRANCH  22  32
ENDBRANCH  21  22
ENDBRANCH  20  21
ENDBRANCH  17  20
ENDBRANCH  16  17
ENDBRANCH  15  16
ENDBRANCH  14  15
ENDBRANCH  13  14
ENDBRANCH  12  13
ENDBRANCH  11  12
ENDBRANCH  10  11
ENDBRANCH   9  10
ENDBRANCH   8   9
ENDBRANCH   7   8
ENDBRANCH   6   7
ENDBRANCH   5   6
ENDBRANCH   4   5
ENDBRANCH   3   4
ENDBRANCH   2   3
TORSDOF 22
ENDMDL
MODEL      204
REMARK 921   NORMALIZED FREE ENERGY PREDICTED BY IDOCK:   -2.63 KCAL/MOL
REMARK 922        TOTAL FREE ENERGY PREDICTED BY IDOCK:  -10.45 KCAL/MOL
REMARK 923 INTER-LIGAND FREE ENERGY PREDICTED BY IDOCK:   -8.04 KCAL/MOL
REMARK 924 INTRA-LIGAND FREE ENERGY PREDICTED BY IDOCK:   -2.41 KCAL/MOL
REMARK 927      BINDING AFFINITY PREDICTED BY RF-SCORE:    0.00 PKD
ROOT
HETATM    1  C   UNL     1     -10.590   3.219  63.761  1.00  0.00    -0.246 C  
HETATM    2  C   UNL     1      -9.557   4.330  63.697  1.00  0.00    -0.094 C  
ENDROOT
BRANCH   2   3
HETATM    3  C   UNL     1      -8.749   4.400  64.989  1.00  0.00    -0.133 C  
BRANCH   3   4
HETATM    4  C   UNL     1      -8.711   5.825  65.526  1.00  0.00    -0.141 C  
BRANCH   4   5
HETATM    5  C   UNL     1      -7.370   6.479  65.219  1.00  0.00    -0.077 C  
BRANCH   5   6
HETATM    6  C   UNL     1      -7.486   7.994  65.300  1.00  0.00    -0.080 C  
BRANCH   6   7
HETATM    7  C   UNL     1      -8.794   8.387  65.969  1.00  0.00    -0.202 C  
BRANCH   7   8
HETATM    8  C   UNL     1      -9.363   9.639  65.321  1.00  0.00    -0.322 C  
BRANCH   8   9
HETATM    9  C   UNL     1      -8.673   9.892  63.992  1.00  0.00    -0.229 C  
BRANCH   9  10
HETATM   10  C   UNL     1      -9.020  11.275  63.466  1.00  0.00    -0.000 C  
BRANCH  10  11
HETATM   11  C   UNL     1     -10.191  11.849  64.248  1.00  0.00    -0.346 C  
BRANCH  11  12
HETATM   12  C   UNL     1     -11.424  11.929  63.359  1.00  0.00    -0.470 C  
BRANCH  12  13
HETATM   13  C   UNL     1     -12.570  12.622  64.075  1.00  0.00    -0.429 C  
BRANCH  13  14
HETATM   14  C   UNL     1     -12.280  14.107  64.323  1.00  0.00    -0.449 C  
BRANCH  14  15
HETATM   15  C   UNL     1     -11.864  14.440  65.763  1.00  0.00    -0.365 C  
BRANCH  15  16
HETATM   16  C   UNL     1     -12.204  13.283  66.698  1.00  0.00    -0.298 C  
BRANCH  16  17
HETATM   17  N   UNL     1     -11.296  13.141  67.911  1.00  0.00    -0.269 N  
HETATM   18  C   UNL     1     -10.989  11.664  68.193  1.00  0.00    -0.226 C  
HETATM   19  C   UNL     1     -11.894  13.759  69.167  1.00  0.00    -0.354 C  
BRANCH  17  20
HETATM   20  C   UNL     1      -9.930  13.819  67.581  1.00  0.00    -0.238 C  
BRANCH  20  21
HETATM   21  C   UNL     1      -8.805  13.646  68.648  1.00  0.00    -0.023 C  
BRANCH  21  22
HETATM   22  N   UNL     1      -7.501  13.775  68.004  1.00  0.00    -0.122 NA 
BRANCH  22  23
HETATM   23  C   UNL     1      -6.631  14.915  68.321  1.00  0.00    -0.115 C  
BRANCH  23  24
HETATM   24  C   UNL     1      -7.253  16.252  67.965  1.00  0.00    -0.141 A  
HETATM   25  C   UNL     1      -7.233  17.305  68.887  1.00  0.00    -0.243 A  
HETATM   26  C   UNL     1      -8.635  18.657  67.435  1.00  0.00    -0.269 A  
HETATM   27  C   UNL     1      -8.582  17.654  66.470  1.00  0.00    -0.287 A  
HETATM   28  C   UNL     1      -7.897  16.457  66.734  1.00  0.00    -0.301 A  
HETATM   29  C   UNL     1      -7.928  18.488  68.626  1.00  0.00    -0.334 A  
BRANCH  26  30
HETATM   30  O   UNL     1      -9.371  19.805  67.382  1.00  0.00    -0.312 OA 
HETATM   31  C   UNL     1     -10.085  20.104  66.191  1.00  0.00    -0.415 C  
ENDBRANCH  26  30
ENDBRANCH  23  24
ENDBRANCH  22  23
BRANCH  22  32
HETATM   32  C   UNL     1      -6.828  12.585  67.782  1.00  0.00    -0.120 A  
HETATM   33  N   UNL     1      -5.955  12.516  66.760  1.00  0.00    -0.103 NA 
HETATM   34  N   UNL     1      -6.962  11.614  68.692  1.00  0.00    -0.081 NA 
HETATM   35  C   UNL     1      -6.188  10.521  68.553  1.00  0.00    -0.046 A  
HETATM   36  C   UNL     1      -5.243  11.372  66.624  1.00  0.00    -0.124 A  
HETATM   37  C   UNL     1      -5.311  10.335  67.515  1.00  0.00    -0.041 A  
ENDBRANCH  22  32
ENDBRANCH  21  22
ENDBRANCH  20  21
ENDBRANCH  17  20
ENDBRANCH  16  17
ENDBRANCH  15  16
ENDBRANCH  14  15
ENDBRANCH  13  14
ENDBRANCH  12  13
ENDBRANCH  11  12
ENDBRANCH  10  11
ENDBRANCH   9  10
ENDBRANCH   8   9
ENDBRANCH   7   8
ENDBRANCH   6   7
ENDBRANCH   5   6
ENDBRANCH   4   5
ENDBRANCH   3   4
ENDBRANCH   2   3
TORSDOF 22
ENDMDL
MODEL      205
REMARK 921   NORMALIZED FREE ENERGY PREDICTED BY IDOCK:   -2.62 KCAL/MOL
REMARK 922        TOTAL FREE ENERGY PREDICTED BY IDOCK:  -10.44 KCAL/MOL
REMARK 923 INTER-LIGAND FREE ENERGY PREDICTED BY IDOCK:   -8.38 KCAL/MOL
REMARK 924 INTRA-LIGAND FREE ENERGY PREDICTED BY IDOCK:   -2.06 KCAL/MOL
REMARK 927      BINDING AFFINITY PREDICTED BY RF-SCORE:    0.00 PKD
ROOT
HETATM    1  C   UNL     1      -9.439  14.384  66.372  1.00  0.00    -0.309 C  
HETATM    2  C   UNL     1      -8.151  14.599  67.147  1.00  0.00    -0.213 C  
ENDROOT
BRANCH   2   3
HETATM    3  C   UNL     1      -8.311  14.173  68.603  1.00  0.00    -0.123 C  
BRANCH   3   4
HETATM    4  C   UNL     1      -7.821  15.267  69.543  1.00  0.00    -0.204 C  
BRANCH   4   5
HETATM    5  C   UNL     1      -7.267  16.446  68.754  1.00  0.00    -0.191 C  
BRANCH   5   6
HETATM    6  C   UNL     1      -8.158  17.667  68.925  1.00  0.00    -0.162 C  
BRANCH   6   7
HETATM    7  C   UNL     1      -9.455  17.486  68.152  1.00  0.00    -0.291 C  
BRANCH   7   8
HETATM    8  C   UNL     1     -10.610  17.234  69.108  1.00  0.00    -0.209 C  
BRANCH   8   9
HETATM    9  C   UNL     1     -11.547  16.192  68.522  1.00  0.00    -0.265 C  
BRANCH   9  10
HETATM   10  C   UNL     1     -11.839  15.104  69.541  1.00  0.00    -0.358 C  
BRANCH  10  11
HETATM   11  C   UNL     1     -12.149  13.796  68.830  1.00  0.00    -0.348 C  
BRANCH  11  12
HETATM   12  C   UNL     1     -11.592  12.625  69.626  1.00  0.00    -0.321 C  
BRANCH  12  13
HETATM   13  C   UNL     1     -12.417  12.371  70.877  1.00  0.00    -0.367 C  
BRANCH  13  14
HETATM   14  C   UNL     1     -12.941  10.932  70.937  1.00  0.00    -0.347 C  
BRANCH  14  15
HETATM   15  C   UNL     1     -12.111   9.991  71.824  1.00  0.00    -0.323 C  
BRANCH  15  16
HETATM   16  C   UNL     1     -11.261   9.060  70.965  1.00  0.00    -0.295 C  
BRANCH  16  17
HETATM   17  N   UNL     1     -10.887   7.737  71.618  1.00  0.00    -0.226 N  
HETATM   18  C   UNL     1     -12.103   6.803  71.693  1.00  0.00    -0.359 C  
HETATM   19  C   UNL     1     -10.326   7.913  73.021  1.00  0.00    -0.334 C  
BRANCH  17  20
HETATM   20  C   UNL     1      -9.839   7.023  70.709  1.00  0.00    -0.185 C  
BRANCH  20  21
HETATM   21  C   UNL     1     -10.069   7.148  69.171  1.00  0.00    -0.183 C  
BRANCH  21  22
HETATM   22  N   UNL     1      -8.780   7.265  68.496  1.00  0.00    -0.124 NA 
BRANCH  22  23
HETATM   23  C   UNL     1      -8.716   7.325  67.029  1.00  0.00    -0.123 C  
BRANCH  23  24
HETATM   24  C   UNL     1      -9.296   8.607  66.464  1.00  0.00    -0.257 A  
HETATM   25  C   UNL     1     -10.382   9.227  67.094  1.00  0.00    -0.330 A  
HETATM   26  C   UNL     1     -10.563  10.839  65.286  1.00  0.00    -0.160 A  
HETATM   27  C   UNL     1      -9.425  10.291  64.698  1.00  0.00    -0.351 A  
HETATM   28  C   UNL     1      -8.796   9.179  65.282  1.00  0.00    -0.240 A  
HETATM   29  C   UNL     1     -11.012  10.323  66.502  1.00  0.00     0.026 A  
BRANCH  26  30
HETATM   30  O   UNL     1     -11.358  11.820  64.768  1.00  0.00    -0.308 OA 
HETATM   31  C   UNL     1     -11.335  12.050  63.367  1.00  0.00    -0.397 C  
ENDBRANCH  26  30
ENDBRANCH  23  24
ENDBRANCH  22  23
BRANCH  22  32
HETATM   32  C   UNL     1      -7.841   8.054  69.143  1.00  0.00    -0.108 A  
HETATM   33  N   UNL     1      -8.192   9.297  69.520  1.00  0.00    -0.113 NA 
HETATM   34  N   UNL     1      -6.687   7.481  69.502  1.00  0.00    -0.040 NA 
HETATM   35  C   UNL     1      -5.846   8.205  70.264  1.00  0.00    -0.028 A  
HETATM   36  C   UNL     1      -7.287  10.010  70.233  1.00  0.00    -0.141 A  
HETATM   37  C   UNL     1      -6.089   9.498  70.651  1.00  0.00    -0.071 A  
ENDBRANCH  22  32
ENDBRANCH  21  22
ENDBRANCH  20  21
ENDBRANCH  17  20
ENDBRANCH  16  17
ENDBRANCH  15  16
ENDBRANCH  14  15
ENDBRANCH  13  14
ENDBRANCH  12  13
ENDBRANCH  11  12
ENDBRANCH  10  11
ENDBRANCH   9  10
ENDBRANCH   8   9
ENDBRANCH   7   8
ENDBRANCH   6   7
ENDBRANCH   5   6
ENDBRANCH   4   5
ENDBRANCH   3   4
ENDBRANCH   2   3
TORSDOF 22
ENDMDL
MODEL      206
REMARK 921   NORMALIZED FREE ENERGY PREDICTED BY IDOCK:   -2.59 KCAL/MOL
REMARK 922        TOTAL FREE ENERGY PREDICTED BY IDOCK:  -10.38 KCAL/MOL
REMARK 923 INTER-LIGAND FREE ENERGY PREDICTED BY IDOCK:   -8.18 KCAL/MOL
REMARK 924 INTRA-LIGAND FREE ENERGY PREDICTED BY IDOCK:   -2.20 KCAL/MOL
REMARK 927      BINDING AFFINITY PREDICTED BY RF-SCORE:    0.00 PKD
ROOT
HETATM    1  C   UNL     1      -6.402   5.236  64.921  1.00  0.00    -0.034 C  
HETATM    2  C   UNL     1      -6.754   4.501  66.202  1.00  0.00    -0.053 C  
ENDROOT
BRANCH   2   3
HETATM    3  C   UNL     1      -8.261   4.506  66.440  1.00  0.00    -0.106 C  
BRANCH   3   4
HETATM    4  C   UNL     1      -8.673   5.715  67.269  1.00  0.00    -0.107 C  
BRANCH   4   5
HETATM    5  C   UNL     1      -8.023   5.670  68.646  1.00  0.00    -0.100 C  
BRANCH   5   6
HETATM    6  C   UNL     1      -7.492   7.044  69.029  1.00  0.00    -0.095 C  
BRANCH   6   7
HETATM    7  C   UNL     1      -6.299   7.409  68.161  1.00  0.00    -0.048 C  
BRANCH   7   8
HETATM    8  C   UNL     1      -6.651   8.561  67.234  1.00  0.00    -0.059 C  
BRANCH   8   9
HETATM    9  C   UNL     1      -7.712   9.436  67.879  1.00  0.00    -0.088 C  
BRANCH   9  10
HETATM   10  C   UNL     1      -8.925   9.558  66.972  1.00  0.00    -0.150 C  
BRANCH  10  11
HETATM   11  C   UNL     1     -10.197   9.321  67.771  1.00  0.00    -0.271 C  
BRANCH  11  12
HETATM   12  C   UNL     1     -11.069  10.569  67.745  1.00  0.00    -0.382 C  
BRANCH  12  13
HETATM   13  C   UNL     1     -11.026  11.293  69.080  1.00  0.00    -0.292 C  
BRANCH  13  14
HETATM   14  C   UNL     1     -12.118  10.802  70.036  1.00  0.00    -0.423 C  
BRANCH  14  15
HETATM   15  C   UNL     1     -12.325  11.690  71.273  1.00  0.00    -0.286 C  
BRANCH  15  16
HETATM   16  C   UNL     1     -13.394  12.743  71.001  1.00  0.00     0.322 C  
BRANCH  16  17
HETATM   17  N   UNL     1     -13.010  14.168  71.374  1.00  0.00    -0.334 N  
HETATM   18  C   UNL     1     -12.451  14.225  72.803  1.00  0.00    -0.127 C  
HETATM   19  C   UNL     1     -14.179  15.136  71.274  1.00  0.00    -0.429 C  
BRANCH  17  20
HETATM   20  C   UNL     1     -11.855  14.625  70.431  1.00  0.00    -0.303 C  
BRANCH  20  21
HETATM   21  C   UNL     1     -12.214  15.741  69.400  1.00  0.00    -0.127 C  
BRANCH  21  22
HETATM   22  N   UNL     1     -11.160  15.829  68.394  1.00  0.00    -0.323 NA 
BRANCH  22  23
HETATM   23  C   UNL     1      -9.750  15.726  68.791  1.00  0.00    -0.213 C  
BRANCH  23  24
HETATM   24  C   UNL     1      -8.900  16.862  68.257  1.00  0.00    -0.228 A  
HETATM   25  C   UNL     1      -7.766  16.590  67.483  1.00  0.00    -0.171 A  
HETATM   26  C   UNL     1      -7.154  18.941  67.478  1.00  0.00    -0.206 A  
HETATM   27  C   UNL     1      -8.328  19.236  68.166  1.00  0.00    -0.358 A  
HETATM   28  C   UNL     1      -9.196  18.203  68.556  1.00  0.00    -0.326 A  
HETATM   29  C   UNL     1      -6.899  17.619  67.110  1.00  0.00    -0.192 A  
BRANCH  26  30
HETATM   30  O   UNL     1      -6.153  19.812  67.159  1.00  0.00    -0.184 OA 
HETATM   31  C   UNL     1      -6.108  21.072  67.813  1.00  0.00    -0.353 C  
ENDBRANCH  26  30
ENDBRANCH  23  24
ENDBRANCH  22  23
BRANCH  22  32
HETATM   32  C   UNL     1     -11.457  15.247  67.172  1.00  0.00    -0.200 A  
HETATM   33  N   UNL     1     -10.941  15.790  66.055  1.00  0.00    -0.237 NA 
HETATM   34  N   UNL     1     -12.109  14.079  67.181  1.00  0.00    -0.429 NA 
HETATM   35  C   UNL     1     -12.258  13.442  66.003  1.00  0.00    -0.437 A  
HETATM   36  C   UNL     1     -11.170  15.146  64.885  1.00  0.00    -0.417 A  
HETATM   37  C   UNL     1     -11.818  13.943  64.805  1.00  0.00    -0.414 A  
ENDBRANCH  22  32
ENDBRANCH  21  22
ENDBRANCH  20  21
ENDBRANCH  17  20
ENDBRANCH  16  17
ENDBRANCH  15  16
ENDBRANCH  14  15
ENDBRANCH  13  14
ENDBRANCH  12  13
ENDBRANCH  11  12
ENDBRANCH  10  11
ENDBRANCH   9  10
ENDBRANCH   8   9
ENDBRANCH   7   8
ENDBRANCH   6   7
ENDBRANCH   5   6
ENDBRANCH   4   5
ENDBRANCH   3   4
ENDBRANCH   2   3
TORSDOF 22
ENDMDL
MODEL      207
REMARK 921   NORMALIZED FREE ENERGY PREDICTED BY IDOCK:   -2.59 KCAL/MOL
REMARK 922        TOTAL FREE ENERGY PREDICTED BY IDOCK:  -10.38 KCAL/MOL
REMARK 923 INTER-LIGAND FREE ENERGY PREDICTED BY IDOCK:   -7.65 KCAL/MOL
REMARK 924 INTRA-LIGAND FREE ENERGY PREDICTED BY IDOCK:   -2.73 KCAL/MOL
REMARK 927      BINDING AFFINITY PREDICTED BY RF-SCORE:    0.00 PKD
ROOT
HETATM    1  C   UNL     1     -10.415   2.269  73.381  1.00  0.00    -0.222 C  
HETATM    2  C   UNL     1      -9.194   2.615  74.215  1.00  0.00    -0.097 C  
ENDROOT
BRANCH   2   3
HETATM    3  C   UNL     1      -8.022   3.019  73.327  1.00  0.00    -0.064 C  
BRANCH   3   4
HETATM    4  C   UNL     1      -7.456   4.366  73.758  1.00  0.00    -0.077 C  
BRANCH   4   5
HETATM    5  C   UNL     1      -8.048   5.491  72.918  1.00  0.00    -0.108 C  
BRANCH   5   6
HETATM    6  C   UNL     1      -9.099   6.251  73.713  1.00  0.00    -0.136 C  
BRANCH   6   7
HETATM    7  C   UNL     1     -10.418   6.271  72.958  1.00  0.00    -0.249 C  
BRANCH   7   8
HETATM    8  C   UNL     1     -10.236   5.704  71.560  1.00  0.00    -0.263 C  
BRANCH   8   9
HETATM    9  C   UNL     1     -10.871   6.633  70.540  1.00  0.00    -0.310 C  
BRANCH   9  10
HETATM   10  C   UNL     1     -10.553   6.171  69.128  1.00  0.00    -0.345 C  
BRANCH  10  11
HETATM   11  C   UNL     1      -9.577   7.136  68.473  1.00  0.00    -0.139 C  
BRANCH  11  12
HETATM   12  C   UNL     1      -8.159   6.594  68.576  1.00  0.00    -0.119 C  
BRANCH  12  13
HETATM   13  C   UNL     1      -7.170   7.704  68.889  1.00  0.00    -0.081 C  
BRANCH  13  14
HETATM   14  C   UNL     1      -7.406   8.310  70.277  1.00  0.00    -0.055 C  
BRANCH  14  15
HETATM   15  C   UNL     1      -7.361   9.845  70.315  1.00  0.00    -0.166 C  
BRANCH  15  16
HETATM   16  C   UNL     1      -6.074  10.356  69.673  1.00  0.00    -0.052 C  
BRANCH  16  17
HETATM   17  N   UNL     1      -6.268  11.342  68.530  1.00  0.00    -0.046 N  
HETATM   18  C   UNL     1      -5.880  10.704  67.188  1.00  0.00    -0.048 C  
HETATM   19  C   UNL     1      -5.459  12.617  68.711  1.00  0.00    -0.062 C  
BRANCH  17  20
HETATM   20  C   UNL     1      -7.787  11.683  68.431  1.00  0.00    -0.137 C  
BRANCH  20  21
HETATM   21  C   UNL     1      -8.197  12.652  67.278  1.00  0.00    -0.184 C  
BRANCH  21  22
HETATM   22  N   UNL     1      -9.475  12.224  66.716  1.00  0.00    -0.216 NA 
BRANCH  22  23
HETATM   23  C   UNL     1     -10.706  12.957  67.039  1.00  0.00    -0.257 C  
BRANCH  23  24
HETATM   24  C   UNL     1     -10.486  14.451  67.181  1.00  0.00    -0.263 A  
HETATM   25  C   UNL     1     -10.447  15.039  68.451  1.00  0.00    -0.238 A  
HETATM   26  C   UNL     1     -10.347  17.257  67.466  1.00  0.00    -0.346 A  
HETATM   27  C   UNL     1     -10.289  16.680  66.199  1.00  0.00    -0.340 A  
HETATM   28  C   UNL     1     -10.361  15.284  66.057  1.00  0.00    -0.327 A  
HETATM   29  C   UNL     1     -10.389  16.427  68.587  1.00  0.00    -0.273 A  
BRANCH  26  30
HETATM   30  O   UNL     1     -10.430  18.588  67.753  1.00  0.00    -0.389 OA 
HETATM   31  C   UNL     1     -10.386  19.523  66.685  1.00  0.00    -0.465 C  
ENDBRANCH  26  30
ENDBRANCH  23  24
ENDBRANCH  22  23
BRANCH  22  32
HETATM   32  C   UNL     1      -9.420  11.739  65.419  1.00  0.00    -0.140 A  
HETATM   33  N   UNL     1      -8.606  10.701  65.152  1.00  0.00    -0.182 NA 
HETATM   34  N   UNL     1     -10.298  12.223  64.534  1.00  0.00    -0.298 NA 
HETATM   35  C   UNL     1     -10.343  11.640  63.322  1.00  0.00    -0.398 A  
HETATM   36  C   UNL     1      -8.642  10.188  63.899  1.00  0.00    -0.193 A  
HETATM   37  C   UNL     1      -9.516  10.616  62.937  1.00  0.00    -0.367 A  
ENDBRANCH  22  32
ENDBRANCH  21  22
ENDBRANCH  20  21
ENDBRANCH  17  20
ENDBRANCH  16  17
ENDBRANCH  15  16
ENDBRANCH  14  15
ENDBRANCH  13  14
ENDBRANCH  12  13
ENDBRANCH  11  12
ENDBRANCH  10  11
ENDBRANCH   9  10
ENDBRANCH   8   9
ENDBRANCH   7   8
ENDBRANCH   6   7
ENDBRANCH   5   6
ENDBRANCH   4   5
ENDBRANCH   3   4
ENDBRANCH   2   3
TORSDOF 22
ENDMDL
MODEL      208
REMARK 921   NORMALIZED FREE ENERGY PREDICTED BY IDOCK:   -2.58 KCAL/MOL
REMARK 922        TOTAL FREE ENERGY PREDICTED BY IDOCK:  -10.36 KCAL/MOL
REMARK 923 INTER-LIGAND FREE ENERGY PREDICTED BY IDOCK:   -7.22 KCAL/MOL
REMARK 924 INTRA-LIGAND FREE ENERGY PREDICTED BY IDOCK:   -3.13 KCAL/MOL
REMARK 927      BINDING AFFINITY PREDICTED BY RF-SCORE:    0.00 PKD
ROOT
HETATM    1  C   UNL     1      -6.206  19.582  70.232  1.00  0.00    -0.227 C  
HETATM    2  C   UNL     1      -5.714  20.034  68.868  1.00  0.00    -0.276 C  
ENDROOT
BRANCH   2   3
HETATM    3  C   UNL     1      -5.456  18.839  67.956  1.00  0.00    -0.174 C  
BRANCH   3   4
HETATM    4  C   UNL     1      -5.871  19.152  66.524  1.00  0.00    -0.174 C  
BRANCH   4   5
HETATM    5  C   UNL     1      -7.330  18.779  66.294  1.00  0.00    -0.282 C  
BRANCH   5   6
HETATM    6  C   UNL     1      -8.119  19.988  65.815  1.00  0.00    -0.130 C  
BRANCH   6   7
HETATM    7  C   UNL     1      -9.175  20.369  66.841  1.00  0.00    -0.450 C  
BRANCH   7   8
HETATM    8  C   UNL     1      -9.245  19.322  67.941  1.00  0.00    -0.372 C  
BRANCH   8   9
HETATM    9  C   UNL     1     -10.571  18.584  67.865  1.00  0.00    -0.385 C  
BRANCH   9  10
HETATM   10  C   UNL     1     -10.454  17.214  68.511  1.00  0.00    -0.377 C  
BRANCH  10  11
HETATM   11  C   UNL     1     -10.204  16.157  67.446  1.00  0.00    -0.272 C  
BRANCH  11  12
HETATM   12  C   UNL     1      -8.778  15.637  67.551  1.00  0.00    -0.189 C  
BRANCH  12  13
HETATM   13  C   UNL     1      -8.071  16.222  68.762  1.00  0.00    -0.227 C  
BRANCH  13  14
HETATM   14  C   UNL     1      -6.630  15.713  68.889  1.00  0.00    -0.116 C  
BRANCH  14  15
HETATM   15  C   UNL     1      -6.293  14.530  67.968  1.00  0.00    -0.162 C  
BRANCH  15  16
HETATM   16  C   UNL     1      -5.388  13.535  68.688  1.00  0.00    -0.077 C  
BRANCH  16  17
HETATM   17  N   UNL     1      -5.930  12.116  68.781  1.00  0.00    -0.055 N  
HETATM   18  C   UNL     1      -5.889  11.609  70.229  1.00  0.00    -0.161 C  
HETATM   19  C   UNL     1      -5.163  11.137  67.904  1.00  0.00    -0.039 C  
BRANCH  17  20
HETATM   20  C   UNL     1      -7.434  12.139  68.366  1.00  0.00    -0.114 C  
BRANCH  20  21
HETATM   21  C   UNL     1      -7.926  10.931  67.509  1.00  0.00    -0.115 C  
BRANCH  21  22
HETATM   22  N   UNL     1      -9.331  10.666  67.806  1.00  0.00    -0.146 NA 
BRANCH  22  23
HETATM   23  C   UNL     1      -9.844  10.847  69.170  1.00  0.00    -0.145 C  
BRANCH  23  24
HETATM   24  C   UNL     1      -9.611   9.638  70.055  1.00  0.00    -0.281 A  
HETATM   25  C   UNL     1      -8.417   9.511  70.774  1.00  0.00    -0.085 A  
HETATM   26  C   UNL     1      -9.039   7.276  71.495  1.00  0.00    -0.140 A  
HETATM   27  C   UNL     1     -10.271   7.428  70.863  1.00  0.00    -0.195 A  
HETATM   28  C   UNL     1     -10.555   8.601  70.144  1.00  0.00    -0.235 A  
HETATM   29  C   UNL     1      -8.133   8.337  71.475  1.00  0.00    -0.158 A  
BRANCH  26  30
HETATM   30  O   UNL     1      -8.567   6.150  72.105  1.00  0.00    -0.127 OA 
HETATM   31  C   UNL     1      -7.203   6.108  72.499  1.00  0.00    -0.085 C  
ENDBRANCH  26  30
ENDBRANCH  23  24
ENDBRANCH  22  23
BRANCH  22  32
HETATM   32  C   UNL     1     -10.224  11.017  66.806  1.00  0.00    -0.229 A  
HETATM   33  N   UNL     1     -10.956  12.135  66.956  1.00  0.00    -0.257 NA 
HETATM   34  N   UNL     1     -10.196  10.311  65.670  1.00  0.00    -0.261 NA 
HETATM   35  C   UNL     1     -10.955  10.749  64.648  1.00  0.00     0.203 A  
HETATM   36  C   UNL     1     -11.752  12.503  65.923  1.00  0.00    -0.426 A  
HETATM   37  C   UNL     1     -11.776  11.845  64.723  1.00  0.00    -0.282 A  
ENDBRANCH  22  32
ENDBRANCH  21  22
ENDBRANCH  20  21
ENDBRANCH  17  20
ENDBRANCH  16  17
ENDBRANCH  15  16
ENDBRANCH  14  15
ENDBRANCH  13  14
ENDBRANCH  12  13
ENDBRANCH  11  12
ENDBRANCH  10  11
ENDBRANCH   9  10
ENDBRANCH   8   9
ENDBRANCH   7   8
ENDBRANCH   6   7
ENDBRANCH   5   6
ENDBRANCH   4   5
ENDBRANCH   3   4
ENDBRANCH   2   3
TORSDOF 22
ENDMDL
MODEL      209
REMARK 921   NORMALIZED FREE ENERGY PREDICTED BY IDOCK:   -2.58 KCAL/MOL
REMARK 922        TOTAL FREE ENERGY PREDICTED BY IDOCK:  -10.35 KCAL/MOL
REMARK 923 INTER-LIGAND FREE ENERGY PREDICTED BY IDOCK:   -8.15 KCAL/MOL
REMARK 924 INTRA-LIGAND FREE ENERGY PREDICTED BY IDOCK:   -2.20 KCAL/MOL
REMARK 927      BINDING AFFINITY PREDICTED BY RF-SCORE:    0.00 PKD
ROOT
HETATM    1  C   UNL     1     -10.640  19.291  65.837  1.00  0.00    -0.521 C  
HETATM    2  C   UNL     1     -10.028  20.372  66.709  1.00  0.00    -0.525 C  
ENDROOT
BRANCH   2   3
HETATM    3  C   UNL     1     -10.413  20.178  68.172  1.00  0.00    -0.375 C  
BRANCH   3   4
HETATM    4  C   UNL     1      -9.911  18.836  68.690  1.00  0.00    -0.444 C  
BRANCH   4   5
HETATM    5  C   UNL     1      -8.597  19.007  69.440  1.00  0.00     0.190 C  
BRANCH   5   6
HETATM    6  C   UNL     1      -7.672  19.950  68.685  1.00  0.00    -0.236 C  
BRANCH   6   7
HETATM    7  C   UNL     1      -6.232  19.474  68.791  1.00  0.00    -0.285 C  
BRANCH   7   8
HETATM    8  C   UNL     1      -5.526  19.619  67.453  1.00  0.00    -0.167 C  
BRANCH   8   9
HETATM    9  C   UNL     1      -6.523  19.432  66.322  1.00  0.00    -0.203 C  
BRANCH   9  10
HETATM   10  C   UNL     1      -6.368  18.055  65.698  1.00  0.00    -0.256 C  
BRANCH  10  11
HETATM   11  C   UNL     1      -6.071  17.026  66.778  1.00  0.00    -0.239 C  
BRANCH  11  12
HETATM   12  C   UNL     1      -7.137  15.940  66.772  1.00  0.00    -0.015 C  
BRANCH  12  13
HETATM   13  C   UNL     1      -8.531  16.544  66.749  1.00  0.00    -0.273 C  
BRANCH  13  14
HETATM   14  C   UNL     1      -9.309  16.146  65.489  1.00  0.00     0.099 C  
BRANCH  14  15
HETATM   15  C   UNL     1     -10.548  15.276  65.757  1.00  0.00    -0.359 C  
BRANCH  15  16
HETATM   16  C   UNL     1     -10.439  13.950  65.010  1.00  0.00    -0.410 C  
BRANCH  16  17
HETATM   17  N   UNL     1     -11.765  13.260  64.720  1.00  0.00    -0.340 N  
HETATM   18  C   UNL     1     -11.941  13.029  63.213  1.00  0.00    -0.421 C  
HETATM   19  C   UNL     1     -12.961  14.049  65.231  1.00  0.00    -0.278 C  
BRANCH  17  20
HETATM   20  C   UNL     1     -11.735  11.848  65.382  1.00  0.00    -0.162 C  
BRANCH  20  21
HETATM   21  C   UNL     1     -10.320  11.256  65.668  1.00  0.00    -0.256 C  
BRANCH  21  22
HETATM   22  N   UNL     1     -10.308  10.647  66.995  1.00  0.00    -0.220 NA 
BRANCH  22  23
HETATM   23  C   UNL     1      -9.125   9.910  67.459  1.00  0.00    -0.134 C  
BRANCH  23  24
HETATM   24  C   UNL     1      -9.445   8.493  67.894  1.00  0.00    -0.157 A  
HETATM   25  C   UNL     1      -9.274   8.111  69.230  1.00  0.00    -0.151 A  
HETATM   26  C   UNL     1      -9.774   5.799  68.676  1.00  0.00    -0.131 A  
HETATM   27  C   UNL     1     -10.040   6.183  67.364  1.00  0.00    -0.190 A  
HETATM   28  C   UNL     1      -9.874   7.522  66.974  1.00  0.00    -0.280 A  
HETATM   29  C   UNL     1      -9.426   6.776  69.610  1.00  0.00    -0.146 A  
BRANCH  26  30
HETATM   30  O   UNL     1      -9.753   4.526  69.167  1.00  0.00    -0.172 OA 
HETATM   31  C   UNL     1      -9.207   4.300  70.459  1.00  0.00    -0.122 C  
ENDBRANCH  26  30
ENDBRANCH  23  24
ENDBRANCH  22  23
BRANCH  22  32
HETATM   32  C   UNL     1     -10.958  11.368  67.984  1.00  0.00    -0.237 A  
HETATM   33  N   UNL     1     -12.077  10.856  68.527  1.00  0.00    -0.519 NA 
HETATM   34  N   UNL     1     -10.351  12.461  68.460  1.00  0.00    -0.231 NA 
HETATM   35  C   UNL     1     -10.910  13.068  69.523  1.00  0.00     0.197 A  
HETATM   36  C   UNL     1     -12.639  11.537  69.555  1.00  0.00     0.184 A  
HETATM   37  C   UNL     1     -12.079  12.655  70.110  1.00  0.00    -0.368 A  
ENDBRANCH  22  32
ENDBRANCH  21  22
ENDBRANCH  20  21
ENDBRANCH  17  20
ENDBRANCH  16  17
ENDBRANCH  15  16
ENDBRANCH  14  15
ENDBRANCH  13  14
ENDBRANCH  12  13
ENDBRANCH  11  12
ENDBRANCH  10  11
ENDBRANCH   9  10
ENDBRANCH   8   9
ENDBRANCH   7   8
ENDBRANCH   6   7
ENDBRANCH   5   6
ENDBRANCH   4   5
ENDBRANCH   3   4
ENDBRANCH   2   3
TORSDOF 22
ENDMDL
MODEL      210
REMARK 921   NORMALIZED FREE ENERGY PREDICTED BY IDOCK:   -2.58 KCAL/MOL
REMARK 922        TOTAL FREE ENERGY PREDICTED BY IDOCK:  -10.35 KCAL/MOL
REMARK 923 INTER-LIGAND FREE ENERGY PREDICTED BY IDOCK:   -6.25 KCAL/MOL
REMARK 924 INTRA-LIGAND FREE ENERGY PREDICTED BY IDOCK:   -4.10 KCAL/MOL
REMARK 927      BINDING AFFINITY PREDICTED BY RF-SCORE:    0.00 PKD
ROOT
HETATM    1  C   UNL     1      -7.255   2.421  65.399  1.00  0.00    -0.058 C  
HETATM    2  C   UNL     1      -7.485   3.768  64.739  1.00  0.00    -0.073 C  
ENDROOT
BRANCH   2   3
HETATM    3  C   UNL     1      -6.966   4.903  65.615  1.00  0.00    -0.063 C  
BRANCH   3   4
HETATM    4  C   UNL     1      -7.709   6.199  65.318  1.00  0.00    -0.095 C  
BRANCH   4   5
HETATM    5  C   UNL     1      -8.901   6.363  66.253  1.00  0.00    -0.152 C  
BRANCH   5   6
HETATM    6  C   UNL     1      -8.574   5.811  67.633  1.00  0.00    -0.101 C  
BRANCH   6   7
HETATM    7  C   UNL     1      -8.092   6.928  68.546  1.00  0.00    -0.120 C  
BRANCH   7   8
HETATM    8  C   UNL     1      -6.734   6.581  69.134  1.00  0.00    -0.049 C  
BRANCH   8   9
HETATM    9  C   UNL     1      -6.059   7.841  69.649  1.00  0.00    -0.030 C  
BRANCH   9  10
HETATM   10  C   UNL     1      -5.734   7.705  71.127  1.00  0.00    -0.035 C  
BRANCH  10  11
HETATM   11  C   UNL     1      -5.675   6.235  71.512  1.00  0.00    -0.027 C  
BRANCH  11  12
HETATM   12  C   UNL     1      -6.485   5.994  72.778  1.00  0.00    -0.063 C  
BRANCH  12  13
HETATM   13  C   UNL     1      -7.967   6.217  72.529  1.00  0.00    -0.104 C  
BRANCH  13  14
HETATM   14  C   UNL     1      -8.597   7.129  73.587  1.00  0.00    -0.176 C  
BRANCH  14  15
HETATM   15  C   UNL     1      -9.571   8.176  73.024  1.00  0.00    -0.336 C  
BRANCH  15  16
HETATM   16  C   UNL     1      -9.631   8.082  71.502  1.00  0.00    -0.163 C  
BRANCH  16  17
HETATM   17  N   UNL     1     -11.033   8.077  70.909  1.00  0.00    -0.239 N  
HETATM   18  C   UNL     1     -12.035   8.728  71.872  1.00  0.00    -0.365 C  
HETATM   19  C   UNL     1     -11.524   6.676  70.576  1.00  0.00    -0.376 C  
BRANCH  17  20
HETATM   20  C   UNL     1     -11.023   8.959  69.622  1.00  0.00    -0.123 C  
BRANCH  20  21
HETATM   21  C   UNL     1     -10.369  10.369  69.765  1.00  0.00    -0.208 C  
BRANCH  21  22
HETATM   22  N   UNL     1     -10.246  10.983  68.446  1.00  0.00    -0.177 NA 
BRANCH  22  23
HETATM   23  C   UNL     1     -10.656  10.241  67.246  1.00  0.00    -0.267 C  
BRANCH  23  24
HETATM   24  C   UNL     1      -9.511   9.994  66.283  1.00  0.00    -0.241 A  
HETATM   25  C   UNL     1      -8.194   9.946  66.753  1.00  0.00    -0.124 A  
HETATM   26  C   UNL     1      -7.344   9.805  64.482  1.00  0.00    -0.135 A  
HETATM   27  C   UNL     1      -8.653   9.756  64.008  1.00  0.00    -0.208 A  
HETATM   28  C   UNL     1      -9.731   9.853  64.903  1.00  0.00    -0.332 A  
HETATM   29  C   UNL     1      -7.125   9.864  65.859  1.00  0.00    -0.107 A  
BRANCH  26  30
HETATM   30  O   UNL     1      -6.205   9.864  63.733  1.00  0.00    -0.110 OA 
HETATM   31  C   UNL     1      -6.171  10.733  62.609  1.00  0.00    -0.051 C  
ENDBRANCH  26  30
ENDBRANCH  23  24
ENDBRANCH  22  23
BRANCH  22  32
HETATM   32  C   UNL     1     -10.508  12.342  68.397  1.00  0.00    -0.235 A  
HETATM   33  N   UNL     1     -11.546  12.826  69.103  1.00  0.00    -0.301 NA 
HETATM   34  N   UNL     1      -9.617  13.127  67.779  1.00  0.00    -0.201 NA 
HETATM   35  C   UNL     1      -9.796  14.458  67.868  1.00  0.00    -0.224 A  
HETATM   36  C   UNL     1     -11.721  14.170  69.112  1.00  0.00    -0.327 A  
HETATM   37  C   UNL     1     -10.853  15.044  68.516  1.00  0.00    -0.250 A  
ENDBRANCH  22  32
ENDBRANCH  21  22
ENDBRANCH  20  21
ENDBRANCH  17  20
ENDBRANCH  16  17
ENDBRANCH  15  16
ENDBRANCH  14  15
ENDBRANCH  13  14
ENDBRANCH  12  13
ENDBRANCH  11  12
ENDBRANCH  10  11
ENDBRANCH   9  10
ENDBRANCH   8   9
ENDBRANCH   7   8
ENDBRANCH   6   7
ENDBRANCH   5   6
ENDBRANCH   4   5
ENDBRANCH   3   4
ENDBRANCH   2   3
TORSDOF 22
ENDMDL
MODEL      211
REMARK 921   NORMALIZED FREE ENERGY PREDICTED BY IDOCK:   -2.58 KCAL/MOL
REMARK 922        TOTAL FREE ENERGY PREDICTED BY IDOCK:  -10.35 KCAL/MOL
REMARK 923 INTER-LIGAND FREE ENERGY PREDICTED BY IDOCK:   -9.79 KCAL/MOL
REMARK 924 INTRA-LIGAND FREE ENERGY PREDICTED BY IDOCK:   -0.56 KCAL/MOL
REMARK 927      BINDING AFFINITY PREDICTED BY RF-SCORE:    0.00 PKD
ROOT
HETATM    1  C   UNL     1     -11.173   5.563  71.645  1.00  0.00    -0.135 C  
HETATM    2  C   UNL     1     -10.414   6.863  71.839  1.00  0.00    -0.224 C  
ENDROOT
BRANCH   2   3
HETATM    3  C   UNL     1     -11.200   7.830  72.719  1.00  0.00    -0.456 C  
BRANCH   3   4
HETATM    4  C   UNL     1     -11.321   9.193  72.049  1.00  0.00    -0.333 C  
BRANCH   4   5
HETATM    5  C   UNL     1     -12.781   9.530  71.776  1.00  0.00    -0.492 C  
BRANCH   5   6
HETATM    6  C   UNL     1     -12.906  10.372  70.515  1.00  0.00    -0.326 C  
BRANCH   6   7
HETATM    7  C   UNL     1     -11.703  11.291  70.373  1.00  0.00    -0.398 C  
BRANCH   7   8
HETATM    8  C   UNL     1     -10.705  10.707  69.386  1.00  0.00    -0.281 C  
BRANCH   8   9
HETATM    9  C   UNL     1     -11.363   9.598  68.584  1.00  0.00     0.099 C  
BRANCH   9  10
HETATM   10  C   UNL     1     -10.422   8.413  68.443  1.00  0.00    -0.208 C  
BRANCH  10  11
HETATM   11  C   UNL     1     -10.697   7.683  67.137  1.00  0.00    -0.361 C  
BRANCH  11  12
HETATM   12  C   UNL     1     -10.011   8.401  65.984  1.00  0.00     0.023 C  
BRANCH  12  13
HETATM   13  C   UNL     1      -8.687   9.002  66.424  1.00  0.00    -0.149 C  
BRANCH  13  14
HETATM   14  C   UNL     1      -8.367  10.300  65.674  1.00  0.00    -0.159 C  
BRANCH  14  15
HETATM   15  C   UNL     1      -9.121  11.534  66.191  1.00  0.00    -0.217 C  
BRANCH  15  16
HETATM   16  C   UNL     1      -9.887  12.205  65.055  1.00  0.00    -0.160 C  
BRANCH  16  17
HETATM   17  N   UNL     1     -10.994  13.154  65.493  1.00  0.00    -0.276 N  
HETATM   18  C   UNL     1     -12.014  12.429  66.381  1.00  0.00    -0.274 C  
HETATM   19  C   UNL     1     -11.733  13.776  64.317  1.00  0.00    -0.395 C  
BRANCH  17  20
HETATM   20  C   UNL     1     -10.359  14.272  66.375  1.00  0.00    -0.286 C  
BRANCH  20  21
HETATM   21  C   UNL     1      -9.698  15.459  65.606  1.00  0.00    -0.331 C  
BRANCH  21  22
HETATM   22  N   UNL     1      -8.873  16.234  66.527  1.00  0.00    -0.253 NA 
BRANCH  22  23
HETATM   23  C   UNL     1      -7.408  16.151  66.455  1.00  0.00    -0.006 C  
BRANCH  23  24
HETATM   24  C   UNL     1      -6.717  17.389  66.994  1.00  0.00    -0.218 A  
HETATM   25  C   UNL     1      -6.552  17.558  68.374  1.00  0.00    -0.190 A  
HETATM   26  C   UNL     1      -5.679  19.800  68.036  1.00  0.00    -0.207 A  
HETATM   27  C   UNL     1      -5.749  19.607  66.658  1.00  0.00    -0.168 A  
HETATM   28  C   UNL     1      -6.268  18.409  66.140  1.00  0.00    -0.235 A  
HETATM   29  C   UNL     1      -6.049  18.756  68.885  1.00  0.00    -0.239 A  
BRANCH  26  30
HETATM   30  O   UNL     1      -5.336  20.951  68.684  1.00  0.00    -0.284 OA 
HETATM   31  C   UNL     1      -5.454  21.000  70.098  1.00  0.00    -0.110 C  
ENDBRANCH  26  30
ENDBRANCH  23  24
ENDBRANCH  22  23
BRANCH  22  32
HETATM   32  C   UNL     1      -9.360  17.492  66.846  1.00  0.00    -0.269 A  
HETATM   33  N   UNL     1     -10.021  18.187  65.902  1.00  0.00    -0.564 NA 
HETATM   34  N   UNL     1      -9.289  17.882  68.124  1.00  0.00    -0.277 NA 
HETATM   35  C   UNL     1      -9.901  19.035  68.455  1.00  0.00    -0.411 A  
HETATM   36  C   UNL     1     -10.567  19.372  66.269  1.00  0.00    -0.475 A  
HETATM   37  C   UNL     1     -10.550  19.840  67.555  1.00  0.00    -0.544 A  
ENDBRANCH  22  32
ENDBRANCH  21  22
ENDBRANCH  20  21
ENDBRANCH  17  20
ENDBRANCH  16  17
ENDBRANCH  15  16
ENDBRANCH  14  15
ENDBRANCH  13  14
ENDBRANCH  12  13
ENDBRANCH  11  12
ENDBRANCH  10  11
ENDBRANCH   9  10
ENDBRANCH   8   9
ENDBRANCH   7   8
ENDBRANCH   6   7
ENDBRANCH   5   6
ENDBRANCH   4   5
ENDBRANCH   3   4
ENDBRANCH   2   3
TORSDOF 22
ENDMDL
MODEL      212
REMARK 921   NORMALIZED FREE ENERGY PREDICTED BY IDOCK:   -2.56 KCAL/MOL
REMARK 922        TOTAL FREE ENERGY PREDICTED BY IDOCK:  -10.30 KCAL/MOL
REMARK 923 INTER-LIGAND FREE ENERGY PREDICTED BY IDOCK:   -7.58 KCAL/MOL
REMARK 924 INTRA-LIGAND FREE ENERGY PREDICTED BY IDOCK:   -2.73 KCAL/MOL
REMARK 927      BINDING AFFINITY PREDICTED BY RF-SCORE:    0.00 PKD
ROOT
HETATM    1  C   UNL     1      -9.120  19.862  66.501  1.00  0.00    -0.464 C  
HETATM    2  C   UNL     1     -10.546  19.343  66.449  1.00  0.00    -0.558 C  
ENDROOT
BRANCH   2   3
HETATM    3  C   UNL     1     -10.632  17.922  66.997  1.00  0.00    -0.287 C  
BRANCH   3   4
HETATM    4  C   UNL     1     -10.179  16.912  65.950  1.00  0.00    -0.330 C  
BRANCH   4   5
HETATM    5  C   UNL     1     -10.357  15.489  66.464  1.00  0.00    -0.293 C  
BRANCH   5   6
HETATM    6  C   UNL     1      -9.713  15.334  67.834  1.00  0.00    -0.211 C  
BRANCH   6   7
HETATM    7  C   UNL     1      -8.235  15.682  67.765  1.00  0.00    -0.155 C  
BRANCH   7   8
HETATM    8  C   UNL     1      -7.821  16.482  68.990  1.00  0.00    -0.226 C  
BRANCH   8   9
HETATM    9  C   UNL     1      -6.308  16.603  69.039  1.00  0.00    -0.183 C  
BRANCH   9  10
HETATM   10  C   UNL     1      -5.666  15.229  69.117  1.00  0.00    -0.099 C  
BRANCH  10  11
HETATM   11  C   UNL     1      -6.266  14.440  70.271  1.00  0.00    -0.172 C  
BRANCH  11  12
HETATM   12  C   UNL     1      -5.739  13.012  70.257  1.00  0.00    -0.159 C  
BRANCH  12  13
HETATM   13  C   UNL     1      -5.894  12.385  68.881  1.00  0.00    -0.066 C  
BRANCH  13  14
HETATM   14  C   UNL     1      -7.366  12.246  68.476  1.00  0.00    -0.105 C  
BRANCH  14  15
HETATM   15  C   UNL     1      -7.605  11.340  67.258  1.00  0.00    -0.130 C  
BRANCH  15  16
HETATM   16  C   UNL     1      -8.693  11.927  66.364  1.00  0.00    -0.118 C  
BRANCH  16  17
HETATM   17  N   UNL     1      -9.952  11.081  66.236  1.00  0.00    -0.217 N  
HETATM   18  C   UNL     1     -10.230  10.735  64.766  1.00  0.00    -0.334 C  
HETATM   19  C   UNL     1     -11.182  11.768  66.811  1.00  0.00    -0.328 C  
BRANCH  17  20
HETATM   20  C   UNL     1      -9.707   9.725  66.968  1.00  0.00    -0.183 C  
BRANCH  20  21
HETATM   21  C   UNL     1     -10.737   9.351  68.079  1.00  0.00    -0.190 C  
BRANCH  21  22
HETATM   22  N   UNL     1     -10.352   8.083  68.691  1.00  0.00    -0.207 NA 
BRANCH  22  23
HETATM   23  C   UNL     1      -9.018   7.519  68.444  1.00  0.00    -0.128 C  
BRANCH  23  24
HETATM   24  C   UNL     1      -8.060   7.736  69.599  1.00  0.00    -0.122 A  
HETATM   25  C   UNL     1      -7.777   6.689  70.485  1.00  0.00    -0.104 A  
HETATM   26  C   UNL     1      -6.497   8.184  71.908  1.00  0.00    -0.055 A  
HETATM   27  C   UNL     1      -6.691   9.210  70.986  1.00  0.00    -0.093 A  
HETATM   28  C   UNL     1      -7.471   8.988  69.839  1.00  0.00    -0.065 A  
HETATM   29  C   UNL     1      -7.013   6.918  71.631  1.00  0.00    -0.070 A  
BRANCH  26  30
HETATM   30  O   UNL     1      -5.889   8.284  73.126  1.00  0.00    -0.058 OA 
HETATM   31  C   UNL     1      -6.500   7.663  74.248  1.00  0.00    -0.090 C  
ENDBRANCH  26  30
ENDBRANCH  23  24
ENDBRANCH  22  23
BRANCH  22  32
HETATM   32  C   UNL     1     -10.836   7.870  69.972  1.00  0.00    -0.238 A  
HETATM   33  N   UNL     1     -11.116   6.612  70.356  1.00  0.00    -0.296 NA 
HETATM   34  N   UNL     1     -10.847   8.910  70.814  1.00  0.00    -0.227 NA 
HETATM   35  C   UNL     1     -11.171   8.665  72.097  1.00  0.00    -0.367 A  
HETATM   36  C   UNL     1     -11.498   6.424  71.643  1.00  0.00    -0.303 A  
HETATM   37  C   UNL     1     -11.526   7.428  72.572  1.00  0.00    -0.346 A  
ENDBRANCH  22  32
ENDBRANCH  21  22
ENDBRANCH  20  21
ENDBRANCH  17  20
ENDBRANCH  16  17
ENDBRANCH  15  16
ENDBRANCH  14  15
ENDBRANCH  13  14
ENDBRANCH  12  13
ENDBRANCH  11  12
ENDBRANCH  10  11
ENDBRANCH   9  10
ENDBRANCH   8   9
ENDBRANCH   7   8
ENDBRANCH   6   7
ENDBRANCH   5   6
ENDBRANCH   4   5
ENDBRANCH   3   4
ENDBRANCH   2   3
TORSDOF 22
ENDMDL
MODEL      213
REMARK 921   NORMALIZED FREE ENERGY PREDICTED BY IDOCK:   -2.52 KCAL/MOL
REMARK 922        TOTAL FREE ENERGY PREDICTED BY IDOCK:  -10.21 KCAL/MOL
REMARK 923 INTER-LIGAND FREE ENERGY PREDICTED BY IDOCK:   -7.08 KCAL/MOL
REMARK 924 INTRA-LIGAND FREE ENERGY PREDICTED BY IDOCK:   -3.13 KCAL/MOL
REMARK 927      BINDING AFFINITY PREDICTED BY RF-SCORE:    0.00 PKD
ROOT
HETATM    1  C   UNL     1     -10.238   3.701  64.196  1.00  0.00    -0.232 C  
HETATM    2  C   UNL     1      -9.021   4.415  63.634  1.00  0.00    -0.139 C  
ENDROOT
BRANCH   2   3
HETATM    3  C   UNL     1      -8.065   4.826  64.749  1.00  0.00    -0.106 C  
BRANCH   3   4
HETATM    4  C   UNL     1      -7.952   6.343  64.833  1.00  0.00    -0.124 C  
BRANCH   4   5
HETATM    5  C   UNL     1      -6.720   6.833  64.083  1.00  0.00    -0.045 C  
BRANCH   5   6
HETATM    6  C   UNL     1      -6.815   8.329  63.823  1.00  0.00    -0.076 C  
BRANCH   6   7
HETATM    7  C   UNL     1      -7.155   9.067  65.108  1.00  0.00    -0.087 C  
BRANCH   7   8
HETATM    8  C   UNL     1      -8.224  10.116  64.849  1.00  0.00    -0.157 C  
BRANCH   8   9
HETATM    9  C   UNL     1      -9.109   9.676  63.695  1.00  0.00    -0.214 C  
BRANCH   9  10
HETATM   10  C   UNL     1      -9.698  10.884  62.986  1.00  0.00    -0.380 C  
BRANCH  10  11
HETATM   11  C   UNL     1     -10.384  11.794  63.993  1.00  0.00    -0.401 C  
BRANCH  11  12
HETATM   12  C   UNL     1     -11.787  12.140  63.513  1.00  0.00    -0.597 C  
BRANCH  12  13
HETATM   13  C   UNL     1     -12.578  12.846  64.602  1.00  0.00    -0.459 C  
BRANCH  13  14
HETATM   14  C   UNL     1     -11.822  14.051  65.172  1.00  0.00    -0.370 C  
BRANCH  14  15
HETATM   15  C   UNL     1     -11.336  13.869  66.618  1.00  0.00    -0.342 C  
BRANCH  15  16
HETATM   16  C   UNL     1     -12.140  12.776  67.316  1.00  0.00    -0.162 C  
BRANCH  16  17
HETATM   17  N   UNL     1     -11.582  12.317  68.656  1.00  0.00    -0.300 N  
HETATM   18  C   UNL     1     -12.341  11.086  69.170  1.00  0.00    -0.009 C  
HETATM   19  C   UNL     1     -11.643  13.402  69.721  1.00  0.00    -0.235 C  
BRANCH  17  20
HETATM   20  C   UNL     1     -10.105  11.863  68.439  1.00  0.00    -0.206 C  
BRANCH  20  21
HETATM   21  C   UNL     1      -9.641  10.625  69.269  1.00  0.00    -0.144 C  
BRANCH  21  22
HETATM   22  N   UNL     1      -8.779   9.784  68.444  1.00  0.00    -0.119 NA 
BRANCH  22  23
HETATM   23  C   UNL     1      -7.326   9.783  68.655  1.00  0.00    -0.074 C  
BRANCH  23  24
HETATM   24  C   UNL     1      -6.740  11.180  68.743  1.00  0.00    -0.067 A  
HETATM   25  C   UNL     1      -6.409  11.727  69.988  1.00  0.00    -0.092 A  
HETATM   26  C   UNL     1      -5.903  13.868  68.960  1.00  0.00    -0.086 A  
HETATM   27  C   UNL     1      -6.137  13.308  67.706  1.00  0.00    -0.154 A  
HETATM   28  C   UNL     1      -6.556  11.972  67.598  1.00  0.00    -0.107 A  
HETATM   29  C   UNL     1      -6.007  13.059  70.092  1.00  0.00    -0.135 A  
BRANCH  26  30
HETATM   30  O   UNL     1      -5.631  15.177  69.232  1.00  0.00    -0.094 OA 
HETATM   31  C   UNL     1      -6.693  16.023  69.651  1.00  0.00    -0.171 C  
ENDBRANCH  26  30
ENDBRANCH  23  24
ENDBRANCH  22  23
BRANCH  22  32
HETATM   32  C   UNL     1      -9.309   8.550  68.100  1.00  0.00    -0.137 A  
HETATM   33  N   UNL     1      -9.038   7.490  68.882  1.00  0.00    -0.140 NA 
HETATM   34  N   UNL     1     -10.194   8.510  67.098  1.00  0.00    -0.257 NA 
HETATM   35  C   UNL     1     -10.820   7.340  66.869  1.00  0.00    -0.195 A  
HETATM   36  C   UNL     1      -9.645   6.317  68.575  1.00  0.00    -0.126 A  
HETATM   37  C   UNL     1     -10.570   6.191  67.575  1.00  0.00    -0.344 A  
ENDBRANCH  22  32
ENDBRANCH  21  22
ENDBRANCH  20  21
ENDBRANCH  17  20
ENDBRANCH  16  17
ENDBRANCH  15  16
ENDBRANCH  14  15
ENDBRANCH  13  14
ENDBRANCH  12  13
ENDBRANCH  11  12
ENDBRANCH  10  11
ENDBRANCH   9  10
ENDBRANCH   8   9
ENDBRANCH   7   8
ENDBRANCH   6   7
ENDBRANCH   5   6
ENDBRANCH   4   5
ENDBRANCH   3   4
ENDBRANCH   2   3
TORSDOF 22
ENDMDL
MODEL      214
REMARK 921   NORMALIZED FREE ENERGY PREDICTED BY IDOCK:   -2.48 KCAL/MOL
REMARK 922        TOTAL FREE ENERGY PREDICTED BY IDOCK:  -10.12 KCAL/MOL
REMARK 923 INTER-LIGAND FREE ENERGY PREDICTED BY IDOCK:   -7.74 KCAL/MOL
REMARK 924 INTRA-LIGAND FREE ENERGY PREDICTED BY IDOCK:   -2.38 KCAL/MOL
REMARK 927      BINDING AFFINITY PREDICTED BY RF-SCORE:    0.00 PKD
ROOT
HETATM    1  C   UNL     1      -8.843  19.480  67.368  1.00  0.00    -0.363 C  
HETATM    2  C   UNL     1      -8.434  18.653  66.162  1.00  0.00    -0.161 C  
ENDROOT
BRANCH   2   3
HETATM    3  C   UNL     1      -8.674  17.168  66.410  1.00  0.00    -0.291 C  
BRANCH   3   4
HETATM    4  C   UNL     1     -10.041  16.939  67.041  1.00  0.00    -0.289 C  
BRANCH   4   5
HETATM    5  C   UNL     1     -10.704  15.700  66.454  1.00  0.00    -0.291 C  
BRANCH   5   6
HETATM    6  C   UNL     1     -10.949  15.884  64.963  1.00  0.00    -0.426 C  
BRANCH   6   7
HETATM    7  C   UNL     1     -11.946  14.853  64.461  1.00  0.00    -0.420 C  
BRANCH   7   8
HETATM    8  C   UNL     1     -11.275  13.497  64.313  1.00  0.00    -0.383 C  
BRANCH   8   9
HETATM    9  C   UNL     1     -12.096  12.435  65.025  1.00  0.00    -0.468 C  
BRANCH   9  10
HETATM   10  C   UNL     1     -11.624  12.270  66.459  1.00  0.00    -0.440 C  
BRANCH  10  11
HETATM   11  C   UNL     1     -10.646  11.108  66.553  1.00  0.00    -0.314 C  
BRANCH  11  12
HETATM   12  C   UNL     1      -9.230  11.594  66.274  1.00  0.00    -0.225 C  
BRANCH  12  13
HETATM   13  C   UNL     1      -8.202  10.664  66.895  1.00  0.00    -0.123 C  
BRANCH  13  14
HETATM   14  C   UNL     1      -6.772  11.191  66.722  1.00  0.00    -0.135 C  
BRANCH  14  15
HETATM   15  C   UNL     1      -5.767  10.143  66.221  1.00  0.00    -0.062 C  
BRANCH  15  16
HETATM   16  C   UNL     1      -6.415   9.240  65.176  1.00  0.00    -0.070 C  
BRANCH  16  17
HETATM   17  N   UNL     1      -6.461   7.762  65.537  1.00  0.00    -0.042 N  
HETATM   18  C   UNL     1      -5.777   7.509  66.888  1.00  0.00    -0.028 C  
HETATM   19  C   UNL     1      -5.799   6.881  64.488  1.00  0.00    -0.036 C  
BRANCH  17  20
HETATM   20  C   UNL     1      -7.954   7.348  65.716  1.00  0.00    -0.118 C  
BRANCH  20  21
HETATM   21  C   UNL     1      -8.294   5.857  65.402  1.00  0.00    -0.149 C  
BRANCH  21  22
HETATM   22  N   UNL     1      -8.785   5.206  66.613  1.00  0.00    -0.110 NA 
BRANCH  22  23
HETATM   23  C   UNL     1     -10.211   5.271  66.960  1.00  0.00    -0.234 C  
BRANCH  23  24
HETATM   24  C   UNL     1     -10.496   6.203  68.122  1.00  0.00    -0.284 A  
HETATM   25  C   UNL     1     -10.429   7.590  67.945  1.00  0.00    -0.266 A  
HETATM   26  C   UNL     1     -10.756   7.951  70.325  1.00  0.00    -0.236 A  
HETATM   27  C   UNL     1     -10.920   6.578  70.499  1.00  0.00    -0.348 A  
HETATM   28  C   UNL     1     -10.788   5.709  69.404  1.00  0.00    -0.334 A  
HETATM   29  C   UNL     1     -10.547   8.450  69.039  1.00  0.00    -0.172 A  
BRANCH  26  30
HETATM   30  O   UNL     1     -10.715   8.899  71.305  1.00  0.00    -0.239 OA 
HETATM   31  C   UNL     1     -10.097   8.577  72.543  1.00  0.00    -0.249 C  
ENDBRANCH  26  30
ENDBRANCH  23  24
ENDBRANCH  22  23
BRANCH  22  32
HETATM   32  C   UNL     1      -8.172   4.005  66.932  1.00  0.00    -0.100 A  
HETATM   33  N   UNL     1      -6.871   4.015  67.273  1.00  0.00    -0.050 NA 
HETATM   34  N   UNL     1      -8.946   2.919  67.038  1.00  0.00    -0.146 NA 
HETATM   35  C   UNL     1      -8.372   1.791  67.497  1.00  0.00    -0.071 A  
HETATM   36  C   UNL     1      -6.321   2.842  67.670  1.00  0.00    -0.032 A  
HETATM   37  C   UNL     1      -7.042   1.688  67.817  1.00  0.00    -0.035 A  
ENDBRANCH  22  32
ENDBRANCH  21  22
ENDBRANCH  20  21
ENDBRANCH  17  20
ENDBRANCH  16  17
ENDBRANCH  15  16
ENDBRANCH  14  15
ENDBRANCH  13  14
ENDBRANCH  12  13
ENDBRANCH  11  12
ENDBRANCH  10  11
ENDBRANCH   9  10
ENDBRANCH   8   9
ENDBRANCH   7   8
ENDBRANCH   6   7
ENDBRANCH   5   6
ENDBRANCH   4   5
ENDBRANCH   3   4
ENDBRANCH   2   3
TORSDOF 22
ENDMDL
MODEL      215
REMARK 921   NORMALIZED FREE ENERGY PREDICTED BY IDOCK:   -2.47 KCAL/MOL
REMARK 922        TOTAL FREE ENERGY PREDICTED BY IDOCK:  -10.10 KCAL/MOL
REMARK 923 INTER-LIGAND FREE ENERGY PREDICTED BY IDOCK:   -8.32 KCAL/MOL
REMARK 924 INTRA-LIGAND FREE ENERGY PREDICTED BY IDOCK:   -1.78 KCAL/MOL
REMARK 927      BINDING AFFINITY PREDICTED BY RF-SCORE:    0.00 PKD
ROOT
HETATM    1  C   UNL     1      -6.366   3.632  73.699  1.00  0.00    -0.028 C  
HETATM    2  C   UNL     1      -6.187   3.831  72.204  1.00  0.00    -0.014 C  
ENDROOT
BRANCH   2   3
HETATM    3  C   UNL     1      -7.521   4.133  71.529  1.00  0.00    -0.059 C  
BRANCH   3   4
HETATM    4  C   UNL     1      -8.421   2.905  71.538  1.00  0.00    -0.090 C  
BRANCH   4   5
HETATM    5  C   UNL     1      -9.886   3.313  71.642  1.00  0.00    -0.220 C  
BRANCH   5   6
HETATM    6  C   UNL     1     -10.266   3.559  73.095  1.00  0.00    -0.230 C  
BRANCH   6   7
HETATM    7  C   UNL     1     -11.172   4.776  73.204  1.00  0.00    -0.390 C  
BRANCH   7   8
HETATM    8  C   UNL     1     -11.081   5.618  71.941  1.00  0.00    -0.278 C  
BRANCH   8   9
HETATM    9  C   UNL     1     -12.112   6.732  71.989  1.00  0.00    -0.344 C  
BRANCH   9  10
HETATM   10  C   UNL     1     -11.455   8.049  72.363  1.00  0.00    -0.449 C  
BRANCH  10  11
HETATM   11  C   UNL     1     -12.353   9.210  71.961  1.00  0.00    -0.448 C  
BRANCH  11  12
HETATM   12  C   UNL     1     -11.700  10.013  70.845  1.00  0.00    -0.462 C  
BRANCH  12  13
HETATM   13  C   UNL     1     -10.432   9.335  70.355  1.00  0.00    -0.296 C  
BRANCH  13  14
HETATM   14  C   UNL     1     -10.660   8.564  69.050  1.00  0.00    -0.173 C  
BRANCH  14  15
HETATM   15  C   UNL     1     -10.101   9.256  67.797  1.00  0.00    -0.253 C  
BRANCH  15  16
HETATM   16  C   UNL     1     -11.031  10.380  67.350  1.00  0.00    -0.270 C  
BRANCH  16  17
HETATM   17  N   UNL     1     -10.335  11.656  66.898  1.00  0.00    -0.214 N  
HETATM   18  C   UNL     1     -11.285  12.858  66.991  1.00  0.00    -0.288 C  
HETATM   19  C   UNL     1      -9.810  11.564  65.473  1.00  0.00    -0.234 C  
BRANCH  17  20
HETATM   20  C   UNL     1      -9.160  11.947  67.882  1.00  0.00    -0.183 C  
BRANCH  20  21
HETATM   21  C   UNL     1      -8.061  12.927  67.365  1.00  0.00    -0.181 C  
BRANCH  21  22
HETATM   22  N   UNL     1      -7.813  13.953  68.373  1.00  0.00    -0.133 NA 
BRANCH  22  23
HETATM   23  C   UNL     1      -8.920  14.782  68.870  1.00  0.00    -0.167 C  
BRANCH  23  24
HETATM   24  C   UNL     1      -9.077  16.081  68.104  1.00  0.00    -0.187 A  
HETATM   25  C   UNL     1      -8.116  17.092  68.227  1.00  0.00    -0.228 A  
HETATM   26  C   UNL     1      -9.479  18.605  66.903  1.00  0.00    -0.301 A  
HETATM   27  C   UNL     1     -10.396  17.577  66.693  1.00  0.00    -0.319 A  
HETATM   28  C   UNL     1     -10.198  16.323  67.293  1.00  0.00    -0.279 A  
HETATM   29  C   UNL     1      -8.325  18.342  67.641  1.00  0.00    -0.252 A  
BRANCH  26  30
HETATM   30  O   UNL     1      -9.605  19.905  66.509  1.00  0.00    -0.369 OA 
HETATM   31  C   UNL     1      -9.534  20.928  67.492  1.00  0.00    -0.196 C  
ENDBRANCH  26  30
ENDBRANCH  23  24
ENDBRANCH  22  23
BRANCH  22  32
HETATM   32  C   UNL     1      -6.865  13.629  69.330  1.00  0.00    -0.063 A  
HETATM   33  N   UNL     1      -6.363  14.611  70.101  1.00  0.00    -0.167 NA 
HETATM   34  N   UNL     1      -6.615  12.333  69.546  1.00  0.00    -0.089 NA 
HETATM   35  C   UNL     1      -5.811  12.019  70.579  1.00  0.00    -0.122 A  
HETATM   36  C   UNL     1      -5.509  14.252  71.090  1.00  0.00    -0.181 A  
HETATM   37  C   UNL     1      -5.208  12.950  71.385  1.00  0.00    -0.158 A  
ENDBRANCH  22  32
ENDBRANCH  21  22
ENDBRANCH  20  21
ENDBRANCH  17  20
ENDBRANCH  16  17
ENDBRANCH  15  16
ENDBRANCH  14  15
ENDBRANCH  13  14
ENDBRANCH  12  13
ENDBRANCH  11  12
ENDBRANCH  10  11
ENDBRANCH   9  10
ENDBRANCH   8   9
ENDBRANCH   7   8
ENDBRANCH   6   7
ENDBRANCH   5   6
ENDBRANCH   4   5
ENDBRANCH   3   4
ENDBRANCH   2   3
TORSDOF 22
ENDMDL
MODEL      216
REMARK 921   NORMALIZED FREE ENERGY PREDICTED BY IDOCK:   -2.44 KCAL/MOL
REMARK 922        TOTAL FREE ENERGY PREDICTED BY IDOCK:  -10.04 KCAL/MOL
REMARK 923 INTER-LIGAND FREE ENERGY PREDICTED BY IDOCK:   -7.43 KCAL/MOL
REMARK 924 INTRA-LIGAND FREE ENERGY PREDICTED BY IDOCK:   -2.61 KCAL/MOL
REMARK 927      BINDING AFFINITY PREDICTED BY RF-SCORE:    0.00 PKD
ROOT
HETATM    1  C   UNL     1      -6.616  16.347  67.489  1.00  0.00    -0.184 C  
HETATM    2  C   UNL     1      -7.815  17.271  67.609  1.00  0.00    -0.192 C  
ENDROOT
BRANCH   2   3
HETATM    3  C   UNL     1      -8.208  17.836  66.247  1.00  0.00    -0.252 C  
BRANCH   3   4
HETATM    4  C   UNL     1      -9.723  17.906  66.109  1.00  0.00    -0.227 C  
BRANCH   4   5
HETATM    5  C   UNL     1     -10.403  17.141  67.237  1.00  0.00    -0.320 C  
BRANCH   5   6
HETATM    6  C   UNL     1     -10.962  15.822  66.724  1.00  0.00    -0.192 C  
BRANCH   6   7
HETATM    7  C   UNL     1     -10.387  15.504  65.353  1.00  0.00    -0.422 C  
BRANCH   7   8
HETATM    8  C   UNL     1     -11.451  14.880  64.465  1.00  0.00    -0.328 C  
BRANCH   8   9
HETATM    9  C   UNL     1     -12.123  13.730  65.195  1.00  0.00    -0.416 C  
BRANCH   9  10
HETATM   10  C   UNL     1     -11.096  12.689  65.606  1.00  0.00    -0.327 C  
BRANCH  10  11
HETATM   11  C   UNL     1     -11.587  11.930  66.830  1.00  0.00    -0.341 C  
BRANCH  11  12
HETATM   12  C   UNL     1     -11.758  12.885  68.003  1.00  0.00    -0.401 C  
BRANCH  12  13
HETATM   13  C   UNL     1     -11.252  12.262  69.293  1.00  0.00    -0.275 C  
BRANCH  13  14
HETATM   14  C   UNL     1     -12.087  11.046  69.710  1.00  0.00    -0.424 C  
BRANCH  14  15
HETATM   15  C   UNL     1     -11.400   9.693  69.474  1.00  0.00    -0.080 C  
BRANCH  15  16
HETATM   16  C   UNL     1     -11.319   8.901  70.775  1.00  0.00    -0.278 C  
BRANCH  16  17
HETATM   17  N   UNL     1     -10.005   8.169  71.008  1.00  0.00    -0.185 N  
HETATM   18  C   UNL     1      -9.975   7.534  72.405  1.00  0.00    -0.184 C  
HETATM   19  C   UNL     1      -8.794   9.078  70.864  1.00  0.00    -0.240 C  
BRANCH  17  20
HETATM   20  C   UNL     1      -9.914   6.992  69.988  1.00  0.00    -0.181 C  
BRANCH  20  21
HETATM   21  C   UNL     1      -8.944   7.204  68.784  1.00  0.00    -0.128 C  
BRANCH  21  22
HETATM   22  N   UNL     1      -9.713   7.249  67.544  1.00  0.00    -0.139 NA 
BRANCH  22  23
HETATM   23  C   UNL     1      -9.744   8.478  66.739  1.00  0.00    -0.236 C  
BRANCH  23  24
HETATM   24  C   UNL     1      -8.465   9.286  66.842  1.00  0.00    -0.128 A  
HETATM   25  C   UNL     1      -8.431  10.457  67.608  1.00  0.00    -0.114 A  
HETATM   26  C   UNL     1      -6.182  10.948  66.834  1.00  0.00    -0.087 A  
HETATM   27  C   UNL     1      -6.167   9.738  66.144  1.00  0.00    -0.066 A  
HETATM   28  C   UNL     1      -7.304   8.912  66.145  1.00  0.00    -0.090 A  
HETATM   29  C   UNL     1      -7.305  11.281  67.592  1.00  0.00    -0.100 A  
BRANCH  26  30
HETATM   30  O   UNL     1      -5.217  11.913  66.811  1.00  0.00    -0.217 OA 
HETATM   31  C   UNL     1      -5.231  12.918  67.815  1.00  0.00    -0.108 C  
ENDBRANCH  26  30
ENDBRANCH  23  24
ENDBRANCH  22  23
BRANCH  22  32
HETATM   32  C   UNL     1      -9.713   6.078  66.803  1.00  0.00    -0.153 A  
HETATM   33  N   UNL     1      -8.626   5.287  66.845  1.00  0.00    -0.106 NA 
HETATM   34  N   UNL     1     -10.856   5.716  66.211  1.00  0.00    -0.124 NA 
HETATM   35  C   UNL     1     -10.894   4.505  65.623  1.00  0.00     0.005 A  
HETATM   36  C   UNL     1      -8.690   4.104  66.186  1.00  0.00    -0.115 A  
HETATM   37  C   UNL     1      -9.822   3.652  65.565  1.00  0.00    -0.068 A  
ENDBRANCH  22  32
ENDBRANCH  21  22
ENDBRANCH  20  21
ENDBRANCH  17  20
ENDBRANCH  16  17
ENDBRANCH  15  16
ENDBRANCH  14  15
ENDBRANCH  13  14
ENDBRANCH  12  13
ENDBRANCH  11  12
ENDBRANCH  10  11
ENDBRANCH   9  10
ENDBRANCH   8   9
ENDBRANCH   7   8
ENDBRANCH   6   7
ENDBRANCH   5   6
ENDBRANCH   4   5
ENDBRANCH   3   4
ENDBRANCH   2   3
TORSDOF 22
ENDMDL
MODEL      217
REMARK 921   NORMALIZED FREE ENERGY PREDICTED BY IDOCK:   -2.44 KCAL/MOL
REMARK 922        TOTAL FREE ENERGY PREDICTED BY IDOCK:  -10.02 KCAL/MOL
REMARK 923 INTER-LIGAND FREE ENERGY PREDICTED BY IDOCK:   -7.60 KCAL/MOL
REMARK 924 INTRA-LIGAND FREE ENERGY PREDICTED BY IDOCK:   -2.42 KCAL/MOL
REMARK 927      BINDING AFFINITY PREDICTED BY RF-SCORE:    0.00 PKD
ROOT
HETATM    1  C   UNL     1      -8.578  16.314  69.143  1.00  0.00    -0.212 C  
HETATM    2  C   UNL     1      -9.691  17.346  69.176  1.00  0.00    -0.110 C  
ENDROOT
BRANCH   2   3
HETATM    3  C   UNL     1     -10.780  17.009  68.163  1.00  0.00    -0.374 C  
BRANCH   3   4
HETATM    4  C   UNL     1     -11.446  15.683  68.505  1.00  0.00    -0.380 C  
BRANCH   4   5
HETATM    5  C   UNL     1     -11.496  14.774  67.283  1.00  0.00    -0.378 C  
BRANCH   5   6
HETATM    6  C   UNL     1     -10.558  15.287  66.201  1.00  0.00    -0.318 C  
BRANCH   6   7
HETATM    7  C   UNL     1     -11.218  15.179  64.836  1.00  0.00    -0.424 C  
BRANCH   7   8
HETATM    8  C   UNL     1     -10.917  13.828  64.208  1.00  0.00    -0.268 C  
BRANCH   8   9
HETATM    9  C   UNL     1     -12.068  12.871  64.466  1.00  0.00    -0.473 C  
BRANCH   9  10
HETATM   10  C   UNL     1     -11.588  11.431  64.398  1.00  0.00    -0.075 C  
BRANCH  10  11
HETATM   11  C   UNL     1     -10.479  11.301  63.365  1.00  0.00    -0.424 C  
BRANCH  11  12
HETATM   12  C   UNL     1      -9.261  10.634  63.988  1.00  0.00    -0.269 C  
BRANCH  12  13
HETATM   13  C   UNL     1      -9.497  10.329  65.457  1.00  0.00    -0.277 C  
BRANCH  13  14
HETATM   14  C   UNL     1      -9.644   8.825  65.715  1.00  0.00    -0.190 C  
BRANCH  14  15
HETATM   15  C   UNL     1      -8.314   8.079  65.900  1.00  0.00    -0.136 C  
BRANCH  15  16
HETATM   16  C   UNL     1      -8.494   6.590  65.620  1.00  0.00    -0.144 C  
BRANCH  16  17
HETATM   17  N   UNL     1      -8.700   5.720  66.852  1.00  0.00    -0.110 N  
HETATM   18  C   UNL     1      -7.680   4.574  66.887  1.00  0.00    -0.094 C  
HETATM   19  C   UNL     1     -10.098   5.125  66.923  1.00  0.00    -0.226 C  
BRANCH  17  20
HETATM   20  C   UNL     1      -8.426   6.592  68.117  1.00  0.00    -0.116 C  
BRANCH  20  21
HETATM   21  C   UNL     1      -8.386   5.829  69.478  1.00  0.00    -0.112 C  
BRANCH  21  22
HETATM   22  N   UNL     1      -8.904   6.693  70.534  1.00  0.00    -0.150 NA 
BRANCH  22  23
HETATM   23  C   UNL     1      -9.591   7.946  70.193  1.00  0.00    -0.175 C  
BRANCH  23  24
HETATM   24  C   UNL     1      -8.644   9.122  70.055  1.00  0.00    -0.172 A  
HETATM   25  C   UNL     1      -8.932  10.156  69.156  1.00  0.00    -0.181 A  
HETATM   26  C   UNL     1      -6.773  11.184  69.582  1.00  0.00    -0.134 A  
HETATM   27  C   UNL     1      -6.515  10.214  70.548  1.00  0.00    -0.116 A  
HETATM   28  C   UNL     1      -7.444   9.187  70.781  1.00  0.00    -0.133 A  
HETATM   29  C   UNL     1      -7.999  11.167  68.917  1.00  0.00    -0.126 A  
BRANCH  26  30
HETATM   30  O   UNL     1      -5.915  12.152  69.146  1.00  0.00    -0.064 OA 
HETATM   31  C   UNL     1      -6.276  12.924  68.010  1.00  0.00    -0.110 C  
ENDBRANCH  26  30
ENDBRANCH  23  24
ENDBRANCH  22  23
BRANCH  22  32
HETATM   32  C   UNL     1      -9.425   6.036  71.637  1.00  0.00    -0.148 A  
HETATM   33  N   UNL     1      -8.690   5.073  72.222  1.00  0.00    -0.124 NA 
HETATM   34  N   UNL     1     -10.564   6.503  72.161  1.00  0.00    -0.210 NA 
HETATM   35  C   UNL     1     -10.983   5.960  73.319  1.00  0.00    -0.233 A  
HETATM   36  C   UNL     1      -9.183   4.512  73.353  1.00  0.00    -0.113 A  
HETATM   37  C   UNL     1     -10.333   4.937  73.961  1.00  0.00    -0.298 A  
ENDBRANCH  22  32
ENDBRANCH  21  22
ENDBRANCH  20  21
ENDBRANCH  17  20
ENDBRANCH  16  17
ENDBRANCH  15  16
ENDBRANCH  14  15
ENDBRANCH  13  14
ENDBRANCH  12  13
ENDBRANCH  11  12
ENDBRANCH  10  11
ENDBRANCH   9  10
ENDBRANCH   8   9
ENDBRANCH   7   8
ENDBRANCH   6   7
ENDBRANCH   5   6
ENDBRANCH   4   5
ENDBRANCH   3   4
ENDBRANCH   2   3
TORSDOF 22
ENDMDL
MODEL      218
REMARK 921   NORMALIZED FREE ENERGY PREDICTED BY IDOCK:   -2.44 KCAL/MOL
REMARK 922        TOTAL FREE ENERGY PREDICTED BY IDOCK:  -10.02 KCAL/MOL
REMARK 923 INTER-LIGAND FREE ENERGY PREDICTED BY IDOCK:   -7.11 KCAL/MOL
REMARK 924 INTRA-LIGAND FREE ENERGY PREDICTED BY IDOCK:   -2.91 KCAL/MOL
REMARK 927      BINDING AFFINITY PREDICTED BY RF-SCORE:    0.00 PKD
ROOT
HETATM    1  C   UNL     1     -13.016   7.187  71.634  1.00  0.00    -0.415 C  
HETATM    2  C   UNL     1     -11.954   7.998  72.355  1.00  0.00    -0.405 C  
ENDROOT
BRANCH   2   3
HETATM    3  C   UNL     1     -10.954   7.086  73.058  1.00  0.00    -0.327 C  
BRANCH   3   4
HETATM    4  C   UNL     1      -9.584   7.175  72.398  1.00  0.00    -0.168 C  
BRANCH   4   5
HETATM    5  C   UNL     1      -9.625   8.114  71.199  1.00  0.00    -0.196 C  
BRANCH   5   6
HETATM    6  C   UNL     1      -8.961   7.467  69.993  1.00  0.00    -0.144 C  
BRANCH   6   7
HETATM    7  C   UNL     1      -9.701   6.198  69.602  1.00  0.00    -0.181 C  
BRANCH   7   8
HETATM    8  C   UNL     1     -10.872   6.528  68.691  1.00  0.00    -0.357 C  
BRANCH   8   9
HETATM    9  C   UNL     1     -10.744   5.757  67.388  1.00  0.00    -0.332 C  
BRANCH   9  10
HETATM   10  C   UNL     1      -9.975   4.466  67.607  1.00  0.00    -0.111 C  
BRANCH  10  11
HETATM   11  C   UNL     1      -9.041   4.212  66.433  1.00  0.00    -0.136 C  
BRANCH  11  12
HETATM   12  C   UNL     1      -7.603   4.507  66.836  1.00  0.00    -0.086 C  
BRANCH  12  13
HETATM   13  C   UNL     1      -7.036   5.663  66.029  1.00  0.00    -0.063 C  
BRANCH  13  14
HETATM   14  C   UNL     1      -7.594   7.014  66.487  1.00  0.00    -0.089 C  
BRANCH  14  15
HETATM   15  C   UNL     1      -8.383   7.773  65.409  1.00  0.00    -0.141 C  
BRANCH  15  16
HETATM   16  C   UNL     1      -7.529   8.888  64.811  1.00  0.00    -0.103 C  
BRANCH  16  17
HETATM   17  N   UNL     1      -8.263  10.196  64.549  1.00  0.00    -0.158 N  
HETATM   18  C   UNL     1      -9.782   9.996  64.637  1.00  0.00    -0.269 C  
HETATM   19  C   UNL     1      -7.932  10.793  63.190  1.00  0.00     0.062 C  
BRANCH  17  20
HETATM   20  C   UNL     1      -7.886  11.202  65.680  1.00  0.00     0.156 C  
BRANCH  20  21
HETATM   21  C   UNL     1      -8.655  11.035  67.029  1.00  0.00    -0.140 C  
BRANCH  21  22
HETATM   22  N   UNL     1      -8.207  12.056  67.971  1.00  0.00    -0.147 NA 
BRANCH  22  23
HETATM   23  C   UNL     1      -9.175  12.989  68.565  1.00  0.00    -0.062 C  
BRANCH  23  24
HETATM   24  C   UNL     1      -9.457  14.189  67.682  1.00  0.00    -0.213 A  
HETATM   25  C   UNL     1      -9.635  15.456  68.252  1.00  0.00    -0.205 A  
HETATM   26  C   UNL     1     -10.246  16.387  66.093  1.00  0.00    -0.348 A  
HETATM   27  C   UNL     1      -9.979  15.155  65.499  1.00  0.00    -0.384 A  
HETATM   28  C   UNL     1      -9.589  14.062  66.290  1.00  0.00    -0.284 A  
HETATM   29  C   UNL     1     -10.036  16.536  67.465  1.00  0.00    -0.267 A  
BRANCH  26  30
HETATM   30  O   UNL     1     -10.765  17.492  65.484  1.00  0.00    -0.551 OA 
HETATM   31  C   UNL     1     -10.514  18.769  66.055  1.00  0.00    -0.432 C  
ENDBRANCH  26  30
ENDBRANCH  23  24
ENDBRANCH  22  23
BRANCH  22  32
HETATM   32  C   UNL     1      -7.187  11.668  68.825  1.00  0.00    -0.116 A  
HETATM   33  N   UNL     1      -6.094  12.447  68.921  1.00  0.00    -0.069 NA 
HETATM   34  N   UNL     1      -7.411  10.624  69.630  1.00  0.00    -0.146 NA 
HETATM   35  C   UNL     1      -6.480  10.348  70.563  1.00  0.00    -0.093 A  
HETATM   36  C   UNL     1      -5.155  12.093  69.832  1.00  0.00    -0.077 A  
HETATM   37  C   UNL     1      -5.309  11.048  70.701  1.00  0.00    -0.114 A  
ENDBRANCH  22  32
ENDBRANCH  21  22
ENDBRANCH  20  21
ENDBRANCH  17  20
ENDBRANCH  16  17
ENDBRANCH  15  16
ENDBRANCH  14  15
ENDBRANCH  13  14
ENDBRANCH  12  13
ENDBRANCH  11  12
ENDBRANCH  10  11
ENDBRANCH   9  10
ENDBRANCH   8   9
ENDBRANCH   7   8
ENDBRANCH   6   7
ENDBRANCH   5   6
ENDBRANCH   4   5
ENDBRANCH   3   4
ENDBRANCH   2   3
TORSDOF 22
ENDMDL
MODEL      219
REMARK 921   NORMALIZED FREE ENERGY PREDICTED BY IDOCK:   -2.44 KCAL/MOL
REMARK 922        TOTAL FREE ENERGY PREDICTED BY IDOCK:  -10.02 KCAL/MOL
REMARK 923 INTER-LIGAND FREE ENERGY PREDICTED BY IDOCK:   -7.26 KCAL/MOL
REMARK 924 INTRA-LIGAND FREE ENERGY PREDICTED BY IDOCK:   -2.76 KCAL/MOL
REMARK 927      BINDING AFFINITY PREDICTED BY RF-SCORE:    0.00 PKD
ROOT
HETATM    1  C   UNL     1     -12.913   7.051  71.617  1.00  0.00    -0.400 C  
HETATM    2  C   UNL     1     -11.543   7.051  72.273  1.00  0.00    -0.307 C  
ENDROOT
BRANCH   2   3
HETATM    3  C   UNL     1     -11.165   5.652  72.748  1.00  0.00    -0.347 C  
BRANCH   3   4
HETATM    4  C   UNL     1      -9.940   5.140  72.001  1.00  0.00    -0.240 C  
BRANCH   4   5
HETATM    5  C   UNL     1      -9.202   6.290  71.326  1.00  0.00    -0.157 C  
BRANCH   5   6
HETATM    6  C   UNL     1      -8.861   5.932  69.888  1.00  0.00    -0.130 C  
BRANCH   6   7
HETATM    7  C   UNL     1     -10.103   5.454  69.154  1.00  0.00    -0.293 C  
BRANCH   7   8
HETATM    8  C   UNL     1     -10.750   6.606  68.402  1.00  0.00    -0.314 C  
BRANCH   8   9
HETATM    9  C   UNL     1     -10.694   6.341  66.907  1.00  0.00    -0.411 C  
BRANCH   9  10
HETATM   10  C   UNL     1     -10.496   4.860  66.636  1.00  0.00    -0.270 C  
BRANCH  10  11
HETATM   11  C   UNL     1      -9.622   4.669  65.406  1.00  0.00    -0.177 C  
BRANCH  11  12
HETATM   12  C   UNL     1      -8.283   4.066  65.805  1.00  0.00    -0.105 C  
BRANCH  12  13
HETATM   13  C   UNL     1      -7.134   4.983  65.420  1.00  0.00    -0.067 C  
BRANCH  13  14
HETATM   14  C   UNL     1      -7.427   6.448  65.765  1.00  0.00    -0.082 C  
BRANCH  14  15
HETATM   15  C   UNL     1      -7.500   7.384  64.549  1.00  0.00    -0.095 C  
BRANCH  15  16
HETATM   16  C   UNL     1      -6.297   8.322  64.526  1.00  0.00    -0.065 C  
BRANCH  16  17
HETATM   17  N   UNL     1      -6.620   9.783  64.251  1.00  0.00    -0.113 N  
HETATM   18  C   UNL     1      -8.136   9.992  64.127  1.00  0.00    -0.153 C  
HETATM   19  C   UNL     1      -5.956  10.304  62.985  1.00  0.00    -0.145 C  
BRANCH  17  20
HETATM   20  C   UNL     1      -6.160  10.626  65.481  1.00  0.00    -0.105 C  
BRANCH  20  21
HETATM   21  C   UNL     1      -7.065  10.535  66.750  1.00  0.00    -0.109 C  
BRANCH  21  22
HETATM   22  N   UNL     1      -7.330  11.879  67.254  1.00  0.00    -0.137 NA 
BRANCH  22  23
HETATM   23  C   UNL     1      -8.675  12.458  67.140  1.00  0.00    -0.195 C  
BRANCH  23  24
HETATM   24  C   UNL     1      -9.708  11.723  67.972  1.00  0.00    -0.185 A  
HETATM   25  C   UNL     1     -11.074  11.951  67.761  1.00  0.00    -0.295 A  
HETATM   26  C   UNL     1     -11.641  10.577  69.682  1.00  0.00    -0.271 A  
HETATM   27  C   UNL     1     -10.293  10.266  69.844  1.00  0.00    -0.281 A  
HETATM   28  C   UNL     1      -9.331  10.838  68.995  1.00  0.00    -0.168 A  
HETATM   29  C   UNL     1     -12.025  11.391  68.616  1.00  0.00    -0.317 A  
BRANCH  26  30
HETATM   30  O   UNL     1     -12.668  10.216  70.506  1.00  0.00    -0.280 OA 
HETATM   31  C   UNL     1     -12.915  10.992  71.670  1.00  0.00    -0.456 C  
ENDBRANCH  26  30
ENDBRANCH  23  24
ENDBRANCH  22  23
BRANCH  22  32
HETATM   32  C   UNL     1      -6.655  12.222  68.414  1.00  0.00    -0.060 A  
HETATM   33  N   UNL     1      -6.884  13.428  68.963  1.00  0.00    -0.111 NA 
HETATM   34  N   UNL     1      -5.930  11.272  69.017  1.00  0.00    -0.041 NA 
HETATM   35  C   UNL     1      -5.403  11.564  70.221  1.00  0.00    -0.107 A  
HETATM   36  C   UNL     1      -6.283  13.699  70.146  1.00  0.00    -0.095 A  
HETATM   37  C   UNL     1      -5.535  12.783  70.835  1.00  0.00    -0.173 A  
ENDBRANCH  22  32
ENDBRANCH  21  22
ENDBRANCH  20  21
ENDBRANCH  17  20
ENDBRANCH  16  17
ENDBRANCH  15  16
ENDBRANCH  14  15
ENDBRANCH  13  14
ENDBRANCH  12  13
ENDBRANCH  11  12
ENDBRANCH  10  11
ENDBRANCH   9  10
ENDBRANCH   8   9
ENDBRANCH   7   8
ENDBRANCH   6   7
ENDBRANCH   5   6
ENDBRANCH   4   5
ENDBRANCH   3   4
ENDBRANCH   2   3
TORSDOF 22
ENDMDL
MODEL      220
REMARK 921   NORMALIZED FREE ENERGY PREDICTED BY IDOCK:   -2.43 KCAL/MOL
REMARK 922        TOTAL FREE ENERGY PREDICTED BY IDOCK:  -10.02 KCAL/MOL
REMARK 923 INTER-LIGAND FREE ENERGY PREDICTED BY IDOCK:   -8.81 KCAL/MOL
REMARK 924 INTRA-LIGAND FREE ENERGY PREDICTED BY IDOCK:   -1.21 KCAL/MOL
REMARK 927      BINDING AFFINITY PREDICTED BY RF-SCORE:    0.00 PKD
ROOT
HETATM    1  C   UNL     1      -8.815   7.307  65.866  1.00  0.00    -0.136 C  
HETATM    2  C   UNL     1      -7.723   6.748  64.970  1.00  0.00    -0.108 C  
ENDROOT
BRANCH   2   3
HETATM    3  C   UNL     1      -8.073   5.342  64.493  1.00  0.00    -0.122 C  
BRANCH   3   4
HETATM    4  C   UNL     1      -7.129   4.314  65.102  1.00  0.00    -0.063 C  
BRANCH   4   5
HETATM    5  C   UNL     1      -6.940   4.573  66.591  1.00  0.00    -0.063 C  
BRANCH   5   6
HETATM    6  C   UNL     1      -7.120   3.286  67.382  1.00  0.00    -0.058 C  
BRANCH   6   7
HETATM    7  C   UNL     1      -7.917   3.553  68.649  1.00  0.00    -0.066 C  
BRANCH   7   8
HETATM    8  C   UNL     1      -7.762   5.003  69.076  1.00  0.00    -0.080 C  
BRANCH   8   9
HETATM    9  C   UNL     1      -8.042   5.136  70.563  1.00  0.00    -0.095 C  
BRANCH   9  10
HETATM   10  C   UNL     1      -8.891   3.974  71.050  1.00  0.00    -0.135 C  
BRANCH  10  11
HETATM   11  C   UNL     1     -10.130   4.497  71.761  1.00  0.00    -0.254 C  
BRANCH  11  12
HETATM   12  C   UNL     1      -9.946   4.401  73.269  1.00  0.00    -0.183 C  
BRANCH  12  13
HETATM   13  C   UNL     1      -9.424   5.708  73.840  1.00  0.00    -0.137 C  
BRANCH  13  14
HETATM   14  C   UNL     1     -10.416   6.859  73.643  1.00  0.00    -0.400 C  
BRANCH  14  15
HETATM   15  C   UNL     1      -9.961   7.923  72.633  1.00  0.00    -0.330 C  
BRANCH  15  16
HETATM   16  C   UNL     1     -10.960   8.030  71.485  1.00  0.00    -0.234 C  
BRANCH  16  17
HETATM   17  N   UNL     1     -10.694   9.157  70.497  1.00  0.00    -0.221 N  
HETATM   18  C   UNL     1     -10.773   8.646  69.052  1.00  0.00    -0.101 C  
HETATM   19  C   UNL     1      -9.335   9.810  70.704  1.00  0.00     0.037 C  
BRANCH  17  20
HETATM   20  C   UNL     1     -11.826  10.219  70.650  1.00  0.00    -0.347 C  
BRANCH  20  21
HETATM   21  C   UNL     1     -12.016  11.196  69.447  1.00  0.00    -0.349 C  
BRANCH  21  22
HETATM   22  N   UNL     1     -11.489  12.510  69.802  1.00  0.00    -0.196 NA 
BRANCH  22  23
HETATM   23  C   UNL     1     -10.611  13.230  68.870  1.00  0.00    -0.140 C  
BRANCH  23  24
HETATM   24  C   UNL     1     -10.925  12.937  67.416  1.00  0.00    -0.288 A  
HETATM   25  C   UNL     1     -10.693  11.662  66.888  1.00  0.00    -0.295 A  
HETATM   26  C   UNL     1     -11.247  12.439  64.654  1.00  0.00    -0.312 A  
HETATM   27  C   UNL     1     -11.574  13.686  65.182  1.00  0.00    -0.333 A  
HETATM   28  C   UNL     1     -11.411  13.935  66.555  1.00  0.00    -0.361 A  
HETATM   29  C   UNL     1     -10.842  11.423  65.520  1.00  0.00    -0.282 A  
BRANCH  26  30
HETATM   30  O   UNL     1     -11.217  12.093  63.335  1.00  0.00    -0.427 OA 
HETATM   31  C   UNL     1     -10.205  11.204  62.884  1.00  0.00    -0.115 C  
ENDBRANCH  26  30
ENDBRANCH  23  24
ENDBRANCH  22  23
BRANCH  22  32
HETATM   32  C   UNL     1     -12.353  13.322  70.518  1.00  0.00    -0.316 A  
HETATM   33  N   UNL     1     -13.129  12.764  71.465  1.00  0.00    -0.344 NA 
HETATM   34  N   UNL     1     -12.256  14.645  70.342  1.00  0.00    -0.308 NA 
HETATM   35  C   UNL     1     -12.988  15.434  71.151  1.00  0.00    -0.479 A  
HETATM   36  C   UNL     1     -13.895  13.594  72.213  1.00  0.00    -0.590 A  
HETATM   37  C   UNL     1     -13.849  14.958  72.106  1.00  0.00    -0.576 A  
ENDBRANCH  22  32
ENDBRANCH  21  22
ENDBRANCH  20  21
ENDBRANCH  17  20
ENDBRANCH  16  17
ENDBRANCH  15  16
ENDBRANCH  14  15
ENDBRANCH  13  14
ENDBRANCH  12  13
ENDBRANCH  11  12
ENDBRANCH  10  11
ENDBRANCH   9  10
ENDBRANCH   8   9
ENDBRANCH   7   8
ENDBRANCH   6   7
ENDBRANCH   5   6
ENDBRANCH   4   5
ENDBRANCH   3   4
ENDBRANCH   2   3
TORSDOF 22
ENDMDL
MODEL      221
REMARK 921   NORMALIZED FREE ENERGY PREDICTED BY IDOCK:   -2.42 KCAL/MOL
REMARK 922        TOTAL FREE ENERGY PREDICTED BY IDOCK:   -9.99 KCAL/MOL
REMARK 923 INTER-LIGAND FREE ENERGY PREDICTED BY IDOCK:   -7.61 KCAL/MOL
REMARK 924 INTRA-LIGAND FREE ENERGY PREDICTED BY IDOCK:   -2.38 KCAL/MOL
REMARK 927      BINDING AFFINITY PREDICTED BY RF-SCORE:    0.00 PKD
ROOT
HETATM    1  C   UNL     1     -12.046  13.198  69.313  1.00  0.00    -0.270 C  
HETATM    2  C   UNL     1     -12.408  14.381  70.193  1.00  0.00    -0.406 C  
ENDROOT
BRANCH   2   3
HETATM    3  C   UNL     1     -12.098  15.700  69.493  1.00  0.00    -0.307 C  
BRANCH   3   4
HETATM    4  C   UNL     1     -10.632  15.763  69.083  1.00  0.00    -0.242 C  
BRANCH   4   5
HETATM    5  C   UNL     1     -10.198  17.206  68.859  1.00  0.00    -0.332 C  
BRANCH   5   6
HETATM    6  C   UNL     1     -10.581  17.665  67.459  1.00  0.00    -0.345 C  
BRANCH   6   7
HETATM    7  C   UNL     1     -10.294  19.149  67.294  1.00  0.00    -0.523 C  
BRANCH   7   8
HETATM    8  C   UNL     1      -9.081  19.357  66.402  1.00  0.00    -0.397 C  
BRANCH   8   9
HETATM    9  C   UNL     1      -8.101  18.211  66.589  1.00  0.00    -0.283 C  
BRANCH   9  10
HETATM   10  C   UNL     1      -7.064  18.565  67.642  1.00  0.00    -0.215 C  
BRANCH  10  11
HETATM   11  C   UNL     1      -5.891  17.600  67.560  1.00  0.00    -0.153 C  
BRANCH  11  12
HETATM   12  C   UNL     1      -6.391  16.194  67.262  1.00  0.00    -0.204 C  
BRANCH  12  13
HETATM   13  C   UNL     1      -6.725  15.449  68.544  1.00  0.00    -0.113 C  
BRANCH  13  14
HETATM   14  C   UNL     1      -5.548  14.603  69.041  1.00  0.00    -0.088 C  
BRANCH  14  15
HETATM   15  C   UNL     1      -5.944  13.221  69.583  1.00  0.00    -0.117 C  
BRANCH  15  16
HETATM   16  C   UNL     1      -5.247  12.119  68.790  1.00  0.00    -0.050 C  
BRANCH  16  17
HETATM   17  N   UNL     1      -6.177  11.131  68.100  1.00  0.00    -0.049 N  
HETATM   18  C   UNL     1      -5.421  10.323  67.035  1.00  0.00    -0.041 C  
HETATM   19  C   UNL     1      -7.367  11.809  67.438  1.00  0.00    -0.136 C  
BRANCH  17  20
HETATM   20  C   UNL     1      -6.672  10.102  69.163  1.00  0.00    -0.056 C  
BRANCH  20  21
HETATM   21  C   UNL     1      -8.072  10.387  69.792  1.00  0.00    -0.044 C  
BRANCH  21  22
HETATM   22  N   UNL     1      -9.020   9.370  69.347  1.00  0.00    -0.148 NA 
BRANCH  22  23
HETATM   23  C   UNL     1      -8.566   8.255  68.506  1.00  0.00    -0.133 C  
BRANCH  23  24
HETATM   24  C   UNL     1      -8.805   8.493  67.027  1.00  0.00    -0.144 A  
HETATM   25  C   UNL     1      -7.945   7.932  66.076  1.00  0.00    -0.103 A  
HETATM   26  C   UNL     1      -9.067   9.137  64.290  1.00  0.00     0.073 A  
HETATM   27  C   UNL     1      -9.988   9.626  65.214  1.00  0.00    -0.159 A  
HETATM   28  C   UNL     1      -9.856   9.308  66.576  1.00  0.00    -0.331 A  
HETATM   29  C   UNL     1      -8.071   8.262  64.725  1.00  0.00    -0.151 A  
BRANCH  26  30
HETATM   30  O   UNL     1      -8.980   9.469  62.969  1.00  0.00    -0.241 OA 
HETATM   31  C   UNL     1      -9.601  10.666  62.523  1.00  0.00    -0.207 C  
ENDBRANCH  26  30
ENDBRANCH  23  24
ENDBRANCH  22  23
BRANCH  22  32
HETATM   32  C   UNL     1     -10.004   9.035  70.263  1.00  0.00    -0.195 A  
HETATM   33  N   UNL     1      -9.744   8.070  71.164  1.00  0.00    -0.158 NA 
HETATM   34  N   UNL     1     -11.101   9.798  70.308  1.00  0.00    -0.271 NA 
HETATM   35  C   UNL     1     -11.981   9.563  71.300  1.00  0.00    -0.365 A  
HETATM   36  C   UNL     1     -10.687   7.827  72.107  1.00  0.00    -0.248 A  
HETATM   37  C   UNL     1     -11.832   8.567  72.231  1.00  0.00    -0.453 A  
ENDBRANCH  22  32
ENDBRANCH  21  22
ENDBRANCH  20  21
ENDBRANCH  17  20
ENDBRANCH  16  17
ENDBRANCH  15  16
ENDBRANCH  14  15
ENDBRANCH  13  14
ENDBRANCH  12  13
ENDBRANCH  11  12
ENDBRANCH  10  11
ENDBRANCH   9  10
ENDBRANCH   8   9
ENDBRANCH   7   8
ENDBRANCH   6   7
ENDBRANCH   5   6
ENDBRANCH   4   5
ENDBRANCH   3   4
ENDBRANCH   2   3
TORSDOF 22
ENDMDL
MODEL      222
REMARK 921   NORMALIZED FREE ENERGY PREDICTED BY IDOCK:   -2.41 KCAL/MOL
REMARK 922        TOTAL FREE ENERGY PREDICTED BY IDOCK:   -9.97 KCAL/MOL
REMARK 923 INTER-LIGAND FREE ENERGY PREDICTED BY IDOCK:   -6.81 KCAL/MOL
REMARK 924 INTRA-LIGAND FREE ENERGY PREDICTED BY IDOCK:   -3.16 KCAL/MOL
REMARK 927      BINDING AFFINITY PREDICTED BY RF-SCORE:    0.00 PKD
ROOT
HETATM    1  C   UNL     1      -7.008   5.774  74.455  1.00  0.00    -0.081 C  
HETATM    2  C   UNL     1      -6.234   7.080  74.415  1.00  0.00    -0.078 C  
ENDROOT
BRANCH   2   3
HETATM    3  C   UNL     1      -6.062   7.570  72.981  1.00  0.00    -0.055 C  
BRANCH   3   4
HETATM    4  C   UNL     1      -7.064   6.894  72.054  1.00  0.00    -0.074 C  
BRANCH   4   5
HETATM    5  C   UNL     1      -7.975   7.926  71.402  1.00  0.00    -0.099 C  
BRANCH   5   6
HETATM    6  C   UNL     1      -8.891   8.558  72.440  1.00  0.00    -0.268 C  
BRANCH   6   7
HETATM    7  C   UNL     1      -9.782   7.500  73.071  1.00  0.00    -0.278 C  
BRANCH   7   8
HETATM    8  C   UNL     1     -11.245   7.885  72.926  1.00  0.00    -0.429 C  
BRANCH   8   9
HETATM    9  C   UNL     1     -11.957   6.880  72.036  1.00  0.00    -0.342 C  
BRANCH   9  10
HETATM   10  C   UNL     1     -11.237   5.542  72.063  1.00  0.00    -0.222 C  
BRANCH  10  11
HETATM   11  C   UNL     1     -10.895   5.108  70.645  1.00  0.00    -0.020 C  
BRANCH  11  12
HETATM   12  C   UNL     1     -11.187   6.238  69.668  1.00  0.00    -0.506 C  
BRANCH  12  13
HETATM   13  C   UNL     1     -10.115   6.321  68.594  1.00  0.00    -0.185 C  
BRANCH  13  14
HETATM   14  C   UNL     1      -9.800   7.770  68.208  1.00  0.00    -0.185 C  
BRANCH  14  15
HETATM   15  C   UNL     1      -9.446   7.970  66.726  1.00  0.00    -0.259 C  
BRANCH  15  16
HETATM   16  C   UNL     1      -8.268   8.929  66.584  1.00  0.00    -0.111 C  
BRANCH  16  17
HETATM   17  N   UNL     1      -8.457  10.039  65.560  1.00  0.00    -0.141 N  
HETATM   18  C   UNL     1      -9.724   9.802  64.727  1.00  0.00    -0.143 C  
HETATM   19  C   UNL     1      -7.274  10.170  64.612  1.00  0.00    -0.124 C  
BRANCH  17  20
HETATM   20  C   UNL     1      -8.678  11.379  66.327  1.00  0.00    -0.173 C  
BRANCH  20  21
HETATM   21  C   UNL     1      -7.388  12.161  66.726  1.00  0.00     0.084 C  
BRANCH  21  22
HETATM   22  N   UNL     1      -7.618  12.867  67.983  1.00  0.00    -0.123 NA 
BRANCH  22  23
HETATM   23  C   UNL     1      -8.983  13.221  68.391  1.00  0.00    -0.124 C  
BRANCH  23  24
HETATM   24  C   UNL     1      -9.227  14.718  68.407  1.00  0.00    -0.189 A  
HETATM   25  C   UNL     1     -10.368  15.239  69.030  1.00  0.00    -0.242 A  
HETATM   26  C   UNL     1      -9.843  17.468  68.220  1.00  0.00    -0.319 A  
HETATM   27  C   UNL     1      -8.656  16.979  67.678  1.00  0.00    -0.213 A  
HETATM   28  C   UNL     1      -8.351  15.611  67.768  1.00  0.00    -0.157 A  
HETATM   29  C   UNL     1     -10.674  16.597  68.925  1.00  0.00    -0.337 A  
BRANCH  26  30
HETATM   30  O   UNL     1     -10.341  18.732  68.090  1.00  0.00    -0.374 OA 
HETATM   31  C   UNL     1      -9.968  19.715  69.045  1.00  0.00    -0.399 C  
ENDBRANCH  26  30
ENDBRANCH  23  24
ENDBRANCH  22  23
BRANCH  22  32
HETATM   32  C   UNL     1      -6.781  12.507  69.027  1.00  0.00    -0.098 A  
HETATM   33  N   UNL     1      -6.198  13.478  69.752  1.00  0.00    -0.125 NA 
HETATM   34  N   UNL     1      -6.724  11.213  69.362  1.00  0.00    -0.107 NA 
HETATM   35  C   UNL     1      -6.034  10.889  70.471  1.00  0.00    -0.121 A  
HETATM   36  C   UNL     1      -5.461  13.099  70.825  1.00  0.00    -0.177 A  
HETATM   37  C   UNL     1      -5.359  11.800  71.243  1.00  0.00    -0.016 A  
ENDBRANCH  22  32
ENDBRANCH  21  22
ENDBRANCH  20  21
ENDBRANCH  17  20
ENDBRANCH  16  17
ENDBRANCH  15  16
ENDBRANCH  14  15
ENDBRANCH  13  14
ENDBRANCH  12  13
ENDBRANCH  11  12
ENDBRANCH  10  11
ENDBRANCH   9  10
ENDBRANCH   8   9
ENDBRANCH   7   8
ENDBRANCH   6   7
ENDBRANCH   5   6
ENDBRANCH   4   5
ENDBRANCH   3   4
ENDBRANCH   2   3
TORSDOF 22
ENDMDL
MODEL      223
REMARK 921   NORMALIZED FREE ENERGY PREDICTED BY IDOCK:   -2.40 KCAL/MOL
REMARK 922        TOTAL FREE ENERGY PREDICTED BY IDOCK:   -9.94 KCAL/MOL
REMARK 923 INTER-LIGAND FREE ENERGY PREDICTED BY IDOCK:   -7.23 KCAL/MOL
REMARK 924 INTRA-LIGAND FREE ENERGY PREDICTED BY IDOCK:   -2.72 KCAL/MOL
REMARK 927      BINDING AFFINITY PREDICTED BY RF-SCORE:    0.00 PKD
ROOT
HETATM    1  C   UNL     1     -10.673   3.602  63.296  1.00  0.00    -0.220 C  
HETATM    2  C   UNL     1      -9.181   3.327  63.237  1.00  0.00    -0.095 C  
ENDROOT
BRANCH   2   3
HETATM    3  C   UNL     1      -8.403   4.356  64.049  1.00  0.00    -0.107 C  
BRANCH   3   4
HETATM    4  C   UNL     1      -8.357   3.962  65.520  1.00  0.00    -0.105 C  
BRANCH   4   5
HETATM    5  C   UNL     1      -7.733   2.582  65.687  1.00  0.00    -0.077 C  
BRANCH   5   6
HETATM    6  C   UNL     1      -6.320   2.701  66.239  1.00  0.00    -0.025 C  
BRANCH   6   7
HETATM    7  C   UNL     1      -6.197   3.937  67.115  1.00  0.00    -0.036 C  
BRANCH   7   8
HETATM    8  C   UNL     1      -5.675   3.560  68.492  1.00  0.00    -0.022 C  
BRANCH   8   9
HETATM    9  C   UNL     1      -6.222   2.202  68.897  1.00  0.00    -0.025 C  
BRANCH   9  10
HETATM   10  C   UNL     1      -7.250   2.351  70.005  1.00  0.00    -0.033 C  
BRANCH  10  11
HETATM   11  C   UNL     1      -8.654   2.310  69.420  1.00  0.00    -0.106 C  
BRANCH  11  12
HETATM   12  C   UNL     1      -9.437   3.540  69.855  1.00  0.00    -0.254 C  
BRANCH  12  13
HETATM   13  C   UNL     1      -9.213   4.698  68.897  1.00  0.00    -0.181 C  
BRANCH  13  14
HETATM   14  C   UNL     1     -10.527   5.382  68.504  1.00  0.00    -0.192 C  
BRANCH  14  15
HETATM   15  C   UNL     1     -11.146   6.249  69.611  1.00  0.00    -0.479 C  
BRANCH  15  16
HETATM   16  C   UNL     1     -10.081   7.134  70.252  1.00  0.00    -0.188 C  
BRANCH  16  17
HETATM   17  N   UNL     1     -10.509   8.568  70.526  1.00  0.00    -0.199 N  
HETATM   18  C   UNL     1      -9.867   9.092  71.819  1.00  0.00    -0.260 C  
HETATM   19  C   UNL     1     -12.019   8.718  70.641  1.00  0.00    -0.054 C  
BRANCH  17  20
HETATM   20  C   UNL     1      -9.969   9.468  69.372  1.00  0.00    -0.191 C  
BRANCH  20  21
HETATM   21  C   UNL     1     -11.006   9.871  68.276  1.00  0.00    -0.196 C  
BRANCH  21  22
HETATM   22  N   UNL     1     -10.523  11.048  67.561  1.00  0.00    -0.198 NA 
BRANCH  22  23
HETATM   23  C   UNL     1      -9.653  12.019  68.238  1.00  0.00    -0.204 C  
BRANCH  23  24
HETATM   24  C   UNL     1      -9.757  13.415  67.655  1.00  0.00    -0.222 A  
HETATM   25  C   UNL     1      -8.620  14.049  67.140  1.00  0.00    -0.220 A  
HETATM   26  C   UNL     1      -9.867  16.107  66.810  1.00  0.00    -0.245 A  
HETATM   27  C   UNL     1     -11.027  15.459  67.229  1.00  0.00    -0.317 A  
HETATM   28  C   UNL     1     -10.971  14.120  67.652  1.00  0.00    -0.278 A  
HETATM   29  C   UNL     1      -8.676  15.384  66.735  1.00  0.00    -0.304 A  
BRANCH  26  30
HETATM   30  O   UNL     1      -9.736  17.432  66.508  1.00  0.00    -0.270 OA 
HETATM   31  C   UNL     1     -10.605  18.365  67.133  1.00  0.00    -0.383 C  
ENDBRANCH  26  30
ENDBRANCH  23  24
ENDBRANCH  22  23
BRANCH  22  32
HETATM   32  C   UNL     1     -10.225  10.848  66.222  1.00  0.00    -0.247 A  
HETATM   33  N   UNL     1     -11.001  11.433  65.293  1.00  0.00    -0.229 NA 
HETATM   34  N   UNL     1      -9.085  10.213  65.926  1.00  0.00    -0.150 NA 
HETATM   35  C   UNL     1      -8.725  10.158  64.629  1.00  0.00    -0.189 A  
HETATM   36  C   UNL     1     -10.632  11.297  63.996  1.00  0.00    -0.386 A  
HETATM   37  C   UNL     1      -9.477  10.675  63.606  1.00  0.00    -0.337 A  
ENDBRANCH  22  32
ENDBRANCH  21  22
ENDBRANCH  20  21
ENDBRANCH  17  20
ENDBRANCH  16  17
ENDBRANCH  15  16
ENDBRANCH  14  15
ENDBRANCH  13  14
ENDBRANCH  12  13
ENDBRANCH  11  12
ENDBRANCH  10  11
ENDBRANCH   9  10
ENDBRANCH   8   9
ENDBRANCH   7   8
ENDBRANCH   6   7
ENDBRANCH   5   6
ENDBRANCH   4   5
ENDBRANCH   3   4
ENDBRANCH   2   3
TORSDOF 22
ENDMDL
MODEL      224
REMARK 921   NORMALIZED FREE ENERGY PREDICTED BY IDOCK:   -2.39 KCAL/MOL
REMARK 922        TOTAL FREE ENERGY PREDICTED BY IDOCK:   -9.91 KCAL/MOL
REMARK 923 INTER-LIGAND FREE ENERGY PREDICTED BY IDOCK:   -8.42 KCAL/MOL
REMARK 924 INTRA-LIGAND FREE ENERGY PREDICTED BY IDOCK:   -1.50 KCAL/MOL
REMARK 927      BINDING AFFINITY PREDICTED BY RF-SCORE:    0.00 PKD
ROOT
HETATM    1  C   UNL     1      -9.800  15.613  69.783  1.00  0.00    -0.260 C  
HETATM    2  C   UNL     1     -11.247  15.881  70.157  1.00  0.00    -0.368 C  
ENDROOT
BRANCH   2   3
HETATM    3  C   UNL     1     -12.199  15.108  69.250  1.00  0.00    -0.212 C  
BRANCH   3   4
HETATM    4  C   UNL     1     -11.963  13.608  69.373  1.00  0.00    -0.394 C  
BRANCH   4   5
HETATM    5  C   UNL     1     -11.835  12.970  67.995  1.00  0.00    -0.391 C  
BRANCH   5   6
HETATM    6  C   UNL     1     -11.632  14.038  66.931  1.00  0.00    -0.407 C  
BRANCH   6   7
HETATM    7  C   UNL     1     -12.517  13.757  65.727  1.00  0.00    -0.527 C  
BRANCH   7   8
HETATM    8  C   UNL     1     -11.869  14.288  64.458  1.00  0.00    -0.456 C  
BRANCH   8   9
HETATM    9  C   UNL     1     -12.167  13.354  63.298  1.00  0.00    -0.314 C  
BRANCH   9  10
HETATM   10  C   UNL     1     -11.748  11.934  63.636  1.00  0.00    -0.572 C  
BRANCH  10  11
HETATM   11  C   UNL     1     -10.322  11.687  63.167  1.00  0.00    -0.383 C  
BRANCH  11  12
HETATM   12  C   UNL     1      -9.745  10.467  63.871  1.00  0.00    -0.384 C  
BRANCH  12  13
HETATM   13  C   UNL     1     -10.029  10.512  65.363  1.00  0.00    -0.353 C  
BRANCH  13  14
HETATM   14  C   UNL     1      -9.867   9.137  66.020  1.00  0.00    -0.342 C  
BRANCH  14  15
HETATM   15  C   UNL     1      -8.432   8.589  65.999  1.00  0.00    -0.150 C  
BRANCH  15  16
HETATM   16  C   UNL     1      -8.442   7.078  65.787  1.00  0.00    -0.149 C  
BRANCH  16  17
HETATM   17  N   UNL     1      -8.212   6.247  67.041  1.00  0.00    -0.109 N  
HETATM   18  C   UNL     1      -7.416   4.975  66.714  1.00  0.00    -0.087 C  
HETATM   19  C   UNL     1      -9.510   5.842  67.724  1.00  0.00    -0.112 C  
BRANCH  17  20
HETATM   20  C   UNL     1      -7.329   7.078  68.023  1.00  0.00    -0.097 C  
BRANCH  20  21
HETATM   21  C   UNL     1      -8.095   8.030  68.994  1.00  0.00    -0.123 C  
BRANCH  21  22
HETATM   22  N   UNL     1      -7.505   7.941  70.326  1.00  0.00    -0.076 NA 
BRANCH  22  23
HETATM   23  C   UNL     1      -6.350   8.777  70.680  1.00  0.00    -0.041 C  
BRANCH  23  24
HETATM   24  C   UNL     1      -6.448  10.186  70.128  1.00  0.00    -0.118 A  
HETATM   25  C   UNL     1      -5.586  11.186  70.595  1.00  0.00    -0.131 A  
HETATM   26  C   UNL     1      -6.784  12.871  69.319  1.00  0.00    -0.061 A  
HETATM   27  C   UNL     1      -7.586  11.871  68.774  1.00  0.00    -0.090 A  
HETATM   28  C   UNL     1      -7.421  10.536  69.178  1.00  0.00    -0.114 A  
HETATM   29  C   UNL     1      -5.764  12.514  70.202  1.00  0.00    -0.155 A  
BRANCH  26  30
HETATM   30  O   UNL     1      -6.916  14.217  69.135  1.00  0.00    -0.109 OA 
HETATM   31  C   UNL     1      -5.758  15.035  69.212  1.00  0.00    -0.095 C  
ENDBRANCH  26  30
ENDBRANCH  23  24
ENDBRANCH  22  23
BRANCH  22  32
HETATM   32  C   UNL     1      -8.405   7.740  71.361  1.00  0.00    -0.111 A  
HETATM   33  N   UNL     1      -9.518   7.024  71.119  1.00  0.00    -0.165 NA 
HETATM   34  N   UNL     1      -8.042   8.132  72.588  1.00  0.00    -0.149 NA 
HETATM   35  C   UNL     1      -8.850   7.795  73.611  1.00  0.00    -0.266 A  
HETATM   36  C   UNL     1     -10.332   6.763  72.170  1.00  0.00    -0.200 A  
HETATM   37  C   UNL     1     -10.032   7.117  73.458  1.00  0.00    -0.344 A  
ENDBRANCH  22  32
ENDBRANCH  21  22
ENDBRANCH  20  21
ENDBRANCH  17  20
ENDBRANCH  16  17
ENDBRANCH  15  16
ENDBRANCH  14  15
ENDBRANCH  13  14
ENDBRANCH  12  13
ENDBRANCH  11  12
ENDBRANCH  10  11
ENDBRANCH   9  10
ENDBRANCH   8   9
ENDBRANCH   7   8
ENDBRANCH   6   7
ENDBRANCH   5   6
ENDBRANCH   4   5
ENDBRANCH   3   4
ENDBRANCH   2   3
TORSDOF 22
ENDMDL
MODEL      225
REMARK 921   NORMALIZED FREE ENERGY PREDICTED BY IDOCK:   -2.38 KCAL/MOL
REMARK 922        TOTAL FREE ENERGY PREDICTED BY IDOCK:   -9.90 KCAL/MOL
REMARK 923 INTER-LIGAND FREE ENERGY PREDICTED BY IDOCK:   -7.18 KCAL/MOL
REMARK 924 INTRA-LIGAND FREE ENERGY PREDICTED BY IDOCK:   -2.72 KCAL/MOL
REMARK 927      BINDING AFFINITY PREDICTED BY RF-SCORE:    0.00 PKD
ROOT
HETATM    1  C   UNL     1      -9.284  16.064  68.179  1.00  0.00    -0.195 C  
HETATM    2  C   UNL     1      -8.014  16.020  69.011  1.00  0.00    -0.224 C  
ENDROOT
BRANCH   2   3
HETATM    3  C   UNL     1      -7.578  14.582  69.268  1.00  0.00    -0.073 C  
BRANCH   3   4
HETATM    4  C   UNL     1      -7.538  13.788  67.968  1.00  0.00    -0.145 C  
BRANCH   4   5
HETATM    5  C   UNL     1      -8.014  12.359  68.196  1.00  0.00    -0.153 C  
BRANCH   5   6
HETATM    6  C   UNL     1      -6.885  11.374  67.928  1.00  0.00    -0.072 C  
BRANCH   6   7
HETATM    7  C   UNL     1      -7.092  10.688  66.587  1.00  0.00    -0.124 C  
BRANCH   7   8
HETATM    8  C   UNL     1      -5.754  10.419  65.918  1.00  0.00    -0.097 C  
BRANCH   8   9
HETATM    9  C   UNL     1      -5.395   8.949  66.056  1.00  0.00    -0.037 C  
BRANCH   9  10
HETATM   10  C   UNL     1      -6.651   8.094  66.073  1.00  0.00    -0.046 C  
BRANCH  10  11
HETATM   11  C   UNL     1      -6.343   6.709  65.526  1.00  0.00    -0.045 C  
BRANCH  11  12
HETATM   12  C   UNL     1      -6.204   5.715  66.670  1.00  0.00    -0.031 C  
BRANCH  12  13
HETATM   13  C   UNL     1      -6.509   6.372  68.006  1.00  0.00    -0.049 C  
BRANCH  13  14
HETATM   14  C   UNL     1      -6.289   5.414  69.182  1.00  0.00    -0.034 C  
BRANCH  14  15
HETATM   15  C   UNL     1      -7.411   5.429  70.231  1.00  0.00    -0.072 C  
BRANCH  15  16
HETATM   16  C   UNL     1      -8.596   6.250  69.730  1.00  0.00    -0.137 C  
BRANCH  16  17
HETATM   17  N   UNL     1      -9.852   5.450  69.417  1.00  0.00    -0.167 N  
HETATM   18  C   UNL     1      -9.910   4.171  70.264  1.00  0.00    -0.169 C  
HETATM   19  C   UNL     1      -9.949   5.061  67.949  1.00  0.00    -0.138 C  
BRANCH  17  20
HETATM   20  C   UNL     1     -11.092   6.305  69.825  1.00  0.00    -0.406 C  
BRANCH  20  21
HETATM   21  C   UNL     1     -11.485   6.262  71.335  1.00  0.00    -0.293 C  
BRANCH  21  22
HETATM   22  N   UNL     1     -11.055   7.497  71.984  1.00  0.00    -0.238 NA 
BRANCH  22  23
HETATM   23  C   UNL     1     -12.038   8.539  72.312  1.00  0.00    -0.387 C  
BRANCH  23  24
HETATM   24  C   UNL     1     -11.970   9.732  71.378  1.00  0.00    -0.493 A  
HETATM   25  C   UNL     1     -11.111   9.712  70.273  1.00  0.00    -0.327 A  
HETATM   26  C   UNL     1     -11.625  12.035  69.781  1.00  0.00    -0.276 A  
HETATM   27  C   UNL     1     -12.553  12.038  70.820  1.00  0.00    -0.312 A  
HETATM   28  C   UNL     1     -12.723  10.893  71.616  1.00  0.00    -0.498 A  
HETATM   29  C   UNL     1     -10.935  10.857  69.493  1.00  0.00    -0.306 A  
BRANCH  26  30
HETATM   30  O   UNL     1     -11.249  13.102  69.018  1.00  0.00    -0.248 OA 
HETATM   31  C   UNL     1     -11.787  13.231  67.710  1.00  0.00    -0.353 C  
ENDBRANCH  26  30
ENDBRANCH  23  24
ENDBRANCH  22  23
BRANCH  22  32
HETATM   32  C   UNL     1     -10.036   7.357  72.912  1.00  0.00    -0.244 A  
HETATM   33  N   UNL     1      -9.661   6.117  73.277  1.00  0.00    -0.146 NA 
HETATM   34  N   UNL     1      -9.370   8.458  73.277  1.00  0.00    -0.165 NA 
HETATM   35  C   UNL     1      -8.285   8.296  74.058  1.00  0.00    -0.207 A  
HETATM   36  C   UNL     1      -8.601   6.008  74.114  1.00  0.00    -0.119 A  
HETATM   37  C   UNL     1      -7.857   7.080  74.526  1.00  0.00    -0.152 A  
ENDBRANCH  22  32
ENDBRANCH  21  22
ENDBRANCH  20  21
ENDBRANCH  17  20
ENDBRANCH  16  17
ENDBRANCH  15  16
ENDBRANCH  14  15
ENDBRANCH  13  14
ENDBRANCH  12  13
ENDBRANCH  11  12
ENDBRANCH  10  11
ENDBRANCH   9  10
ENDBRANCH   8   9
ENDBRANCH   7   8
ENDBRANCH   6   7
ENDBRANCH   5   6
ENDBRANCH   4   5
ENDBRANCH   3   4
ENDBRANCH   2   3
TORSDOF 22
ENDMDL
MODEL      226
REMARK 921   NORMALIZED FREE ENERGY PREDICTED BY IDOCK:   -2.38 KCAL/MOL
REMARK 922        TOTAL FREE ENERGY PREDICTED BY IDOCK:   -9.89 KCAL/MOL
REMARK 923 INTER-LIGAND FREE ENERGY PREDICTED BY IDOCK:   -7.65 KCAL/MOL
REMARK 924 INTRA-LIGAND FREE ENERGY PREDICTED BY IDOCK:   -2.24 KCAL/MOL
REMARK 927      BINDING AFFINITY PREDICTED BY RF-SCORE:    0.00 PKD
ROOT
HETATM    1  C   UNL     1     -11.576   1.723  62.349  1.00  0.00    -0.202 C  
HETATM    2  C   UNL     1     -10.682   2.950  62.402  1.00  0.00    -0.158 C  
ENDROOT
BRANCH   2   3
HETATM    3  C   UNL     1      -9.986   3.061  63.755  1.00  0.00    -0.162 C  
BRANCH   3   4
HETATM    4  C   UNL     1     -10.613   4.166  64.596  1.00  0.00    -0.176 C  
BRANCH   4   5
HETATM    5  C   UNL     1      -9.588   4.758  65.555  1.00  0.00    -0.172 C  
BRANCH   5   6
HETATM    6  C   UNL     1     -10.112   4.722  66.982  1.00  0.00    -0.228 C  
BRANCH   6   7
HETATM    7  C   UNL     1      -9.151   3.958  67.878  1.00  0.00    -0.187 C  
BRANCH   7   8
HETATM    8  C   UNL     1      -8.754   4.807  69.075  1.00  0.00    -0.108 C  
BRANCH   8   9
HETATM    9  C   UNL     1      -7.242   4.924  69.146  1.00  0.00    -0.053 C  
BRANCH   9  10
HETATM   10  C   UNL     1      -6.641   4.916  67.750  1.00  0.00    -0.050 C  
BRANCH  10  11
HETATM   11  C   UNL     1      -5.311   5.653  67.752  1.00  0.00    -0.004 C  
BRANCH  11  12
HETATM   12  C   UNL     1      -5.417   6.922  66.919  1.00  0.00    -0.017 C  
BRANCH  12  13
HETATM   13  C   UNL     1      -6.849   7.166  66.474  1.00  0.00    -0.065 C  
BRANCH  13  14
HETATM   14  C   UNL     1      -7.490   8.341  67.221  1.00  0.00    -0.089 C  
BRANCH  14  15
HETATM   15  C   UNL     1      -9.027   8.337  67.209  1.00  0.00    -0.149 C  
BRANCH  15  16
HETATM   16  C   UNL     1      -9.553   9.218  66.080  1.00  0.00    -0.260 C  
BRANCH  16  17
HETATM   17  N   UNL     1      -9.759  10.682  66.443  1.00  0.00    -0.190 N  
HETATM   18  C   UNL     1     -10.648  11.381  65.405  1.00  0.00    -0.275 C  
HETATM   19  C   UNL     1      -8.451  11.450  66.555  1.00  0.00    -0.170 C  
BRANCH  17  20
HETATM   20  C   UNL     1     -10.533  10.745  67.797  1.00  0.00    -0.208 C  
BRANCH  20  21
HETATM   21  C   UNL     1     -11.886  11.523  67.776  1.00  0.00    -0.154 C  
BRANCH  21  22
HETATM   22  N   UNL     1     -11.719  12.805  68.453  1.00  0.00    -0.322 NA 
BRANCH  22  23
HETATM   23  C   UNL     1     -11.940  14.060  67.723  1.00  0.00    -0.357 C  
BRANCH  23  24
HETATM   24  C   UNL     1     -10.663  14.843  67.491  1.00  0.00    -0.276 A  
HETATM   25  C   UNL     1     -10.591  15.781  66.453  1.00  0.00    -0.307 A  
HETATM   26  C   UNL     1      -8.221  16.118  66.866  1.00  0.00    -0.238 A  
HETATM   27  C   UNL     1      -8.301  15.259  67.961  1.00  0.00    -0.146 A  
HETATM   28  C   UNL     1      -9.515  14.623  68.270  1.00  0.00    -0.211 A  
HETATM   29  C   UNL     1      -9.379  16.400  66.141  1.00  0.00    -0.360 A  
BRANCH  26  30
HETATM   30  O   UNL     1      -7.091  16.693  66.361  1.00  0.00    -0.218 OA 
HETATM   31  C   UNL     1      -5.888  16.611  67.111  1.00  0.00    -0.159 C  
ENDBRANCH  26  30
ENDBRANCH  23  24
ENDBRANCH  22  23
BRANCH  22  32
HETATM   32  C   UNL     1     -12.123  12.834  69.779  1.00  0.00    -0.237 A  
HETATM   33  N   UNL     1     -12.258  14.026  70.388  1.00  0.00    -0.341 NA 
HETATM   34  N   UNL     1     -12.513  11.682  70.336  1.00  0.00    -0.257 NA 
HETATM   35  C   UNL     1     -13.049  11.739  71.570  1.00  0.00    -0.287 A  
HETATM   36  C   UNL     1     -12.745  14.028  71.652  1.00  0.00    -0.339 A  
HETATM   37  C   UNL     1     -13.176  12.898  72.292  1.00  0.00    -0.519 A  
ENDBRANCH  22  32
ENDBRANCH  21  22
ENDBRANCH  20  21
ENDBRANCH  17  20
ENDBRANCH  16  17
ENDBRANCH  15  16
ENDBRANCH  14  15
ENDBRANCH  13  14
ENDBRANCH  12  13
ENDBRANCH  11  12
ENDBRANCH  10  11
ENDBRANCH   9  10
ENDBRANCH   8   9
ENDBRANCH   7   8
ENDBRANCH   6   7
ENDBRANCH   5   6
ENDBRANCH   4   5
ENDBRANCH   3   4
ENDBRANCH   2   3
TORSDOF 22
ENDMDL
MODEL      227
REMARK 921   NORMALIZED FREE ENERGY PREDICTED BY IDOCK:   -2.33 KCAL/MOL
REMARK 922        TOTAL FREE ENERGY PREDICTED BY IDOCK:   -9.77 KCAL/MOL
REMARK 923 INTER-LIGAND FREE ENERGY PREDICTED BY IDOCK:   -7.36 KCAL/MOL
REMARK 924 INTRA-LIGAND FREE ENERGY PREDICTED BY IDOCK:   -2.41 KCAL/MOL
REMARK 927      BINDING AFFINITY PREDICTED BY RF-SCORE:    0.00 PKD
ROOT
HETATM    1  C   UNL     1      -9.156  14.056  66.587  1.00  0.00    -0.221 C  
HETATM    2  C   UNL     1      -7.814  13.839  67.263  1.00  0.00    -0.115 C  
ENDROOT
BRANCH   2   3
HETATM    3  C   UNL     1      -7.979  13.685  68.771  1.00  0.00    -0.022 C  
BRANCH   3   4
HETATM    4  C   UNL     1      -7.495  14.933  69.498  1.00  0.00    -0.162 C  
BRANCH   4   5
HETATM    5  C   UNL     1      -7.089  16.012  68.503  1.00  0.00    -0.132 C  
BRANCH   5   6
HETATM    6  C   UNL     1      -7.894  17.282  68.737  1.00  0.00    -0.254 C  
BRANCH   6   7
HETATM    7  C   UNL     1      -9.289  17.138  68.148  1.00  0.00    -0.264 C  
BRANCH   7   8
HETATM    8  C   UNL     1     -10.335  17.184  69.250  1.00  0.00    -0.257 C  
BRANCH   8   9
HETATM    9  C   UNL     1     -11.524  16.319  68.868  1.00  0.00    -0.282 C  
BRANCH   9  10
HETATM   10  C   UNL     1     -11.421  14.953  69.525  1.00  0.00    -0.325 C  
BRANCH  10  11
HETATM   11  C   UNL     1     -12.113  13.908  68.662  1.00  0.00    -0.337 C  
BRANCH  11  12
HETATM   12  C   UNL     1     -11.712  12.511  69.112  1.00  0.00    -0.375 C  
BRANCH  12  13
HETATM   13  C   UNL     1     -11.932  12.333  70.605  1.00  0.00    -0.218 C  
BRANCH  13  14
HETATM   14  C   UNL     1     -12.914  11.197  70.910  1.00  0.00    -0.276 C  
BRANCH  14  15
HETATM   15  C   UNL     1     -12.288   9.995  71.635  1.00  0.00    -0.486 C  
BRANCH  15  16
HETATM   16  C   UNL     1     -11.528   9.114  70.648  1.00  0.00    -0.262 C  
BRANCH  16  17
HETATM   17  N   UNL     1     -10.909   7.858  71.245  1.00  0.00    -0.232 N  
HETATM   18  C   UNL     1     -11.734   6.616  70.879  1.00  0.00    -0.375 C  
HETATM   19  C   UNL     1     -10.786   7.927  72.760  1.00  0.00    -0.386 C  
BRANCH  17  20
HETATM   20  C   UNL     1      -9.501   7.655  70.604  1.00  0.00    -0.163 C  
BRANCH  20  21
HETATM   21  C   UNL     1      -9.488   7.151  69.127  1.00  0.00    -0.147 C  
BRANCH  21  22
HETATM   22  N   UNL     1      -8.107   7.015  68.673  1.00  0.00    -0.120 NA 
BRANCH  22  23
HETATM   23  C   UNL     1      -7.591   5.703  68.261  1.00  0.00    -0.081 C  
BRANCH  23  24
HETATM   24  C   UNL     1      -8.280   5.157  67.026  1.00  0.00    -0.107 A  
HETATM   25  C   UNL     1      -9.672   5.241  66.901  1.00  0.00    -0.170 A  
HETATM   26  C   UNL     1      -9.611   3.914  64.867  1.00  0.00    -0.177 A  
HETATM   27  C   UNL     1      -8.220   3.905  64.928  1.00  0.00    -0.093 A  
HETATM   28  C   UNL     1      -7.557   4.521  66.003  1.00  0.00    -0.086 A  
HETATM   29  C   UNL     1     -10.327   4.615  65.839  1.00  0.00    -0.315 A  
BRANCH  26  30
HETATM   30  O   UNL     1     -10.394   3.245  63.972  1.00  0.00    -0.191 OA 
HETATM   31  C   UNL     1     -10.429   3.694  62.625  1.00  0.00    -0.200 C  
ENDBRANCH  26  30
ENDBRANCH  23  24
ENDBRANCH  22  23
BRANCH  22  32
HETATM   32  C   UNL     1      -7.617   8.081  67.936  1.00  0.00    -0.112 A  
HETATM   33  N   UNL     1      -8.447   8.716  67.088  1.00  0.00    -0.114 NA 
HETATM   34  N   UNL     1      -6.388   8.525  68.223  1.00  0.00    -0.054 NA 
HETATM   35  C   UNL     1      -5.978   9.653  67.614  1.00  0.00    -0.051 A  
HETATM   36  C   UNL     1      -7.968   9.812  66.451  1.00  0.00    -0.109 A  
HETATM   37  C   UNL     1      -6.728  10.339  66.694  1.00  0.00    -0.082 A  
ENDBRANCH  22  32
ENDBRANCH  21  22
ENDBRANCH  20  21
ENDBRANCH  17  20
ENDBRANCH  16  17
ENDBRANCH  15  16
ENDBRANCH  14  15
ENDBRANCH  13  14
ENDBRANCH  12  13
ENDBRANCH  11  12
ENDBRANCH  10  11
ENDBRANCH   9  10
ENDBRANCH   8   9
ENDBRANCH   7   8
ENDBRANCH   6   7
ENDBRANCH   5   6
ENDBRANCH   4   5
ENDBRANCH   3   4
ENDBRANCH   2   3
TORSDOF 22
ENDMDL
MODEL      228
REMARK 921   NORMALIZED FREE ENERGY PREDICTED BY IDOCK:   -2.29 KCAL/MOL
REMARK 922        TOTAL FREE ENERGY PREDICTED BY IDOCK:   -9.68 KCAL/MOL
REMARK 923 INTER-LIGAND FREE ENERGY PREDICTED BY IDOCK:   -6.66 KCAL/MOL
REMARK 924 INTRA-LIGAND FREE ENERGY PREDICTED BY IDOCK:   -3.02 KCAL/MOL
REMARK 927      BINDING AFFINITY PREDICTED BY RF-SCORE:    0.00 PKD
ROOT
HETATM    1  C   UNL     1      -6.175  19.655  70.250  1.00  0.00    -0.274 C  
HETATM    2  C   UNL     1      -5.544  19.809  68.877  1.00  0.00    -0.244 C  
ENDROOT
BRANCH   2   3
HETATM    3  C   UNL     1      -5.339  18.451  68.214  1.00  0.00    -0.168 C  
BRANCH   3   4
HETATM    4  C   UNL     1      -5.648  18.525  66.724  1.00  0.00    -0.165 C  
BRANCH   4   5
HETATM    5  C   UNL     1      -7.148  18.408  66.480  1.00  0.00    -0.251 C  
BRANCH   5   6
HETATM    6  C   UNL     1      -7.687  19.687  65.857  1.00  0.00    -0.307 C  
BRANCH   6   7
HETATM    7  C   UNL     1      -8.732  20.315  66.765  1.00  0.00    -0.353 C  
BRANCH   7   8
HETATM    8  C   UNL     1      -9.134  19.343  67.862  1.00  0.00    -0.377 C  
BRANCH   8   9
HETATM    9  C   UNL     1     -10.536  18.821  67.601  1.00  0.00    -0.481 C  
BRANCH   9  10
HETATM   10  C   UNL     1     -10.714  17.443  68.214  1.00  0.00    -0.327 C  
BRANCH  10  11
HETATM   11  C   UNL     1     -10.449  16.371  67.167  1.00  0.00    -0.297 C  
BRANCH  11  12
HETATM   12  C   UNL     1      -9.213  15.567  67.545  1.00  0.00    -0.200 C  
BRANCH  12  13
HETATM   13  C   UNL     1      -8.776  15.873  68.967  1.00  0.00    -0.236 C  
BRANCH  13  14
HETATM   14  C   UNL     1      -7.532  15.073  69.371  1.00  0.00    -0.196 C  
BRANCH  14  15
HETATM   15  C   UNL     1      -7.110  14.002  68.354  1.00  0.00    -0.102 C  
BRANCH  15  16
HETATM   16  C   UNL     1      -6.789  12.690  69.065  1.00  0.00    -0.083 C  
BRANCH  16  17
HETATM   17  N   UNL     1      -7.641  11.501  68.645  1.00  0.00    -0.128 N  
HETATM   18  C   UNL     1      -7.161  10.934  67.301  1.00  0.00    -0.097 C  
HETATM   19  C   UNL     1      -9.117  11.849  68.523  1.00  0.00    -0.123 C  
BRANCH  17  20
HETATM   20  C   UNL     1      -7.445  10.364  69.696  1.00  0.00    -0.157 C  
BRANCH  20  21
HETATM   21  C   UNL     1      -8.711   9.512  70.026  1.00  0.00    -0.221 C  
BRANCH  21  22
HETATM   22  N   UNL     1      -8.317   8.123  70.241  1.00  0.00    -0.122 NA 
BRANCH  22  23
HETATM   23  C   UNL     1      -7.250   7.523  69.430  1.00  0.00    -0.082 C  
BRANCH  23  24
HETATM   24  C   UNL     1      -7.707   7.151  68.033  1.00  0.00    -0.113 A  
HETATM   25  C   UNL     1      -9.026   6.738  67.810  1.00  0.00    -0.116 A  
HETATM   26  C   UNL     1      -8.511   6.197  65.499  1.00  0.00    -0.149 A  
HETATM   27  C   UNL     1      -7.222   6.695  65.682  1.00  0.00    -0.070 A  
HETATM   28  C   UNL     1      -6.821   7.166  66.943  1.00  0.00    -0.072 A  
HETATM   29  C   UNL     1      -9.416   6.257  66.559  1.00  0.00    -0.181 A  
BRANCH  26  30
HETATM   30  O   UNL     1      -8.997   5.581  64.383  1.00  0.00     0.030 OA 
HETATM   31  C   UNL     1      -8.406   5.875  63.126  1.00  0.00    -0.002 C  
ENDBRANCH  26  30
ENDBRANCH  23  24
ENDBRANCH  22  23
BRANCH  22  32
HETATM   32  C   UNL     1      -8.344   7.697  71.560  1.00  0.00    -0.107 A  
HETATM   33  N   UNL     1      -7.664   6.584  71.893  1.00  0.00    -0.097 NA 
HETATM   34  N   UNL     1      -8.912   8.503  72.464  1.00  0.00    -0.333 NA 
HETATM   35  C   UNL     1      -8.799   8.158  73.760  1.00  0.00    -0.195 A  
HETATM   36  C   UNL     1      -7.630   6.244  73.204  1.00  0.00    -0.096 A  
HETATM   37  C   UNL     1      -8.175   7.016  74.194  1.00  0.00    -0.162 A  
ENDBRANCH  22  32
ENDBRANCH  21  22
ENDBRANCH  20  21
ENDBRANCH  17  20
ENDBRANCH  16  17
ENDBRANCH  15  16
ENDBRANCH  14  15
ENDBRANCH  13  14
ENDBRANCH  12  13
ENDBRANCH  11  12
ENDBRANCH  10  11
ENDBRANCH   9  10
ENDBRANCH   8   9
ENDBRANCH   7   8
ENDBRANCH   6   7
ENDBRANCH   5   6
ENDBRANCH   4   5
ENDBRANCH   3   4
ENDBRANCH   2   3
TORSDOF 22
ENDMDL
MODEL      229
REMARK 921   NORMALIZED FREE ENERGY PREDICTED BY IDOCK:   -2.28 KCAL/MOL
REMARK 922        TOTAL FREE ENERGY PREDICTED BY IDOCK:   -9.65 KCAL/MOL
REMARK 923 INTER-LIGAND FREE ENERGY PREDICTED BY IDOCK:   -6.59 KCAL/MOL
REMARK 924 INTRA-LIGAND FREE ENERGY PREDICTED BY IDOCK:   -3.06 KCAL/MOL
REMARK 927      BINDING AFFINITY PREDICTED BY RF-SCORE:    0.00 PKD
ROOT
HETATM    1  C   UNL     1     -10.397  16.108  69.100  1.00  0.00    -0.259 C  
HETATM    2  C   UNL     1     -10.789  17.017  67.948  1.00  0.00    -0.302 C  
ENDROOT
BRANCH   2   3
HETATM    3  C   UNL     1     -10.406  16.397  66.608  1.00  0.00    -0.292 C  
BRANCH   3   4
HETATM    4  C   UNL     1     -10.420  14.876  66.691  1.00  0.00    -0.292 C  
BRANCH   4   5
HETATM    5  C   UNL     1     -11.713  14.318  66.110  1.00  0.00    -0.397 C  
BRANCH   5   6
HETATM    6  C   UNL     1     -11.775  12.810  66.301  1.00  0.00    -0.460 C  
BRANCH   6   7
HETATM    7  C   UNL     1     -11.719  12.463  67.780  1.00  0.00    -0.413 C  
BRANCH   7   8
HETATM    8  C   UNL     1     -11.346  11.001  67.967  1.00  0.00    -0.374 C  
BRANCH   8   9
HETATM    9  C   UNL     1     -10.447  10.850  69.182  1.00  0.00    -0.248 C  
BRANCH   9  10
HETATM   10  C   UNL     1      -8.999  10.684  68.756  1.00  0.00    -0.172 C  
BRANCH  10  11
HETATM   11  C   UNL     1      -8.153  10.256  69.945  1.00  0.00    -0.071 C  
BRANCH  11  12
HETATM   12  C   UNL     1      -7.425   8.958  69.627  1.00  0.00    -0.071 C  
BRANCH  12  13
HETATM   13  C   UNL     1      -6.275   8.725  70.593  1.00  0.00    -0.039 C  
BRANCH  13  14
HETATM   14  C   UNL     1      -5.326   7.625  70.103  1.00  0.00    -0.023 C  
BRANCH  14  15
HETATM   15  C   UNL     1      -5.201   6.425  71.055  1.00  0.00    -0.018 C  
BRANCH  15  16
HETATM   16  C   UNL     1      -6.166   5.316  70.643  1.00  0.00    -0.023 C  
BRANCH  16  17
HETATM   17  N   UNL     1      -6.609   4.393  71.769  1.00  0.00    -0.025 N  
HETATM   18  C   UNL     1      -6.897   5.192  73.048  1.00  0.00    -0.074 C  
HETATM   19  C   UNL     1      -5.578   3.322  72.090  1.00  0.00    -0.008 C  
BRANCH  17  20
HETATM   20  C   UNL     1      -7.958   3.728  71.353  1.00  0.00    -0.064 C  
BRANCH  20  21
HETATM   21  C   UNL     1      -9.254   4.487  71.777  1.00  0.00    -0.134 C  
BRANCH  21  22
HETATM   22  N   UNL     1      -9.662   5.389  70.704  1.00  0.00    -0.171 NA 
BRANCH  22  23
HETATM   23  C   UNL     1     -10.249   4.850  69.470  1.00  0.00    -0.177 C  
BRANCH  23  24
HETATM   24  C   UNL     1      -9.470   5.235  68.227  1.00  0.00    -0.155 A  
HETATM   25  C   UNL     1      -8.294   4.553  67.894  1.00  0.00    -0.098 A  
HETATM   26  C   UNL     1      -7.860   6.103  66.075  1.00  0.00    -0.106 A  
HETATM   27  C   UNL     1      -9.076   6.731  66.336  1.00  0.00    -0.175 A  
HETATM   28  C   UNL     1      -9.876   6.301  67.408  1.00  0.00    -0.154 A  
HETATM   29  C   UNL     1      -7.495   4.992  66.837  1.00  0.00    -0.087 A  
BRANCH  26  30
HETATM   30  O   UNL     1      -6.918   6.492  65.168  1.00  0.00    -0.049 OA 
HETATM   31  C   UNL     1      -5.954   7.461  65.557  1.00  0.00    -0.038 C  
ENDBRANCH  26  30
ENDBRANCH  23  24
ENDBRANCH  22  23
BRANCH  22  32
HETATM   32  C   UNL     1     -10.203   6.596  71.117  1.00  0.00    -0.194 A  
HETATM   33  N   UNL     1     -11.443   6.922  70.710  1.00  0.00    -0.315 NA 
HETATM   34  N   UNL     1      -9.526   7.301  72.031  1.00  0.00    -0.134 NA 
HETATM   35  C   UNL     1     -10.127   8.393  72.542  1.00  0.00    -0.292 A  
HETATM   36  C   UNL     1     -11.982   8.062  71.204  1.00  0.00    -0.277 A  
HETATM   37  C   UNL     1     -11.364   8.836  72.149  1.00  0.00    -0.411 A  
ENDBRANCH  22  32
ENDBRANCH  21  22
ENDBRANCH  20  21
ENDBRANCH  17  20
ENDBRANCH  16  17
ENDBRANCH  15  16
ENDBRANCH  14  15
ENDBRANCH  13  14
ENDBRANCH  12  13
ENDBRANCH  11  12
ENDBRANCH  10  11
ENDBRANCH   9  10
ENDBRANCH   8   9
ENDBRANCH   7   8
ENDBRANCH   6   7
ENDBRANCH   5   6
ENDBRANCH   4   5
ENDBRANCH   3   4
ENDBRANCH   2   3
TORSDOF 22
ENDMDL
MODEL      230
REMARK 921   NORMALIZED FREE ENERGY PREDICTED BY IDOCK:   -2.27 KCAL/MOL
REMARK 922        TOTAL FREE ENERGY PREDICTED BY IDOCK:   -9.65 KCAL/MOL
REMARK 923 INTER-LIGAND FREE ENERGY PREDICTED BY IDOCK:   -7.47 KCAL/MOL
REMARK 924 INTRA-LIGAND FREE ENERGY PREDICTED BY IDOCK:   -2.18 KCAL/MOL
REMARK 927      BINDING AFFINITY PREDICTED BY RF-SCORE:    0.00 PKD
ROOT
HETATM    1  C   UNL     1      -6.753  16.300  67.549  1.00  0.00    -0.189 C  
HETATM    2  C   UNL     1      -8.027  17.105  67.734  1.00  0.00    -0.190 C  
ENDROOT
BRANCH   2   3
HETATM    3  C   UNL     1      -8.573  17.581  66.391  1.00  0.00    -0.273 C  
BRANCH   3   4
HETATM    4  C   UNL     1     -10.089  17.442  66.343  1.00  0.00    -0.330 C  
BRANCH   4   5
HETATM    5  C   UNL     1     -10.587  16.589  67.503  1.00  0.00    -0.313 C  
BRANCH   5   6
HETATM    6  C   UNL     1     -11.218  15.305  66.986  1.00  0.00    -0.275 C  
BRANCH   6   7
HETATM    7  C   UNL     1     -10.887  15.110  65.515  1.00  0.00    -0.373 C  
BRANCH   7   8
HETATM    8  C   UNL     1     -12.040  14.425  64.800  1.00  0.00    -0.462 C  
BRANCH   8   9
HETATM    9  C   UNL     1     -12.376  13.118  65.496  1.00  0.00    -0.529 C  
BRANCH   9  10
HETATM   10  C   UNL     1     -11.146  12.231  65.584  1.00  0.00    -0.357 C  
BRANCH  10  11
HETATM   11  C   UNL     1     -11.277  11.274  66.759  1.00  0.00    -0.265 C  
BRANCH  11  12
HETATM   12  C   UNL     1     -11.699  12.036  68.007  1.00  0.00    -0.398 C  
BRANCH  12  13
HETATM   13  C   UNL     1     -10.826  11.665  69.195  1.00  0.00    -0.231 C  
BRANCH  13  14
HETATM   14  C   UNL     1     -11.037  10.210  69.630  1.00  0.00    -0.308 C  
BRANCH  14  15
HETATM   15  C   UNL     1      -9.839   9.287  69.358  1.00  0.00    -0.177 C  
BRANCH  15  16
HETATM   16  C   UNL     1      -8.721   9.556  70.362  1.00  0.00    -0.223 C  
BRANCH  16  17
HETATM   17  N   UNL     1      -7.309   9.428  69.808  1.00  0.00    -0.073 N  
HETATM   18  C   UNL     1      -6.389  10.501  70.408  1.00  0.00    -0.126 C  
HETATM   19  C   UNL     1      -7.260   9.543  68.292  1.00  0.00    -0.076 C  
BRANCH  17  20
HETATM   20  C   UNL     1      -6.730   8.051  70.258  1.00  0.00    -0.037 C  
BRANCH  20  21
HETATM   21  C   UNL     1      -7.383   6.790  69.610  1.00  0.00    -0.087 C  
BRANCH  21  22
HETATM   22  N   UNL     1      -8.001   5.974  70.652  1.00  0.00    -0.109 NA 
BRANCH  22  23
HETATM   23  C   UNL     1      -9.386   5.509  70.501  1.00  0.00    -0.157 C  
BRANCH  23  24
HETATM   24  C   UNL     1      -9.695   5.015  69.101  1.00  0.00    -0.243 A  
HETATM   25  C   UNL     1      -9.361   3.708  68.725  1.00  0.00    -0.231 A  
HETATM   26  C   UNL     1     -10.013   4.157  66.429  1.00  0.00    -0.155 A  
HETATM   27  C   UNL     1     -10.438   5.428  66.810  1.00  0.00    -0.347 A  
HETATM   28  C   UNL     1     -10.278   5.856  68.138  1.00  0.00    -0.225 A  
HETATM   29  C   UNL     1      -9.508   3.292  67.401  1.00  0.00    -0.198 A  
BRANCH  26  30
HETATM   30  O   UNL     1      -9.972   3.656  65.160  1.00  0.00    -0.156 OA 
HETATM   31  C   UNL     1      -9.118   2.554  64.888  1.00  0.00    -0.137 C  
ENDBRANCH  26  30
ENDBRANCH  23  24
ENDBRANCH  22  23
BRANCH  22  32
HETATM   32  C   UNL     1      -7.157   5.070  71.276  1.00  0.00    -0.056 A  
HETATM   33  N   UNL     1      -7.344   4.806  72.582  1.00  0.00    -0.082 NA 
HETATM   34  N   UNL     1      -6.301   4.385  70.509  1.00  0.00    -0.022 NA 
HETATM   35  C   UNL     1      -5.594   3.400  71.095  1.00  0.00    -0.012 A  
HETATM   36  C   UNL     1      -6.565   3.849  73.142  1.00  0.00    -0.037 A  
HETATM   37  C   UNL     1      -5.674   3.094  72.429  1.00  0.00    -0.008 A  
ENDBRANCH  22  32
ENDBRANCH  21  22
ENDBRANCH  20  21
ENDBRANCH  17  20
ENDBRANCH  16  17
ENDBRANCH  15  16
ENDBRANCH  14  15
ENDBRANCH  13  14
ENDBRANCH  12  13
ENDBRANCH  11  12
ENDBRANCH  10  11
ENDBRANCH   9  10
ENDBRANCH   8   9
ENDBRANCH   7   8
ENDBRANCH   6   7
ENDBRANCH   5   6
ENDBRANCH   4   5
ENDBRANCH   3   4
ENDBRANCH   2   3
TORSDOF 22
ENDMDL
MODEL      231
REMARK 921   NORMALIZED FREE ENERGY PREDICTED BY IDOCK:   -2.27 KCAL/MOL
REMARK 922        TOTAL FREE ENERGY PREDICTED BY IDOCK:   -9.65 KCAL/MOL
REMARK 923 INTER-LIGAND FREE ENERGY PREDICTED BY IDOCK:   -7.97 KCAL/MOL
REMARK 924 INTRA-LIGAND FREE ENERGY PREDICTED BY IDOCK:   -1.68 KCAL/MOL
REMARK 927      BINDING AFFINITY PREDICTED BY RF-SCORE:    0.00 PKD
ROOT
HETATM    1  C   UNL     1      -9.169   6.332  65.744  1.00  0.00     0.013 C  
HETATM    2  C   UNL     1      -8.259   5.719  64.694  1.00  0.00    -0.126 C  
ENDROOT
BRANCH   2   3
HETATM    3  C   UNL     1      -8.767   4.347  64.264  1.00  0.00    -0.142 C  
BRANCH   3   4
HETATM    4  C   UNL     1      -7.756   3.262  64.615  1.00  0.00    -0.078 C  
BRANCH   4   5
HETATM    5  C   UNL     1      -7.106   3.548  65.962  1.00  0.00    -0.063 C  
BRANCH   5   6
HETATM    6  C   UNL     1      -7.558   2.529  66.998  1.00  0.00    -0.069 C  
BRANCH   6   7
HETATM    7  C   UNL     1      -8.203   3.231  68.182  1.00  0.00    -0.088 C  
BRANCH   7   8
HETATM    8  C   UNL     1      -7.740   4.678  68.256  1.00  0.00    -0.081 C  
BRANCH   8   9
HETATM    9  C   UNL     1      -8.029   5.241  69.637  1.00  0.00    -0.084 C  
BRANCH   9  10
HETATM   10  C   UNL     1      -9.105   4.424  70.331  1.00  0.00    -0.168 C  
BRANCH  10  11
HETATM   11  C   UNL     1     -10.260   5.325  70.738  1.00  0.00    -0.317 C  
BRANCH  11  12
HETATM   12  C   UNL     1     -10.188   5.626  72.228  1.00  0.00    -0.241 C  
BRANCH  12  13
HETATM   13  C   UNL     1      -9.554   6.983  72.482  1.00  0.00    -0.166 C  
BRANCH  13  14
HETATM   14  C   UNL     1     -10.480   8.135  72.074  1.00  0.00    -0.329 C  
BRANCH  14  15
HETATM   15  C   UNL     1      -9.876   9.098  71.040  1.00  0.00    -0.366 C  
BRANCH  15  16
HETATM   16  C   UNL     1     -10.860   9.340  69.899  1.00  0.00    -0.234 C  
BRANCH  16  17
HETATM   17  N   UNL     1     -10.644  10.631  69.121  1.00  0.00    -0.213 N  
HETATM   18  C   UNL     1     -11.061  10.459  67.653  1.00  0.00    -0.293 C  
HETATM   19  C   UNL     1      -9.198  11.105  69.160  1.00  0.00     0.056 C  
BRANCH  17  20
HETATM   20  C   UNL     1     -11.581  11.725  69.719  1.00  0.00    -0.299 C  
BRANCH  20  21
HETATM   21  C   UNL     1     -12.120  12.789  68.712  1.00  0.00    -0.128 C  
BRANCH  21  22
HETATM   22  N   UNL     1     -11.726  14.122  69.159  1.00  0.00    -0.304 NA 
BRANCH  22  23
HETATM   23  C   UNL     1     -11.630  15.226  68.194  1.00  0.00    -0.330 C  
BRANCH  23  24
HETATM   24  C   UNL     1     -10.241  15.829  68.121  1.00  0.00    -0.230 A  
HETATM   25  C   UNL     1      -9.920  16.954  68.890  1.00  0.00    -0.279 A  
HETATM   26  C   UNL     1      -7.754  17.129  67.804  1.00  0.00    -0.177 A  
HETATM   27  C   UNL     1      -8.023  15.956  67.103  1.00  0.00    -0.243 A  
HETATM   28  C   UNL     1      -9.261  15.310  67.259  1.00  0.00    -0.209 A  
HETATM   29  C   UNL     1      -8.694  17.601  68.721  1.00  0.00    -0.207 A  
BRANCH  26  30
HETATM   30  O   UNL     1      -6.666  17.939  67.654  1.00  0.00    -0.180 OA 
HETATM   31  C   UNL     1      -5.541  17.448  66.940  1.00  0.00    -0.166 C  
ENDBRANCH  26  30
ENDBRANCH  23  24
ENDBRANCH  22  23
BRANCH  22  32
HETATM   32  C   UNL     1     -12.196  14.492  70.409  1.00  0.00    -0.329 A  
HETATM   33  N   UNL     1     -13.424  14.089  70.782  1.00  0.00    -0.059 NA 
HETATM   34  N   UNL     1     -11.342  15.095  71.243  1.00  0.00    -0.337 NA 
HETATM   35  C   UNL     1     -11.756  15.312  72.505  1.00  0.00    -0.434 A  
HETATM   36  C   UNL     1     -13.821  14.385  72.043  1.00  0.00    -0.476 A  
HETATM   37  C   UNL     1     -13.008  14.989  72.964  1.00  0.00    -0.590 A  
ENDBRANCH  22  32
ENDBRANCH  21  22
ENDBRANCH  20  21
ENDBRANCH  17  20
ENDBRANCH  16  17
ENDBRANCH  15  16
ENDBRANCH  14  15
ENDBRANCH  13  14
ENDBRANCH  12  13
ENDBRANCH  11  12
ENDBRANCH  10  11
ENDBRANCH   9  10
ENDBRANCH   8   9
ENDBRANCH   7   8
ENDBRANCH   6   7
ENDBRANCH   5   6
ENDBRANCH   4   5
ENDBRANCH   3   4
ENDBRANCH   2   3
TORSDOF 22
ENDMDL
MODEL      232
REMARK 921   NORMALIZED FREE ENERGY PREDICTED BY IDOCK:   -2.27 KCAL/MOL
REMARK 922        TOTAL FREE ENERGY PREDICTED BY IDOCK:   -9.64 KCAL/MOL
REMARK 923 INTER-LIGAND FREE ENERGY PREDICTED BY IDOCK:   -7.31 KCAL/MOL
REMARK 924 INTRA-LIGAND FREE ENERGY PREDICTED BY IDOCK:   -2.33 KCAL/MOL
REMARK 927      BINDING AFFINITY PREDICTED BY RF-SCORE:    0.00 PKD
ROOT
HETATM    1  C   UNL     1     -12.253  15.537  70.611  1.00  0.00    -0.445 C  
HETATM    2  C   UNL     1     -12.033  15.425  69.113  1.00  0.00    -0.324 C  
ENDROOT
BRANCH   2   3
HETATM    3  C   UNL     1     -12.131  13.974  68.652  1.00  0.00    -0.332 C  
BRANCH   3   4
HETATM    4  C   UNL     1     -12.054  13.883  67.133  1.00  0.00    -0.422 C  
BRANCH   4   5
HETATM    5  C   UNL     1     -11.109  14.941  66.578  1.00  0.00    -0.341 C  
BRANCH   5   6
HETATM    6  C   UNL     1      -9.692  14.393  66.489  1.00  0.00    -0.305 C  
BRANCH   6   7
HETATM    7  C   UNL     1      -8.865  14.876  67.670  1.00  0.00    -0.184 C  
BRANCH   7   8
HETATM    8  C   UNL     1      -7.465  15.255  67.215  1.00  0.00    -0.236 C  
BRANCH   8   9
HETATM    9  C   UNL     1      -6.499  14.123  67.519  1.00  0.00    -0.066 C  
BRANCH   9  10
HETATM   10  C   UNL     1      -5.754  14.392  68.816  1.00  0.00    -0.086 C  
BRANCH  10  11
HETATM   11  C   UNL     1      -5.818  13.168  69.716  1.00  0.00    -0.124 C  
BRANCH  11  12
HETATM   12  C   UNL     1      -7.106  12.397  69.459  1.00  0.00     0.243 C  
BRANCH  12  13
HETATM   13  C   UNL     1      -6.895  10.904  69.641  1.00  0.00    -0.137 C  
BRANCH  13  14
HETATM   14  C   UNL     1      -6.271  10.255  68.400  1.00  0.00    -0.047 C  
BRANCH  14  15
HETATM   15  C   UNL     1      -7.098  10.419  67.116  1.00  0.00    -0.090 C  
BRANCH  15  16
HETATM   16  C   UNL     1      -8.552  10.031  67.366  1.00  0.00    -0.125 C  
BRANCH  16  17
HETATM   17  N   UNL     1      -8.993   8.725  66.720  1.00  0.00    -0.130 N  
HETATM   18  C   UNL     1      -8.609   8.694  65.234  1.00  0.00    -0.180 C  
HETATM   19  C   UNL     1     -10.492   8.489  66.836  1.00  0.00    -0.275 C  
BRANCH  17  20
HETATM   20  C   UNL     1      -8.215   7.556  67.400  1.00  0.00    -0.116 C  
BRANCH  20  21
HETATM   21  C   UNL     1      -9.072   6.328  67.841  1.00  0.00    -0.111 C  
BRANCH  21  22
HETATM   22  N   UNL     1      -8.395   5.629  68.929  1.00  0.00    -0.103 NA 
BRANCH  22  23
HETATM   23  C   UNL     1      -8.396   6.196  70.284  1.00  0.00    -0.125 C  
BRANCH  23  24
HETATM   24  C   UNL     1      -9.674   6.942  70.612  1.00  0.00    -0.180 A  
HETATM   25  C   UNL     1      -9.628   8.297  70.961  1.00  0.00    -0.197 A  
HETATM   26  C   UNL     1     -11.999   8.285  71.486  1.00  0.00    -0.296 A  
HETATM   27  C   UNL     1     -12.077   6.964  71.051  1.00  0.00    -0.429 A  
HETATM   28  C   UNL     1     -10.921   6.295  70.619  1.00  0.00    -0.370 A  
HETATM   29  C   UNL     1     -10.777   8.954  71.404  1.00  0.00    -0.382 A  
BRANCH  26  30
HETATM   30  O   UNL     1     -12.998   9.016  72.062  1.00  0.00    -0.347 OA 
HETATM   31  C   UNL     1     -14.312   8.478  72.088  1.00  0.00    -0.436 C  
ENDBRANCH  26  30
ENDBRANCH  23  24
ENDBRANCH  22  23
BRANCH  22  32
HETATM   32  C   UNL     1      -8.473   4.246  68.885  1.00  0.00    -0.082 A  
HETATM   33  N   UNL     1      -8.198   3.548  70.002  1.00  0.00    -0.052 NA 
HETATM   34  N   UNL     1      -8.974   3.685  67.779  1.00  0.00    -0.122 NA 
HETATM   35  C   UNL     1      -9.192   2.357  67.801  1.00  0.00    -0.192 A  
HETATM   36  C   UNL     1      -8.373   2.205  69.956  1.00  0.00    -0.045 A  
HETATM   37  C   UNL     1      -8.891   1.552  68.870  1.00  0.00    -0.117 A  
ENDBRANCH  22  32
ENDBRANCH  21  22
ENDBRANCH  20  21
ENDBRANCH  17  20
ENDBRANCH  16  17
ENDBRANCH  15  16
ENDBRANCH  14  15
ENDBRANCH  13  14
ENDBRANCH  12  13
ENDBRANCH  11  12
ENDBRANCH  10  11
ENDBRANCH   9  10
ENDBRANCH   8   9
ENDBRANCH   7   8
ENDBRANCH   6   7
ENDBRANCH   5   6
ENDBRANCH   4   5
ENDBRANCH   3   4
ENDBRANCH   2   3
TORSDOF 22
ENDMDL
MODEL      233
REMARK 921   NORMALIZED FREE ENERGY PREDICTED BY IDOCK:   -2.23 KCAL/MOL
REMARK 922        TOTAL FREE ENERGY PREDICTED BY IDOCK:   -9.54 KCAL/MOL
REMARK 923 INTER-LIGAND FREE ENERGY PREDICTED BY IDOCK:   -6.89 KCAL/MOL
REMARK 924 INTRA-LIGAND FREE ENERGY PREDICTED BY IDOCK:   -2.66 KCAL/MOL
REMARK 927      BINDING AFFINITY PREDICTED BY RF-SCORE:    0.00 PKD
ROOT
HETATM    1  C   UNL     1     -10.524   6.650  73.691  1.00  0.00    -0.353 C  
HETATM    2  C   UNL     1     -11.307   6.484  72.401  1.00  0.00    -0.314 C  
ENDROOT
BRANCH   2   3
HETATM    3  C   UNL     1     -10.379   6.151  71.237  1.00  0.00    -0.264 C  
BRANCH   3   4
HETATM    4  C   UNL     1     -10.246   7.340  70.294  1.00  0.00    -0.205 C  
BRANCH   4   5
HETATM    5  C   UNL     1     -11.371   8.340  70.528  1.00  0.00    -0.225 C  
BRANCH   5   6
HETATM    6  C   UNL     1     -10.805   9.733  70.757  1.00  0.00    -0.403 C  
BRANCH   6   7
HETATM    7  C   UNL     1     -10.997  10.592  69.517  1.00  0.00    -0.312 C  
BRANCH   7   8
HETATM    8  C   UNL     1     -11.561  11.951  69.897  1.00  0.00    -0.333 C  
BRANCH   8   9
HETATM    9  C   UNL     1     -11.636  12.840  68.668  1.00  0.00    -0.352 C  
BRANCH   9  10
HETATM   10  C   UNL     1     -11.312  12.044  67.415  1.00  0.00    -0.393 C  
BRANCH  10  11
HETATM   11  C   UNL     1     -11.828  12.777  66.186  1.00  0.00    -0.484 C  
BRANCH  11  12
HETATM   12  C   UNL     1     -10.718  12.911  65.154  1.00  0.00    -0.326 C  
BRANCH  12  13
HETATM   13  C   UNL     1     -11.189  12.457  63.782  1.00  0.00    -0.520 C  
BRANCH  13  14
HETATM   14  C   UNL     1     -10.497  11.165  63.336  1.00  0.00    -0.382 C  
BRANCH  14  15
HETATM   15  C   UNL     1      -9.404  10.667  64.294  1.00  0.00    -0.298 C  
BRANCH  15  16
HETATM   16  C   UNL     1      -8.098  10.437  63.539  1.00  0.00    -0.116 C  
BRANCH  16  17
HETATM   17  N   UNL     1      -7.310   9.207  63.966  1.00  0.00    -0.099 N  
HETATM   18  C   UNL     1      -6.494   8.647  62.792  1.00  0.00    -0.091 C  
HETATM   19  C   UNL     1      -8.201   8.098  64.507  1.00  0.00    -0.115 C  
BRANCH  17  20
HETATM   20  C   UNL     1      -6.278   9.640  65.052  1.00  0.00    -0.087 C  
BRANCH  20  21
HETATM   21  C   UNL     1      -5.545   8.483  65.801  1.00  0.00    -0.042 C  
BRANCH  21  22
HETATM   22  N   UNL     1      -6.128   8.320  67.130  1.00  0.00    -0.053 NA 
BRANCH  22  23
HETATM   23  C   UNL     1      -5.846   7.111  67.916  1.00  0.00    -0.026 C  
BRANCH  23  24
HETATM   24  C   UNL     1      -6.668   5.915  67.477  1.00  0.00    -0.058 A  
HETATM   25  C   UNL     1      -6.041   4.804  66.899  1.00  0.00    -0.031 A  
HETATM   26  C   UNL     1      -8.194   3.792  66.408  1.00  0.00    -0.100 A  
HETATM   27  C   UNL     1      -8.826   4.846  67.065  1.00  0.00    -0.106 A  
HETATM   28  C   UNL     1      -8.067   5.903  67.595  1.00  0.00    -0.102 A  
HETATM   29  C   UNL     1      -6.800   3.763  66.362  1.00  0.00    -0.057 A  
BRANCH  26  30
HETATM   30  O   UNL     1      -8.797   2.776  65.725  1.00  0.00    -0.124 OA 
HETATM   31  C   UNL     1      -8.071   1.576  65.504  1.00  0.00    -0.075 C  
ENDBRANCH  26  30
ENDBRANCH  23  24
ENDBRANCH  22  23
BRANCH  22  32
HETATM   32  C   UNL     1      -6.230   9.481  67.879  1.00  0.00    -0.053 A  
HETATM   33  N   UNL     1      -5.144  10.266  68.005  1.00  0.00    -0.035 NA 
HETATM   34  N   UNL     1      -7.445   9.842  68.306  1.00  0.00    -0.079 NA 
HETATM   35  C   UNL     1      -7.562  11.046  68.898  1.00  0.00    -0.134 A  
HETATM   36  C   UNL     1      -5.298  11.440  68.663  1.00  0.00    -0.043 A  
HETATM   37  C   UNL     1      -6.506  11.891  69.122  1.00  0.00    -0.098 A  
ENDBRANCH  22  32
ENDBRANCH  21  22
ENDBRANCH  20  21
ENDBRANCH  17  20
ENDBRANCH  16  17
ENDBRANCH  15  16
ENDBRANCH  14  15
ENDBRANCH  13  14
ENDBRANCH  12  13
ENDBRANCH  11  12
ENDBRANCH  10  11
ENDBRANCH   9  10
ENDBRANCH   8   9
ENDBRANCH   7   8
ENDBRANCH   6   7
ENDBRANCH   5   6
ENDBRANCH   4   5
ENDBRANCH   3   4
ENDBRANCH   2   3
TORSDOF 22
ENDMDL
MODEL      234
REMARK 921   NORMALIZED FREE ENERGY PREDICTED BY IDOCK:   -2.23 KCAL/MOL
REMARK 922        TOTAL FREE ENERGY PREDICTED BY IDOCK:   -9.54 KCAL/MOL
REMARK 923 INTER-LIGAND FREE ENERGY PREDICTED BY IDOCK:   -6.16 KCAL/MOL
REMARK 924 INTRA-LIGAND FREE ENERGY PREDICTED BY IDOCK:   -3.38 KCAL/MOL
REMARK 927      BINDING AFFINITY PREDICTED BY RF-SCORE:    0.00 PKD
ROOT
HETATM    1  C   UNL     1     -11.532   8.541  72.547  1.00  0.00    -0.368 C  
HETATM    2  C   UNL     1     -12.242   8.903  71.255  1.00  0.00    -0.351 C  
ENDROOT
BRANCH   2   3
HETATM    3  C   UNL     1     -12.716  10.352  71.279  1.00  0.00    -0.536 C  
BRANCH   3   4
HETATM    4  C   UNL     1     -12.100  11.142  70.131  1.00  0.00    -0.443 C  
BRANCH   4   5
HETATM    5  C   UNL     1     -10.685  10.656  69.844  1.00  0.00    -0.260 C  
BRANCH   5   6
HETATM    6  C   UNL     1     -10.191  11.211  68.516  1.00  0.00    -0.209 C  
BRANCH   6   7
HETATM    7  C   UNL     1     -11.025  10.658  67.371  1.00  0.00    -0.361 C  
BRANCH   7   8
HETATM    8  C   UNL     1     -10.637   9.217  67.083  1.00  0.00    -0.286 C  
BRANCH   8   9
HETATM    9  C   UNL     1      -9.128   9.106  66.949  1.00  0.00    -0.163 C  
BRANCH   9  10
HETATM   10  C   UNL     1      -8.735   8.922  65.493  1.00  0.00    -0.215 C  
BRANCH  10  11
HETATM   11  C   UNL     1      -7.718   9.980  65.092  1.00  0.00    -0.137 C  
BRANCH  11  12
HETATM   12  C   UNL     1      -7.265  10.760  66.318  1.00  0.00    -0.137 C  
BRANCH  12  13
HETATM   13  C   UNL     1      -5.792  10.522  66.604  1.00  0.00    -0.066 C  
BRANCH  13  14
HETATM   14  C   UNL     1      -5.435  10.814  68.065  1.00  0.00    -0.036 C  
BRANCH  14  15
HETATM   15  C   UNL     1      -6.468  10.306  69.084  1.00  0.00    -0.050 C  
BRANCH  15  16
HETATM   16  C   UNL     1      -5.781   9.502  70.184  1.00  0.00    -0.037 C  
BRANCH  16  17
HETATM   17  N   UNL     1      -6.555   8.289  70.678  1.00  0.00    -0.036 N  
HETATM   18  C   UNL     1      -8.042   8.626  70.856  1.00  0.00    -0.136 C  
HETATM   19  C   UNL     1      -6.022   7.749  71.997  1.00  0.00    -0.036 C  
BRANCH  17  20
HETATM   20  C   UNL     1      -6.483   7.183  69.580  1.00  0.00    -0.040 C  
BRANCH  20  21
HETATM   21  C   UNL     1      -7.817   6.429  69.279  1.00  0.00    -0.106 C  
BRANCH  21  22
HETATM   22  N   UNL     1      -7.537   5.259  68.453  1.00  0.00    -0.079 NA 
BRANCH  22  23
HETATM   23  C   UNL     1      -7.071   4.011  69.074  1.00  0.00    -0.050 C  
BRANCH  23  24
HETATM   24  C   UNL     1      -7.736   3.730  70.407  1.00  0.00    -0.047 A  
HETATM   25  C   UNL     1      -9.044   3.232  70.450  1.00  0.00    -0.191 A  
HETATM   26  C   UNL     1      -9.092   3.451  72.869  1.00  0.00    -0.088 A  
HETATM   27  C   UNL     1      -7.759   3.856  72.847  1.00  0.00    -0.075 A  
HETATM   28  C   UNL     1      -7.086   3.997  71.623  1.00  0.00    -0.045 A  
HETATM   29  C   UNL     1      -9.715   3.107  71.668  1.00  0.00    -0.235 A  
BRANCH  26  30
HETATM   30  O   UNL     1      -9.914   3.404  73.957  1.00  0.00    -0.109 OA 
HETATM   31  C   UNL     1     -10.465   4.616  74.450  1.00  0.00    -0.282 C  
ENDBRANCH  26  30
ENDBRANCH  23  24
ENDBRANCH  22  23
BRANCH  22  32
HETATM   32  C   UNL     1      -8.384   5.080  67.371  1.00  0.00    -0.106 A  
HETATM   33  N   UNL     1      -7.941   4.378  66.312  1.00  0.00    -0.098 NA 
HETATM   34  N   UNL     1      -9.655   5.478  67.502  1.00  0.00    -0.117 NA 
HETATM   35  C   UNL     1     -10.509   5.163  66.510  1.00  0.00    -0.294 A  
HETATM   36  C   UNL     1      -8.821   4.139  65.310  1.00  0.00    -0.129 A  
HETATM   37  C   UNL     1     -10.140   4.500  65.368  1.00  0.00    -0.211 A  
ENDBRANCH  22  32
ENDBRANCH  21  22
ENDBRANCH  20  21
ENDBRANCH  17  20
ENDBRANCH  16  17
ENDBRANCH  15  16
ENDBRANCH  14  15
ENDBRANCH  13  14
ENDBRANCH  12  13
ENDBRANCH  11  12
ENDBRANCH  10  11
ENDBRANCH   9  10
ENDBRANCH   8   9
ENDBRANCH   7   8
ENDBRANCH   6   7
ENDBRANCH   5   6
ENDBRANCH   4   5
ENDBRANCH   3   4
ENDBRANCH   2   3
TORSDOF 22
ENDMDL
MODEL      235
REMARK 921   NORMALIZED FREE ENERGY PREDICTED BY IDOCK:   -2.23 KCAL/MOL
REMARK 922        TOTAL FREE ENERGY PREDICTED BY IDOCK:   -9.54 KCAL/MOL
REMARK 923 INTER-LIGAND FREE ENERGY PREDICTED BY IDOCK:   -6.66 KCAL/MOL
REMARK 924 INTRA-LIGAND FREE ENERGY PREDICTED BY IDOCK:   -2.88 KCAL/MOL
REMARK 927      BINDING AFFINITY PREDICTED BY RF-SCORE:    0.00 PKD
ROOT
HETATM    1  C   UNL     1     -11.777   7.670  72.365  1.00  0.00    -0.366 C  
HETATM    2  C   UNL     1     -10.753   7.151  73.359  1.00  0.00    -0.410 C  
ENDROOT
BRANCH   2   3
HETATM    3  C   UNL     1     -10.891   5.644  73.550  1.00  0.00    -0.295 C  
BRANCH   3   4
HETATM    4  C   UNL     1      -9.566   4.942  73.281  1.00  0.00    -0.144 C  
BRANCH   4   5
HETATM    5  C   UNL     1      -8.606   5.868  72.545  1.00  0.00    -0.120 C  
BRANCH   5   6
HETATM    6  C   UNL     1      -8.102   5.207  71.270  1.00  0.00    -0.113 C  
BRANCH   6   7
HETATM    7  C   UNL     1      -9.205   4.375  70.636  1.00  0.00    -0.198 C  
BRANCH   7   8
HETATM    8  C   UNL     1      -9.936   5.185  69.577  1.00  0.00    -0.301 C  
BRANCH   8   9
HETATM    9  C   UNL     1      -9.660   4.602  68.202  1.00  0.00    -0.204 C  
BRANCH   9  10
HETATM   10  C   UNL     1      -9.210   3.156  68.317  1.00  0.00    -0.247 C  
BRANCH  10  11
HETATM   11  C   UNL     1      -8.430   2.754  67.074  1.00  0.00    -0.105 C  
BRANCH  11  12
HETATM   12  C   UNL     1      -6.936   2.784  67.363  1.00  0.00    -0.049 C  
BRANCH  12  13
HETATM   13  C   UNL     1      -6.160   3.317  66.170  1.00  0.00    -0.024 C  
BRANCH  13  14
HETATM   14  C   UNL     1      -6.530   4.768  65.845  1.00  0.00    -0.040 C  
BRANCH  14  15
HETATM   15  C   UNL     1      -6.716   5.055  64.347  1.00  0.00    -0.047 C  
BRANCH  15  16
HETATM   16  C   UNL     1      -5.792   6.186  63.903  1.00  0.00    -0.022 C  
BRANCH  16  17
HETATM   17  N   UNL     1      -6.471   7.531  63.690  1.00  0.00    -0.053 N  
HETATM   18  C   UNL     1      -7.986   7.355  63.516  1.00  0.00    -0.071 C  
HETATM   19  C   UNL     1      -5.929   8.278  62.480  1.00  0.00    -0.082 C  
BRANCH  17  20
HETATM   20  C   UNL     1      -6.273   8.388  64.979  1.00  0.00    -0.052 C  
BRANCH  20  21
HETATM   21  C   UNL     1      -7.492   8.453  65.951  1.00  0.00    -0.081 C  
BRANCH  21  22
HETATM   22  N   UNL     1      -7.298   9.545  66.900  1.00  0.00    -0.087 NA 
BRANCH  22  23
HETATM   23  C   UNL     1      -7.428  10.940  66.457  1.00  0.00    -0.142 C  
BRANCH  23  24
HETATM   24  C   UNL     1      -8.853  11.319  66.106  1.00  0.00    -0.194 A  
HETATM   25  C   UNL     1      -9.510  10.685  65.044  1.00  0.00    -0.293 A  
HETATM   26  C   UNL     1     -11.404  12.190  65.262  1.00  0.00    -0.336 A  
HETATM   27  C   UNL     1     -10.804  12.765  66.379  1.00  0.00    -0.294 A  
HETATM   28  C   UNL     1      -9.534  12.334  66.798  1.00  0.00    -0.222 A  
HETATM   29  C   UNL     1     -10.765  11.126  64.623  1.00  0.00    -0.350 A  
BRANCH  26  30
HETATM   30  O   UNL     1     -12.558  12.593  64.655  1.00  0.00    -0.562 OA 
HETATM   31  C   UNL     1     -12.866  12.085  63.365  1.00  0.00    -0.291 C  
ENDBRANCH  26  30
ENDBRANCH  23  24
ENDBRANCH  22  23
BRANCH  22  32
HETATM   32  C   UNL     1      -7.763   9.305  68.184  1.00  0.00    -0.088 A  
HETATM   33  N   UNL     1      -6.945   9.552  69.223  1.00  0.00    -0.049 NA 
HETATM   34  N   UNL     1      -9.055   8.994  68.331  1.00  0.00    -0.133 NA 
HETATM   35  C   UNL     1      -9.535   8.914  69.586  1.00  0.00    -0.168 A  
HETATM   36  C   UNL     1      -7.456   9.398  70.469  1.00  0.00    -0.145 A  
HETATM   37  C   UNL     1      -8.768   9.093  70.709  1.00  0.00    -0.285 A  
ENDBRANCH  22  32
ENDBRANCH  21  22
ENDBRANCH  20  21
ENDBRANCH  17  20
ENDBRANCH  16  17
ENDBRANCH  15  16
ENDBRANCH  14  15
ENDBRANCH  13  14
ENDBRANCH  12  13
ENDBRANCH  11  12
ENDBRANCH  10  11
ENDBRANCH   9  10
ENDBRANCH   8   9
ENDBRANCH   7   8
ENDBRANCH   6   7
ENDBRANCH   5   6
ENDBRANCH   4   5
ENDBRANCH   3   4
ENDBRANCH   2   3
TORSDOF 22
ENDMDL
MODEL      236
REMARK 921   NORMALIZED FREE ENERGY PREDICTED BY IDOCK:   -2.21 KCAL/MOL
REMARK 922        TOTAL FREE ENERGY PREDICTED BY IDOCK:   -9.51 KCAL/MOL
REMARK 923 INTER-LIGAND FREE ENERGY PREDICTED BY IDOCK:   -7.60 KCAL/MOL
REMARK 924 INTRA-LIGAND FREE ENERGY PREDICTED BY IDOCK:   -1.91 KCAL/MOL
REMARK 927      BINDING AFFINITY PREDICTED BY RF-SCORE:    0.00 PKD
ROOT
HETATM    1  C   UNL     1     -11.076   8.680  71.990  1.00  0.00    -0.437 C  
HETATM    2  C   UNL     1      -9.722   8.936  71.353  1.00  0.00    -0.370 C  
ENDROOT
BRANCH   2   3
HETATM    3  C   UNL     1      -9.440   7.929  70.243  1.00  0.00    -0.163 C  
BRANCH   3   4
HETATM    4  C   UNL     1      -7.983   8.002  69.804  1.00  0.00    -0.115 C  
BRANCH   4   5
HETATM    5  C   UNL     1      -7.863   7.779  68.302  1.00  0.00    -0.121 C  
BRANCH   5   6
HETATM    6  C   UNL     1      -8.320   9.015  67.542  1.00  0.00    -0.116 C  
BRANCH   6   7
HETATM    7  C   UNL     1      -9.721   8.808  66.990  1.00  0.00    -0.258 C  
BRANCH   7   8
HETATM    8  C   UNL     1      -9.704   8.854  65.471  1.00  0.00     0.010 C  
BRANCH   8   9
HETATM    9  C   UNL     1      -8.380   9.420  64.987  1.00  0.00    -0.155 C  
BRANCH   9  10
HETATM   10  C   UNL     1      -8.580  10.799  64.382  1.00  0.00    -0.042 C  
BRANCH  10  11
HETATM   11  C   UNL     1      -9.953  10.887  63.733  1.00  0.00    -0.408 C  
BRANCH  11  12
HETATM   12  C   UNL     1     -10.711  12.089  64.277  1.00  0.00    -0.382 C  
BRANCH  12  13
HETATM   13  C   UNL     1     -10.197  12.483  65.652  1.00  0.00    -0.287 C  
BRANCH  13  14
HETATM   14  C   UNL     1     -10.087  14.003  65.810  1.00  0.00    -0.345 C  
BRANCH  14  15
HETATM   15  C   UNL     1      -8.695  14.498  66.232  1.00  0.00     0.174 C  
BRANCH  15  16
HETATM   16  C   UNL     1      -8.102  13.578  67.295  1.00  0.00    -0.130 C  
BRANCH  16  17
HETATM   17  N   UNL     1      -7.221  14.266  68.328  1.00  0.00    -0.105 N  
HETATM   18  C   UNL     1      -6.289  15.286  67.658  1.00  0.00    -0.146 C  
HETATM   19  C   UNL     1      -6.371  13.285  69.122  1.00  0.00    -0.103 C  
BRANCH  17  20
HETATM   20  C   UNL     1      -8.140  15.078  69.292  1.00  0.00    -0.178 C  
BRANCH  20  21
HETATM   21  C   UNL     1      -8.249  16.609  69.007  1.00  0.00    -0.190 C  
BRANCH  21  22
HETATM   22  N   UNL     1      -9.602  17.064  69.311  1.00  0.00    -0.115 NA 
BRANCH  22  23
HETATM   23  C   UNL     1     -10.136  18.273  68.670  1.00  0.00    -0.385 C  
BRANCH  23  24
HETATM   24  C   UNL     1      -9.120  18.973  67.788  1.00  0.00    -0.331 A  
HETATM   25  C   UNL     1      -8.903  18.530  66.477  1.00  0.00    -0.301 A  
HETATM   26  C   UNL     1      -7.051  20.081  66.217  1.00  0.00    -0.259 A  
HETATM   27  C   UNL     1      -7.319  20.595  67.484  1.00  0.00    -0.364 A  
HETATM   28  C   UNL     1      -8.346  20.043  68.266  1.00  0.00    -0.177 A  
HETATM   29  C   UNL     1      -7.871  19.073  65.709  1.00  0.00    -0.004 A  
BRANCH  26  30
HETATM   30  O   UNL     1      -6.007  20.414  65.404  1.00  0.00    -0.193 OA 
HETATM   31  C   UNL     1      -5.837  19.706  64.185  1.00  0.00    -0.271 C  
ENDBRANCH  26  30
ENDBRANCH  23  24
ENDBRANCH  22  23
BRANCH  22  32
HETATM   32  C   UNL     1     -10.536  16.059  69.506  1.00  0.00    -0.290 A  
HETATM   33  N   UNL     1     -10.747  15.606  70.755  1.00  0.00    -0.247 NA 
HETATM   34  N   UNL     1     -11.295  15.702  68.463  1.00  0.00    -0.342 NA 
HETATM   35  C   UNL     1     -12.302  14.838  68.695  1.00  0.00     0.040 A  
HETATM   36  C   UNL     1     -11.731  14.691  70.929  1.00  0.00    -0.280 A  
HETATM   37  C   UNL     1     -12.560  14.280  69.920  1.00  0.00    -0.214 A  
ENDBRANCH  22  32
ENDBRANCH  21  22
ENDBRANCH  20  21
ENDBRANCH  17  20
ENDBRANCH  16  17
ENDBRANCH  15  16
ENDBRANCH  14  15
ENDBRANCH  13  14
ENDBRANCH  12  13
ENDBRANCH  11  12
ENDBRANCH  10  11
ENDBRANCH   9  10
ENDBRANCH   8   9
ENDBRANCH   7   8
ENDBRANCH   6   7
ENDBRANCH   5   6
ENDBRANCH   4   5
ENDBRANCH   3   4
ENDBRANCH   2   3
TORSDOF 22
ENDMDL
MODEL      237
REMARK 921   NORMALIZED FREE ENERGY PREDICTED BY IDOCK:   -2.21 KCAL/MOL
REMARK 922        TOTAL FREE ENERGY PREDICTED BY IDOCK:   -9.50 KCAL/MOL
REMARK 923 INTER-LIGAND FREE ENERGY PREDICTED BY IDOCK:   -7.92 KCAL/MOL
REMARK 924 INTRA-LIGAND FREE ENERGY PREDICTED BY IDOCK:   -1.58 KCAL/MOL
REMARK 927      BINDING AFFINITY PREDICTED BY RF-SCORE:    0.00 PKD
ROOT
HETATM    1  C   UNL     1      -9.457  15.328  69.001  1.00  0.00    -0.232 C  
HETATM    2  C   UNL     1      -8.403  14.295  68.644  1.00  0.00    -0.135 C  
ENDROOT
BRANCH   2   3
HETATM    3  C   UNL     1      -7.219  14.945  67.935  1.00  0.00    -0.166 C  
BRANCH   3   4
HETATM    4  C   UNL     1      -6.042  15.109  68.888  1.00  0.00    -0.093 C  
BRANCH   4   5
HETATM    5  C   UNL     1      -6.392  16.072  70.015  1.00  0.00    -0.087 C  
BRANCH   5   6
HETATM    6  C   UNL     1      -5.857  17.464  69.711  1.00  0.00    -0.244 C  
BRANCH   6   7
HETATM    7  C   UNL     1      -5.816  17.697  68.210  1.00  0.00    -0.160 C  
BRANCH   7   8
HETATM    8  C   UNL     1      -6.243  19.118  67.882  1.00  0.00    -0.224 C  
BRANCH   8   9
HETATM    9  C   UNL     1      -6.826  19.172  66.481  1.00  0.00    -0.214 C  
BRANCH   9  10
HETATM   10  C   UNL     1      -8.343  19.114  66.533  1.00  0.00    -0.324 C  
BRANCH  10  11
HETATM   11  C   UNL     1      -8.815  17.681  66.336  1.00  0.00    -0.263 C  
BRANCH  11  12
HETATM   12  C   UNL     1     -10.336  17.627  66.350  1.00  0.00    -0.345 C  
BRANCH  12  13
HETATM   13  C   UNL     1     -10.874  17.044  65.054  1.00  0.00    -0.017 C  
BRANCH  13  14
HETATM   14  C   UNL     1     -10.651  15.530  64.969  1.00  0.00    -0.435 C  
BRANCH  14  15
HETATM   15  C   UNL     1     -11.905  14.687  65.249  1.00  0.00    -0.324 C  
BRANCH  15  16
HETATM   16  C   UNL     1     -11.597  13.599  66.274  1.00  0.00    -0.348 C  
BRANCH  16  17
HETATM   17  N   UNL     1     -11.271  12.232  65.690  1.00  0.00    -0.320 N  
HETATM   18  C   UNL     1      -9.820  12.185  65.190  1.00  0.00    -0.180 C  
HETATM   19  C   UNL     1     -12.191  11.851  64.539  1.00  0.00    -0.142 C  
BRANCH  17  20
HETATM   20  C   UNL     1     -11.378  11.174  66.831  1.00  0.00    -0.090 C  
BRANCH  20  21
HETATM   21  C   UNL     1     -10.162  11.097  67.808  1.00  0.00    -0.180 C  
BRANCH  21  22
HETATM   22  N   UNL     1     -10.251   9.871  68.596  1.00  0.00    -0.170 NA 
BRANCH  22  23
HETATM   23  C   UNL     1      -9.086   8.985  68.717  1.00  0.00    -0.137 C  
BRANCH  23  24
HETATM   24  C   UNL     1      -9.279   7.655  68.014  1.00  0.00    -0.138 A  
HETATM   25  C   UNL     1      -9.251   6.462  68.746  1.00  0.00    -0.127 A  
HETATM   26  C   UNL     1      -9.367   5.157  66.700  1.00  0.00    -0.137 A  
HETATM   27  C   UNL     1      -9.492   6.336  65.969  1.00  0.00    -0.028 A  
HETATM   28  C   UNL     1      -9.446   7.579  66.622  1.00  0.00    -0.246 A  
HETATM   29  C   UNL     1      -9.283   5.229  68.091  1.00  0.00    -0.129 A  
BRANCH  26  30
HETATM   30  O   UNL     1      -9.252   3.893  66.199  1.00  0.00    -0.141 OA 
HETATM   31  C   UNL     1      -8.130   3.579  65.387  1.00  0.00    -0.097 C  
ENDBRANCH  26  30
ENDBRANCH  23  24
ENDBRANCH  22  23
BRANCH  22  32
HETATM   32  C   UNL     1     -11.028   9.958  69.741  1.00  0.00    -0.268 A  
HETATM   33  N   UNL     1     -12.069  10.809  69.753  1.00  0.00    -0.323 NA 
HETATM   34  N   UNL     1     -10.798   9.073  70.718  1.00  0.00    -0.233 NA 
HETATM   35  C   UNL     1     -11.653   9.061  71.758  1.00  0.00    -0.374 A  
HETATM   36  C   UNL     1     -12.866  10.804  70.849  1.00  0.00    -0.351 A  
HETATM   37  C   UNL     1     -12.709   9.926  71.887  1.00  0.00    -0.501 A  
ENDBRANCH  22  32
ENDBRANCH  21  22
ENDBRANCH  20  21
ENDBRANCH  17  20
ENDBRANCH  16  17
ENDBRANCH  15  16
ENDBRANCH  14  15
ENDBRANCH  13  14
ENDBRANCH  12  13
ENDBRANCH  11  12
ENDBRANCH  10  11
ENDBRANCH   9  10
ENDBRANCH   8   9
ENDBRANCH   7   8
ENDBRANCH   6   7
ENDBRANCH   5   6
ENDBRANCH   4   5
ENDBRANCH   3   4
ENDBRANCH   2   3
TORSDOF 22
ENDMDL
MODEL      238
REMARK 921   NORMALIZED FREE ENERGY PREDICTED BY IDOCK:   -2.20 KCAL/MOL
REMARK 922        TOTAL FREE ENERGY PREDICTED BY IDOCK:   -9.49 KCAL/MOL
REMARK 923 INTER-LIGAND FREE ENERGY PREDICTED BY IDOCK:   -7.78 KCAL/MOL
REMARK 924 INTRA-LIGAND FREE ENERGY PREDICTED BY IDOCK:   -1.70 KCAL/MOL
REMARK 927      BINDING AFFINITY PREDICTED BY RF-SCORE:    0.00 PKD
ROOT
HETATM    1  C   UNL     1      -9.358  10.116  62.337  1.00  0.00    -0.297 C  
HETATM    2  C   UNL     1      -8.475  10.378  63.544  1.00  0.00    -0.171 C  
ENDROOT
BRANCH   2   3
HETATM    3  C   UNL     1      -9.196  10.017  64.838  1.00  0.00    -0.291 C  
BRANCH   3   4
HETATM    4  C   UNL     1     -10.530  10.745  64.936  1.00  0.00    -0.324 C  
BRANCH   4   5
HETATM    5  C   UNL     1     -10.315  12.223  65.239  1.00  0.00    -0.311 C  
BRANCH   5   6
HETATM    6  C   UNL     1      -9.354  12.392  66.407  1.00  0.00    -0.219 C  
BRANCH   6   7
HETATM    7  C   UNL     1      -9.799  13.544  67.292  1.00  0.00    -0.237 C  
BRANCH   7   8
HETATM    8  C   UNL     1     -11.069  13.177  68.042  1.00  0.00    -0.290 C  
BRANCH   8   9
HETATM    9  C   UNL     1     -11.910  14.421  68.272  1.00  0.00    -0.361 C  
BRANCH   9  10
HETATM   10  C   UNL     1     -11.152  15.425  69.123  1.00  0.00    -0.267 C  
BRANCH  10  11
HETATM   11  C   UNL     1     -11.651  15.370  70.559  1.00  0.00    -0.355 C  
BRANCH  11  12
HETATM   12  C   UNL     1     -12.825  14.408  70.667  1.00  0.00    -0.390 C  
BRANCH  12  13
HETATM   13  C   UNL     1     -12.368  13.037  71.135  1.00  0.00    -0.270 C  
BRANCH  13  14
HETATM   14  C   UNL     1     -13.407  12.361  72.036  1.00  0.00    -0.511 C  
BRANCH  14  15
HETATM   15  C   UNL     1     -13.530  10.842  71.833  1.00  0.00    -0.306 C  
BRANCH  15  16
HETATM   16  C   UNL     1     -12.149  10.214  71.669  1.00  0.00    -0.285 C  
BRANCH  16  17
HETATM   17  N   UNL     1     -12.143   8.703  71.483  1.00  0.00    -0.302 N  
HETATM   18  C   UNL     1     -11.623   8.328  70.088  1.00  0.00     0.102 C  
HETATM   19  C   UNL     1     -13.521   8.084  71.667  1.00  0.00    -0.337 C  
BRANCH  17  20
HETATM   20  C   UNL     1     -11.140   8.088  72.507  1.00  0.00    -0.375 C  
BRANCH  20  21
HETATM   21  C   UNL     1      -9.630   8.390  72.251  1.00  0.00    -0.304 C  
BRANCH  21  22
HETATM   22  N   UNL     1      -9.029   7.277  71.524  1.00  0.00    -0.130 NA 
BRANCH  22  23
HETATM   23  C   UNL     1      -7.685   7.412  70.946  1.00  0.00    -0.088 C  
BRANCH  23  24
HETATM   24  C   UNL     1      -7.427   8.788  70.364  1.00  0.00    -0.072 A  
HETATM   25  C   UNL     1      -8.118   9.211  69.222  1.00  0.00    -0.102 A  
HETATM   26  C   UNL     1      -6.774  11.231  69.106  1.00  0.00    -0.099 A  
HETATM   27  C   UNL     1      -6.146  10.868  70.295  1.00  0.00    -0.142 A  
HETATM   28  C   UNL     1      -6.469   9.652  70.920  1.00  0.00    -0.083 A  
HETATM   29  C   UNL     1      -7.784  10.413  68.597  1.00  0.00    -0.101 A  
BRANCH  26  30
HETATM   30  O   UNL     1      -6.470  12.301  68.315  1.00  0.00    -0.051 OA 
HETATM   31  C   UNL     1      -5.679  12.090  67.155  1.00  0.00    -0.142 C  
ENDBRANCH  26  30
ENDBRANCH  23  24
ENDBRANCH  22  23
BRANCH  22  32
HETATM   32  C   UNL     1      -9.312   6.017  72.027  1.00  0.00    -0.149 A  
HETATM   33  N   UNL     1     -10.231   5.262  71.398  1.00  0.00    -0.205 NA 
HETATM   34  N   UNL     1      -8.542   5.554  73.018  1.00  0.00    -0.122 NA 
HETATM   35  C   UNL     1      -8.722   4.274  73.397  1.00  0.00    -0.092 A  
HETATM   36  C   UNL     1     -10.421   4.001  71.856  1.00  0.00     0.077 A  
HETATM   37  C   UNL     1      -9.670   3.445  72.856  1.00  0.00    -0.185 A  
ENDBRANCH  22  32
ENDBRANCH  21  22
ENDBRANCH  20  21
ENDBRANCH  17  20
ENDBRANCH  16  17
ENDBRANCH  15  16
ENDBRANCH  14  15
ENDBRANCH  13  14
ENDBRANCH  12  13
ENDBRANCH  11  12
ENDBRANCH  10  11
ENDBRANCH   9  10
ENDBRANCH   8   9
ENDBRANCH   7   8
ENDBRANCH   6   7
ENDBRANCH   5   6
ENDBRANCH   4   5
ENDBRANCH   3   4
ENDBRANCH   2   3
TORSDOF 22
ENDMDL
MODEL      239
REMARK 921   NORMALIZED FREE ENERGY PREDICTED BY IDOCK:   -2.19 KCAL/MOL
REMARK 922        TOTAL FREE ENERGY PREDICTED BY IDOCK:   -9.46 KCAL/MOL
REMARK 923 INTER-LIGAND FREE ENERGY PREDICTED BY IDOCK:   -8.59 KCAL/MOL
REMARK 924 INTRA-LIGAND FREE ENERGY PREDICTED BY IDOCK:   -0.87 KCAL/MOL
REMARK 927      BINDING AFFINITY PREDICTED BY RF-SCORE:    0.00 PKD
ROOT
HETATM    1  C   UNL     1      -8.282   8.264  64.744  1.00  0.00    -0.147 C  
HETATM    2  C   UNL     1      -7.560   7.992  63.437  1.00  0.00    -0.130 C  
ENDROOT
BRANCH   2   3
HETATM    3  C   UNL     1      -7.747   6.543  62.999  1.00  0.00    -0.094 C  
BRANCH   3   4
HETATM    4  C   UNL     1      -6.470   5.742  63.219  1.00  0.00    -0.028 C  
BRANCH   4   5
HETATM    5  C   UNL     1      -5.791   6.159  64.518  1.00  0.00    -0.022 C  
BRANCH   5   6
HETATM    6  C   UNL     1      -5.259   4.939  65.255  1.00  0.00    -0.012 C  
BRANCH   6   7
HETATM    7  C   UNL     1      -5.575   5.040  66.738  1.00  0.00    -0.013 C  
BRANCH   7   8
HETATM    8  C   UNL     1      -5.665   6.497  67.162  1.00  0.00    -0.013 C  
BRANCH   8   9
HETATM    9  C   UNL     1      -5.678   6.593  68.678  1.00  0.00    -0.017 C  
BRANCH   9  10
HETATM   10  C   UNL     1      -6.224   5.313  69.288  1.00  0.00    -0.033 C  
BRANCH  10  11
HETATM   11  C   UNL     1      -7.411   5.630  70.184  1.00  0.00    -0.077 C  
BRANCH  11  12
HETATM   12  C   UNL     1      -6.955   5.753  71.631  1.00  0.00    -0.072 C  
BRANCH  12  13
HETATM   13  C   UNL     1      -6.803   7.210  72.033  1.00  0.00    -0.056 C  
BRANCH  13  14
HETATM   14  C   UNL     1      -8.155   7.924  72.131  1.00  0.00    -0.154 C  
BRANCH  14  15
HETATM   15  C   UNL     1      -8.377   9.013  71.070  1.00  0.00    -0.237 C  
BRANCH  15  16
HETATM   16  C   UNL     1      -9.676   8.760  70.311  1.00  0.00    -0.176 C  
BRANCH  16  17
HETATM   17  N   UNL     1     -10.082   9.857  69.337  1.00  0.00    -0.198 N  
HETATM   18  C   UNL     1     -10.611   9.255  68.027  1.00  0.00    -0.208 C  
HETATM   19  C   UNL     1      -8.935  10.801  69.006  1.00  0.00    -0.132 C  
BRANCH  17  20
HETATM   20  C   UNL     1     -11.266  10.655  69.964  1.00  0.00    -0.309 C  
BRANCH  20  21
HETATM   21  C   UNL     1     -11.847  11.814  69.096  1.00  0.00    -0.326 C  
BRANCH  21  22
HETATM   22  N   UNL     1     -11.444  13.096  69.665  1.00  0.00    -0.231 NA 
BRANCH  22  23
HETATM   23  C   UNL     1     -10.666  14.049  68.862  1.00  0.00    -0.248 C  
BRANCH  23  24
HETATM   24  C   UNL     1     -10.938  13.930  67.375  1.00  0.00    -0.299 A  
HETATM   25  C   UNL     1     -12.160  13.419  66.922  1.00  0.00    -0.406 A  
HETATM   26  C   UNL     1     -11.368  13.448  64.626  1.00  0.00    -0.350 A  
HETATM   27  C   UNL     1     -10.185  14.046  65.054  1.00  0.00    -0.395 A  
HETATM   28  C   UNL     1      -9.970  14.284  66.421  1.00  0.00    -0.302 A  
HETATM   29  C   UNL     1     -12.364  13.171  65.563  1.00  0.00    -0.529 A  
BRANCH  26  30
HETATM   30  O   UNL     1     -11.661  13.029  63.360  1.00  0.00    -0.474 OA 
HETATM   31  C   UNL     1     -12.359  11.805  63.190  1.00  0.00    -0.161 C  
ENDBRANCH  26  30
ENDBRANCH  23  24
ENDBRANCH  22  23
BRANCH  22  32
HETATM   32  C   UNL     1     -12.365  13.683  70.517  1.00  0.00    -0.355 A  
HETATM   33  N   UNL     1     -12.877  12.947  71.521  1.00  0.00    -0.336 NA 
HETATM   34  N   UNL     1     -12.578  14.998  70.396  1.00  0.00    -0.355 NA 
HETATM   35  C   UNL     1     -13.354  15.590  71.323  1.00  0.00    -0.511 A  
HETATM   36  C   UNL     1     -13.703  13.573  72.394  1.00  0.00    -0.602 A  
HETATM   37  C   UNL     1     -13.965  14.915  72.349  1.00  0.00    -0.582 A  
ENDBRANCH  22  32
ENDBRANCH  21  22
ENDBRANCH  20  21
ENDBRANCH  17  20
ENDBRANCH  16  17
ENDBRANCH  15  16
ENDBRANCH  14  15
ENDBRANCH  13  14
ENDBRANCH  12  13
ENDBRANCH  11  12
ENDBRANCH  10  11
ENDBRANCH   9  10
ENDBRANCH   8   9
ENDBRANCH   7   8
ENDBRANCH   6   7
ENDBRANCH   5   6
ENDBRANCH   4   5
ENDBRANCH   3   4
ENDBRANCH   2   3
TORSDOF 22
ENDMDL
MODEL      240
REMARK 921   NORMALIZED FREE ENERGY PREDICTED BY IDOCK:   -2.16 KCAL/MOL
REMARK 922        TOTAL FREE ENERGY PREDICTED BY IDOCK:   -9.39 KCAL/MOL
REMARK 923 INTER-LIGAND FREE ENERGY PREDICTED BY IDOCK:   -7.97 KCAL/MOL
REMARK 924 INTRA-LIGAND FREE ENERGY PREDICTED BY IDOCK:   -1.41 KCAL/MOL
REMARK 927      BINDING AFFINITY PREDICTED BY RF-SCORE:    0.00 PKD
ROOT
HETATM    1  C   UNL     1      -8.518  17.355  66.754  1.00  0.00    -0.280 C  
HETATM    2  C   UNL     1      -9.841  17.357  67.499  1.00  0.00    -0.277 C  
ENDROOT
BRANCH   2   3
HETATM    3  C   UNL     1      -9.936  16.167  68.448  1.00  0.00    -0.230 C  
BRANCH   3   4
HETATM    4  C   UNL     1     -11.388  15.751  68.650  1.00  0.00    -0.369 C  
BRANCH   4   5
HETATM    5  C   UNL     1     -11.768  14.638  67.683  1.00  0.00    -0.389 C  
BRANCH   5   6
HETATM    6  C   UNL     1     -10.569  13.746  67.400  1.00  0.00    -0.260 C  
BRANCH   6   7
HETATM    7  C   UNL     1     -10.553  12.564  68.356  1.00  0.00    -0.256 C  
BRANCH   7   8
HETATM    8  C   UNL     1     -11.971  12.174  68.738  1.00  0.00    -0.292 C  
BRANCH   8   9
HETATM    9  C   UNL     1     -11.939  11.133  69.845  1.00  0.00    -0.439 C  
BRANCH   9  10
HETATM   10  C   UNL     1     -12.562  11.687  71.115  1.00  0.00    -0.439 C  
BRANCH  10  11
HETATM   11  C   UNL     1     -13.138  10.553  71.948  1.00  0.00    -0.567 C  
BRANCH  11  12
HETATM   12  C   UNL     1     -12.177   9.373  71.960  1.00  0.00    -0.396 C  
BRANCH  12  13
HETATM   13  C   UNL     1     -12.931   8.054  71.954  1.00  0.00    -0.335 C  
BRANCH  13  14
HETATM   14  C   UNL     1     -12.234   6.997  71.090  1.00  0.00    -0.427 C  
BRANCH  14  15
HETATM   15  C   UNL     1     -11.403   5.977  71.883  1.00  0.00    -0.335 C  
BRANCH  15  16
HETATM   16  C   UNL     1      -9.929   6.078  71.499  1.00  0.00    -0.177 C  
BRANCH  16  17
HETATM   17  N   UNL     1      -9.402   4.932  70.647  1.00  0.00    -0.152 N  
HETATM   18  C   UNL     1     -10.001   3.594  71.102  1.00  0.00    -0.047 C  
HETATM   19  C   UNL     1      -7.885   4.821  70.686  1.00  0.00    -0.069 C  
BRANCH  17  20
HETATM   20  C   UNL     1      -9.884   5.153  69.179  1.00  0.00    -0.187 C  
BRANCH  20  21
HETATM   21  C   UNL     1      -9.025   4.473  68.068  1.00  0.00    -0.116 C  
BRANCH  21  22
HETATM   22  N   UNL     1      -7.965   5.385  67.648  1.00  0.00    -0.100 NA 
BRANCH  22  23
HETATM   23  C   UNL     1      -7.057   5.009  66.556  1.00  0.00    -0.069 C  
BRANCH  23  24
HETATM   24  C   UNL     1      -7.760   4.286  65.424  1.00  0.00    -0.086 A  
HETATM   25  C   UNL     1      -8.373   5.014  64.396  1.00  0.00    -0.136 A  
HETATM   26  C   UNL     1      -9.303   2.978  63.452  1.00  0.00    -0.095 A  
HETATM   27  C   UNL     1      -8.620   2.235  64.412  1.00  0.00    -0.090 A  
HETATM   28  C   UNL     1      -7.855   2.885  65.395  1.00  0.00    -0.081 A  
HETATM   29  C   UNL     1      -9.144   4.364  63.431  1.00  0.00    -0.133 A  
BRANCH  26  30
HETATM   30  O   UNL     1     -10.190   2.504  62.530  1.00  0.00    -0.095 OA 
HETATM   31  C   UNL     1     -11.209   1.612  62.958  1.00  0.00    -0.259 C  
ENDBRANCH  26  30
ENDBRANCH  23  24
ENDBRANCH  22  23
BRANCH  22  32
HETATM   32  C   UNL     1      -8.292   6.731  67.684  1.00  0.00    -0.123 A  
HETATM   33  N   UNL     1      -7.518   7.565  68.402  1.00  0.00    -0.106 NA 
HETATM   34  N   UNL     1      -9.267   7.158  66.874  1.00  0.00    -0.141 NA 
HETATM   35  C   UNL     1      -9.475   8.486  66.799  1.00  0.00    -0.194 A  
HETATM   36  C   UNL     1      -7.805   8.888  68.344  1.00  0.00    -0.104 A  
HETATM   37  C   UNL     1      -8.777   9.410  67.533  1.00  0.00    -0.123 A  
ENDBRANCH  22  32
ENDBRANCH  21  22
ENDBRANCH  20  21
ENDBRANCH  17  20
ENDBRANCH  16  17
ENDBRANCH  15  16
ENDBRANCH  14  15
ENDBRANCH  13  14
ENDBRANCH  12  13
ENDBRANCH  11  12
ENDBRANCH  10  11
ENDBRANCH   9  10
ENDBRANCH   8   9
ENDBRANCH   7   8
ENDBRANCH   6   7
ENDBRANCH   5   6
ENDBRANCH   4   5
ENDBRANCH   3   4
ENDBRANCH   2   3
TORSDOF 22
ENDMDL
MODEL      241
REMARK 921   NORMALIZED FREE ENERGY PREDICTED BY IDOCK:   -2.15 KCAL/MOL
REMARK 922        TOTAL FREE ENERGY PREDICTED BY IDOCK:   -9.37 KCAL/MOL
REMARK 923 INTER-LIGAND FREE ENERGY PREDICTED BY IDOCK:   -6.82 KCAL/MOL
REMARK 924 INTRA-LIGAND FREE ENERGY PREDICTED BY IDOCK:   -2.56 KCAL/MOL
REMARK 927      BINDING AFFINITY PREDICTED BY RF-SCORE:    0.00 PKD
ROOT
HETATM    1  C   UNL     1      -8.697   8.097  71.342  1.00  0.00    -0.179 C  
HETATM    2  C   UNL     1      -8.892   9.455  70.692  1.00  0.00    -0.275 C  
ENDROOT
BRANCH   2   3
HETATM    3  C   UNL     1     -10.043   9.422  69.692  1.00  0.00    -0.218 C  
BRANCH   3   4
HETATM    4  C   UNL     1      -9.976  10.618  68.751  1.00  0.00    -0.201 C  
BRANCH   4   5
HETATM    5  C   UNL     1     -11.377  11.094  68.387  1.00  0.00    -0.357 C  
BRANCH   5   6
HETATM    6  C   UNL     1     -11.486  12.603  68.555  1.00  0.00    -0.349 C  
BRANCH   6   7
HETATM    7  C   UNL     1     -12.076  13.232  67.303  1.00  0.00    -0.341 C  
BRANCH   7   8
HETATM    8  C   UNL     1     -11.439  12.632  66.060  1.00  0.00    -0.414 C  
BRANCH   8   9
HETATM    9  C   UNL     1     -12.487  12.469  64.972  1.00  0.00    -0.494 C  
BRANCH   9  10
HETATM   10  C   UNL     1     -11.825  12.209  63.630  1.00  0.00    -0.608 C  
BRANCH  10  11
HETATM   11  C   UNL     1     -10.313  12.173  63.794  1.00  0.00    -0.465 C  
BRANCH  11  12
HETATM   12  C   UNL     1      -9.691  11.300  62.714  1.00  0.00    -0.289 C  
BRANCH  12  13
HETATM   13  C   UNL     1      -9.278   9.949  63.274  1.00  0.00    -0.274 C  
BRANCH  13  14
HETATM   14  C   UNL     1      -8.464  10.087  64.565  1.00  0.00    -0.180 C  
BRANCH  14  15
HETATM   15  C   UNL     1      -8.978   9.231  65.734  1.00  0.00    -0.234 C  
BRANCH  15  16
HETATM   16  C   UNL     1      -8.322   7.854  65.714  1.00  0.00    -0.136 C  
BRANCH  16  17
HETATM   17  N   UNL     1      -7.179   7.667  66.701  1.00  0.00    -0.085 N  
HETATM   18  C   UNL     1      -7.006   8.915  67.578  1.00  0.00    -0.075 C  
HETATM   19  C   UNL     1      -5.853   7.370  66.016  1.00  0.00    -0.037 C  
BRANCH  17  20
HETATM   20  C   UNL     1      -7.553   6.500  67.667  1.00  0.00    -0.105 C  
BRANCH  20  21
HETATM   21  C   UNL     1      -8.613   5.485  67.136  1.00  0.00    -0.109 C  
BRANCH  21  22
HETATM   22  N   UNL     1      -8.100   4.126  67.284  1.00  0.00    -0.099 NA 
BRANCH  22  23
HETATM   23  C   UNL     1      -8.956   3.070  67.841  1.00  0.00    -0.152 C  
BRANCH  23  24
HETATM   24  C   UNL     1      -9.187   3.221  69.332  1.00  0.00    -0.222 A  
HETATM   25  C   UNL     1     -10.132   4.136  69.810  1.00  0.00     0.082 A  
HETATM   26  C   UNL     1      -9.446   3.714  72.101  1.00  0.00    -0.134 A  
HETATM   27  C   UNL     1      -8.569   2.731  71.645  1.00  0.00    -0.099 A  
HETATM   28  C   UNL     1      -8.438   2.488  70.268  1.00  0.00    -0.087 A  
HETATM   29  C   UNL     1     -10.249   4.386  71.178  1.00  0.00    -0.127 A  
BRANCH  26  30
HETATM   30  O   UNL     1      -9.578   4.159  73.384  1.00  0.00    -0.113 OA 
HETATM   31  C   UNL     1     -10.500   3.503  74.243  1.00  0.00    -0.204 C  
ENDBRANCH  26  30
ENDBRANCH  23  24
ENDBRANCH  22  23
BRANCH  22  32
HETATM   32  C   UNL     1      -7.246   3.702  66.278  1.00  0.00    -0.064 A  
HETATM   33  N   UNL     1      -6.044   3.203  66.619  1.00  0.00    -0.024 NA 
HETATM   34  N   UNL     1      -7.726   3.661  65.030  1.00  0.00    -0.084 NA 
HETATM   35  C   UNL     1      -6.947   3.103  64.084  1.00  0.00    -0.048 A  
HETATM   36  C   UNL     1      -5.269   2.710  65.623  1.00  0.00    -0.008 A  
HETATM   37  C   UNL     1      -5.686   2.620  64.322  1.00  0.00    -0.010 A  
ENDBRANCH  22  32
ENDBRANCH  21  22
ENDBRANCH  20  21
ENDBRANCH  17  20
ENDBRANCH  16  17
ENDBRANCH  15  16
ENDBRANCH  14  15
ENDBRANCH  13  14
ENDBRANCH  12  13
ENDBRANCH  11  12
ENDBRANCH  10  11
ENDBRANCH   9  10
ENDBRANCH   8   9
ENDBRANCH   7   8
ENDBRANCH   6   7
ENDBRANCH   5   6
ENDBRANCH   4   5
ENDBRANCH   3   4
ENDBRANCH   2   3
TORSDOF 22
ENDMDL
MODEL      242
REMARK 921   NORMALIZED FREE ENERGY PREDICTED BY IDOCK:   -2.15 KCAL/MOL
REMARK 922        TOTAL FREE ENERGY PREDICTED BY IDOCK:   -9.36 KCAL/MOL
REMARK 923 INTER-LIGAND FREE ENERGY PREDICTED BY IDOCK:   -6.80 KCAL/MOL
REMARK 924 INTRA-LIGAND FREE ENERGY PREDICTED BY IDOCK:   -2.56 KCAL/MOL
REMARK 927      BINDING AFFINITY PREDICTED BY RF-SCORE:    0.00 PKD
ROOT
HETATM    1  C   UNL     1     -10.865  16.896  65.321  1.00  0.00    -0.113 C  
HETATM    2  C   UNL     1     -11.487  16.084  64.198  1.00  0.00    -0.018 C  
ENDROOT
BRANCH   2   3
HETATM    3  C   UNL     1     -12.146  14.819  64.739  1.00  0.00    -0.387 C  
BRANCH   3   4
HETATM    4  C   UNL     1     -11.619  13.585  64.018  1.00  0.00    -0.394 C  
BRANCH   4   5
HETATM    5  C   UNL     1     -12.108  12.314  64.700  1.00  0.00    -0.449 C  
BRANCH   5   6
HETATM    6  C   UNL     1     -11.085  11.829  65.718  1.00  0.00    -0.351 C  
BRANCH   6   7
HETATM    7  C   UNL     1      -9.901  12.781  65.770  1.00  0.00    -0.222 C  
BRANCH   7   8
HETATM    8  C   UNL     1      -9.855  13.496  67.111  1.00  0.00    -0.245 C  
BRANCH   8   9
HETATM    9  C   UNL     1      -9.615  12.489  68.223  1.00  0.00    -0.209 C  
BRANCH   9  10
HETATM   10  C   UNL     1     -10.721  12.570  69.261  1.00  0.00     0.021 C  
BRANCH  10  11
HETATM   11  C   UNL     1     -11.461  13.893  69.131  1.00  0.00    -0.345 C  
BRANCH  11  12
HETATM   12  C   UNL     1     -11.292  14.713  70.402  1.00  0.00    -0.232 C  
BRANCH  12  13
HETATM   13  C   UNL     1     -12.602  14.811  71.166  1.00  0.00    -0.407 C  
BRANCH  13  14
HETATM   14  C   UNL     1     -13.531  13.629  70.868  1.00  0.00     0.073 C  
BRANCH  14  15
HETATM   15  C   UNL     1     -13.712  12.653  72.041  1.00  0.00    -0.301 C  
BRANCH  15  16
HETATM   16  C   UNL     1     -12.579  11.631  72.062  1.00  0.00     0.197 C  
BRANCH  16  17
HETATM   17  N   UNL     1     -12.968  10.224  71.630  1.00  0.00    -0.430 N  
HETATM   18  C   UNL     1     -13.503  10.224  70.192  1.00  0.00     0.632 C  
HETATM   19  C   UNL     1     -14.018   9.600  72.537  1.00  0.00    -0.052 C  
BRANCH  17  20
HETATM   20  C   UNL     1     -11.680   9.343  71.620  1.00  0.00    -0.398 C  
BRANCH  20  21
HETATM   21  C   UNL     1     -11.908   7.799  71.576  1.00  0.00    -0.293 C  
BRANCH  21  22
HETATM   22  N   UNL     1     -10.729   7.151  71.010  1.00  0.00    -0.229 NA 
BRANCH  22  23
HETATM   23  C   UNL     1      -9.598   7.960  70.534  1.00  0.00    -0.170 C  
BRANCH  23  24
HETATM   24  C   UNL     1      -9.484   7.984  69.022  1.00  0.00    -0.151 A  
HETATM   25  C   UNL     1      -8.470   7.262  68.380  1.00  0.00    -0.125 A  
HETATM   26  C   UNL     1      -9.084   8.225  66.236  1.00  0.00    -0.188 A  
HETATM   27  C   UNL     1     -10.155   8.874  66.847  1.00  0.00    -0.343 A  
HETATM   28  C   UNL     1     -10.353   8.756  68.233  1.00  0.00    -0.252 A  
HETATM   29  C   UNL     1      -8.269   7.394  67.005  1.00  0.00    -0.121 A  
BRANCH  26  30
HETATM   30  O   UNL     1      -8.682   8.356  64.939  1.00  0.00    -0.134 OA 
HETATM   31  C   UNL     1      -7.319   8.116  64.618  1.00  0.00    -0.087 C  
ENDBRANCH  26  30
ENDBRANCH  23  24
ENDBRANCH  22  23
BRANCH  22  32
HETATM   32  C   UNL     1     -10.366   5.954  71.606  1.00  0.00    -0.219 A  
HETATM   33  N   UNL     1      -9.092   5.536  71.495  1.00  0.00    -0.139 NA 
HETATM   34  N   UNL     1     -11.263   5.355  72.398  1.00  0.00    -0.238 NA 
HETATM   35  C   UNL     1     -10.855   4.278  73.095  1.00  0.00    -0.219 A  
HETATM   36  C   UNL     1      -8.744   4.412  72.166  1.00  0.00    -0.113 A  
HETATM   37  C   UNL     1      -9.595   3.744  73.005  1.00  0.00    -0.158 A  
ENDBRANCH  22  32
ENDBRANCH  21  22
ENDBRANCH  20  21
ENDBRANCH  17  20
ENDBRANCH  16  17
ENDBRANCH  15  16
ENDBRANCH  14  15
ENDBRANCH  13  14
ENDBRANCH  12  13
ENDBRANCH  11  12
ENDBRANCH  10  11
ENDBRANCH   9  10
ENDBRANCH   8   9
ENDBRANCH   7   8
ENDBRANCH   6   7
ENDBRANCH   5   6
ENDBRANCH   4   5
ENDBRANCH   3   4
ENDBRANCH   2   3
TORSDOF 22
ENDMDL
MODEL      243
REMARK 921   NORMALIZED FREE ENERGY PREDICTED BY IDOCK:   -2.11 KCAL/MOL
REMARK 922        TOTAL FREE ENERGY PREDICTED BY IDOCK:   -9.27 KCAL/MOL
REMARK 923 INTER-LIGAND FREE ENERGY PREDICTED BY IDOCK:   -7.82 KCAL/MOL
REMARK 924 INTRA-LIGAND FREE ENERGY PREDICTED BY IDOCK:   -1.45 KCAL/MOL
REMARK 927      BINDING AFFINITY PREDICTED BY RF-SCORE:    0.00 PKD
ROOT
HETATM    1  C   UNL     1      -9.366  10.187  62.415  1.00  0.00    -0.297 C  
HETATM    2  C   UNL     1      -9.196  10.835  63.778  1.00  0.00    -0.266 C  
ENDROOT
BRANCH   2   3
HETATM    3  C   UNL     1     -10.546  11.056  64.452  1.00  0.00    -0.395 C  
BRANCH   3   4
HETATM    4  C   UNL     1     -11.156  12.382  64.018  1.00  0.00    -0.452 C  
BRANCH   4   5
HETATM    5  C   UNL     1     -10.495  13.543  64.750  1.00  0.00    -0.430 C  
BRANCH   5   6
HETATM    6  C   UNL     1      -9.996  13.095  66.116  1.00  0.00    -0.291 C  
BRANCH   6   7
HETATM    7  C   UNL     1     -10.338  14.136  67.170  1.00  0.00    -0.265 C  
BRANCH   7   8
HETATM    8  C   UNL     1     -11.777  13.968  67.632  1.00  0.00    -0.412 C  
BRANCH   8   9
HETATM    9  C   UNL     1     -12.131  15.063  68.624  1.00  0.00    -0.198 C  
BRANCH   9  10
HETATM   10  C   UNL     1     -11.094  15.132  69.732  1.00  0.00    -0.295 C  
BRANCH  10  11
HETATM   11  C   UNL     1     -11.751  14.857  71.076  1.00  0.00    -0.376 C  
BRANCH  11  12
HETATM   12  C   UNL     1     -12.817  13.781  70.925  1.00  0.00    -0.341 C  
BRANCH  12  13
HETATM   13  C   UNL     1     -12.207  12.392  71.011  1.00  0.00    -0.201 C  
BRANCH  13  14
HETATM   14  C   UNL     1     -13.133  11.401  71.725  1.00  0.00    -0.523 C  
BRANCH  14  15
HETATM   15  C   UNL     1     -12.713   9.929  71.589  1.00  0.00    -0.527 C  
BRANCH  15  16
HETATM   16  C   UNL     1     -11.277   9.830  71.082  1.00  0.00    -0.374 C  
BRANCH  16  17
HETATM   17  N   UNL     1     -10.809   8.424  70.736  1.00  0.00    -0.219 N  
HETATM   18  C   UNL     1     -10.360   8.344  69.270  1.00  0.00    -0.214 C  
HETATM   19  C   UNL     1     -11.883   7.372  70.970  1.00  0.00    -0.307 C  
BRANCH  17  20
HETATM   20  C   UNL     1      -9.550   8.102  71.599  1.00  0.00    -0.180 C  
BRANCH  20  21
HETATM   21  C   UNL     1      -8.175   8.190  70.864  1.00  0.00    -0.109 C  
BRANCH  21  22
HETATM   22  N   UNL     1      -7.757   6.852  70.457  1.00  0.00    -0.095 NA 
BRANCH  22  23
HETATM   23  C   UNL     1      -6.515   6.666  69.695  1.00  0.00    -0.044 C  
BRANCH  23  24
HETATM   24  C   UNL     1      -6.712   5.853  68.431  1.00  0.00    -0.060 A  
HETATM   25  C   UNL     1      -6.744   4.454  68.491  1.00  0.00    -0.047 A  
HETATM   26  C   UNL     1      -6.809   4.310  66.067  1.00  0.00    -0.057 A  
HETATM   27  C   UNL     1      -6.875   5.700  65.998  1.00  0.00    -0.058 A  
HETATM   28  C   UNL     1      -6.824   6.468  67.173  1.00  0.00    -0.066 A  
HETATM   29  C   UNL     1      -6.780   3.696  67.319  1.00  0.00    -0.046 A  
BRANCH  26  30
HETATM   30  O   UNL     1      -6.706   3.444  65.018  1.00  0.00    -0.039 OA 
HETATM   31  C   UNL     1      -5.484   2.745  64.826  1.00  0.00    -0.009 C  
ENDBRANCH  26  30
ENDBRANCH  23  24
ENDBRANCH  22  23
BRANCH  22  32
HETATM   32  C   UNL     1      -8.027   5.843  71.368  1.00  0.00    -0.113 A  
HETATM   33  N   UNL     1      -9.083   5.040  71.149  1.00  0.00    -0.139 NA 
HETATM   34  N   UNL     1      -7.129   5.619  72.334  1.00  0.00    -0.082 NA 
HETATM   35  C   UNL     1      -7.318   4.542  73.120  1.00  0.00    -0.081 A  
HETATM   36  C   UNL     1      -9.268   4.005  72.004  1.00  0.00    -0.124 A  
HETATM   37  C   UNL     1      -8.393   3.698  73.011  1.00  0.00    -0.086 A  
ENDBRANCH  22  32
ENDBRANCH  21  22
ENDBRANCH  20  21
ENDBRANCH  17  20
ENDBRANCH  16  17
ENDBRANCH  15  16
ENDBRANCH  14  15
ENDBRANCH  13  14
ENDBRANCH  12  13
ENDBRANCH  11  12
ENDBRANCH  10  11
ENDBRANCH   9  10
ENDBRANCH   8   9
ENDBRANCH   7   8
ENDBRANCH   6   7
ENDBRANCH   5   6
ENDBRANCH   4   5
ENDBRANCH   3   4
ENDBRANCH   2   3
TORSDOF 22
ENDMDL
MODEL      244
REMARK 921   NORMALIZED FREE ENERGY PREDICTED BY IDOCK:   -2.10 KCAL/MOL
REMARK 922        TOTAL FREE ENERGY PREDICTED BY IDOCK:   -9.24 KCAL/MOL
REMARK 923 INTER-LIGAND FREE ENERGY PREDICTED BY IDOCK:   -7.47 KCAL/MOL
REMARK 924 INTRA-LIGAND FREE ENERGY PREDICTED BY IDOCK:   -1.77 KCAL/MOL
REMARK 927      BINDING AFFINITY PREDICTED BY RF-SCORE:    0.00 PKD
ROOT
HETATM    1  C   UNL     1      -7.705  19.806  68.403  1.00  0.00    -0.336 C  
HETATM    2  C   UNL     1      -7.629  19.283  66.980  1.00  0.00    -0.252 C  
ENDROOT
BRANCH   2   3
HETATM    3  C   UNL     1      -8.206  17.874  66.883  1.00  0.00    -0.256 C  
BRANCH   3   4
HETATM    4  C   UNL     1      -9.554  17.793  67.587  1.00  0.00    -0.266 C  
BRANCH   4   5
HETATM    5  C   UNL     1     -10.486  16.835  66.855  1.00  0.00    -0.269 C  
BRANCH   5   6
HETATM    6  C   UNL     1     -10.489  17.133  65.363  1.00  0.00    -0.096 C  
BRANCH   6   7
HETATM    7  C   UNL     1     -11.400  16.160  64.632  1.00  0.00    -0.287 C  
BRANCH   7   8
HETATM    8  C   UNL     1     -10.921  14.732  64.837  1.00  0.00    -0.425 C  
BRANCH   8   9
HETATM    9  C   UNL     1     -12.111  13.818  65.072  1.00  0.00    -0.424 C  
BRANCH   9  10
HETATM   10  C   UNL     1     -12.404  13.697  66.557  1.00  0.00    -0.412 C  
BRANCH  10  11
HETATM   11  C   UNL     1     -11.601  12.551  67.154  1.00  0.00    -0.437 C  
BRANCH  11  12
HETATM   12  C   UNL     1     -10.116  12.882  67.122  1.00  0.00    -0.243 C  
BRANCH  12  13
HETATM   13  C   UNL     1      -9.341  12.013  68.099  1.00  0.00    -0.199 C  
BRANCH  13  14
HETATM   14  C   UNL     1      -7.952  12.586  68.400  1.00  0.00    -0.139 C  
BRANCH  14  15
HETATM   15  C   UNL     1      -6.792  11.621  68.109  1.00  0.00    -0.068 C  
BRANCH  15  16
HETATM   16  C   UNL     1      -7.054  10.846  66.821  1.00  0.00    -0.129 C  
BRANCH  16  17
HETATM   17  N   UNL     1      -6.669   9.374  66.862  1.00  0.00    -0.075 N  
HETATM   18  C   UNL     1      -6.241   8.961  68.278  1.00  0.00    -0.054 C  
HETATM   19  C   UNL     1      -5.542   9.035  65.899  1.00  0.00    -0.045 C  
BRANCH  17  20
HETATM   20  C   UNL     1      -7.935   8.527  66.522  1.00  0.00    -0.099 C  
BRANCH  20  21
HETATM   21  C   UNL     1      -7.671   7.075  66.014  1.00  0.00    -0.099 C  
BRANCH  21  22
HETATM   22  N   UNL     1      -8.602   6.157  66.664  1.00  0.00    -0.115 NA 
BRANCH  22  23
HETATM   23  C   UNL     1      -9.822   6.671  67.301  1.00  0.00    -0.146 C  
BRANCH  23  24
HETATM   24  C   UNL     1      -9.899   6.346  68.780  1.00  0.00    -0.152 A  
HETATM   25  C   UNL     1     -11.139   6.097  69.382  1.00  0.00    -0.479 A  
HETATM   26  C   UNL     1     -10.100   6.003  71.576  1.00  0.00    -0.192 A  
HETATM   27  C   UNL     1      -8.851   6.155  70.978  1.00  0.00    -0.139 A  
HETATM   28  C   UNL     1      -8.751   6.328  69.588  1.00  0.00    -0.136 A  
HETATM   29  C   UNL     1     -11.235   5.940  70.766  1.00  0.00    -0.281 A  
BRANCH  26  30
HETATM   30  O   UNL     1     -10.367   5.967  72.914  1.00  0.00    -0.183 OA 
HETATM   31  C   UNL     1      -9.948   7.056  73.724  1.00  0.00    -0.330 C  
ENDBRANCH  26  30
ENDBRANCH  23  24
ENDBRANCH  22  23
BRANCH  22  32
HETATM   32  C   UNL     1      -8.753   4.928  66.043  1.00  0.00    -0.124 A  
HETATM   33  N   UNL     1      -9.020   3.849  66.802  1.00  0.00    -0.127 NA 
HETATM   34  N   UNL     1      -8.785   4.905  64.706  1.00  0.00    -0.152 NA 
HETATM   35  C   UNL     1      -9.086   3.734  64.112  1.00  0.00    -0.128 A  
HETATM   36  C   UNL     1      -9.255   2.679  66.161  1.00  0.00    -0.053 A  
HETATM   37  C   UNL     1      -9.317   2.569  64.798  1.00  0.00    -0.127 A  
ENDBRANCH  22  32
ENDBRANCH  21  22
ENDBRANCH  20  21
ENDBRANCH  17  20
ENDBRANCH  16  17
ENDBRANCH  15  16
ENDBRANCH  14  15
ENDBRANCH  13  14
ENDBRANCH  12  13
ENDBRANCH  11  12
ENDBRANCH  10  11
ENDBRANCH   9  10
ENDBRANCH   8   9
ENDBRANCH   7   8
ENDBRANCH   6   7
ENDBRANCH   5   6
ENDBRANCH   4   5
ENDBRANCH   3   4
ENDBRANCH   2   3
TORSDOF 22
ENDMDL
MODEL      245
REMARK 921   NORMALIZED FREE ENERGY PREDICTED BY IDOCK:   -2.06 KCAL/MOL
REMARK 922        TOTAL FREE ENERGY PREDICTED BY IDOCK:   -9.17 KCAL/MOL
REMARK 923 INTER-LIGAND FREE ENERGY PREDICTED BY IDOCK:   -6.89 KCAL/MOL
REMARK 924 INTRA-LIGAND FREE ENERGY PREDICTED BY IDOCK:   -2.28 KCAL/MOL
REMARK 927      BINDING AFFINITY PREDICTED BY RF-SCORE:    0.00 PKD
ROOT
HETATM    1  C   UNL     1     -12.258  15.504  70.577  1.00  0.00    -0.444 C  
HETATM    2  C   UNL     1     -11.930  15.575  69.096  1.00  0.00    -0.331 C  
ENDROOT
BRANCH   2   3
HETATM    3  C   UNL     1     -11.870  14.181  68.481  1.00  0.00    -0.390 C  
BRANCH   3   4
HETATM    4  C   UNL     1     -11.658  14.262  66.975  1.00  0.00    -0.406 C  
BRANCH   4   5
HETATM    5  C   UNL     1     -10.771  15.449  66.621  1.00  0.00    -0.309 C  
BRANCH   5   6
HETATM    6  C   UNL     1      -9.313  15.019  66.542  1.00  0.00    -0.309 C  
BRANCH   6   7
HETATM    7  C   UNL     1      -8.516  15.649  67.672  1.00  0.00    -0.169 C  
BRANCH   7   8
HETATM    8  C   UNL     1      -7.123  16.025  67.192  1.00  0.00    -0.248 C  
BRANCH   8   9
HETATM    9  C   UNL     1      -6.179  14.850  67.379  1.00  0.00     0.101 C  
BRANCH   9  10
HETATM   10  C   UNL     1      -5.486  14.933  68.728  1.00  0.00    -0.088 C  
BRANCH  10  11
HETATM   11  C   UNL     1      -5.601  13.602  69.454  1.00  0.00    -0.087 C  
BRANCH  11  12
HETATM   12  C   UNL     1      -6.910  12.917  69.085  1.00  0.00    -0.054 C  
BRANCH  12  13
HETATM   13  C   UNL     1      -6.756  11.405  69.093  1.00  0.00    -0.106 C  
BRANCH  13  14
HETATM   14  C   UNL     1      -6.056  10.892  67.830  1.00  0.00    -0.050 C  
BRANCH  14  15
HETATM   15  C   UNL     1      -6.712  11.339  66.515  1.00  0.00    -0.105 C  
BRANCH  15  16
HETATM   16  C   UNL     1      -8.203  11.014  66.527  1.00  0.00    -0.161 C  
BRANCH  16  17
HETATM   17  N   UNL     1      -8.643   9.956  65.524  1.00  0.00    -0.138 N  
HETATM   18  C   UNL     1      -7.921  10.142  64.183  1.00  0.00    -0.154 C  
HETATM   19  C   UNL     1     -10.143   9.974  65.272  1.00  0.00    -0.229 C  
BRANCH  17  20
HETATM   20  C   UNL     1      -8.210   8.559  66.067  1.00  0.00    -0.118 C  
BRANCH  20  21
HETATM   21  C   UNL     1      -9.336   7.483  66.164  1.00  0.00    -0.069 C  
BRANCH  21  22
HETATM   22  N   UNL     1      -8.733   6.160  66.303  1.00  0.00    -0.138 NA 
BRANCH  22  23
HETATM   23  C   UNL     1      -8.499   5.592  67.637  1.00  0.00    -0.102 C  
BRANCH  23  24
HETATM   24  C   UNL     1      -9.366   6.223  68.710  1.00  0.00    -0.124 A  
HETATM   25  C   UNL     1      -8.794   7.061  69.674  1.00  0.00    -0.141 A  
HETATM   26  C   UNL     1     -10.903   7.195  70.870  1.00  0.00    -0.244 A  
HETATM   27  C   UNL     1     -11.507   6.441  69.866  1.00  0.00    -0.483 A  
HETATM   28  C   UNL     1     -10.742   5.956  68.793  1.00  0.00    -0.354 A  
HETATM   29  C   UNL     1      -9.554   7.529  70.747  1.00  0.00    -0.166 A  
BRANCH  26  30
HETATM   30  O   UNL     1     -11.478   7.612  72.036  1.00  0.00    -0.261 OA 
HETATM   31  C   UNL     1     -10.650   8.177  73.042  1.00  0.00    -0.145 C  
ENDBRANCH  26  30
ENDBRANCH  23  24
ENDBRANCH  22  23
BRANCH  22  32
HETATM   32  C   UNL     1      -9.107   5.234  65.343  1.00  0.00    -0.117 A  
HETATM   33  N   UNL     1     -10.317   4.653  65.442  1.00  0.00    -0.182 NA 
HETATM   34  N   UNL     1      -8.312   5.085  64.277  1.00  0.00    -0.132 NA 
HETATM   35  C   UNL     1      -8.755   4.301  63.276  1.00  0.00    -0.117 A  
HETATM   36  C   UNL     1     -10.694   3.823  64.439  1.00  0.00    -0.165 A  
HETATM   37  C   UNL     1      -9.947   3.623  63.310  1.00  0.00    -0.158 A  
ENDBRANCH  22  32
ENDBRANCH  21  22
ENDBRANCH  20  21
ENDBRANCH  17  20
ENDBRANCH  16  17
ENDBRANCH  15  16
ENDBRANCH  14  15
ENDBRANCH  13  14
ENDBRANCH  12  13
ENDBRANCH  11  12
ENDBRANCH  10  11
ENDBRANCH   9  10
ENDBRANCH   8   9
ENDBRANCH   7   8
ENDBRANCH   6   7
ENDBRANCH   5   6
ENDBRANCH   4   5
ENDBRANCH   3   4
ENDBRANCH   2   3
TORSDOF 22
ENDMDL
MODEL      246
REMARK 921   NORMALIZED FREE ENERGY PREDICTED BY IDOCK:   -2.06 KCAL/MOL
REMARK 922        TOTAL FREE ENERGY PREDICTED BY IDOCK:   -9.16 KCAL/MOL
REMARK 923 INTER-LIGAND FREE ENERGY PREDICTED BY IDOCK:   -7.63 KCAL/MOL
REMARK 924 INTRA-LIGAND FREE ENERGY PREDICTED BY IDOCK:   -1.53 KCAL/MOL
REMARK 927      BINDING AFFINITY PREDICTED BY RF-SCORE:    0.00 PKD
ROOT
HETATM    1  C   UNL     1     -10.610   2.730  63.608  1.00  0.00    -0.183 C  
HETATM    2  C   UNL     1     -10.213   4.074  64.192  1.00  0.00    -0.181 C  
ENDROOT
BRANCH   2   3
HETATM    3  C   UNL     1      -9.912   3.956  65.682  1.00  0.00    -0.109 C  
BRANCH   3   4
HETATM    4  C   UNL     1     -10.564   5.093  66.458  1.00  0.00    -0.320 C  
BRANCH   4   5
HETATM    5  C   UNL     1      -9.706   5.491  67.652  1.00  0.00    -0.145 C  
BRANCH   5   6
HETATM    6  C   UNL     1     -10.233   4.844  68.924  1.00  0.00    -0.137 C  
BRANCH   6   7
HETATM    7  C   UNL     1      -9.145   4.804  69.985  1.00  0.00    -0.155 C  
BRANCH   7   8
HETATM    8  C   UNL     1      -9.058   6.140  70.705  1.00  0.00    -0.156 C  
BRANCH   8   9
HETATM    9  C   UNL     1      -7.610   6.595  70.774  1.00  0.00    -0.092 C  
BRANCH   9  10
HETATM   10  C   UNL     1      -6.736   5.725  69.887  1.00  0.00    -0.052 C  
BRANCH  10  11
HETATM   11  C   UNL     1      -5.346   6.331  69.771  1.00  0.00    -0.013 C  
BRANCH  11  12
HETATM   12  C   UNL     1      -5.170   6.978  68.405  1.00  0.00    -0.016 C  
BRANCH  12  13
HETATM   13  C   UNL     1      -6.249   6.517  67.439  1.00  0.00    -0.036 C  
BRANCH  13  14
HETATM   14  C   UNL     1      -6.980   7.697  66.789  1.00  0.00    -0.079 C  
BRANCH  14  15
HETATM   15  C   UNL     1      -6.433   9.077  67.183  1.00  0.00    -0.061 C  
BRANCH  15  16
HETATM   16  C   UNL     1      -6.982   9.498  68.544  1.00  0.00    -0.065 C  
BRANCH  16  17
HETATM   17  N   UNL     1      -8.041  10.590  68.505  1.00  0.00    -0.114 N  
HETATM   18  C   UNL     1      -7.447  11.942  68.926  1.00  0.00    -0.060 C  
HETATM   19  C   UNL     1      -9.232  10.286  69.401  1.00  0.00    -0.189 C  
BRANCH  17  20
HETATM   20  C   UNL     1      -8.515  10.760  67.028  1.00  0.00    -0.128 C  
BRANCH  20  21
HETATM   21  C   UNL     1      -8.772  12.225  66.555  1.00  0.00    -0.084 C  
BRANCH  21  22
HETATM   22  N   UNL     1     -10.173  12.568  66.779  1.00  0.00    -0.229 NA 
BRANCH  22  23
HETATM   23  C   UNL     1     -10.543  13.503  67.850  1.00  0.00    -0.248 C  
BRANCH  23  24
HETATM   24  C   UNL     1     -10.091  14.924  67.575  1.00  0.00    -0.228 A  
HETATM   25  C   UNL     1     -10.818  16.006  68.087  1.00  0.00    -0.322 A  
HETATM   26  C   UNL     1      -9.429  17.575  66.860  1.00  0.00    -0.274 A  
HETATM   27  C   UNL     1      -8.639  16.515  66.421  1.00  0.00    -0.347 A  
HETATM   28  C   UNL     1      -8.969  15.196  66.775  1.00  0.00    -0.293 A  
HETATM   29  C   UNL     1     -10.495  17.314  67.721  1.00  0.00    -0.371 A  
BRANCH  26  30
HETATM   30  O   UNL     1      -9.320  18.884  66.488  1.00  0.00    -0.317 OA 
HETATM   31  C   UNL     1     -10.305  19.805  66.932  1.00  0.00    -0.476 C  
ENDBRANCH  26  30
ENDBRANCH  23  24
ENDBRANCH  22  23
BRANCH  22  32
HETATM   32  C   UNL     1     -10.949  12.670  65.635  1.00  0.00    -0.280 A  
HETATM   33  N   UNL     1     -10.354  12.532  64.437  1.00  0.00    -0.344 NA 
HETATM   34  N   UNL     1     -12.276  12.740  65.787  1.00  0.00    -0.558 NA 
HETATM   35  C   UNL     1     -13.032  12.682  64.674  1.00  0.00    -0.136 A  
HETATM   36  C   UNL     1     -11.151  12.542  63.340  1.00  0.00    -0.361 A  
HETATM   37  C   UNL     1     -12.516  12.599  63.406  1.00  0.00    -0.474 A  
ENDBRANCH  22  32
ENDBRANCH  21  22
ENDBRANCH  20  21
ENDBRANCH  17  20
ENDBRANCH  16  17
ENDBRANCH  15  16
ENDBRANCH  14  15
ENDBRANCH  13  14
ENDBRANCH  12  13
ENDBRANCH  11  12
ENDBRANCH  10  11
ENDBRANCH   9  10
ENDBRANCH   8   9
ENDBRANCH   7   8
ENDBRANCH   6   7
ENDBRANCH   5   6
ENDBRANCH   4   5
ENDBRANCH   3   4
ENDBRANCH   2   3
TORSDOF 22
ENDMDL
MODEL      247
REMARK 921   NORMALIZED FREE ENERGY PREDICTED BY IDOCK:   -2.06 KCAL/MOL
REMARK 922        TOTAL FREE ENERGY PREDICTED BY IDOCK:   -9.15 KCAL/MOL
REMARK 923 INTER-LIGAND FREE ENERGY PREDICTED BY IDOCK:   -6.78 KCAL/MOL
REMARK 924 INTRA-LIGAND FREE ENERGY PREDICTED BY IDOCK:   -2.37 KCAL/MOL
REMARK 927      BINDING AFFINITY PREDICTED BY RF-SCORE:    0.00 PKD
ROOT
HETATM    1  C   UNL     1      -9.957  13.683  66.103  1.00  0.00    -0.314 C  
HETATM    2  C   UNL     1      -8.700  13.237  66.830  1.00  0.00    -0.093 C  
ENDROOT
BRANCH   2   3
HETATM    3  C   UNL     1      -8.865  13.369  68.340  1.00  0.00    -0.133 C  
BRANCH   3   4
HETATM    4  C   UNL     1      -7.889  14.394  68.903  1.00  0.00    -0.118 C  
BRANCH   4   5
HETATM    5  C   UNL     1      -6.890  14.828  67.838  1.00  0.00    -0.174 C  
BRANCH   5   6
HETATM    6  C   UNL     1      -6.896  16.342  67.689  1.00  0.00    -0.161 C  
BRANCH   6   7
HETATM    7  C   UNL     1      -8.305  16.840  67.415  1.00  0.00    -0.197 C  
BRANCH   7   8
HETATM    8  C   UNL     1      -8.685  17.927  68.407  1.00  0.00    -0.296 C  
BRANCH   8   9
HETATM    9  C   UNL     1     -10.197  18.002  68.537  1.00  0.00    -0.392 C  
BRANCH   9  10
HETATM   10  C   UNL     1     -10.724  16.807  69.312  1.00  0.00    -0.324 C  
BRANCH  10  11
HETATM   11  C   UNL     1     -11.563  15.925  68.400  1.00  0.00    -0.317 C  
BRANCH  11  12
HETATM   12  C   UNL     1     -12.146  14.762  69.190  1.00  0.00    -0.278 C  
BRANCH  12  13
HETATM   13  C   UNL     1     -12.886  15.255  70.422  1.00  0.00    -0.360 C  
BRANCH  13  14
HETATM   14  C   UNL     1     -13.780  14.168  71.029  1.00  0.00    -0.101 C  
BRANCH  14  15
HETATM   15  C   UNL     1     -13.022  13.098  71.829  1.00  0.00    -0.435 C  
BRANCH  15  16
HETATM   16  C   UNL     1     -12.330  12.118  70.885  1.00  0.00    -0.273 C  
BRANCH  16  17
HETATM   17  N   UNL     1     -12.605  10.647  71.163  1.00  0.00    -0.385 N  
HETATM   18  C   UNL     1     -13.337   9.996  69.981  1.00  0.00     0.762 C  
HETATM   19  C   UNL     1     -13.434  10.432  72.421  1.00  0.00     0.080 C  
BRANCH  17  20
HETATM   20  C   UNL     1     -11.236   9.910  71.293  1.00  0.00    -0.286 C  
BRANCH  20  21
HETATM   21  C   UNL     1     -10.994   8.735  70.294  1.00  0.00    -0.235 C  
BRANCH  21  22
HETATM   22  N   UNL     1      -9.638   8.825  69.760  1.00  0.00    -0.169 NA 
BRANCH  22  23
HETATM   23  C   UNL     1      -8.538   8.106  70.415  1.00  0.00    -0.131 C  
BRANCH  23  24
HETATM   24  C   UNL     1      -9.015   7.137  71.480  1.00  0.00    -0.135 A  
HETATM   25  C   UNL     1      -8.551   7.252  72.796  1.00  0.00    -0.141 A  
HETATM   26  C   UNL     1      -9.674   5.190  73.417  1.00  0.00    -0.145 A  
HETATM   27  C   UNL     1     -10.220   5.116  72.137  1.00  0.00    -0.258 A  
HETATM   28  C   UNL     1      -9.890   6.082  71.173  1.00  0.00    -0.214 A  
HETATM   29  C   UNL     1      -8.870   6.282  73.747  1.00  0.00    -0.129 A  
BRANCH  26  30
HETATM   30  O   UNL     1      -9.787   4.260  74.409  1.00  0.00    -0.118 OA 
HETATM   31  C   UNL     1     -10.447   3.035  74.125  1.00  0.00    -0.174 C  
ENDBRANCH  26  30
ENDBRANCH  23  24
ENDBRANCH  22  23
BRANCH  22  32
HETATM   32  C   UNL     1      -9.547   8.877  68.379  1.00  0.00    -0.146 A  
HETATM   33  N   UNL     1     -10.301   9.772  67.714  1.00  0.00    -0.209 NA 
HETATM   34  N   UNL     1      -8.596   8.145  67.789  1.00  0.00    -0.131 NA 
HETATM   35  C   UNL     1      -8.411   8.316  66.466  1.00  0.00    -0.112 A  
HETATM   36  C   UNL     1     -10.123   9.865  66.374  1.00  0.00    -0.240 A  
HETATM   37  C   UNL     1      -9.166   9.162  65.694  1.00  0.00    -0.296 A  
ENDBRANCH  22  32
ENDBRANCH  21  22
ENDBRANCH  20  21
ENDBRANCH  17  20
ENDBRANCH  16  17
ENDBRANCH  15  16
ENDBRANCH  14  15
ENDBRANCH  13  14
ENDBRANCH  12  13
ENDBRANCH  11  12
ENDBRANCH  10  11
ENDBRANCH   9  10
ENDBRANCH   8   9
ENDBRANCH   7   8
ENDBRANCH   6   7
ENDBRANCH   5   6
ENDBRANCH   4   5
ENDBRANCH   3   4
ENDBRANCH   2   3
TORSDOF 22
ENDMDL
MODEL      248
REMARK 921   NORMALIZED FREE ENERGY PREDICTED BY IDOCK:   -2.01 KCAL/MOL
REMARK 922        TOTAL FREE ENERGY PREDICTED BY IDOCK:   -9.04 KCAL/MOL
REMARK 923 INTER-LIGAND FREE ENERGY PREDICTED BY IDOCK:   -6.63 KCAL/MOL
REMARK 924 INTRA-LIGAND FREE ENERGY PREDICTED BY IDOCK:   -2.41 KCAL/MOL
REMARK 927      BINDING AFFINITY PREDICTED BY RF-SCORE:    0.00 PKD
ROOT
HETATM    1  C   UNL     1      -9.863  19.568  68.035  1.00  0.00    -0.500 C  
HETATM    2  C   UNL     1      -9.057  18.571  67.221  1.00  0.00    -0.282 C  
ENDROOT
BRANCH   2   3
HETATM    3  C   UNL     1      -9.020  17.209  67.905  1.00  0.00    -0.230 C  
BRANCH   3   4
HETATM    4  C   UNL     1     -10.420  16.772  68.316  1.00  0.00    -0.341 C  
BRANCH   4   5
HETATM    5  C   UNL     1     -10.674  15.326  67.908  1.00  0.00    -0.275 C  
BRANCH   5   6
HETATM    6  C   UNL     1     -10.705  15.199  66.392  1.00  0.00    -0.317 C  
BRANCH   6   7
HETATM    7  C   UNL     1     -11.647  14.081  65.975  1.00  0.00    -0.362 C  
BRANCH   7   8
HETATM    8  C   UNL     1     -10.922  12.745  65.991  1.00  0.00    -0.306 C  
BRANCH   8   9
HETATM    9  C   UNL     1     -11.798  11.691  66.646  1.00  0.00     0.086 C  
BRANCH   9  10
HETATM   10  C   UNL     1     -11.539  11.638  68.142  1.00  0.00    -0.389 C  
BRANCH  10  11
HETATM   11  C   UNL     1     -10.436  10.635  68.443  1.00  0.00    -0.212 C  
BRANCH  11  12
HETATM   12  C   UNL     1      -9.097  11.349  68.554  1.00  0.00    -0.169 C  
BRANCH  12  13
HETATM   13  C   UNL     1      -8.103  10.526  69.356  1.00  0.00    -0.136 C  
BRANCH  13  14
HETATM   14  C   UNL     1      -6.688  11.113  69.295  1.00  0.00    -0.103 C  
BRANCH  14  15
HETATM   15  C   UNL     1      -5.591  10.089  68.964  1.00  0.00    -0.034 C  
BRANCH  15  16
HETATM   16  C   UNL     1      -5.967   9.290  67.719  1.00  0.00    -0.053 C  
BRANCH  16  17
HETATM   17  N   UNL     1      -6.008   7.780  67.908  1.00  0.00    -0.040 N  
HETATM   18  C   UNL     1      -5.330   7.376  69.224  1.00  0.00    -0.015 C  
HETATM   19  C   UNL     1      -5.338   7.028  66.768  1.00  0.00    -0.021 C  
BRANCH  17  20
HETATM   20  C   UNL     1      -7.501   7.344  68.031  1.00  0.00    -0.105 C  
BRANCH  20  21
HETATM   21  C   UNL     1      -7.783   5.817  67.873  1.00  0.00    -0.097 C  
BRANCH  21  22
HETATM   22  N   UNL     1      -8.348   5.296  69.114  1.00  0.00    -0.091 NA 
BRANCH  22  23
HETATM   23  C   UNL     1      -9.802   5.143  69.257  1.00  0.00    -0.190 C  
BRANCH  23  24
HETATM   24  C   UNL     1     -10.402   6.104  70.265  1.00  0.00    -0.270 A  
HETATM   25  C   UNL     1     -11.383   5.662  71.161  1.00  0.00    -0.032 A  
HETATM   26  C   UNL     1     -11.726   7.928  71.967  1.00  0.00    -0.311 A  
HETATM   27  C   UNL     1     -10.685   8.364  71.149  1.00  0.00    -0.280 A  
HETATM   28  C   UNL     1     -10.029   7.457  70.301  1.00  0.00    -0.188 A  
HETATM   29  C   UNL     1     -12.043   6.569  71.992  1.00  0.00    -0.358 A  
BRANCH  26  30
HETATM   30  O   UNL     1     -12.544   8.706  72.733  1.00  0.00    -0.319 OA 
HETATM   31  C   UNL     1     -13.874   8.939  72.292  1.00  0.00    -0.474 C  
ENDBRANCH  26  30
ENDBRANCH  23  24
ENDBRANCH  22  23
BRANCH  22  32
HETATM   32  C   UNL     1      -7.603   4.307  69.736  1.00  0.00    -0.053 A  
HETATM   33  N   UNL     1      -6.473   3.880  69.143  1.00  0.00    -0.033 NA 
HETATM   34  N   UNL     1      -7.961   3.941  70.972  1.00  0.00    -0.062 NA 
HETATM   35  C   UNL     1      -7.146   3.094  71.629  1.00  0.00    -0.032 A  
HETATM   36  C   UNL     1      -5.716   2.981  69.817  1.00  0.00    -0.018 A  
HETATM   37  C   UNL     1      -6.003   2.562  71.088  1.00  0.00    -0.014 A  
ENDBRANCH  22  32
ENDBRANCH  21  22
ENDBRANCH  20  21
ENDBRANCH  17  20
ENDBRANCH  16  17
ENDBRANCH  15  16
ENDBRANCH  14  15
ENDBRANCH  13  14
ENDBRANCH  12  13
ENDBRANCH  11  12
ENDBRANCH  10  11
ENDBRANCH   9  10
ENDBRANCH   8   9
ENDBRANCH   7   8
ENDBRANCH   6   7
ENDBRANCH   5   6
ENDBRANCH   4   5
ENDBRANCH   3   4
ENDBRANCH   2   3
TORSDOF 22
ENDMDL
MODEL      249
REMARK 921   NORMALIZED FREE ENERGY PREDICTED BY IDOCK:   -1.98 KCAL/MOL
REMARK 922        TOTAL FREE ENERGY PREDICTED BY IDOCK:   -8.97 KCAL/MOL
REMARK 923 INTER-LIGAND FREE ENERGY PREDICTED BY IDOCK:   -7.62 KCAL/MOL
REMARK 924 INTRA-LIGAND FREE ENERGY PREDICTED BY IDOCK:   -1.35 KCAL/MOL
REMARK 927      BINDING AFFINITY PREDICTED BY RF-SCORE:    0.00 PKD
ROOT
HETATM    1  C   UNL     1      -9.022   7.464  73.691  1.00  0.00    -0.261 C  
HETATM    2  C   UNL     1      -7.546   7.129  73.816  1.00  0.00    -0.119 C  
ENDROOT
BRANCH   2   3
HETATM    3  C   UNL     1      -7.167   5.975  72.894  1.00  0.00    -0.093 C  
BRANCH   3   4
HETATM    4  C   UNL     1      -8.390   5.137  72.544  1.00  0.00    -0.117 C  
BRANCH   4   5
HETATM    5  C   UNL     1      -8.913   5.501  71.160  1.00  0.00    -0.153 C  
BRANCH   5   6
HETATM    6  C   UNL     1     -10.344   5.015  70.988  1.00  0.00    -0.254 C  
BRANCH   6   7
HETATM    7  C   UNL     1     -11.270   6.189  70.713  1.00  0.00    -0.373 C  
BRANCH   7   8
HETATM    8  C   UNL     1     -11.809   6.755  72.017  1.00  0.00    -0.351 C  
BRANCH   8   9
HETATM    9  C   UNL     1     -13.240   7.225  71.822  1.00  0.00    -0.368 C  
BRANCH   9  10
HETATM   10  C   UNL     1     -13.332   8.732  71.993  1.00  0.00    -0.455 C  
BRANCH  10  11
HETATM   11  C   UNL     1     -11.966   9.364  71.779  1.00  0.00    -0.452 C  
BRANCH  11  12
HETATM   12  C   UNL     1     -11.938  10.111  70.453  1.00  0.00    -0.353 C  
BRANCH  12  13
HETATM   13  C   UNL     1     -12.494  11.517  70.606  1.00  0.00    -0.405 C  
BRANCH  13  14
HETATM   14  C   UNL     1     -11.539  12.577  70.046  1.00  0.00    -0.207 C  
BRANCH  14  15
HETATM   15  C   UNL     1     -12.157  13.481  68.969  1.00  0.00    -0.330 C  
BRANCH  15  16
HETATM   16  C   UNL     1     -11.783  12.982  67.576  1.00  0.00    -0.370 C  
BRANCH  16  17
HETATM   17  N   UNL     1     -10.300  13.047  67.241  1.00  0.00    -0.238 N  
HETATM   18  C   UNL     1      -9.548  13.915  68.259  1.00  0.00    -0.218 C  
HETATM   19  C   UNL     1     -10.036  13.599  65.848  1.00  0.00    -0.310 C  
BRANCH  17  20
HETATM   20  C   UNL     1      -9.707  11.609  67.367  1.00  0.00    -0.176 C  
BRANCH  20  21
HETATM   21  C   UNL     1      -8.574  11.426  68.425  1.00  0.00    -0.156 C  
BRANCH  21  22
HETATM   22  N   UNL     1      -7.300  11.227  67.742  1.00  0.00    -0.090 NA 
BRANCH  22  23
HETATM   23  C   UNL     1      -6.049  11.682  68.365  1.00  0.00    -0.049 C  
BRANCH  23  24
HETATM   24  C   UNL     1      -6.047  13.167  68.671  1.00  0.00    -0.080 A  
HETATM   25  C   UNL     1      -6.043  13.612  69.999  1.00  0.00    -0.137 A  
HETATM   26  C   UNL     1      -6.312  15.914  69.271  1.00  0.00    -0.153 A  
HETATM   27  C   UNL     1      -6.221  15.494  67.946  1.00  0.00    -0.167 A  
HETATM   28  C   UNL     1      -6.091  14.128  67.647  1.00  0.00    -0.075 A  
HETATM   29  C   UNL     1      -6.187  14.970  70.291  1.00  0.00    -0.132 A  
BRANCH  26  30
HETATM   30  O   UNL     1      -6.580  17.178  69.711  1.00  0.00    -0.191 OA 
HETATM   31  C   UNL     1      -6.728  18.217  68.754  1.00  0.00    -0.249 C  
ENDBRANCH  26  30
ENDBRANCH  23  24
ENDBRANCH  22  23
BRANCH  22  32
HETATM   32  C   UNL     1      -7.188  10.045  67.028  1.00  0.00    -0.090 A  
HETATM   33  N   UNL     1      -7.459   8.885  67.653  1.00  0.00    -0.092 NA 
HETATM   34  N   UNL     1      -6.973  10.131  65.711  1.00  0.00    -0.116 NA 
HETATM   35  C   UNL     1      -7.019   8.989  64.998  1.00  0.00    -0.080 A  
HETATM   36  C   UNL     1      -7.432   7.754  66.906  1.00  0.00    -0.094 A  
HETATM   37  C   UNL     1      -7.231   7.753  65.553  1.00  0.00    -0.064 A  
ENDBRANCH  22  32
ENDBRANCH  21  22
ENDBRANCH  20  21
ENDBRANCH  17  20
ENDBRANCH  16  17
ENDBRANCH  15  16
ENDBRANCH  14  15
ENDBRANCH  13  14
ENDBRANCH  12  13
ENDBRANCH  11  12
ENDBRANCH  10  11
ENDBRANCH   9  10
ENDBRANCH   8   9
ENDBRANCH   7   8
ENDBRANCH   6   7
ENDBRANCH   5   6
ENDBRANCH   4   5
ENDBRANCH   3   4
ENDBRANCH   2   3
TORSDOF 22
ENDMDL
MODEL      250
REMARK 921   NORMALIZED FREE ENERGY PREDICTED BY IDOCK:   -1.89 KCAL/MOL
REMARK 922        TOTAL FREE ENERGY PREDICTED BY IDOCK:   -8.78 KCAL/MOL
REMARK 923 INTER-LIGAND FREE ENERGY PREDICTED BY IDOCK:   -7.90 KCAL/MOL
REMARK 924 INTRA-LIGAND FREE ENERGY PREDICTED BY IDOCK:   -0.88 KCAL/MOL
REMARK 927      BINDING AFFINITY PREDICTED BY RF-SCORE:    0.00 PKD
ROOT
HETATM    1  C   UNL     1     -12.970  13.584  65.790  1.00  0.00    -0.166 C  
HETATM    2  C   UNL     1     -12.621  12.937  64.461  1.00  0.00    -0.420 C  
ENDROOT
BRANCH   2   3
HETATM    3  C   UNL     1     -11.644  11.781  64.656  1.00  0.00    -0.270 C  
BRANCH   3   4
HETATM    4  C   UNL     1     -10.215  12.295  64.775  1.00  0.00    -0.308 C  
BRANCH   4   5
HETATM    5  C   UNL     1     -10.197  13.704  65.355  1.00  0.00    -0.330 C  
BRANCH   5   6
HETATM    6  C   UNL     1      -9.156  13.811  66.460  1.00  0.00    -0.149 C  
BRANCH   6   7
HETATM    7  C   UNL     1      -9.159  15.210  67.054  1.00  0.00    -0.249 C  
BRANCH   7   8
HETATM    8  C   UNL     1      -7.735  15.691  67.283  1.00  0.00    -0.239 C  
BRANCH   8   9
HETATM    9  C   UNL     1      -7.178  15.064  68.550  1.00  0.00    -0.115 C  
BRANCH   9  10
HETATM   10  C   UNL     1      -6.247  13.913  68.209  1.00  0.00    -0.111 C  
BRANCH  10  11
HETATM   11  C   UNL     1      -6.606  12.691  69.039  1.00  0.00    -0.100 C  
BRANCH  11  12
HETATM   12  C   UNL     1      -5.340  12.000  69.527  1.00  0.00    -0.069 C  
BRANCH  12  13
HETATM   13  C   UNL     1      -5.617  11.162  70.764  1.00  0.00    -0.114 C  
BRANCH  13  14
HETATM   14  C   UNL     1      -6.479   9.935  70.446  1.00  0.00    -0.115 C  
BRANCH  14  15
HETATM   15  C   UNL     1      -5.696   8.617  70.351  1.00  0.00    -0.027 C  
BRANCH  15  16
HETATM   16  C   UNL     1      -6.649   7.445  70.142  1.00  0.00    -0.043 C  
BRANCH  16  17
HETATM   17  N   UNL     1      -6.942   6.619  71.387  1.00  0.00    -0.073 N  
HETATM   18  C   UNL     1      -6.117   7.120  72.581  1.00  0.00    -0.044 C  
HETATM   19  C   UNL     1      -6.655   5.138  71.190  1.00  0.00    -0.039 C  
BRANCH  17  20
HETATM   20  C   UNL     1      -8.440   6.826  71.770  1.00  0.00    -0.120 C  
BRANCH  20  21
HETATM   21  C   UNL     1      -9.327   7.542  70.704  1.00  0.00    -0.163 C  
BRANCH  21  22
HETATM   22  N   UNL     1     -10.402   6.646  70.287  1.00  0.00    -0.198 NA 
BRANCH  22  23
HETATM   23  C   UNL     1     -11.796   6.957  70.628  1.00  0.00    -0.368 C  
BRANCH  23  24
HETATM   24  C   UNL     1     -12.022   8.429  70.912  1.00  0.00    -0.194 A  
HETATM   25  C   UNL     1     -12.805   8.824  72.004  1.00  0.00    -0.442 A  
HETATM   26  C   UNL     1     -12.678  11.148  71.308  1.00  0.00    -0.426 A  
HETATM   27  C   UNL     1     -11.819  10.779  70.275  1.00  0.00    -0.438 A  
HETATM   28  C   UNL     1     -11.495   9.427  70.076  1.00  0.00    -0.111 A  
HETATM   29  C   UNL     1     -13.137  10.167  72.189  1.00  0.00    -0.463 A  
BRANCH  26  30
HETATM   30  O   UNL     1     -13.193  12.390  71.539  1.00  0.00    -0.345 OA 
HETATM   31  C   UNL     1     -12.547  13.516  70.962  1.00  0.00    -0.359 C  
ENDBRANCH  26  30
ENDBRANCH  23  24
ENDBRANCH  22  23
BRANCH  22  32
HETATM   32  C   UNL     1     -10.233   6.056  69.044  1.00  0.00    -0.193 A  
HETATM   33  N   UNL     1      -9.758   4.798  68.985  1.00  0.00    -0.169 NA 
HETATM   34  N   UNL     1     -10.703   6.709  67.975  1.00  0.00    -0.243 NA 
HETATM   35  C   UNL     1     -10.676   6.064  66.793  1.00  0.00    -0.302 A  
HETATM   36  C   UNL     1      -9.693   4.213  67.765  1.00  0.00    -0.111 A  
HETATM   37  C   UNL     1     -10.161   4.805  66.623  1.00  0.00    -0.276 A  
ENDBRANCH  22  32
ENDBRANCH  21  22
ENDBRANCH  20  21
ENDBRANCH  17  20
ENDBRANCH  16  17
ENDBRANCH  15  16
ENDBRANCH  14  15
ENDBRANCH  13  14
ENDBRANCH  12  13
ENDBRANCH  11  12
ENDBRANCH  10  11
ENDBRANCH   9  10
ENDBRANCH   8   9
ENDBRANCH   7   8
ENDBRANCH   6   7
ENDBRANCH   5   6
ENDBRANCH   4   5
ENDBRANCH   3   4
ENDBRANCH   2   3
TORSDOF 22
ENDMDL
MODEL      251
REMARK 921   NORMALIZED FREE ENERGY PREDICTED BY IDOCK:   -1.89 KCAL/MOL
REMARK 922        TOTAL FREE ENERGY PREDICTED BY IDOCK:   -8.78 KCAL/MOL
REMARK 923 INTER-LIGAND FREE ENERGY PREDICTED BY IDOCK:   -6.67 KCAL/MOL
REMARK 924 INTRA-LIGAND FREE ENERGY PREDICTED BY IDOCK:   -2.10 KCAL/MOL
REMARK 927      BINDING AFFINITY PREDICTED BY RF-SCORE:    0.00 PKD
ROOT
HETATM    1  C   UNL     1     -12.300  13.451  63.540  1.00  0.00    -0.398 C  
HETATM    2  C   UNL     1     -11.636  14.268  64.634  1.00  0.00    -0.415 C  
ENDROOT
BRANCH   2   3
HETATM    3  C   UNL     1     -11.790  15.762  64.370  1.00  0.00    -0.148 C  
BRANCH   3   4
HETATM    4  C   UNL     1     -10.558  16.524  64.843  1.00  0.00    -0.057 C  
BRANCH   4   5
HETATM    5  C   UNL     1     -10.388  16.389  66.351  1.00  0.00    -0.319 C  
BRANCH   5   6
HETATM    6  C   UNL     1      -9.453  15.234  66.679  1.00  0.00    -0.281 C  
BRANCH   6   7
HETATM    7  C   UNL     1      -9.835  14.608  68.011  1.00  0.00    -0.216 C  
BRANCH   7   8
HETATM    8  C   UNL     1      -8.711  13.720  68.520  1.00  0.00    -0.118 C  
BRANCH   8   9
HETATM    9  C   UNL     1      -8.870  12.317  67.960  1.00  0.00    -0.182 C  
BRANCH   9  10
HETATM   10  C   UNL     1     -10.080  11.633  68.572  1.00  0.00    -0.210 C  
BRANCH  10  11
HETATM   11  C   UNL     1     -10.808  10.818  67.514  1.00  0.00    -0.342 C  
BRANCH  11  12
HETATM   12  C   UNL     1     -10.468  11.344  66.126  1.00  0.00    -0.303 C  
BRANCH  12  13
HETATM   13  C   UNL     1      -9.587  10.363  65.371  1.00  0.00    -0.303 C  
BRANCH  13  14
HETATM   14  C   UNL     1      -9.753   8.928  65.884  1.00  0.00    -0.259 C  
BRANCH  14  15
HETATM   15  C   UNL     1      -8.551   8.012  65.604  1.00  0.00    -0.167 C  
BRANCH  15  16
HETATM   16  C   UNL     1      -8.595   6.785  66.510  1.00  0.00    -0.128 C  
BRANCH  16  17
HETATM   17  N   UNL     1      -7.339   6.543  67.335  1.00  0.00    -0.089 N  
HETATM   18  C   UNL     1      -6.084   6.945  66.547  1.00  0.00    -0.034 C  
HETATM   19  C   UNL     1      -7.193   5.093  67.771  1.00  0.00    -0.067 C  
BRANCH  17  20
HETATM   20  C   UNL     1      -7.390   7.474  68.586  1.00  0.00    -0.095 C  
BRANCH  20  21
HETATM   21  C   UNL     1      -8.812   7.791  69.147  1.00  0.00    -0.138 C  
BRANCH  21  22
HETATM   22  N   UNL     1      -8.924   7.268  70.505  1.00  0.00    -0.153 NA 
BRANCH  22  23
HETATM   23  C   UNL     1      -7.761   7.286  71.402  1.00  0.00    -0.088 C  
BRANCH  23  24
HETATM   24  C   UNL     1      -7.406   5.913  71.938  1.00  0.00    -0.094 A  
HETATM   25  C   UNL     1      -7.907   4.763  71.315  1.00  0.00    -0.088 A  
HETATM   26  C   UNL     1      -6.982   3.360  73.069  1.00  0.00    -0.040 A  
HETATM   27  C   UNL     1      -6.398   4.485  73.645  1.00  0.00    -0.046 A  
HETATM   28  C   UNL     1      -6.610   5.755  73.084  1.00  0.00    -0.069 A  
HETATM   29  C   UNL     1      -7.705   3.504  71.884  1.00  0.00    -0.058 A  
BRANCH  26  30
HETATM   30  O   UNL     1      -6.984   2.092  73.573  1.00  0.00    -0.022 OA 
HETATM   31  C   UNL     1      -5.945   1.707  74.461  1.00  0.00    -0.004 C  
ENDBRANCH  26  30
ENDBRANCH  23  24
ENDBRANCH  22  23
BRANCH  22  32
HETATM   32  C   UNL     1     -10.136   7.506  71.133  1.00  0.00    -0.188 A  
HETATM   33  N   UNL     1     -10.451   8.769  71.474  1.00  0.00    -0.274 NA 
HETATM   34  N   UNL     1     -11.001   6.489  71.224  1.00  0.00    -0.251 NA 
HETATM   35  C   UNL     1     -12.233   6.762  71.694  1.00  0.00    -0.365 A  
HETATM   36  C   UNL     1     -11.681   8.985  72.000  1.00  0.00    -0.347 A  
HETATM   37  C   UNL     1     -12.629   8.005  72.118  1.00  0.00    -0.316 A  
ENDBRANCH  22  32
ENDBRANCH  21  22
ENDBRANCH  20  21
ENDBRANCH  17  20
ENDBRANCH  16  17
ENDBRANCH  15  16
ENDBRANCH  14  15
ENDBRANCH  13  14
ENDBRANCH  12  13
ENDBRANCH  11  12
ENDBRANCH  10  11
ENDBRANCH   9  10
ENDBRANCH   8   9
ENDBRANCH   7   8
ENDBRANCH   6   7
ENDBRANCH   5   6
ENDBRANCH   4   5
ENDBRANCH   3   4
ENDBRANCH   2   3
TORSDOF 22
ENDMDL
MODEL      252
REMARK 921   NORMALIZED FREE ENERGY PREDICTED BY IDOCK:   -1.87 KCAL/MOL
REMARK 922        TOTAL FREE ENERGY PREDICTED BY IDOCK:   -8.73 KCAL/MOL
REMARK 923 INTER-LIGAND FREE ENERGY PREDICTED BY IDOCK:   -8.62 KCAL/MOL
REMARK 924 INTRA-LIGAND FREE ENERGY PREDICTED BY IDOCK:   -0.11 KCAL/MOL
REMARK 927      BINDING AFFINITY PREDICTED BY RF-SCORE:    0.00 PKD
ROOT
HETATM    1  C   UNL     1      -8.542   8.512  69.848  1.00  0.00    -0.131 C  
HETATM    2  C   UNL     1      -9.207   9.791  70.324  1.00  0.00    -0.225 C  
ENDROOT
BRANCH   2   3
HETATM    3  C   UNL     1     -10.720   9.618  70.421  1.00  0.00    -0.356 C  
BRANCH   3   4
HETATM    4  C   UNL     1     -11.433  10.937  70.154  1.00  0.00    -0.405 C  
BRANCH   4   5
HETATM    5  C   UNL     1     -12.841  10.915  70.736  1.00  0.00    -0.378 C  
BRANCH   5   6
HETATM    6  C   UNL     1     -13.017  12.040  71.745  1.00  0.00    -0.445 C  
BRANCH   6   7
HETATM    7  C   UNL     1     -13.065  13.383  71.034  1.00  0.00    -0.185 C  
BRANCH   7   8
HETATM    8  C   UNL     1     -11.843  13.556  70.147  1.00  0.00    -0.348 C  
BRANCH   8   9
HETATM    9  C   UNL     1     -12.279  13.837  68.719  1.00  0.00    -0.221 C  
BRANCH   9  10
HETATM   10  C   UNL     1     -11.434  14.945  68.114  1.00  0.00    -0.348 C  
BRANCH  10  11
HETATM   11  C   UNL     1     -10.087  14.392  67.675  1.00  0.00    -0.222 C  
BRANCH  11  12
HETATM   12  C   UNL     1     -10.020  14.324  66.156  1.00  0.00    -0.330 C  
BRANCH  12  13
HETATM   13  C   UNL     1     -10.901  13.208  65.620  1.00  0.00    -0.294 C  
BRANCH  13  14
HETATM   14  C   UNL     1     -10.163  11.866  65.570  1.00  0.00    -0.290 C  
BRANCH  14  15
HETATM   15  C   UNL     1     -10.181  11.082  66.891  1.00  0.00    -0.263 C  
BRANCH  15  16
HETATM   16  C   UNL     1      -9.968   9.594  66.631  1.00  0.00    -0.236 C  
BRANCH  16  17
HETATM   17  N   UNL     1      -8.599   9.222  66.078  1.00  0.00    -0.138 N  
HETATM   18  C   UNL     1      -7.516  10.163  66.626  1.00  0.00    -0.106 C  
HETATM   19  C   UNL     1      -8.549   9.261  64.558  1.00  0.00    -0.195 C  
BRANCH  17  20
HETATM   20  C   UNL     1      -8.238   7.793  66.588  1.00  0.00    -0.123 C  
BRANCH  20  21
HETATM   21  C   UNL     1      -9.438   6.906  67.045  1.00  0.00    -0.151 C  
BRANCH  21  22
HETATM   22  N   UNL     1      -9.111   5.499  66.830  1.00  0.00    -0.114 NA 
BRANCH  22  23
HETATM   23  C   UNL     1      -9.528   4.486  67.809  1.00  0.00    -0.156 C  
BRANCH  23  24
HETATM   24  C   UNL     1      -9.856   5.076  69.167  1.00  0.00    -0.262 A  
HETATM   25  C   UNL     1      -9.032   4.809  70.268  1.00  0.00    -0.147 A  
HETATM   26  C   UNL     1     -10.586   5.936  71.756  1.00  0.00    -0.234 A  
HETATM   27  C   UNL     1     -11.365   6.290  70.656  1.00  0.00    -0.409 A  
HETATM   28  C   UNL     1     -11.003   5.860  69.369  1.00  0.00    -0.421 A  
HETATM   29  C   UNL     1      -9.403   5.226  71.547  1.00  0.00    -0.182 A  
BRANCH  26  30
HETATM   30  O   UNL     1     -10.881   6.156  73.070  1.00  0.00    -0.238 OA 
HETATM   31  C   UNL     1     -10.123   5.480  74.063  1.00  0.00    -0.229 C  
ENDBRANCH  26  30
ENDBRANCH  23  24
ENDBRANCH  22  23
BRANCH  22  32
HETATM   32  C   UNL     1      -9.155   5.075  65.512  1.00  0.00    -0.158 A  
HETATM   33  N   UNL     1      -8.416   5.729  64.597  1.00  0.00    -0.106 NA 
HETATM   34  N   UNL     1      -9.805   3.936  65.245  1.00  0.00    -0.188 NA 
HETATM   35  C   UNL     1      -9.714   3.449  63.993  1.00  0.00    -0.161 A  
HETATM   36  C   UNL     1      -8.405   5.235  63.336  1.00  0.00    -0.115 A  
HETATM   37  C   UNL     1      -9.033   4.072  62.980  1.00  0.00    -0.112 A  
ENDBRANCH  22  32
ENDBRANCH  21  22
ENDBRANCH  20  21
ENDBRANCH  17  20
ENDBRANCH  16  17
ENDBRANCH  15  16
ENDBRANCH  14  15
ENDBRANCH  13  14
ENDBRANCH  12  13
ENDBRANCH  11  12
ENDBRANCH  10  11
ENDBRANCH   9  10
ENDBRANCH   8   9
ENDBRANCH   7   8
ENDBRANCH   6   7
ENDBRANCH   5   6
ENDBRANCH   4   5
ENDBRANCH   3   4
ENDBRANCH   2   3
TORSDOF 22
ENDMDL
MODEL      253
REMARK 921   NORMALIZED FREE ENERGY PREDICTED BY IDOCK:   -1.86 KCAL/MOL
REMARK 922        TOTAL FREE ENERGY PREDICTED BY IDOCK:   -8.69 KCAL/MOL
REMARK 923 INTER-LIGAND FREE ENERGY PREDICTED BY IDOCK:   -6.24 KCAL/MOL
REMARK 924 INTRA-LIGAND FREE ENERGY PREDICTED BY IDOCK:   -2.45 KCAL/MOL
REMARK 927      BINDING AFFINITY PREDICTED BY RF-SCORE:    0.00 PKD
ROOT
HETATM    1  C   UNL     1     -12.774  10.237  72.057  1.00  0.00    -0.397 C  
HETATM    2  C   UNL     1     -12.927  11.452  71.160  1.00  0.00    -0.349 C  
ENDROOT
BRANCH   2   3
HETATM    3  C   UNL     1     -13.118  12.721  71.986  1.00  0.00    -0.474 C  
BRANCH   3   4
HETATM    4  C   UNL     1     -12.660  13.947  71.206  1.00  0.00    -0.450 C  
BRANCH   4   5
HETATM    5  C   UNL     1     -11.659  13.555  70.127  1.00  0.00    -0.190 C  
BRANCH   5   6
HETATM    6  C   UNL     1     -11.568  14.643  69.066  1.00  0.00    -0.328 C  
BRANCH   6   7
HETATM    7  C   UNL     1     -11.742  14.043  67.680  1.00  0.00    -0.412 C  
BRANCH   7   8
HETATM    8  C   UNL     1     -11.526  12.539  67.723  1.00  0.00    -0.378 C  
BRANCH   8   9
HETATM    9  C   UNL     1     -10.641  12.112  66.565  1.00  0.00    -0.269 C  
BRANCH   9  10
HETATM   10  C   UNL     1     -11.225  10.894  65.869  1.00  0.00     0.163 C  
BRANCH  10  11
HETATM   11  C   UNL     1     -10.123  10.121  65.162  1.00  0.00    -0.329 C  
BRANCH  11  12
HETATM   12  C   UNL     1      -8.856  10.962  65.096  1.00  0.00    -0.167 C  
BRANCH  12  13
HETATM   13  C   UNL     1      -7.698  10.161  64.526  1.00  0.00    -0.138 C  
BRANCH  13  14
HETATM   14  C   UNL     1      -6.373  10.487  65.226  1.00  0.00    -0.080 C  
BRANCH  14  15
HETATM   15  C   UNL     1      -6.509  10.806  66.722  1.00  0.00    -0.096 C  
BRANCH  15  16
HETATM   16  C   UNL     1      -5.889   9.694  67.563  1.00  0.00    -0.047 C  
BRANCH  16  17
HETATM   17  N   UNL     1      -6.864   8.932  68.450  1.00  0.00    -0.064 N  
HETATM   18  C   UNL     1      -8.040   9.829  68.863  1.00  0.00    -0.101 C  
HETATM   19  C   UNL     1      -6.208   8.385  69.709  1.00  0.00    -0.032 C  
BRANCH  17  20
HETATM   20  C   UNL     1      -7.474   7.764  67.615  1.00  0.00    -0.104 C  
BRANCH  20  21
HETATM   21  C   UNL     1      -7.485   6.363  68.303  1.00  0.00    -0.091 C  
BRANCH  21  22
HETATM   22  N   UNL     1      -8.783   6.143  68.934  1.00  0.00    -0.123 NA 
BRANCH  22  23
HETATM   23  C   UNL     1      -9.898   5.586  68.156  1.00  0.00    -0.143 C  
BRANCH  23  24
HETATM   24  C   UNL     1      -9.437   4.765  66.967  1.00  0.00    -0.164 A  
HETATM   25  C   UNL     1      -9.700   5.204  65.664  1.00  0.00    -0.081 A  
HETATM   26  C   UNL     1      -8.831   3.131  64.745  1.00  0.00    -0.118 A  
HETATM   27  C   UNL     1      -8.476   2.724  66.030  1.00  0.00    -0.103 A  
HETATM   28  C   UNL     1      -8.780   3.535  67.135  1.00  0.00    -0.130 A  
HETATM   29  C   UNL     1      -9.410   4.388  64.569  1.00  0.00    -0.143 A  
BRANCH  26  30
HETATM   30  O   UNL     1      -8.731   2.397  63.599  1.00  0.00    -0.085 OA 
HETATM   31  C   UNL     1      -9.571   2.725  62.502  1.00  0.00    -0.092 C  
ENDBRANCH  26  30
ENDBRANCH  23  24
ENDBRANCH  22  23
BRANCH  22  32
HETATM   32  C   UNL     1      -8.737   5.720  70.253  1.00  0.00    -0.137 A  
HETATM   33  N   UNL     1      -7.772   4.859  70.623  1.00  0.00    -0.065 NA 
HETATM   34  N   UNL     1      -9.557   6.315  71.127  1.00  0.00    -0.174 NA 
HETATM   35  C   UNL     1      -9.401   6.012  72.430  1.00  0.00    -0.146 A  
HETATM   36  C   UNL     1      -7.694   4.536  71.936  1.00  0.00    -0.092 A  
HETATM   37  C   UNL     1      -8.485   5.106  72.897  1.00  0.00    -0.116 A  
ENDBRANCH  22  32
ENDBRANCH  21  22
ENDBRANCH  20  21
ENDBRANCH  17  20
ENDBRANCH  16  17
ENDBRANCH  15  16
ENDBRANCH  14  15
ENDBRANCH  13  14
ENDBRANCH  12  13
ENDBRANCH  11  12
ENDBRANCH  10  11
ENDBRANCH   9  10
ENDBRANCH   8   9
ENDBRANCH   7   8
ENDBRANCH   6   7
ENDBRANCH   5   6
ENDBRANCH   4   5
ENDBRANCH   3   4
ENDBRANCH   2   3
TORSDOF 22
ENDMDL
MODEL      254
REMARK 921   NORMALIZED FREE ENERGY PREDICTED BY IDOCK:   -1.85 KCAL/MOL
REMARK 922        TOTAL FREE ENERGY PREDICTED BY IDOCK:   -8.69 KCAL/MOL
REMARK 923 INTER-LIGAND FREE ENERGY PREDICTED BY IDOCK:   -7.70 KCAL/MOL
REMARK 924 INTRA-LIGAND FREE ENERGY PREDICTED BY IDOCK:   -0.99 KCAL/MOL
REMARK 927      BINDING AFFINITY PREDICTED BY RF-SCORE:    0.00 PKD
ROOT
HETATM    1  C   UNL     1      -9.327  15.873  65.887  1.00  0.00    -0.353 C  
HETATM    2  C   UNL     1     -10.166  14.988  66.792  1.00  0.00    -0.260 C  
ENDROOT
BRANCH   2   3
HETATM    3  C   UNL     1     -11.546  14.743  66.190  1.00  0.00    -0.292 C  
BRANCH   3   4
HETATM    4  C   UNL     1     -11.466  14.651  64.672  1.00  0.00    -0.389 C  
BRANCH   4   5
HETATM    5  C   UNL     1     -10.825  13.336  64.246  1.00  0.00    -0.414 C  
BRANCH   5   6
HETATM    6  C   UNL     1     -10.508  12.480  65.464  1.00  0.00    -0.305 C  
BRANCH   6   7
HETATM    7  C   UNL     1     -10.455  11.011  65.077  1.00  0.00    -0.344 C  
BRANCH   7   8
HETATM    8  C   UNL     1     -10.197  10.150  66.302  1.00  0.00    -0.288 C  
BRANCH   8   9
HETATM    9  C   UNL     1     -11.043  10.639  67.464  1.00  0.00    -0.367 C  
BRANCH   9  10
HETATM   10  C   UNL     1     -10.214  10.707  68.736  1.00  0.00    -0.204 C  
BRANCH  10  11
HETATM   11  C   UNL     1     -11.063  11.234  69.882  1.00  0.00    -0.183 C  
BRANCH  11  12
HETATM   12  C   UNL     1     -12.522  11.315  69.457  1.00  0.00    -0.127 C  
BRANCH  12  13
HETATM   13  C   UNL     1     -13.403  10.473  70.364  1.00  0.00     0.176 C  
BRANCH  13  14
HETATM   14  C   UNL     1     -12.911  10.484  71.816  1.00  0.00    -0.559 C  
BRANCH  14  15
HETATM   15  C   UNL     1     -13.060   9.141  72.547  1.00  0.00    -0.445 C  
BRANCH  15  16
HETATM   16  C   UNL     1     -12.892   7.981  71.569  1.00  0.00    -0.311 C  
BRANCH  16  17
HETATM   17  N   UNL     1     -11.512   7.338  71.559  1.00  0.00    -0.254 N  
HETATM   18  C   UNL     1     -10.893   7.397  70.156  1.00  0.00    -0.256 C  
HETATM   19  C   UNL     1     -11.539   5.886  72.014  1.00  0.00    -0.228 C  
BRANCH  17  20
HETATM   20  C   UNL     1     -10.577   8.172  72.488  1.00  0.00    -0.340 C  
BRANCH  20  21
HETATM   21  C   UNL     1      -9.298   8.763  71.818  1.00  0.00    -0.280 C  
BRANCH  21  22
HETATM   22  N   UNL     1      -8.295   7.712  71.674  1.00  0.00    -0.105 NA 
BRANCH  22  23
HETATM   23  C   UNL     1      -7.780   7.360  70.345  1.00  0.00    -0.093 C  
BRANCH  23  24
HETATM   24  C   UNL     1      -7.235   8.554  69.585  1.00  0.00    -0.052 A  
HETATM   25  C   UNL     1      -7.145   9.804  70.210  1.00  0.00    -0.145 A  
HETATM   26  C   UNL     1      -6.480  10.847  68.120  1.00  0.00    -0.058 A  
HETATM   27  C   UNL     1      -6.473   9.594  67.510  1.00  0.00    -0.069 A  
HETATM   28  C   UNL     1      -6.851   8.454  68.238  1.00  0.00    -0.066 A  
HETATM   29  C   UNL     1      -6.782  10.936  69.479  1.00  0.00    -0.117 A  
BRANCH  26  30
HETATM   30  O   UNL     1      -6.276  12.052  67.513  1.00  0.00    -0.083 OA 
HETATM   31  C   UNL     1      -7.339  12.995  67.492  1.00  0.00    -0.152 C  
ENDBRANCH  26  30
ENDBRANCH  23  24
ENDBRANCH  22  23
BRANCH  22  32
HETATM   32  C   UNL     1      -7.354   7.647  72.690  1.00  0.00    -0.080 A  
HETATM   33  N   UNL     1      -6.642   6.515  72.839  1.00  0.00    -0.067 NA 
HETATM   34  N   UNL     1      -7.089   8.770  73.367  1.00  0.00    -0.353 NA 
HETATM   35  C   UNL     1      -6.068   8.739  74.244  1.00  0.00    -0.116 A  
HETATM   36  C   UNL     1      -5.665   6.512  73.778  1.00  0.00    -0.054 A  
HETATM   37  C   UNL     1      -5.322   7.619  74.506  1.00  0.00    -0.066 A  
ENDBRANCH  22  32
ENDBRANCH  21  22
ENDBRANCH  20  21
ENDBRANCH  17  20
ENDBRANCH  16  17
ENDBRANCH  15  16
ENDBRANCH  14  15
ENDBRANCH  13  14
ENDBRANCH  12  13
ENDBRANCH  11  12
ENDBRANCH  10  11
ENDBRANCH   9  10
ENDBRANCH   8   9
ENDBRANCH   7   8
ENDBRANCH   6   7
ENDBRANCH   5   6
ENDBRANCH   4   5
ENDBRANCH   3   4
ENDBRANCH   2   3
TORSDOF 22
ENDMDL
MODEL      255
REMARK 921   NORMALIZED FREE ENERGY PREDICTED BY IDOCK:   -1.73 KCAL/MOL
REMARK 922        TOTAL FREE ENERGY PREDICTED BY IDOCK:   -8.41 KCAL/MOL
REMARK 923 INTER-LIGAND FREE ENERGY PREDICTED BY IDOCK:   -5.99 KCAL/MOL
REMARK 924 INTRA-LIGAND FREE ENERGY PREDICTED BY IDOCK:   -2.42 KCAL/MOL
REMARK 927      BINDING AFFINITY PREDICTED BY RF-SCORE:    0.00 PKD
ROOT
HETATM    1  C   UNL     1      -6.624  16.324  67.487  1.00  0.00    -0.193 C  
HETATM    2  C   UNL     1      -7.908  17.122  67.626  1.00  0.00    -0.187 C  
ENDROOT
BRANCH   2   3
HETATM    3  C   UNL     1      -8.404  17.602  66.266  1.00  0.00    -0.251 C  
BRANCH   3   4
HETATM    4  C   UNL     1      -9.916  17.451  66.157  1.00  0.00    -0.281 C  
BRANCH   4   5
HETATM    5  C   UNL     1     -10.454  16.596  67.298  1.00  0.00    -0.313 C  
BRANCH   5   6
HETATM    6  C   UNL     1     -10.841  15.215  66.791  1.00  0.00    -0.322 C  
BRANCH   6   7
HETATM    7  C   UNL     1     -10.310  15.002  65.383  1.00  0.00    -0.410 C  
BRANCH   7   8
HETATM    8  C   UNL     1     -11.307  14.207  64.555  1.00  0.00    -0.355 C  
BRANCH   8   9
HETATM    9  C   UNL     1     -11.672  12.924  65.282  1.00  0.00    -0.399 C  
BRANCH   9  10
HETATM   10  C   UNL     1     -10.435  12.071  65.510  1.00  0.00    -0.307 C  
BRANCH  10  11
HETATM   11  C   UNL     1     -10.624  11.202  66.743  1.00  0.00    -0.311 C  
BRANCH  11  12
HETATM   12  C   UNL     1     -10.811  12.076  67.975  1.00  0.00    -0.254 C  
BRANCH  12  13
HETATM   13  C   UNL     1     -10.018  11.537  69.153  1.00  0.00     0.050 C  
BRANCH  13  14
HETATM   14  C   UNL     1     -10.558  10.188  69.641  1.00  0.00    -0.286 C  
BRANCH  14  15
HETATM   15  C   UNL     1      -9.594   9.008  69.440  1.00  0.00    -0.160 C  
BRANCH  15  16
HETATM   16  C   UNL     1      -8.550   8.978  70.553  1.00  0.00    -0.201 C  
BRANCH  16  17
HETATM   17  N   UNL     1      -7.157   8.545  70.121  1.00  0.00    -0.042 N  
HETATM   18  C   UNL     1      -6.104   8.994  71.144  1.00  0.00    -0.058 C  
HETATM   19  C   UNL     1      -6.768   9.092  68.756  1.00  0.00    -0.054 C  
BRANCH  17  20
HETATM   20  C   UNL     1      -7.114   6.985  70.103  1.00  0.00    -0.067 C  
BRANCH  20  21
HETATM   21  C   UNL     1      -6.926   6.322  68.703  1.00  0.00    -0.080 C  
BRANCH  21  22
HETATM   22  N   UNL     1      -8.128   5.570  68.357  1.00  0.00    -0.098 NA 
BRANCH  22  23
HETATM   23  C   UNL     1      -9.098   6.125  67.404  1.00  0.00    -0.110 C  
BRANCH  23  24
HETATM   24  C   UNL     1      -8.443   6.898  66.276  1.00  0.00    -0.131 A  
HETATM   25  C   UNL     1      -8.746   8.251  66.080  1.00  0.00    -0.174 A  
HETATM   26  C   UNL     1      -7.448   8.288  64.028  1.00  0.00    -0.110 A  
HETATM   27  C   UNL     1      -7.062   6.970  64.262  1.00  0.00    -0.059 A  
HETATM   28  C   UNL     1      -7.558   6.278  65.378  1.00  0.00    -0.088 A  
HETATM   29  C   UNL     1      -8.262   8.931  64.962  1.00  0.00    -0.154 A  
BRANCH  26  30
HETATM   30  O   UNL     1      -7.165   9.038  62.924  1.00  0.00    -0.096 OA 
HETATM   31  C   UNL     1      -7.338  10.447  62.991  1.00  0.00    -0.087 C  
ENDBRANCH  26  30
ENDBRANCH  23  24
ENDBRANCH  22  23
BRANCH  22  32
HETATM   32  C   UNL     1      -7.965   4.196  68.274  1.00  0.00    -0.077 A  
HETATM   33  N   UNL     1      -6.779   3.709  67.867  1.00  0.00    -0.045 NA 
HETATM   34  N   UNL     1      -8.943   3.422  68.758  1.00  0.00    -0.115 NA 
HETATM   35  C   UNL     1      -8.714   2.097  68.817  1.00  0.00    -0.083 A  
HETATM   36  C   UNL     1      -6.617   2.364  67.885  1.00  0.00    -0.035 A  
HETATM   37  C   UNL     1      -7.561   1.502  68.373  1.00  0.00    -0.046 A  
ENDBRANCH  22  32
ENDBRANCH  21  22
ENDBRANCH  20  21
ENDBRANCH  17  20
ENDBRANCH  16  17
ENDBRANCH  15  16
ENDBRANCH  14  15
ENDBRANCH  13  14
ENDBRANCH  12  13
ENDBRANCH  11  12
ENDBRANCH  10  11
ENDBRANCH   9  10
ENDBRANCH   8   9
ENDBRANCH   7   8
ENDBRANCH   6   7
ENDBRANCH   5   6
ENDBRANCH   4   5
ENDBRANCH   3   4
ENDBRANCH   2   3
TORSDOF 22
ENDMDL
MODEL      256
REMARK 921   NORMALIZED FREE ENERGY PREDICTED BY IDOCK:   -1.71 KCAL/MOL
REMARK 922        TOTAL FREE ENERGY PREDICTED BY IDOCK:   -8.35 KCAL/MOL
REMARK 923 INTER-LIGAND FREE ENERGY PREDICTED BY IDOCK:   -6.58 KCAL/MOL
REMARK 924 INTRA-LIGAND FREE ENERGY PREDICTED BY IDOCK:   -1.77 KCAL/MOL
REMARK 927      BINDING AFFINITY PREDICTED BY RF-SCORE:    0.00 PKD
ROOT
HETATM    1  C   UNL     1      -8.641  18.612  66.483  1.00  0.00    -0.307 C  
HETATM    2  C   UNL     1     -10.027  18.281  67.007  1.00  0.00    -0.349 C  
ENDROOT
BRANCH   2   3
HETATM    3  C   UNL     1     -10.035  16.932  67.720  1.00  0.00    -0.278 C  
BRANCH   3   4
HETATM    4  C   UNL     1     -11.391  16.253  67.577  1.00  0.00     0.047 C  
BRANCH   4   5
HETATM    5  C   UNL     1     -11.396  15.309  66.381  1.00  0.00    -0.161 C  
BRANCH   5   6
HETATM    6  C   UNL     1     -10.031  14.658  66.212  1.00  0.00    -0.306 C  
BRANCH   6   7
HETATM    7  C   UNL     1      -9.996  13.313  66.920  1.00  0.00    -0.250 C  
BRANCH   7   8
HETATM    8  C   UNL     1     -11.381  12.685  66.932  1.00  0.00    -0.373 C  
BRANCH   8   9
HETATM    9  C   UNL     1     -11.613  11.973  68.253  1.00  0.00    -0.394 C  
BRANCH   9  10
HETATM   10  C   UNL     1     -11.928  12.975  69.350  1.00  0.00    -0.338 C  
BRANCH  10  11
HETATM   11  C   UNL     1     -12.320  12.244  70.625  1.00  0.00    -0.375 C  
BRANCH  11  12
HETATM   12  C   UNL     1     -11.579  10.917  70.715  1.00  0.00    -0.249 C  
BRANCH  12  13
HETATM   13  C   UNL     1     -12.234   9.994  71.729  1.00  0.00    -0.383 C  
BRANCH  13  14
HETATM   14  C   UNL     1     -11.802   8.535  71.540  1.00  0.00    -0.353 C  
BRANCH  14  15
HETATM   15  C   UNL     1     -10.943   7.975  72.684  1.00  0.00    -0.448 C  
BRANCH  15  16
HETATM   16  C   UNL     1      -9.470   7.960  72.286  1.00  0.00    -0.189 C  
BRANCH  16  17
HETATM   17  N   UNL     1      -8.949   6.620  71.783  1.00  0.00    -0.140 N  
HETATM   18  C   UNL     1      -9.851   5.472  72.257  1.00  0.00    -0.161 C  
HETATM   19  C   UNL     1      -7.525   6.336  72.239  1.00  0.00    -0.094 C  
BRANCH  17  20
HETATM   20  C   UNL     1      -9.020   6.622  70.225  1.00  0.00    -0.152 C  
BRANCH  20  21
HETATM   21  C   UNL     1      -7.900   5.824  69.488  1.00  0.00    -0.093 C  
BRANCH  21  22
HETATM   22  N   UNL     1      -6.882   6.752  69.004  1.00  0.00    -0.066 NA 
BRANCH  22  23
HETATM   23  C   UNL     1      -5.934   6.332  67.963  1.00  0.00    -0.020 C  
BRANCH  23  24
HETATM   24  C   UNL     1      -6.537   5.354  66.974  1.00  0.00    -0.053 A  
HETATM   25  C   UNL     1      -7.325   5.821  65.915  1.00  0.00    -0.073 A  
HETATM   26  C   UNL     1      -7.889   3.545  65.278  1.00  0.00    -0.086 A  
HETATM   27  C   UNL     1      -7.032   3.068  66.267  1.00  0.00    -0.053 A  
HETATM   28  C   UNL     1      -6.361   3.968  67.113  1.00  0.00    -0.040 A  
HETATM   29  C   UNL     1      -8.001   4.923  65.086  1.00  0.00    -0.098 A  
BRANCH  26  30
HETATM   30  O   UNL     1      -8.710   2.802  64.480  1.00  0.00    -0.094 OA 
HETATM   31  C   UNL     1      -9.240   1.587  64.989  1.00  0.00    -0.098 C  
ENDBRANCH  26  30
ENDBRANCH  23  24
ENDBRANCH  22  23
BRANCH  22  32
HETATM   32  C   UNL     1      -7.281   8.077  68.916  1.00  0.00    -0.075 A  
HETATM   33  N   UNL     1      -6.478   9.028  69.427  1.00  0.00    -0.044 NA 
HETATM   34  N   UNL     1      -8.366   8.353  68.185  1.00  0.00    -0.127 NA 
HETATM   35  C   UNL     1      -8.659   9.650  67.975  1.00  0.00    -0.119 A  
HETATM   36  C   UNL     1      -6.848  10.319  69.244  1.00  0.00    -0.068 A  
HETATM   37  C   UNL     1      -7.936  10.690  68.501  1.00  0.00    -0.122 A  
ENDBRANCH  22  32
ENDBRANCH  21  22
ENDBRANCH  20  21
ENDBRANCH  17  20
ENDBRANCH  16  17
ENDBRANCH  15  16
ENDBRANCH  14  15
ENDBRANCH  13  14
ENDBRANCH  12  13
ENDBRANCH  11  12
ENDBRANCH  10  11
ENDBRANCH   9  10
ENDBRANCH   8   9
ENDBRANCH   7   8
ENDBRANCH   6   7
ENDBRANCH   5   6
ENDBRANCH   4   5
ENDBRANCH   3   4
ENDBRANCH   2   3
TORSDOF 22
ENDMDL
MODEL      257
REMARK 921   NORMALIZED FREE ENERGY PREDICTED BY IDOCK:   -1.67 KCAL/MOL
REMARK 922        TOTAL FREE ENERGY PREDICTED BY IDOCK:   -8.28 KCAL/MOL
REMARK 923 INTER-LIGAND FREE ENERGY PREDICTED BY IDOCK:   -8.14 KCAL/MOL
REMARK 924 INTRA-LIGAND FREE ENERGY PREDICTED BY IDOCK:   -0.14 KCAL/MOL
REMARK 927      BINDING AFFINITY PREDICTED BY RF-SCORE:    0.00 PKD
ROOT
HETATM    1  C   UNL     1      -5.478  13.670  71.170  1.00  0.00    -0.203 C  
HETATM    2  C   UNL     1      -6.465  14.560  70.437  1.00  0.00    -0.111 C  
ENDROOT
BRANCH   2   3
HETATM    3  C   UNL     1      -5.787  15.830  69.933  1.00  0.00    -0.155 C  
BRANCH   3   4
HETATM    4  C   UNL     1      -5.527  15.746  68.435  1.00  0.00    -0.108 C  
BRANCH   4   5
HETATM    5  C   UNL     1      -6.422  16.720  67.678  1.00  0.00    -0.170 C  
BRANCH   5   6
HETATM    6  C   UNL     1      -5.581  17.745  66.932  1.00  0.00    -0.176 C  
BRANCH   6   7
HETATM    7  C   UNL     1      -6.375  19.024  66.719  1.00  0.00    -0.197 C  
BRANCH   7   8
HETATM    8  C   UNL     1      -7.630  18.739  65.910  1.00  0.00    -0.191 C  
BRANCH   8   9
HETATM    9  C   UNL     1      -8.148  17.349  66.235  1.00  0.00    -0.298 C  
BRANCH   9  10
HETATM   10  C   UNL     1      -9.532  17.144  65.641  1.00  0.00     0.208 C  
BRANCH  10  11
HETATM   11  C   UNL     1     -10.476  16.598  66.701  1.00  0.00    -0.258 C  
BRANCH  11  12
HETATM   12  C   UNL     1      -9.719  15.685  67.655  1.00  0.00    -0.225 C  
BRANCH  12  13
HETATM   13  C   UNL     1      -9.786  16.208  69.080  1.00  0.00    -0.248 C  
BRANCH  13  14
HETATM   14  C   UNL     1     -11.226  16.276  69.600  1.00  0.00    -0.311 C  
BRANCH  14  15
HETATM   15  C   UNL     1     -11.705  15.001  70.311  1.00  0.00    -0.338 C  
BRANCH  15  16
HETATM   16  C   UNL     1     -11.553  15.145  71.822  1.00  0.00    -0.408 C  
BRANCH  16  17
HETATM   17  N   UNL     1     -12.664  14.512  72.648  1.00  0.00    -0.364 N  
HETATM   18  C   UNL     1     -14.043  14.954  72.137  1.00  0.00    -0.518 C  
HETATM   19  C   UNL     1     -12.564  14.854  74.127  1.00  0.00    -0.166 C  
BRANCH  17  20
HETATM   20  C   UNL     1     -12.598  12.966  72.452  1.00  0.00     0.410 C  
BRANCH  20  21
HETATM   21  C   UNL     1     -13.146  12.423  71.095  1.00  0.00    -0.034 C  
BRANCH  21  22
HETATM   22  N   UNL     1     -12.643  11.071  70.874  1.00  0.00    -0.377 NA 
BRANCH  22  23
HETATM   23  C   UNL     1     -13.513   9.911  71.111  1.00  0.00    -0.240 C  
BRANCH  23  24
HETATM   24  C   UNL     1     -12.756   8.695  71.609  1.00  0.00    -0.379 A  
HETATM   25  C   UNL     1     -11.877   8.809  72.693  1.00  0.00    -0.128 A  
HETATM   26  C   UNL     1     -11.137   6.516  72.385  1.00  0.00    -0.259 A  
HETATM   27  C   UNL     1     -12.076   6.361  71.368  1.00  0.00    -0.257 A  
HETATM   28  C   UNL     1     -12.880   7.446  70.980  1.00  0.00    -0.226 A  
HETATM   29  C   UNL     1     -11.070   7.732  73.065  1.00  0.00    -0.419 A  
BRANCH  26  30
HETATM   30  O   UNL     1     -10.196   5.606  72.774  1.00  0.00    -0.176 OA 
HETATM   31  C   UNL     1      -9.081   5.372  71.927  1.00  0.00    -0.138 C  
ENDBRANCH  26  30
ENDBRANCH  23  24
ENDBRANCH  22  23
BRANCH  22  32
HETATM   32  C   UNL     1     -11.776  10.928  69.803  1.00  0.00    -0.338 A  
HETATM   33  N   UNL     1     -12.206  11.268  68.574  1.00  0.00    -0.553 NA 
HETATM   34  N   UNL     1     -10.504  10.611  70.068  1.00  0.00    -0.115 NA 
HETATM   35  C   UNL     1      -9.633  10.625  69.041  1.00  0.00    -0.195 A  
HETATM   36  C   UNL     1     -11.308  11.208  67.561  1.00  0.00    -0.278 A  
HETATM   37  C   UNL     1      -9.987  10.904  67.746  1.00  0.00    -0.198 A  
ENDBRANCH  22  32
ENDBRANCH  21  22
ENDBRANCH  20  21
ENDBRANCH  17  20
ENDBRANCH  16  17
ENDBRANCH  15  16
ENDBRANCH  14  15
ENDBRANCH  13  14
ENDBRANCH  12  13
ENDBRANCH  11  12
ENDBRANCH  10  11
ENDBRANCH   9  10
ENDBRANCH   8   9
ENDBRANCH   7   8
ENDBRANCH   6   7
ENDBRANCH   5   6
ENDBRANCH   4   5
ENDBRANCH   3   4
ENDBRANCH   2   3
TORSDOF 22
ENDMDL
MODEL      258
REMARK 921   NORMALIZED FREE ENERGY PREDICTED BY IDOCK:   -1.63 KCAL/MOL
REMARK 922        TOTAL FREE ENERGY PREDICTED BY IDOCK:   -8.18 KCAL/MOL
REMARK 923 INTER-LIGAND FREE ENERGY PREDICTED BY IDOCK:   -5.00 KCAL/MOL
REMARK 924 INTRA-LIGAND FREE ENERGY PREDICTED BY IDOCK:   -3.18 KCAL/MOL
REMARK 927      BINDING AFFINITY PREDICTED BY RF-SCORE:    0.00 PKD
ROOT
HETATM    1  C   UNL     1     -10.118  15.681  69.092  1.00  0.00    -0.237 C  
HETATM    2  C   UNL     1      -9.048  16.363  68.258  1.00  0.00    -0.207 C  
ENDROOT
BRANCH   2   3
HETATM    3  C   UNL     1      -7.718  16.404  69.002  1.00  0.00    -0.235 C  
BRANCH   3   4
HETATM    4  C   UNL     1      -6.670  15.565  68.282  1.00  0.00    -0.122 C  
BRANCH   4   5
HETATM    5  C   UNL     1      -6.596  14.166  68.882  1.00  0.00    -0.099 C  
BRANCH   5   6
HETATM    6  C   UNL     1      -7.027  13.125  67.860  1.00  0.00    -0.132 C  
BRANCH   6   7
HETATM    7  C   UNL     1      -8.306  12.440  68.311  1.00  0.00    -0.169 C  
BRANCH   7   8
HETATM    8  C   UNL     1      -8.116  10.932  68.345  1.00  0.00    -0.131 C  
BRANCH   8   9
HETATM    9  C   UNL     1      -6.914  10.583  69.206  1.00  0.00    -0.086 C  
BRANCH   9  10
HETATM   10  C   UNL     1      -7.333   9.707  70.374  1.00  0.00    -0.156 C  
BRANCH  10  11
HETATM   11  C   UNL     1      -8.840   9.499  70.353  1.00  0.00    -0.279 C  
BRANCH  11  12
HETATM   12  C   UNL     1      -9.226   8.383  71.313  1.00  0.00    -0.228 C  
BRANCH  12  13
HETATM   13  C   UNL     1      -8.857   7.022  70.746  1.00  0.00    -0.149 C  
BRANCH  13  14
HETATM   14  C   UNL     1      -9.257   6.886  69.273  1.00  0.00    -0.139 C  
BRANCH  14  15
HETATM   15  C   UNL     1      -9.950   5.560  68.923  1.00  0.00    -0.236 C  
BRANCH  15  16
HETATM   16  C   UNL     1      -9.917   4.611  70.118  1.00  0.00    -0.233 C  
BRANCH  16  17
HETATM   17  N   UNL     1      -9.188   3.296  69.880  1.00  0.00    -0.137 N  
HETATM   18  C   UNL     1      -9.720   2.201  70.815  1.00  0.00    -0.034 C  
HETATM   19  C   UNL     1      -7.684   3.413  70.080  1.00  0.00    -0.044 C  
BRANCH  17  20
HETATM   20  C   UNL     1      -9.498   2.822  68.426  1.00  0.00    -0.145 C  
BRANCH  20  21
HETATM   21  C   UNL     1      -8.261   2.455  67.548  1.00  0.00    -0.071 C  
BRANCH  21  22
HETATM   22  N   UNL     1      -8.076   3.476  66.520  1.00  0.00    -0.091 NA 
BRANCH  22  23
HETATM   23  C   UNL     1      -6.737   4.011  66.243  1.00  0.00    -0.053 C  
BRANCH  23  24
HETATM   24  C   UNL     1      -6.750   5.488  65.899  1.00  0.00    -0.056 A  
HETATM   25  C   UNL     1      -6.720   6.448  66.918  1.00  0.00    -0.060 A  
HETATM   26  C   UNL     1      -7.043   8.233  65.302  1.00  0.00    -0.074 A  
HETATM   27  C   UNL     1      -6.978   7.296  64.272  1.00  0.00    -0.056 A  
HETATM   28  C   UNL     1      -6.835   5.931  64.569  1.00  0.00    -0.050 A  
HETATM   29  C   UNL     1      -6.877   7.803  66.619  1.00  0.00    -0.070 A  
BRANCH  26  30
HETATM   30  O   UNL     1      -7.319   9.564  65.180  1.00  0.00    -0.101 OA 
HETATM   31  C   UNL     1      -7.967  10.022  64.002  1.00  0.00    -0.151 C  
ENDBRANCH  26  30
ENDBRANCH  23  24
ENDBRANCH  22  23
BRANCH  22  32
HETATM   32  C   UNL     1      -8.884   3.344  65.402  1.00  0.00    -0.132 A  
HETATM   33  N   UNL     1      -8.693   2.289  64.588  1.00  0.00    -0.098 NA 
HETATM   34  N   UNL     1      -9.917   4.184  65.276  1.00  0.00    -0.206 NA 
HETATM   35  C   UNL     1     -10.785   3.954  64.273  1.00  0.00    -0.199 A  
HETATM   36  C   UNL     1      -9.557   2.134  63.555  1.00  0.00    -0.106 A  
HETATM   37  C   UNL     1     -10.645   2.941  63.360  1.00  0.00    -0.228 A  
ENDBRANCH  22  32
ENDBRANCH  21  22
ENDBRANCH  20  21
ENDBRANCH  17  20
ENDBRANCH  16  17
ENDBRANCH  15  16
ENDBRANCH  14  15
ENDBRANCH  13  14
ENDBRANCH  12  13
ENDBRANCH  11  12
ENDBRANCH  10  11
ENDBRANCH   9  10
ENDBRANCH   8   9
ENDBRANCH   7   8
ENDBRANCH   6   7
ENDBRANCH   5   6
ENDBRANCH   4   5
ENDBRANCH   3   4
ENDBRANCH   2   3
TORSDOF 22
ENDMDL
MODEL      259
REMARK 921   NORMALIZED FREE ENERGY PREDICTED BY IDOCK:   -1.63 KCAL/MOL
REMARK 922        TOTAL FREE ENERGY PREDICTED BY IDOCK:   -8.17 KCAL/MOL
REMARK 923 INTER-LIGAND FREE ENERGY PREDICTED BY IDOCK:   -6.49 KCAL/MOL
REMARK 924 INTRA-LIGAND FREE ENERGY PREDICTED BY IDOCK:   -1.68 KCAL/MOL
REMARK 927      BINDING AFFINITY PREDICTED BY RF-SCORE:    0.00 PKD
ROOT
HETATM    1  C   UNL     1      -8.123  15.831  68.860  1.00  0.00    -0.207 C  
HETATM    2  C   UNL     1      -9.235  16.703  69.417  1.00  0.00     0.040 C  
ENDROOT
BRANCH   2   3
HETATM    3  C   UNL     1     -10.510  16.558  68.592  1.00  0.00    -0.304 C  
BRANCH   3   4
HETATM    4  C   UNL     1     -11.006  15.118  68.612  1.00  0.00    -0.256 C  
BRANCH   4   5
HETATM    5  C   UNL     1     -11.188  14.592  67.193  1.00  0.00    -0.349 C  
BRANCH   5   6
HETATM    6  C   UNL     1     -10.699  15.616  66.180  1.00  0.00    -0.305 C  
BRANCH   6   7
HETATM    7  C   UNL     1     -11.580  15.595  64.941  1.00  0.00    -0.156 C  
BRANCH   7   8
HETATM    8  C   UNL     1     -11.444  14.264  64.218  1.00  0.00    -0.257 C  
BRANCH   8   9
HETATM    9  C   UNL     1     -12.456  13.274  64.767  1.00  0.00    -0.439 C  
BRANCH   9  10
HETATM   10  C   UNL     1     -11.958  11.850  64.589  1.00  0.00    -0.251 C  
BRANCH  10  11
HETATM   11  C   UNL     1     -11.029  11.771  63.387  1.00  0.00    -0.458 C  
BRANCH  11  12
HETATM   12  C   UNL     1      -9.692  11.170  63.799  1.00  0.00    -0.338 C  
BRANCH  12  13
HETATM   13  C   UNL     1      -9.754  10.619  65.214  1.00  0.00    -0.315 C  
BRANCH  13  14
HETATM   14  C   UNL     1      -9.587   9.095  65.244  1.00  0.00    -0.087 C  
BRANCH  14  15
HETATM   15  C   UNL     1      -8.132   8.619  65.370  1.00  0.00    -0.121 C  
BRANCH  15  16
HETATM   16  C   UNL     1      -8.062   7.097  65.295  1.00  0.00    -0.134 C  
BRANCH  16  17
HETATM   17  N   UNL     1      -7.891   6.390  66.633  1.00  0.00    -0.103 N  
HETATM   18  C   UNL     1      -6.643   5.496  66.622  1.00  0.00    -0.056 C  
HETATM   19  C   UNL     1      -9.094   5.536  67.003  1.00  0.00    -0.112 C  
BRANCH  17  20
HETATM   20  C   UNL     1      -7.647   7.472  67.730  1.00  0.00    -0.106 C  
BRANCH  20  21
HETATM   21  C   UNL     1      -7.360   6.937  69.167  1.00  0.00    -0.093 C  
BRANCH  21  22
HETATM   22  N   UNL     1      -8.091   7.743  70.140  1.00  0.00    -0.115 NA 
BRANCH  22  23
HETATM   23  C   UNL     1      -7.903   7.514  71.579  1.00  0.00    -0.086 C  
BRANCH  23  24
HETATM   24  C   UNL     1      -8.853   6.475  72.142  1.00  0.00    -0.135 A  
HETATM   25  C   UNL     1      -8.657   5.968  73.432  1.00  0.00    -0.120 A  
HETATM   26  C   UNL     1     -10.441   4.350  73.112  1.00  0.00    -0.184 A  
HETATM   27  C   UNL     1     -10.708   4.909  71.864  1.00  0.00    -0.128 A  
HETATM   28  C   UNL     1      -9.917   5.964  71.380  1.00  0.00    -0.228 A  
HETATM   29  C   UNL     1      -9.437   4.910  73.903  1.00  0.00    -0.130 A  
BRANCH  26  30
HETATM   30  O   UNL     1     -11.024   3.241  73.652  1.00  0.00    -0.210 OA 
HETATM   31  C   UNL     1     -10.569   1.960  73.239  1.00  0.00    -0.128 C  
ENDBRANCH  26  30
ENDBRANCH  23  24
ENDBRANCH  22  23
BRANCH  22  32
HETATM   32  C   UNL     1      -8.277   9.071  69.790  1.00  0.00    -0.122 A  
HETATM   33  N   UNL     1      -7.206   9.884  69.748  1.00  0.00    -0.100 NA 
HETATM   34  N   UNL     1      -9.488   9.437  69.356  1.00  0.00    -0.165 NA 
HETATM   35  C   UNL     1      -9.622  10.687  68.872  1.00  0.00    -0.196 A  
HETATM   36  C   UNL     1      -7.402  11.152  69.312  1.00  0.00    -0.097 A  
HETATM   37  C   UNL     1      -8.604  11.605  68.840  1.00  0.00     0.067 A  
ENDBRANCH  22  32
ENDBRANCH  21  22
ENDBRANCH  20  21
ENDBRANCH  17  20
ENDBRANCH  16  17
ENDBRANCH  15  16
ENDBRANCH  14  15
ENDBRANCH  13  14
ENDBRANCH  12  13
ENDBRANCH  11  12
ENDBRANCH  10  11
ENDBRANCH   9  10
ENDBRANCH   8   9
ENDBRANCH   7   8
ENDBRANCH   6   7
ENDBRANCH   5   6
ENDBRANCH   4   5
ENDBRANCH   3   4
ENDBRANCH   2   3
TORSDOF 22
ENDMDL
MODEL      260
REMARK 921   NORMALIZED FREE ENERGY PREDICTED BY IDOCK:   -1.60 KCAL/MOL
REMARK 922        TOTAL FREE ENERGY PREDICTED BY IDOCK:   -8.11 KCAL/MOL
REMARK 923 INTER-LIGAND FREE ENERGY PREDICTED BY IDOCK:   -5.21 KCAL/MOL
REMARK 924 INTRA-LIGAND FREE ENERGY PREDICTED BY IDOCK:   -2.89 KCAL/MOL
REMARK 927      BINDING AFFINITY PREDICTED BY RF-SCORE:    0.00 PKD
ROOT
HETATM    1  C   UNL     1     -12.020   6.783  72.122  1.00  0.00    -0.309 C  
HETATM    2  C   UNL     1     -10.959   6.205  73.041  1.00  0.00    -0.278 C  
ENDROOT
BRANCH   2   3
HETATM    3  C   UNL     1     -11.130   4.697  73.195  1.00  0.00    -0.371 C  
BRANCH   3   4
HETATM    4  C   UNL     1      -9.811   3.976  72.950  1.00  0.00    -0.188 C  
BRANCH   4   5
HETATM    5  C   UNL     1      -8.772   4.933  72.379  1.00  0.00    -0.126 C  
BRANCH   5   6
HETATM    6  C   UNL     1      -8.187   4.376  71.090  1.00  0.00    -0.083 C  
BRANCH   6   7
HETATM    7  C   UNL     1      -9.284   3.759  70.236  1.00  0.00    -0.219 C  
BRANCH   7   8
HETATM    8  C   UNL     1      -9.823   4.781  69.248  1.00  0.00    -0.269 C  
BRANCH   8   9
HETATM    9  C   UNL     1      -9.582   4.300  67.827  1.00  0.00    -0.210 C  
BRANCH   9  10
HETATM   10  C   UNL     1      -9.424   2.790  67.796  1.00  0.00    -0.176 C  
BRANCH  10  11
HETATM   11  C   UNL     1      -8.728   2.367  66.511  1.00  0.00    -0.128 C  
BRANCH  11  12
HETATM   12  C   UNL     1      -7.243   2.155  66.767  1.00  0.00    -0.056 C  
BRANCH  12  13
HETATM   13  C   UNL     1      -6.405   2.764  65.655  1.00  0.00    -0.024 C  
BRANCH  13  14
HETATM   14  C   UNL     1      -6.640   4.272  65.518  1.00  0.00    -0.044 C  
BRANCH  14  15
HETATM   15  C   UNL     1      -6.713   4.774  64.068  1.00  0.00    -0.043 C  
BRANCH  15  16
HETATM   16  C   UNL     1      -5.610   5.794  63.801  1.00  0.00    -0.017 C  
BRANCH  16  17
HETATM   17  N   UNL     1      -6.086   7.229  63.619  1.00  0.00    -0.044 N  
HETATM   18  C   UNL     1      -7.588   7.270  63.304  1.00  0.00    -0.113 C  
HETATM   19  C   UNL     1      -5.340   7.959  62.512  1.00  0.00    -0.059 C  
BRANCH  17  20
HETATM   20  C   UNL     1      -5.900   7.981  64.974  1.00  0.00    -0.045 C  
BRANCH  20  21
HETATM   21  C   UNL     1      -7.209   8.330  65.748  1.00  0.00    -0.072 C  
BRANCH  21  22
HETATM   22  N   UNL     1      -6.923   9.354  66.748  1.00  0.00    -0.081 NA 
BRANCH  22  23
HETATM   23  C   UNL     1      -7.522  10.690  66.630  1.00  0.00    -0.129 C  
BRANCH  23  24
HETATM   24  C   UNL     1      -8.910  10.771  67.235  1.00  0.00    -0.133 A  
HETATM   25  C   UNL     1      -9.200  11.737  68.206  1.00  0.00    -0.188 A  
HETATM   26  C   UNL     1     -11.400  10.774  68.569  1.00  0.00    -0.295 A  
HETATM   27  C   UNL     1     -11.160   9.868  67.538  1.00  0.00    -0.141 A  
HETATM   28  C   UNL     1      -9.921   9.864  66.876  1.00  0.00    -0.268 A  
HETATM   29  C   UNL     1     -10.427  11.727  68.871  1.00  0.00    -0.182 A  
BRANCH  26  30
HETATM   30  O   UNL     1     -12.488  10.806  69.391  1.00  0.00    -0.333 OA 
HETATM   31  C   UNL     1     -12.518  11.754  70.448  1.00  0.00    -0.197 C  
ENDBRANCH  26  30
ENDBRANCH  23  24
ENDBRANCH  22  23
BRANCH  22  32
HETATM   32  C   UNL     1      -6.799   8.893  68.050  1.00  0.00    -0.070 A  
HETATM   33  N   UNL     1      -6.066   9.609  68.922  1.00  0.00    -0.042 NA 
HETATM   34  N   UNL     1      -7.547   7.846  68.414  1.00  0.00    -0.106 NA 
HETATM   35  C   UNL     1      -7.540   7.500  69.715  1.00  0.00    -0.094 A  
HETATM   36  C   UNL     1      -6.040   9.187  70.209  1.00  0.00    -0.040 A  
HETATM   37  C   UNL     1      -6.783   8.132  70.668  1.00  0.00    -0.037 A  
ENDBRANCH  22  32
ENDBRANCH  21  22
ENDBRANCH  20  21
ENDBRANCH  17  20
ENDBRANCH  16  17
ENDBRANCH  15  16
ENDBRANCH  14  15
ENDBRANCH  13  14
ENDBRANCH  12  13
ENDBRANCH  11  12
ENDBRANCH  10  11
ENDBRANCH   9  10
ENDBRANCH   8   9
ENDBRANCH   7   8
ENDBRANCH   6   7
ENDBRANCH   5   6
ENDBRANCH   4   5
ENDBRANCH   3   4
ENDBRANCH   2   3
TORSDOF 22
ENDMDL
MODEL      261
REMARK 921   NORMALIZED FREE ENERGY PREDICTED BY IDOCK:   -1.58 KCAL/MOL
REMARK 922        TOTAL FREE ENERGY PREDICTED BY IDOCK:   -8.07 KCAL/MOL
REMARK 923 INTER-LIGAND FREE ENERGY PREDICTED BY IDOCK:   -5.53 KCAL/MOL
REMARK 924 INTRA-LIGAND FREE ENERGY PREDICTED BY IDOCK:   -2.54 KCAL/MOL
REMARK 927      BINDING AFFINITY PREDICTED BY RF-SCORE:    0.00 PKD
ROOT
HETATM    1  C   UNL     1     -11.031  15.837  65.258  1.00  0.00    -0.354 C  
HETATM    2  C   UNL     1     -11.548  14.927  64.158  1.00  0.00    -0.069 C  
ENDROOT
BRANCH   2   3
HETATM    3  C   UNL     1     -11.939  13.562  64.717  1.00  0.00    -0.424 C  
BRANCH   3   4
HETATM    4  C   UNL     1     -11.139  12.454  64.044  1.00  0.00    -0.452 C  
BRANCH   4   5
HETATM    5  C   UNL     1     -11.389  11.118  64.732  1.00  0.00     0.070 C  
BRANCH   5   6
HETATM    6  C   UNL     1     -10.207  10.745  65.615  1.00  0.00    -0.320 C  
BRANCH   6   7
HETATM    7  C   UNL     1      -8.952  11.465  65.149  1.00  0.00     0.025 C  
BRANCH   7   8
HETATM    8  C   UNL     1      -8.695  12.691  66.011  1.00  0.00     0.424 C  
BRANCH   8   9
HETATM    9  C   UNL     1      -8.015  12.277  67.305  1.00  0.00    -0.177 C  
BRANCH   9  10
HETATM   10  C   UNL     1      -8.770  12.827  68.503  1.00  0.00    -0.045 C  
BRANCH  10  11
HETATM   11  C   UNL     1      -9.472  14.122  68.125  1.00  0.00    -0.213 C  
BRANCH  11  12
HETATM   12  C   UNL     1      -9.521  15.059  69.323  1.00  0.00    -0.171 C  
BRANCH  12  13
HETATM   13  C   UNL     1     -10.955  15.409  69.685  1.00  0.00    -0.288 C  
BRANCH  13  14
HETATM   14  C   UNL     1     -11.938  14.311  69.266  1.00  0.00    -0.375 C  
BRANCH  14  15
HETATM   15  C   UNL     1     -12.472  13.460  70.429  1.00  0.00    -0.322 C  
BRANCH  15  16
HETATM   16  C   UNL     1     -11.549  12.273  70.688  1.00  0.00     0.519 C  
BRANCH  16  17
HETATM   17  N   UNL     1     -11.903  11.001  69.932  1.00  0.00    -0.321 N  
HETATM   18  C   UNL     1     -12.234  11.312  68.465  1.00  0.00     0.102 C  
HETATM   19  C   UNL     1     -13.082  10.261  70.546  1.00  0.00    -0.138 C  
BRANCH  17  20
HETATM   20  C   UNL     1     -10.645  10.078  69.912  1.00  0.00    -0.282 C  
BRANCH  20  21
HETATM   21  C   UNL     1     -10.374   9.262  71.215  1.00  0.00    -0.327 C  
BRANCH  21  22
HETATM   22  N   UNL     1      -9.314   8.290  70.967  1.00  0.00    -0.155 NA 
BRANCH  22  23
HETATM   23  C   UNL     1      -8.347   8.512  69.884  1.00  0.00    -0.123 C  
BRANCH  23  24
HETATM   24  C   UNL     1      -8.689   7.750  68.619  1.00  0.00    -0.128 A  
HETATM   25  C   UNL     1      -9.640   6.723  68.651  1.00  0.00    -0.131 A  
HETATM   26  C   UNL     1      -9.150   6.140  66.344  1.00  0.00    -0.148 A  
HETATM   27  C   UNL     1      -8.271   7.219  66.271  1.00  0.00    -0.123 A  
HETATM   28  C   UNL     1      -8.039   8.018  67.402  1.00  0.00    -0.122 A  
HETATM   29  C   UNL     1      -9.856   5.923  67.528  1.00  0.00    -0.139 A  
BRANCH  26  30
HETATM   30  O   UNL     1      -9.369   5.198  65.382  1.00  0.00    -0.150 OA 
HETATM   31  C   UNL     1     -10.033   3.995  65.742  1.00  0.00    -0.145 C  
ENDBRANCH  26  30
ENDBRANCH  23  24
ENDBRANCH  22  23
BRANCH  22  32
HETATM   32  C   UNL     1      -8.783   7.690  72.097  1.00  0.00    -0.122 A  
HETATM   33  N   UNL     1      -8.395   6.404  72.025  1.00  0.00    -0.109 NA 
HETATM   34  N   UNL     1      -8.534   8.468  73.156  1.00  0.00    -0.389 NA 
HETATM   35  C   UNL     1      -7.877   7.914  74.193  1.00  0.00    -0.204 A  
HETATM   36  C   UNL     1      -7.793   5.872  73.116  1.00  0.00    -0.102 A  
HETATM   37  C   UNL     1      -7.491   6.599  74.236  1.00  0.00    -0.098 A  
ENDBRANCH  22  32
ENDBRANCH  21  22
ENDBRANCH  20  21
ENDBRANCH  17  20
ENDBRANCH  16  17
ENDBRANCH  15  16
ENDBRANCH  14  15
ENDBRANCH  13  14
ENDBRANCH  12  13
ENDBRANCH  11  12
ENDBRANCH  10  11
ENDBRANCH   9  10
ENDBRANCH   8   9
ENDBRANCH   7   8
ENDBRANCH   6   7
ENDBRANCH   5   6
ENDBRANCH   4   5
ENDBRANCH   3   4
ENDBRANCH   2   3
TORSDOF 22
ENDMDL
MODEL      262
REMARK 921   NORMALIZED FREE ENERGY PREDICTED BY IDOCK:   -1.56 KCAL/MOL
REMARK 922        TOTAL FREE ENERGY PREDICTED BY IDOCK:   -8.01 KCAL/MOL
REMARK 923 INTER-LIGAND FREE ENERGY PREDICTED BY IDOCK:   -6.32 KCAL/MOL
REMARK 924 INTRA-LIGAND FREE ENERGY PREDICTED BY IDOCK:   -1.69 KCAL/MOL
REMARK 927      BINDING AFFINITY PREDICTED BY RF-SCORE:    0.00 PKD
ROOT
HETATM    1  C   UNL     1     -10.441   3.545  64.259  1.00  0.00    -0.180 C  
HETATM    2  C   UNL     1      -8.984   3.172  64.469  1.00  0.00    -0.121 C  
ENDROOT
BRANCH   2   3
HETATM    3  C   UNL     1      -8.413   3.870  65.699  1.00  0.00    -0.110 C  
BRANCH   3   4
HETATM    4  C   UNL     1      -8.739   3.088  66.965  1.00  0.00    -0.138 C  
BRANCH   4   5
HETATM    5  C   UNL     1      -8.175   1.675  66.884  1.00  0.00    -0.077 C  
BRANCH   5   6
HETATM    6  C   UNL     1      -6.655   1.704  66.945  1.00  0.00    -0.030 C  
BRANCH   6   7
HETATM    7  C   UNL     1      -6.174   3.052  67.458  1.00  0.00    -0.032 C  
BRANCH   7   8
HETATM    8  C   UNL     1      -5.511   2.895  68.817  1.00  0.00    -0.013 C  
BRANCH   8   9
HETATM    9  C   UNL     1      -5.699   1.475  69.321  1.00  0.00    -0.022 C  
BRANCH   9  10
HETATM   10  C   UNL     1      -6.380   1.479  70.680  1.00  0.00    -0.023 C  
BRANCH  10  11
HETATM   11  C   UNL     1      -7.870   1.737  70.513  1.00  0.00    -0.042 C  
BRANCH  11  12
HETATM   12  C   UNL     1      -8.278   2.968  71.309  1.00  0.00    -0.076 C  
BRANCH  12  13
HETATM   13  C   UNL     1      -8.065   4.237  70.501  1.00  0.00    -0.066 C  
BRANCH  13  14
HETATM   14  C   UNL     1      -9.389   4.845  70.025  1.00  0.00    -0.207 C  
BRANCH  14  15
HETATM   15  C   UNL     1     -10.383   5.163  71.153  1.00  0.00    -0.276 C  
BRANCH  15  16
HETATM   16  C   UNL     1      -9.989   6.455  71.862  1.00  0.00    -0.175 C  
BRANCH  16  17
HETATM   17  N   UNL     1     -10.826   7.674  71.498  1.00  0.00    -0.226 N  
HETATM   18  C   UNL     1     -11.400   8.337  72.758  1.00  0.00    -0.262 C  
HETATM   19  C   UNL     1     -11.978   7.337  70.562  1.00  0.00    -0.160 C  
BRANCH  17  20
HETATM   20  C   UNL     1      -9.890   8.730  70.833  1.00  0.00    -0.222 C  
BRANCH  20  21
HETATM   21  C   UNL     1      -9.403   8.399  69.388  1.00  0.00    -0.154 C  
BRANCH  21  22
HETATM   22  N   UNL     1      -9.749   9.501  68.495  1.00  0.00    -0.149 NA 
BRANCH  22  23
HETATM   23  C   UNL     1      -9.987  10.845  69.039  1.00  0.00    -0.191 C  
BRANCH  23  24
HETATM   24  C   UNL     1     -10.309  11.868  67.968  1.00  0.00    -0.209 A  
HETATM   25  C   UNL     1      -9.308  12.718  67.482  1.00  0.00    -0.189 A  
HETATM   26  C   UNL     1     -10.936  13.957  66.173  1.00  0.00    -0.293 A  
HETATM   27  C   UNL     1     -11.924  13.060  66.574  1.00  0.00    -0.457 A  
HETATM   28  C   UNL     1     -11.613  12.023  67.469  1.00  0.00    -0.401 A  
HETATM   29  C   UNL     1      -9.624  13.756  66.604  1.00  0.00    -0.295 A  
BRANCH  26  30
HETATM   30  O   UNL     1     -11.112  15.087  65.429  1.00  0.00    -0.344 OA 
HETATM   31  C   UNL     1     -10.576  16.312  65.908  1.00  0.00    -0.297 C  
ENDBRANCH  26  30
ENDBRANCH  23  24
ENDBRANCH  22  23
BRANCH  22  32
HETATM   32  C   UNL     1      -9.119   9.486  67.261  1.00  0.00    -0.130 A  
HETATM   33  N   UNL     1      -7.788   9.297  67.218  1.00  0.00    -0.098 NA 
HETATM   34  N   UNL     1      -9.890   9.498  66.168  1.00  0.00    -0.256 NA 
HETATM   35  C   UNL     1      -9.283   9.327  64.979  1.00  0.00    -0.178 A  
HETATM   36  C   UNL     1      -7.213   9.192  65.995  1.00  0.00    -0.094 A  
HETATM   37  C   UNL     1      -7.927   9.184  64.828  1.00  0.00    -0.126 A  
ENDBRANCH  22  32
ENDBRANCH  21  22
ENDBRANCH  20  21
ENDBRANCH  17  20
ENDBRANCH  16  17
ENDBRANCH  15  16
ENDBRANCH  14  15
ENDBRANCH  13  14
ENDBRANCH  12  13
ENDBRANCH  11  12
ENDBRANCH  10  11
ENDBRANCH   9  10
ENDBRANCH   8   9
ENDBRANCH   7   8
ENDBRANCH   6   7
ENDBRANCH   5   6
ENDBRANCH   4   5
ENDBRANCH   3   4
ENDBRANCH   2   3
TORSDOF 22
ENDMDL
MODEL      263
REMARK 921   NORMALIZED FREE ENERGY PREDICTED BY IDOCK:   -1.56 KCAL/MOL
REMARK 922        TOTAL FREE ENERGY PREDICTED BY IDOCK:   -8.01 KCAL/MOL
REMARK 923 INTER-LIGAND FREE ENERGY PREDICTED BY IDOCK:   -6.19 KCAL/MOL
REMARK 924 INTRA-LIGAND FREE ENERGY PREDICTED BY IDOCK:   -1.82 KCAL/MOL
REMARK 927      BINDING AFFINITY PREDICTED BY RF-SCORE:    0.00 PKD
ROOT
HETATM    1  C   UNL     1     -12.269  13.118  67.847  1.00  0.00    -0.103 C  
HETATM    2  C   UNL     1     -12.359  13.938  69.122  1.00  0.00    -0.159 C  
ENDROOT
BRANCH   2   3
HETATM    3  C   UNL     1     -11.448  15.159  69.052  1.00  0.00    -0.325 C  
BRANCH   3   4
HETATM    4  C   UNL     1      -9.999  14.741  68.834  1.00  0.00    -0.233 C  
BRANCH   4   5
HETATM    5  C   UNL     1      -9.055  15.899  69.132  1.00  0.00    -0.255 C  
BRANCH   5   6
HETATM    6  C   UNL     1      -9.384  17.094  68.251  1.00  0.00    -0.265 C  
BRANCH   6   7
HETATM    7  C   UNL     1      -8.255  18.111  68.297  1.00  0.00    -0.300 C  
BRANCH   7   8
HETATM    8  C   UNL     1      -7.154  17.723  67.323  1.00  0.00    -0.201 C  
BRANCH   8   9
HETATM    9  C   UNL     1      -6.970  16.215  67.327  1.00  0.00    -0.234 C  
BRANCH   9  10
HETATM   10  C   UNL     1      -5.700  15.835  68.068  1.00  0.00    -0.141 C  
BRANCH  10  11
HETATM   11  C   UNL     1      -5.208  14.476  67.594  1.00  0.00     0.098 C  
BRANCH  11  12
HETATM   12  C   UNL     1      -6.267  13.416  67.861  1.00  0.00    -0.147 C  
BRANCH  12  13
HETATM   13  C   UNL     1      -6.492  13.231  69.353  1.00  0.00    -0.097 C  
BRANCH  13  14
HETATM   14  C   UNL     1      -5.355  12.443  70.012  1.00  0.00    -0.103 C  
BRANCH  14  15
HETATM   15  C   UNL     1      -5.820  11.384  71.024  1.00  0.00     0.133 C  
BRANCH  15  16
HETATM   16  C   UNL     1      -5.374   9.993  70.583  1.00  0.00    -0.055 C  
BRANCH  16  17
HETATM   17  N   UNL     1      -6.441   9.163  69.883  1.00  0.00    -0.041 N  
HETATM   18  C   UNL     1      -6.035   7.683  69.834  1.00  0.00    -0.023 C  
HETATM   19  C   UNL     1      -6.715   9.636  68.463  1.00  0.00    -0.052 C  
BRANCH  17  20
HETATM   20  C   UNL     1      -7.749   9.232  70.731  1.00  0.00    -0.139 C  
BRANCH  20  21
HETATM   21  C   UNL     1      -9.006   9.804  70.005  1.00  0.00    -0.222 C  
BRANCH  21  22
HETATM   22  N   UNL     1     -10.033   8.770  69.926  1.00  0.00    -0.182 NA 
BRANCH  22  23
HETATM   23  C   UNL     1      -9.655   7.351  69.950  1.00  0.00    -0.163 C  
BRANCH  23  24
HETATM   24  C   UNL     1      -9.933   6.642  68.639  1.00  0.00    -0.151 A  
HETATM   25  C   UNL     1     -10.294   5.289  68.633  1.00  0.00    -0.193 A  
HETATM   26  C   UNL     1     -10.193   5.230  66.206  1.00  0.00    -0.223 A  
HETATM   27  C   UNL     1      -9.927   6.598  66.196  1.00  0.00     0.132 A  
HETATM   28  C   UNL     1      -9.795   7.299  67.406  1.00  0.00    -0.206 A  
HETATM   29  C   UNL     1     -10.410   4.592  67.428  1.00  0.00    -0.020 A  
BRANCH  26  30
HETATM   30  O   UNL     1     -10.209   4.393  65.129  1.00  0.00    -0.214 OA 
HETATM   31  C   UNL     1      -9.524   3.152  65.218  1.00  0.00    -0.107 C  
ENDBRANCH  26  30
ENDBRANCH  23  24
ENDBRANCH  22  23
BRANCH  22  32
HETATM   32  C   UNL     1     -11.218   9.059  70.583  1.00  0.00    -0.270 A  
HETATM   33  N   UNL     1     -12.035   8.045  70.919  1.00  0.00    -0.242 NA 
HETATM   34  N   UNL     1     -11.412  10.318  70.992  1.00  0.00    -0.344 NA 
HETATM   35  C   UNL     1     -12.490  10.561  71.763  1.00  0.00    -0.262 A  
HETATM   36  C   UNL     1     -13.140   8.347  71.643  1.00  0.00    -0.334 A  
HETATM   37  C   UNL     1     -13.409   9.605  72.111  1.00  0.00    -0.545 A  
ENDBRANCH  22  32
ENDBRANCH  21  22
ENDBRANCH  20  21
ENDBRANCH  17  20
ENDBRANCH  16  17
ENDBRANCH  15  16
ENDBRANCH  14  15
ENDBRANCH  13  14
ENDBRANCH  12  13
ENDBRANCH  11  12
ENDBRANCH  10  11
ENDBRANCH   9  10
ENDBRANCH   8   9
ENDBRANCH   7   8
ENDBRANCH   6   7
ENDBRANCH   5   6
ENDBRANCH   4   5
ENDBRANCH   3   4
ENDBRANCH   2   3
TORSDOF 22
ENDMDL
MODEL      264
REMARK 921   NORMALIZED FREE ENERGY PREDICTED BY IDOCK:   -1.47 KCAL/MOL
REMARK 922        TOTAL FREE ENERGY PREDICTED BY IDOCK:   -7.81 KCAL/MOL
REMARK 923 INTER-LIGAND FREE ENERGY PREDICTED BY IDOCK:   -5.97 KCAL/MOL
REMARK 924 INTRA-LIGAND FREE ENERGY PREDICTED BY IDOCK:   -1.83 KCAL/MOL
REMARK 927      BINDING AFFINITY PREDICTED BY RF-SCORE:    0.00 PKD
ROOT
HETATM    1  C   UNL     1      -9.984   6.755  72.932  1.00  0.00    -0.193 C  
HETATM    2  C   UNL     1     -10.764   6.219  71.744  1.00  0.00    -0.279 C  
ENDROOT
BRANCH   2   3
HETATM    3  C   UNL     1      -9.824   5.685  70.668  1.00  0.00    -0.244 C  
BRANCH   3   4
HETATM    4  C   UNL     1     -10.030   6.426  69.354  1.00  0.00    -0.184 C  
BRANCH   4   5
HETATM    5  C   UNL     1     -11.133   7.468  69.491  1.00  0.00    -0.063 C  
BRANCH   5   6
HETATM    6  C   UNL     1     -10.558   8.791  69.976  1.00  0.00    -0.232 C  
BRANCH   6   7
HETATM    7  C   UNL     1     -10.655   9.841  68.882  1.00  0.00    -0.240 C  
BRANCH   7   8
HETATM    8  C   UNL     1     -11.364  11.082  69.401  1.00  0.00    -0.352 C  
BRANCH   8   9
HETATM    9  C   UNL     1     -11.908  11.890  68.235  1.00  0.00    -0.343 C  
BRANCH   9  10
HETATM   10  C   UNL     1     -11.043  11.694  67.002  1.00  0.00    -0.359 C  
BRANCH  10  11
HETATM   11  C   UNL     1     -11.684  12.377  65.804  1.00  0.00    -0.470 C  
BRANCH  11  12
HETATM   12  C   UNL     1     -10.610  12.823  64.821  1.00  0.00    -0.348 C  
BRANCH  12  13
HETATM   13  C   UNL     1     -10.747  12.094  63.495  1.00  0.00    -0.509 C  
BRANCH  13  14
HETATM   14  C   UNL     1      -9.779  10.911  63.387  1.00  0.00    -0.392 C  
BRANCH  14  15
HETATM   15  C   UNL     1      -8.782  10.799  64.551  1.00  0.00    -0.097 C  
BRANCH  15  16
HETATM   16  C   UNL     1      -7.499  10.114  64.089  1.00  0.00    -0.114 C  
BRANCH  16  17
HETATM   17  N   UNL     1      -7.360   8.655  64.498  1.00  0.00    -0.096 N  
HETATM   18  C   UNL     1      -6.714   7.832  63.374  1.00  0.00    -0.066 C  
HETATM   19  C   UNL     1      -8.694   8.017  64.858  1.00  0.00     0.120 C  
BRANCH  17  20
HETATM   20  C   UNL     1      -6.386   8.578  65.715  1.00  0.00    -0.052 C  
BRANCH  20  21
HETATM   21  C   UNL     1      -5.701   7.197  65.957  1.00  0.00    -0.031 C  
BRANCH  21  22
HETATM   22  N   UNL     1      -6.543   6.385  66.831  1.00  0.00    -0.053 NA 
BRANCH  22  23
HETATM   23  C   UNL     1      -6.590   4.927  66.665  1.00  0.00    -0.046 C  
BRANCH  23  24
HETATM   24  C   UNL     1      -7.687   4.474  65.721  1.00  0.00    -0.094 A  
HETATM   25  C   UNL     1      -7.463   4.455  64.339  1.00  0.00    -0.071 A  
HETATM   26  C   UNL     1      -9.790   3.893  63.927  1.00  0.00    -0.176 A  
HETATM   27  C   UNL     1     -10.002   3.815  65.302  1.00  0.00    -0.108 A  
HETATM   28  C   UNL     1      -8.957   4.106  66.194  1.00  0.00    -0.126 A  
HETATM   29  C   UNL     1      -8.508   4.180  63.456  1.00  0.00    -0.100 A  
BRANCH  26  30
HETATM   30  O   UNL     1     -10.733   3.779  62.947  1.00  0.00    -0.210 OA 
HETATM   31  C   UNL     1     -11.028   2.490  62.429  1.00  0.00    -0.168 C  
ENDBRANCH  26  30
ENDBRANCH  23  24
ENDBRANCH  22  23
BRANCH  22  32
HETATM   32  C   UNL     1      -6.622   6.816  68.146  1.00  0.00    -0.058 A  
HETATM   33  N   UNL     1      -6.313   5.950  69.129  1.00  0.00    -0.039 NA 
HETATM   34  N   UNL     1      -6.845   8.116  68.364  1.00  0.00    -0.067 NA 
HETATM   35  C   UNL     1      -6.767   8.555  69.634  1.00  0.00    -0.040 A  
HETATM   36  C   UNL     1      -6.307   6.424  70.398  1.00  0.00    -0.036 A  
HETATM   37  C   UNL     1      -6.514   7.741  70.708  1.00  0.00    -0.038 A  
ENDBRANCH  22  32
ENDBRANCH  21  22
ENDBRANCH  20  21
ENDBRANCH  17  20
ENDBRANCH  16  17
ENDBRANCH  15  16
ENDBRANCH  14  15
ENDBRANCH  13  14
ENDBRANCH  12  13
ENDBRANCH  11  12
ENDBRANCH  10  11
ENDBRANCH   9  10
ENDBRANCH   8   9
ENDBRANCH   7   8
ENDBRANCH   6   7
ENDBRANCH   5   6
ENDBRANCH   4   5
ENDBRANCH   3   4
ENDBRANCH   2   3
TORSDOF 22
ENDMDL
MODEL      265
REMARK 921   NORMALIZED FREE ENERGY PREDICTED BY IDOCK:   -1.45 KCAL/MOL
REMARK 922        TOTAL FREE ENERGY PREDICTED BY IDOCK:   -7.77 KCAL/MOL
REMARK 923 INTER-LIGAND FREE ENERGY PREDICTED BY IDOCK:   -6.75 KCAL/MOL
REMARK 924 INTRA-LIGAND FREE ENERGY PREDICTED BY IDOCK:   -1.02 KCAL/MOL
REMARK 927      BINDING AFFINITY PREDICTED BY RF-SCORE:    0.00 PKD
ROOT
HETATM    1  C   UNL     1      -8.203  19.565  66.822  1.00  0.00    -0.318 C  
HETATM    2  C   UNL     1      -9.539  19.779  66.133  1.00  0.00    -0.484 C  
ENDROOT
BRANCH   2   3
HETATM    3  C   UNL     1     -10.574  18.771  66.620  1.00  0.00    -0.446 C  
BRANCH   3   4
HETATM    4  C   UNL     1     -10.301  17.390  66.037  1.00  0.00    -0.309 C  
BRANCH   4   5
HETATM    5  C   UNL     1     -10.853  16.302  66.949  1.00  0.00    -0.151 C  
BRANCH   5   6
HETATM    6  C   UNL     1     -10.203  16.380  68.323  1.00  0.00    -0.255 C  
BRANCH   6   7
HETATM    7  C   UNL     1      -8.703  16.164  68.210  1.00  0.00    -0.180 C  
BRANCH   7   8
HETATM    8  C   UNL     1      -7.962  17.085  69.166  1.00  0.00    -0.066 C  
BRANCH   8   9
HETATM    9  C   UNL     1      -6.479  17.081  68.840  1.00  0.00    -0.189 C  
BRANCH   9  10
HETATM   10  C   UNL     1      -5.965  15.657  68.713  1.00  0.00    -0.100 C  
BRANCH  10  11
HETATM   11  C   UNL     1      -6.190  14.905  70.016  1.00  0.00    -0.156 C  
BRANCH  11  12
HETATM   12  C   UNL     1      -5.277  13.689  70.081  1.00  0.00    -0.097 C  
BRANCH  12  13
HETATM   13  C   UNL     1      -5.720  12.620  69.097  1.00  0.00    -0.076 C  
BRANCH  13  14
HETATM   14  C   UNL     1      -7.200  12.258  69.269  1.00  0.00     0.123 C  
BRANCH  14  15
HETATM   15  C   UNL     1      -7.659  11.051  68.437  1.00  0.00    -0.108 C  
BRANCH  15  16
HETATM   16  C   UNL     1      -8.904  11.404  67.628  1.00  0.00    -0.139 C  
BRANCH  16  17
HETATM   17  N   UNL     1     -10.227  11.185  68.347  1.00  0.00    -0.181 N  
HETATM   18  C   UNL     1     -11.185  10.351  67.484  1.00  0.00    -0.179 C  
HETATM   19  C   UNL     1     -10.919  12.489  68.714  1.00  0.00    -0.253 C  
BRANCH  17  20
HETATM   20  C   UNL     1      -9.951  10.346  69.633  1.00  0.00    -0.174 C  
BRANCH  20  21
HETATM   21  C   UNL     1     -11.099  10.317  70.691  1.00  0.00    -0.280 C  
BRANCH  21  22
HETATM   22  N   UNL     1     -11.308   8.944  71.141  1.00  0.00    -0.272 NA 
BRANCH  22  23
HETATM   23  C   UNL     1     -11.536   7.872  70.163  1.00  0.00    -0.017 C  
BRANCH  23  24
HETATM   24  C   UNL     1     -10.351   6.936  70.024  1.00  0.00    -0.219 A  
HETATM   25  C   UNL     1     -10.409   5.643  70.559  1.00  0.00    -0.327 A  
HETATM   26  C   UNL     1      -8.071   5.269  70.017  1.00  0.00    -0.084 A  
HETATM   27  C   UNL     1      -8.027   6.516  69.397  1.00  0.00    -0.114 A  
HETATM   28  C   UNL     1      -9.160   7.346  69.403  1.00  0.00    -0.139 A  
HETATM   29  C   UNL     1      -9.276   4.827  70.563  1.00  0.00    -0.195 A  
BRANCH  26  30
HETATM   30  O   UNL     1      -7.022   4.419  70.216  1.00  0.00    -0.036 OA 
HETATM   31  C   UNL     1      -5.926   4.463  69.314  1.00  0.00    -0.022 C  
ENDBRANCH  26  30
ENDBRANCH  23  24
ENDBRANCH  22  23
BRANCH  22  32
HETATM   32  C   UNL     1     -10.564   8.563  72.247  1.00  0.00    -0.338 A  
HETATM   33  N   UNL     1     -11.107   7.699  73.124  1.00  0.00    -0.388 NA 
HETATM   34  N   UNL     1      -9.285   8.948  72.300  1.00  0.00    -0.357 NA 
HETATM   35  C   UNL     1      -8.527   8.449  73.295  1.00  0.00    -0.122 A  
HETATM   36  C   UNL     1     -10.324   7.272  74.144  1.00  0.00     0.079 A  
HETATM   37  C   UNL     1      -9.004   7.608  74.268  1.00  0.00    -0.183 A  
ENDBRANCH  22  32
ENDBRANCH  21  22
ENDBRANCH  20  21
ENDBRANCH  17  20
ENDBRANCH  16  17
ENDBRANCH  15  16
ENDBRANCH  14  15
ENDBRANCH  13  14
ENDBRANCH  12  13
ENDBRANCH  11  12
ENDBRANCH  10  11
ENDBRANCH   9  10
ENDBRANCH   8   9
ENDBRANCH   7   8
ENDBRANCH   6   7
ENDBRANCH   5   6
ENDBRANCH   4   5
ENDBRANCH   3   4
ENDBRANCH   2   3
TORSDOF 22
ENDMDL
MODEL      266
REMARK 921   NORMALIZED FREE ENERGY PREDICTED BY IDOCK:   -1.31 KCAL/MOL
REMARK 922        TOTAL FREE ENERGY PREDICTED BY IDOCK:   -7.45 KCAL/MOL
REMARK 923 INTER-LIGAND FREE ENERGY PREDICTED BY IDOCK:   -6.75 KCAL/MOL
REMARK 924 INTRA-LIGAND FREE ENERGY PREDICTED BY IDOCK:   -0.70 KCAL/MOL
REMARK 927      BINDING AFFINITY PREDICTED BY RF-SCORE:    0.00 PKD
ROOT
HETATM    1  C   UNL     1     -11.061   5.708  71.513  1.00  0.00    -0.235 C  
HETATM    2  C   UNL     1     -10.589   6.667  72.590  1.00  0.00    -0.249 C  
ENDROOT
BRANCH   2   3
HETATM    3  C   UNL     1     -11.742   7.525  73.103  1.00  0.00     0.132 C  
BRANCH   3   4
HETATM    4  C   UNL     1     -11.770   8.873  72.393  1.00  0.00    -0.266 C  
BRANCH   4   5
HETATM    5  C   UNL     1     -12.936   8.941  71.415  1.00  0.00    -0.323 C  
BRANCH   5   6
HETATM    6  C   UNL     1     -12.715  10.055  70.402  1.00  0.00    -0.111 C  
BRANCH   6   7
HETATM    7  C   UNL     1     -11.263  10.502  70.418  1.00  0.00    -0.378 C  
BRANCH   7   8
HETATM    8  C   UNL     1     -10.353   9.362  69.988  1.00  0.00    -0.265 C  
BRANCH   8   9
HETATM    9  C   UNL     1     -11.153   8.329  69.214  1.00  0.00     0.142 C  
BRANCH   9  10
HETATM   10  C   UNL     1     -10.341   7.058  69.028  1.00  0.00    -0.208 C  
BRANCH  10  11
HETATM   11  C   UNL     1     -10.641   6.445  67.669  1.00  0.00    -0.340 C  
BRANCH  11  12
HETATM   12  C   UNL     1      -9.785   7.105  66.597  1.00  0.00    -0.233 C  
BRANCH  12  13
HETATM   13  C   UNL     1      -8.669   7.927  67.220  1.00  0.00    -0.131 C  
BRANCH  13  14
HETATM   14  C   UNL     1      -8.200   9.054  66.292  1.00  0.00    -0.115 C  
BRANCH  14  15
HETATM   15  C   UNL     1      -8.942  10.385  66.487  1.00  0.00    -0.161 C  
BRANCH  15  16
HETATM   16  C   UNL     1      -9.348  10.970  65.137  1.00  0.00    -0.220 C  
BRANCH  16  17
HETATM   17  N   UNL     1     -10.331  12.130  65.204  1.00  0.00    -0.271 N  
HETATM   18  C   UNL     1     -11.710  11.650  65.678  1.00  0.00     0.108 C  
HETATM   19  C   UNL     1     -10.499  12.836  63.866  1.00  0.00    -0.372 C  
BRANCH  17  20
HETATM   20  C   UNL     1      -9.824  13.140  66.280  1.00  0.00    -0.283 C  
BRANCH  20  21
HETATM   21  C   UNL     1      -9.130  14.428  65.737  1.00  0.00     0.391 C  
BRANCH  21  22
HETATM   22  N   UNL     1      -8.669  15.241  66.859  1.00  0.00    -0.239 NA 
BRANCH  22  23
HETATM   23  C   UNL     1      -7.233  15.370  67.137  1.00  0.00    -0.144 C  
BRANCH  23  24
HETATM   24  C   UNL     1      -6.689  14.233  67.980  1.00  0.00    -0.154 A  
HETATM   25  C   UNL     1      -6.504  12.965  67.417  1.00  0.00    -0.126 A  
HETATM   26  C   UNL     1      -5.933  12.038  69.588  1.00  0.00    -0.120 A  
HETATM   27  C   UNL     1      -6.020  13.313  70.143  1.00  0.00    -0.139 A  
HETATM   28  C   UNL     1      -6.399  14.405  69.344  1.00  0.00    -0.122 A  
HETATM   29  C   UNL     1      -6.142  11.880  68.218  1.00  0.00    -0.050 A  
BRANCH  26  30
HETATM   30  O   UNL     1      -5.719  10.869  70.259  1.00  0.00    -0.077 OA 
HETATM   31  C   UNL     1      -5.166  10.922  71.566  1.00  0.00    -0.005 C  
ENDBRANCH  26  30
ENDBRANCH  23  24
ENDBRANCH  22  23
BRANCH  22  32
HETATM   32  C   UNL     1      -9.406  16.389  67.101  1.00  0.00    -0.218 A  
HETATM   33  N   UNL     1      -9.418  16.899  68.345  1.00  0.00    -0.250 NA 
HETATM   34  N   UNL     1      -9.938  17.022  66.048  1.00  0.00    -0.461 NA 
HETATM   35  C   UNL     1     -10.519  18.216  66.271  1.00  0.00    -0.361 A  
HETATM   36  C   UNL     1     -10.069  18.073  68.532  1.00  0.00    -0.393 A  
HETATM   37  C   UNL     1     -10.630  18.791  67.511  1.00  0.00    -0.497 A  
ENDBRANCH  22  32
ENDBRANCH  21  22
ENDBRANCH  20  21
ENDBRANCH  17  20
ENDBRANCH  16  17
ENDBRANCH  15  16
ENDBRANCH  14  15
ENDBRANCH  13  14
ENDBRANCH  12  13
ENDBRANCH  11  12
ENDBRANCH  10  11
ENDBRANCH   9  10
ENDBRANCH   8   9
ENDBRANCH   7   8
ENDBRANCH   6   7
ENDBRANCH   5   6
ENDBRANCH   4   5
ENDBRANCH   3   4
ENDBRANCH   2   3
TORSDOF 22
ENDMDL
MODEL      267
REMARK 921   NORMALIZED FREE ENERGY PREDICTED BY IDOCK:   -1.21 KCAL/MOL
REMARK 922        TOTAL FREE ENERGY PREDICTED BY IDOCK:   -7.21 KCAL/MOL
REMARK 923 INTER-LIGAND FREE ENERGY PREDICTED BY IDOCK:   -6.99 KCAL/MOL
REMARK 924 INTRA-LIGAND FREE ENERGY PREDICTED BY IDOCK:   -0.22 KCAL/MOL
REMARK 927      BINDING AFFINITY PREDICTED BY RF-SCORE:    0.00 PKD
ROOT
HETATM    1  C   UNL     1     -12.125  16.688  73.129  1.00  0.00    -0.362 C  
HETATM    2  C   UNL     1     -13.202  15.619  73.186  1.00  0.00    -0.674 C  
ENDROOT
BRANCH   2   3
HETATM    3  C   UNL     1     -13.529  15.098  71.790  1.00  0.00    -0.529 C  
BRANCH   3   4
HETATM    4  C   UNL     1     -12.653  13.902  71.441  1.00  0.00    -0.444 C  
BRANCH   4   5
HETATM    5  C   UNL     1     -11.953  14.120  70.106  1.00  0.00    -0.400 C  
BRANCH   5   6
HETATM    6  C   UNL     1     -11.802  12.802  69.362  1.00  0.00    -0.359 C  
BRANCH   6   7
HETATM    7  C   UNL     1     -12.086  12.996  67.881  1.00  0.00    -0.234 C  
BRANCH   7   8
HETATM    8  C   UNL     1     -10.802  12.878  67.076  1.00  0.00    -0.282 C  
BRANCH   8   9
HETATM    9  C   UNL     1     -11.057  13.287  65.636  1.00  0.00    -0.299 C  
BRANCH   9  10
HETATM   10  C   UNL     1     -11.907  12.245  64.929  1.00  0.00    -0.417 C  
BRANCH  10  11
HETATM   11  C   UNL     1     -11.295  10.865  65.111  1.00  0.00     0.383 C  
BRANCH  11  12
HETATM   12  C   UNL     1     -10.161  10.661  64.116  1.00  0.00    -0.402 C  
BRANCH  12  13
HETATM   13  C   UNL     1      -8.827  10.516  64.830  1.00  0.00    -0.207 C  
BRANCH  13  14
HETATM   14  C   UNL     1      -8.841   9.367  65.845  1.00  0.00    -0.193 C  
BRANCH  14  15
HETATM   15  C   UNL     1      -8.309   8.033  65.301  1.00  0.00    -0.151 C  
BRANCH  15  16
HETATM   16  C   UNL     1      -7.414   7.355  66.334  1.00  0.00    -0.084 C  
BRANCH  16  17
HETATM   17  N   UNL     1      -6.176   8.144  66.736  1.00  0.00    -0.053 N  
HETATM   18  C   UNL     1      -5.504   8.769  65.505  1.00  0.00    -0.038 C  
HETATM   19  C   UNL     1      -5.149   7.293  67.467  1.00  0.00    -0.020 C  
BRANCH  17  20
HETATM   20  C   UNL     1      -6.627   9.333  67.640  1.00  0.00    -0.064 C  
BRANCH  20  21
HETATM   21  C   UNL     1      -6.332   9.182  69.166  1.00  0.00    -0.042 C  
BRANCH  21  22
HETATM   22  N   UNL     1      -7.028   8.006  69.680  1.00  0.00    -0.048 NA 
BRANCH  22  23
HETATM   23  C   UNL     1      -6.368   7.123  70.651  1.00  0.00    -0.039 C  
BRANCH  23  24
HETATM   24  C   UNL     1      -7.311   6.104  71.260  1.00  0.00    -0.081 A  
HETATM   25  C   UNL     1      -7.873   6.331  72.522  1.00  0.00    -0.102 A  
HETATM   26  C   UNL     1      -8.853   4.109  72.532  1.00  0.00    -0.107 A  
HETATM   27  C   UNL     1      -8.380   3.907  71.238  1.00  0.00    -0.086 A  
HETATM   28  C   UNL     1      -7.611   4.898  70.606  1.00  0.00    -0.066 A  
HETATM   29  C   UNL     1      -8.625   5.338  73.152  1.00  0.00    -0.117 A  
BRANCH  26  30
HETATM   30  O   UNL     1      -9.487   3.194  73.323  1.00  0.00    -0.092 OA 
HETATM   31  C   UNL     1     -10.899   3.075  73.234  1.00  0.00    -0.180 C  
ENDBRANCH  26  30
ENDBRANCH  23  24
ENDBRANCH  22  23
BRANCH  22  32
HETATM   32  C   UNL     1      -8.390   8.166  69.883  1.00  0.00    -0.123 A  
HETATM   33  N   UNL     1      -8.805   9.007  70.847  1.00  0.00    -0.223 NA 
HETATM   34  N   UNL     1      -9.221   7.597  69.003  1.00  0.00    -0.141 NA 
HETATM   35  C   UNL     1     -10.533   7.882  69.115  1.00  0.00    -0.209 A  
HETATM   36  C   UNL     1     -10.140   9.215  70.961  1.00  0.00    -0.303 A  
HETATM   37  C   UNL     1     -11.058   8.682  70.097  1.00  0.00    -0.199 A  
ENDBRANCH  22  32
ENDBRANCH  21  22
ENDBRANCH  20  21
ENDBRANCH  17  20
ENDBRANCH  16  17
ENDBRANCH  15  16
ENDBRANCH  14  15
ENDBRANCH  13  14
ENDBRANCH  12  13
ENDBRANCH  11  12
ENDBRANCH  10  11
ENDBRANCH   9  10
ENDBRANCH   8   9
ENDBRANCH   7   8
ENDBRANCH   6   7
ENDBRANCH   5   6
ENDBRANCH   4   5
ENDBRANCH   3   4
ENDBRANCH   2   3
TORSDOF 22
ENDMDL
MODEL      268
REMARK 921   NORMALIZED FREE ENERGY PREDICTED BY IDOCK:   -1.00 KCAL/MOL
REMARK 922        TOTAL FREE ENERGY PREDICTED BY IDOCK:   -6.73 KCAL/MOL
REMARK 923 INTER-LIGAND FREE ENERGY PREDICTED BY IDOCK:   -4.99 KCAL/MOL
REMARK 924 INTRA-LIGAND FREE ENERGY PREDICTED BY IDOCK:   -1.74 KCAL/MOL
REMARK 927      BINDING AFFINITY PREDICTED BY RF-SCORE:    0.00 PKD
ROOT
HETATM    1  C   UNL     1     -12.375  12.865  69.195  1.00  0.00     0.090 C  
HETATM    2  C   UNL     1     -12.323  13.934  70.272  1.00  0.00    -0.413 C  
ENDROOT
BRANCH   2   3
HETATM    3  C   UNL     1     -11.638  15.196  69.757  1.00  0.00    -0.338 C  
BRANCH   3   4
HETATM    4  C   UNL     1     -10.270  14.869  69.173  1.00  0.00    -0.243 C  
BRANCH   4   5
HETATM    5  C   UNL     1      -9.442  16.136  69.001  1.00  0.00    -0.246 C  
BRANCH   5   6
HETATM    6  C   UNL     1     -10.089  17.061  67.981  1.00  0.00    -0.305 C  
BRANCH   6   7
HETATM    7  C   UNL     1      -9.205  18.271  67.730  1.00  0.00    -0.276 C  
BRANCH   7   8
HETATM    8  C   UNL     1      -8.163  17.955  66.670  1.00  0.00    -0.284 C  
BRANCH   8   9
HETATM    9  C   UNL     1      -7.689  16.520  66.825  1.00  0.00    -0.294 C  
BRANCH   9  10
HETATM   10  C   UNL     1      -6.377  16.472  67.589  1.00  0.00    -0.172 C  
BRANCH  10  11
HETATM   11  C   UNL     1      -5.583  15.241  67.181  1.00  0.00     0.560 C  
BRANCH  11  12
HETATM   12  C   UNL     1      -6.444  13.994  67.321  1.00  0.00     0.325 C  
BRANCH  12  13
HETATM   13  C   UNL     1      -6.704  13.671  68.782  1.00  0.00    -0.104 C  
BRANCH  13  14
HETATM   14  C   UNL     1      -5.485  13.028  69.455  1.00  0.00    -0.080 C  
BRANCH  14  15
HETATM   15  C   UNL     1      -5.829  11.936  70.479  1.00  0.00    -0.125 C  
BRANCH  15  16
HETATM   16  C   UNL     1      -5.170  10.616  70.091  1.00  0.00    -0.044 C  
BRANCH  16  17
HETATM   17  N   UNL     1      -6.087   9.609  69.412  1.00  0.00    -0.036 N  
HETATM   18  C   UNL     1      -6.823   8.752  70.452  1.00  0.00    -0.045 C  
HETATM   19  C   UNL     1      -5.341   8.682  68.463  1.00  0.00    -0.037 C  
BRANCH  17  20
HETATM   20  C   UNL     1      -7.186  10.397  68.634  1.00  0.00    -0.082 C  
BRANCH  20  21
HETATM   21  C   UNL     1      -7.198  10.205  67.085  1.00  0.00    -0.090 C  
BRANCH  21  22
HETATM   22  N   UNL     1      -8.459   9.589  66.682  1.00  0.00    -0.132 NA 
BRANCH  22  23
HETATM   23  C   UNL     1      -9.201   8.742  67.625  1.00  0.00    -0.134 C  
BRANCH  23  24
HETATM   24  C   UNL     1      -9.023   7.261  67.356  1.00  0.00    -0.122 A  
HETATM   25  C   UNL     1      -8.924   6.359  68.422  1.00  0.00    -0.120 A  
HETATM   26  C   UNL     1      -8.423   4.540  66.892  1.00  0.00    -0.105 A  
HETATM   27  C   UNL     1      -8.613   5.407  65.818  1.00  0.00    -0.139 A  
HETATM   28  C   UNL     1      -8.909   6.760  66.049  1.00  0.00    -0.150 A  
HETATM   29  C   UNL     1      -8.616   5.017  68.189  1.00  0.00    -0.102 A  
BRANCH  26  30
HETATM   30  O   UNL     1      -7.997   3.245  66.831  1.00  0.00    -0.079 OA 
HETATM   31  C   UNL     1      -8.966   2.208  66.769  1.00  0.00    -0.114 C  
ENDBRANCH  26  30
ENDBRANCH  23  24
ENDBRANCH  22  23
BRANCH  22  32
HETATM   32  C   UNL     1      -9.257  10.360  65.852  1.00  0.00    -0.170 A  
HETATM   33  N   UNL     1     -10.072  11.275  66.407  1.00  0.00    -0.213 NA 
HETATM   34  N   UNL     1      -9.059  10.266  64.533  1.00  0.00    -0.212 NA 
HETATM   35  C   UNL     1      -9.727  11.126  63.741  1.00  0.00    -0.301 A  
HETATM   36  C   UNL     1     -10.771  12.078  65.569  1.00  0.00    -0.276 A  
HETATM   37  C   UNL     1     -10.620  12.056  64.209  1.00  0.00    -0.377 A  
ENDBRANCH  22  32
ENDBRANCH  21  22
ENDBRANCH  20  21
ENDBRANCH  17  20
ENDBRANCH  16  17
ENDBRANCH  15  16
ENDBRANCH  14  15
ENDBRANCH  13  14
ENDBRANCH  12  13
ENDBRANCH  11  12
ENDBRANCH  10  11
ENDBRANCH   9  10
ENDBRANCH   8   9
ENDBRANCH   7   8
ENDBRANCH   6   7
ENDBRANCH   5   6
ENDBRANCH   4   5
ENDBRANCH   3   4
ENDBRANCH   2   3
TORSDOF 22
ENDMDL
MODEL      269
REMARK 921   NORMALIZED FREE ENERGY PREDICTED BY IDOCK:   -0.98 KCAL/MOL
REMARK 922        TOTAL FREE ENERGY PREDICTED BY IDOCK:   -6.69 KCAL/MOL
REMARK 923 INTER-LIGAND FREE ENERGY PREDICTED BY IDOCK:   -5.90 KCAL/MOL
REMARK 924 INTRA-LIGAND FREE ENERGY PREDICTED BY IDOCK:   -0.79 KCAL/MOL
REMARK 927      BINDING AFFINITY PREDICTED BY RF-SCORE:    0.00 PKD
ROOT
HETATM    1  C   UNL     1      -7.463  17.923  66.658  1.00  0.00    -0.262 C  
HETATM    2  C   UNL     1      -8.817  18.407  66.170  1.00  0.00    -0.117 C  
ENDROOT
BRANCH   2   3
HETATM    3  C   UNL     1      -9.949  17.667  66.875  1.00  0.00    -0.323 C  
BRANCH   3   4
HETATM    4  C   UNL     1     -10.286  16.372  66.145  1.00  0.00    -0.363 C  
BRANCH   4   5
HETATM    5  C   UNL     1     -11.123  15.458  67.030  1.00  0.00    -0.273 C  
BRANCH   5   6
HETATM    6  C   UNL     1     -10.311  14.986  68.227  1.00  0.00    -0.236 C  
BRANCH   6   7
HETATM    7  C   UNL     1      -9.073  14.237  67.762  1.00  0.00    -0.195 C  
BRANCH   7   8
HETATM    8  C   UNL     1      -7.841  14.746  68.492  1.00  0.00    -0.130 C  
BRANCH   8   9
HETATM    9  C   UNL     1      -6.604  14.508  67.642  1.00  0.00    -0.174 C  
BRANCH   9  10
HETATM   10  C   UNL     1      -6.447  13.029  67.333  1.00  0.00    -0.107 C  
BRANCH  10  11
HETATM   11  C   UNL     1      -6.234  12.249  68.621  1.00  0.00    -0.067 C  
BRANCH  11  12
HETATM   12  C   UNL     1      -5.127  11.221  68.432  1.00  0.00    -0.039 C  
BRANCH  12  13
HETATM   13  C   UNL     1      -5.537  10.155  67.431  1.00  0.00    -0.041 C  
BRANCH  13  14
HETATM   14  C   UNL     1      -6.917   9.567  67.748  1.00  0.00    -0.080 C  
BRANCH  14  15
HETATM   15  C   UNL     1      -7.135   8.141  67.221  1.00  0.00    -0.079 C  
BRANCH  15  16
HETATM   16  C   UNL     1      -8.396   8.077  66.365  1.00  0.00    -0.124 C  
BRANCH  16  17
HETATM   17  N   UNL     1      -9.696   8.361  67.104  1.00  0.00    -0.173 N  
HETATM   18  C   UNL     1     -10.806   7.405  66.643  1.00  0.00     0.214 C  
HETATM   19  C   UNL     1     -10.180   9.791  66.913  1.00  0.00    -0.245 C  
BRANCH  17  20
HETATM   20  C   UNL     1      -9.469   8.073  68.620  1.00  0.00    -0.147 C  
BRANCH  20  21
HETATM   21  C   UNL     1     -10.707   8.276  69.549  1.00  0.00    -0.174 C  
BRANCH  21  22
HETATM   22  N   UNL     1     -10.937   7.061  70.325  1.00  0.00    -0.260 NA 
BRANCH  22  23
HETATM   23  C   UNL     1     -11.011   5.758  69.651  1.00  0.00    -0.315 C  
BRANCH  23  24
HETATM   24  C   UNL     1      -9.802   4.883  69.920  1.00  0.00    -0.295 A  
HETATM   25  C   UNL     1      -9.819   3.963  70.976  1.00  0.00    -0.219 A  
HETATM   26  C   UNL     1      -7.477   3.435  70.609  1.00  0.00    -0.040 A  
HETATM   27  C   UNL     1      -7.474   4.275  69.497  1.00  0.00    -0.054 A  
HETATM   28  C   UNL     1      -8.629   4.997  69.156  1.00  0.00    -0.098 A  
HETATM   29  C   UNL     1      -8.664   3.259  71.320  1.00  0.00    -0.123 A  
BRANCH  26  30
HETATM   30  O   UNL     1      -6.403   2.785  71.144  1.00  0.00    -0.018 OA 
HETATM   31  C   UNL     1      -6.634   1.674  71.999  1.00  0.00    -0.015 C  
ENDBRANCH  26  30
ENDBRANCH  23  24
ENDBRANCH  22  23
BRANCH  22  32
HETATM   32  C   UNL     1     -10.330   7.029  71.570  1.00  0.00    -0.203 A  
HETATM   33  N   UNL     1      -9.094   7.546  71.700  1.00  0.00    -0.133 NA 
HETATM   34  N   UNL     1     -11.067   6.631  72.613  1.00  0.00    -0.252 NA 
HETATM   35  C   UNL     1     -10.523   6.749  73.839  1.00  0.00    -0.327 A  
HETATM   36  C   UNL     1      -8.563   7.586  72.946  1.00  0.00    -0.130 A  
HETATM   37  C   UNL     1      -9.252   7.210  74.068  1.00  0.00    -0.281 A  
ENDBRANCH  22  32
ENDBRANCH  21  22
ENDBRANCH  20  21
ENDBRANCH  17  20
ENDBRANCH  16  17
ENDBRANCH  15  16
ENDBRANCH  14  15
ENDBRANCH  13  14
ENDBRANCH  12  13
ENDBRANCH  11  12
ENDBRANCH  10  11
ENDBRANCH   9  10
ENDBRANCH   8   9
ENDBRANCH   7   8
ENDBRANCH   6   7
ENDBRANCH   5   6
ENDBRANCH   4   5
ENDBRANCH   3   4
ENDBRANCH   2   3
TORSDOF 22
ENDMDL
MODEL      270
REMARK 921   NORMALIZED FREE ENERGY PREDICTED BY IDOCK:   -0.97 KCAL/MOL
REMARK 922        TOTAL FREE ENERGY PREDICTED BY IDOCK:   -6.67 KCAL/MOL
REMARK 923 INTER-LIGAND FREE ENERGY PREDICTED BY IDOCK:   -6.29 KCAL/MOL
REMARK 924 INTRA-LIGAND FREE ENERGY PREDICTED BY IDOCK:   -0.39 KCAL/MOL
REMARK 927      BINDING AFFINITY PREDICTED BY RF-SCORE:    0.00 PKD
ROOT
HETATM    1  C   UNL     1     -13.692   8.287  72.367  1.00  0.00    -0.193 C  
HETATM    2  C   UNL     1     -12.283   8.014  71.871  1.00  0.00    -0.359 C  
ENDROOT
BRANCH   2   3
HETATM    3  C   UNL     1     -12.247   7.917  70.349  1.00  0.00     0.312 C  
BRANCH   3   4
HETATM    4  C   UNL     1     -10.832   8.124  69.827  1.00  0.00    -0.190 C  
BRANCH   4   5
HETATM    5  C   UNL     1     -10.436   6.997  68.882  1.00  0.00    -0.217 C  
BRANCH   5   6
HETATM    6  C   UNL     1     -10.789   5.647  69.488  1.00  0.00    -0.345 C  
BRANCH   6   7
HETATM    7  C   UNL     1      -9.554   5.002  70.095  1.00  0.00    -0.257 C  
BRANCH   7   8
HETATM    8  C   UNL     1      -9.952   3.875  71.034  1.00  0.00    -0.149 C  
BRANCH   8   9
HETATM    9  C   UNL     1     -10.238   4.433  72.417  1.00  0.00    -0.255 C  
BRANCH   9  10
HETATM   10  C   UNL     1      -9.676   5.838  72.551  1.00  0.00    -0.175 C  
BRANCH  10  11
HETATM   11  C   UNL     1      -9.468   6.177  74.019  1.00  0.00    -0.163 C  
BRANCH  11  12
HETATM   12  C   UNL     1      -8.086   5.725  74.469  1.00  0.00    -0.106 C  
BRANCH  12  13
HETATM   13  C   UNL     1      -7.082   6.861  74.376  1.00  0.00    -0.091 C  
BRANCH  13  14
HETATM   14  C   UNL     1      -7.393   7.809  73.212  1.00  0.00    -0.131 C  
BRANCH  14  15
HETATM   15  C   UNL     1      -6.472   7.642  71.994  1.00  0.00    -0.043 C  
BRANCH  15  16
HETATM   16  C   UNL     1      -7.281   7.708  70.702  1.00  0.00    -0.062 C  
BRANCH  16  17
HETATM   17  N   UNL     1      -6.458   7.687  69.421  1.00  0.00    -0.035 N  
HETATM   18  C   UNL     1      -7.261   7.071  68.267  1.00  0.00    -0.091 C  
HETATM   19  C   UNL     1      -5.157   6.912  69.572  1.00  0.00    -0.014 C  
BRANCH  17  20
HETATM   20  C   UNL     1      -6.157   9.161  69.010  1.00  0.00    -0.043 C  
BRANCH  20  21
HETATM   21  C   UNL     1      -7.235  10.217  69.410  1.00  0.00    -0.104 C  
BRANCH  21  22
HETATM   22  N   UNL     1      -7.874  10.737  68.205  1.00  0.00    -0.108 NA 
BRANCH  22  23
HETATM   23  C   UNL     1      -9.109  10.123  67.700  1.00  0.00    -0.137 C  
BRANCH  23  24
HETATM   24  C   UNL     1      -9.775  10.940  66.610  1.00  0.00    -0.222 A  
HETATM   25  C   UNL     1     -10.787  11.852  66.933  1.00  0.00    -0.305 A  
HETATM   26  C   UNL     1     -11.213  12.277  64.580  1.00  0.00    -0.326 A  
HETATM   27  C   UNL     1     -10.145  11.445  64.249  1.00  0.00    -0.347 A  
HETATM   28  C   UNL     1      -9.431  10.779  65.258  1.00  0.00    -0.263 A  
HETATM   29  C   UNL     1     -11.503  12.501  65.926  1.00  0.00    -0.417 A  
BRANCH  26  30
HETATM   30  O   UNL     1     -12.082  12.875  63.714  1.00  0.00    -0.444 OA 
HETATM   31  C   UNL     1     -12.535  14.190  64.000  1.00  0.00    -0.163 C  
ENDBRANCH  26  30
ENDBRANCH  23  24
ENDBRANCH  22  23
BRANCH  22  32
HETATM   32  C   UNL     1      -7.812  12.113  68.047  1.00  0.00    -0.145 A  
HETATM   33  N   UNL     1      -8.838  12.861  68.492  1.00  0.00    -0.104 NA 
HETATM   34  N   UNL     1      -6.664  12.638  67.606  1.00  0.00    -0.128 NA 
HETATM   35  C   UNL     1      -6.557  13.981  67.601  1.00  0.00    -0.159 A  
HETATM   36  C   UNL     1      -8.709  14.207  68.410  1.00  0.00    -0.178 A  
HETATM   37  C   UNL     1      -7.567  14.827  67.982  1.00  0.00    -0.130 A  
ENDBRANCH  22  32
ENDBRANCH  21  22
ENDBRANCH  20  21
ENDBRANCH  17  20
ENDBRANCH  16  17
ENDBRANCH  15  16
ENDBRANCH  14  15
ENDBRANCH  13  14
ENDBRANCH  12  13
ENDBRANCH  11  12
ENDBRANCH  10  11
ENDBRANCH   9  10
ENDBRANCH   8   9
ENDBRANCH   7   8
ENDBRANCH   6   7
ENDBRANCH   5   6
ENDBRANCH   4   5
ENDBRANCH   3   4
ENDBRANCH   2   3
TORSDOF 22
ENDMDL
MODEL      271
REMARK 921   NORMALIZED FREE ENERGY PREDICTED BY IDOCK:   -0.54 KCAL/MOL
REMARK 922        TOTAL FREE ENERGY PREDICTED BY IDOCK:   -5.70 KCAL/MOL
REMARK 923 INTER-LIGAND FREE ENERGY PREDICTED BY IDOCK:   -5.50 KCAL/MOL
REMARK 924 INTRA-LIGAND FREE ENERGY PREDICTED BY IDOCK:   -0.19 KCAL/MOL
REMARK 927      BINDING AFFINITY PREDICTED BY RF-SCORE:    0.00 PKD
ROOT
HETATM    1  C   UNL     1      -6.145  15.082  67.325  1.00  0.00     0.304 C  
HETATM    2  C   UNL     1      -7.497  15.475  67.892  1.00  0.00    -0.150 C  
ENDROOT
BRANCH   2   3
HETATM    3  C   UNL     1      -8.299  16.287  66.881  1.00  0.00    -0.267 C  
BRANCH   3   4
HETATM    4  C   UNL     1      -9.778  16.295  67.245  1.00  0.00    -0.237 C  
BRANCH   4   5
HETATM    5  C   UNL     1     -10.070  15.269  68.333  1.00  0.00    -0.220 C  
BRANCH   5   6
HETATM    6  C   UNL     1     -10.451  13.932  67.715  1.00  0.00    -0.243 C  
BRANCH   6   7
HETATM    7  C   UNL     1     -10.335  14.000  66.200  1.00  0.00    -0.301 C  
BRANCH   7   8
HETATM    8  C   UNL     1     -11.590  13.441  65.549  1.00  0.00    -0.346 C  
BRANCH   8   9
HETATM    9  C   UNL     1     -12.191  12.359  66.430  1.00  0.00    -0.012 C  
BRANCH   9  10
HETATM   10  C   UNL     1     -11.098  11.477  67.008  1.00  0.00    -0.365 C  
BRANCH  10  11
HETATM   11  C   UNL     1     -11.650  10.657  68.165  1.00  0.00    -0.217 C  
BRANCH  11  12
HETATM   12  C   UNL     1     -11.572  11.458  69.457  1.00  0.00    -0.399 C  
BRANCH  12  13
HETATM   13  C   UNL     1     -11.132  10.582  70.617  1.00  0.00    -0.186 C  
BRANCH  13  14
HETATM   14  C   UNL     1     -11.844   9.224  70.614  1.00  0.00    -0.246 C  
BRANCH  14  15
HETATM   15  C   UNL     1     -11.013   8.074  70.024  1.00  0.00    -0.202 C  
BRANCH  15  16
HETATM   16  C   UNL     1     -10.720   7.026  71.092  1.00  0.00    -0.230 C  
BRANCH  16  17
HETATM   17  N   UNL     1      -9.349   7.132  71.745  1.00  0.00    -0.147 N  
HETATM   18  C   UNL     1      -9.345   6.450  73.120  1.00  0.00    -0.134 C  
HETATM   19  C   UNL     1      -8.892   8.573  71.920  1.00  0.00    -0.216 C  
BRANCH  17  20
HETATM   20  C   UNL     1      -8.326   6.350  70.864  1.00  0.00    -0.126 C  
BRANCH  20  21
HETATM   21  C   UNL     1      -7.554   7.193  69.801  1.00  0.00    -0.103 C  
BRANCH  21  22
HETATM   22  N   UNL     1      -8.365   7.310  68.592  1.00  0.00    -0.125 NA 
BRANCH  22  23
HETATM   23  C   UNL     1      -8.442   8.590  67.876  1.00  0.00    -0.130 C  
BRANCH  23  24
HETATM   24  C   UNL     1      -7.561   9.663  68.485  1.00  0.00    -0.080 A  
HETATM   25  C   UNL     1      -8.113  10.887  68.879  1.00  0.00    -0.144 A  
HETATM   26  C   UNL     1      -5.905  11.773  69.370  1.00  0.00    -0.074 A  
HETATM   27  C   UNL     1      -5.353  10.529  69.072  1.00  0.00    -0.041 A  
HETATM   28  C   UNL     1      -6.175   9.481  68.629  1.00  0.00    -0.044 A  
HETATM   29  C   UNL     1      -7.290  11.931  69.305  1.00  0.00     0.094 A  
BRANCH  26  30
HETATM   30  O   UNL     1      -5.226  12.917  69.673  1.00  0.00    -0.072 OA 
HETATM   31  C   UNL     1      -5.701  13.733  70.734  1.00  0.00    -0.199 C  
ENDBRANCH  26  30
ENDBRANCH  23  24
ENDBRANCH  22  23
BRANCH  22  32
HETATM   32  C   UNL     1      -8.372   6.192  67.773  1.00  0.00    -0.116 A  
HETATM   33  N   UNL     1      -7.344   6.005  66.926  1.00  0.00    -0.075 NA 
HETATM   34  N   UNL     1      -9.322   5.273  67.981  1.00  0.00    -0.113 NA 
HETATM   35  C   UNL     1      -9.233   4.122  67.289  1.00  0.00    -0.158 A  
HETATM   36  C   UNL     1      -7.331   4.858  66.205  1.00  0.00    -0.078 A  
HETATM   37  C   UNL     1      -8.256   3.862  66.363  1.00  0.00    -0.104 A  
ENDBRANCH  22  32
ENDBRANCH  21  22
ENDBRANCH  20  21
ENDBRANCH  17  20
ENDBRANCH  16  17
ENDBRANCH  15  16
ENDBRANCH  14  15
ENDBRANCH  13  14
ENDBRANCH  12  13
ENDBRANCH  11  12
ENDBRANCH  10  11
ENDBRANCH   9  10
ENDBRANCH   8   9
ENDBRANCH   7   8
ENDBRANCH   6   7
ENDBRANCH   5   6
ENDBRANCH   4   5
ENDBRANCH   3   4
ENDBRANCH   2   3
TORSDOF 22
ENDMDL
MODEL      272
REMARK 921   NORMALIZED FREE ENERGY PREDICTED BY IDOCK:   -0.53 KCAL/MOL
REMARK 922        TOTAL FREE ENERGY PREDICTED BY IDOCK:   -5.66 KCAL/MOL
REMARK 923 INTER-LIGAND FREE ENERGY PREDICTED BY IDOCK:   -4.58 KCAL/MOL
REMARK 924 INTRA-LIGAND FREE ENERGY PREDICTED BY IDOCK:   -1.08 KCAL/MOL
REMARK 927      BINDING AFFINITY PREDICTED BY RF-SCORE:    0.00 PKD
ROOT
HETATM    1  C   UNL     1     -12.695  14.792  65.568  1.00  0.00     0.082 C  
HETATM    2  C   UNL     1     -12.230  14.301  66.927  1.00  0.00    -0.366 C  
ENDROOT
BRANCH   2   3
HETATM    3  C   UNL     1     -11.508  12.962  66.807  1.00  0.00    -0.391 C  
BRANCH   3   4
HETATM    4  C   UNL     1     -10.038  13.170  66.466  1.00  0.00    -0.280 C  
BRANCH   4   5
HETATM    5  C   UNL     1      -9.499  11.988  65.669  1.00  0.00    -0.150 C  
BRANCH   5   6
HETATM    6  C   UNL     1     -10.070  10.682  66.203  1.00  0.00    -0.306 C  
BRANCH   6   7
HETATM    7  C   UNL     1      -9.115  10.061  67.209  1.00  0.00    -0.152 C  
BRANCH   7   8
HETATM    8  C   UNL     1      -8.759  11.068  68.291  1.00  0.00    -0.144 C  
BRANCH   8   9
HETATM    9  C   UNL     1      -7.870  10.411  69.334  1.00  0.00    -0.163 C  
BRANCH   9  10
HETATM   10  C   UNL     1      -6.774  11.365  69.776  1.00  0.00    -0.076 C  
BRANCH  10  11
HETATM   11  C   UNL     1      -5.410  10.727  69.556  1.00  0.00    -0.038 C  
BRANCH  11  12
HETATM   12  C   UNL     1      -5.575   9.326  68.985  1.00  0.00    -0.036 C  
BRANCH  12  13
HETATM   13  C   UNL     1      -6.300   8.419  69.964  1.00  0.00    -0.035 C  
BRANCH  13  14
HETATM   14  C   UNL     1      -6.131   6.937  69.608  1.00  0.00    -0.033 C  
BRANCH  14  15
HETATM   15  C   UNL     1      -6.761   6.531  68.267  1.00  0.00    -0.068 C  
BRANCH  15  16
HETATM   16  C   UNL     1      -7.417   5.159  68.380  1.00  0.00    -0.075 C  
BRANCH  16  17
HETATM   17  N   UNL     1      -8.897   5.176  68.735  1.00  0.00    -0.093 N  
HETATM   18  C   UNL     1      -9.308   6.545  69.294  1.00  0.00    -0.141 C  
HETATM   19  C   UNL     1      -9.269   4.107  69.753  1.00  0.00    -0.143 C  
BRANCH  17  20
HETATM   20  C   UNL     1      -9.717   4.972  67.423  1.00  0.00    -0.158 C  
BRANCH  20  21
HETATM   21  C   UNL     1      -9.466   3.634  66.661  1.00  0.00    -0.176 C  
BRANCH  21  22
HETATM   22  N   UNL     1      -8.826   3.918  65.380  1.00  0.00    -0.119 NA 
BRANCH  22  23
HETATM   23  C   UNL     1      -7.389   4.219  65.323  1.00  0.00    -0.072 C  
BRANCH  23  24
HETATM   24  C   UNL     1      -7.090   5.556  64.674  1.00  0.00    -0.054 A  
HETATM   25  C   UNL     1      -8.054   6.572  64.677  1.00  0.00    -0.092 A  
HETATM   26  C   UNL     1      -6.663   7.954  63.243  1.00  0.00    -0.075 A  
HETATM   27  C   UNL     1      -5.657   6.992  63.312  1.00  0.00    -0.036 A  
HETATM   28  C   UNL     1      -5.871   5.798  64.021  1.00  0.00    -0.024 A  
HETATM   29  C   UNL     1      -7.844   7.750  63.958  1.00  0.00    -0.127 A  
BRANCH  26  30
HETATM   30  O   UNL     1      -6.658   9.088  62.485  1.00  0.00    -0.095 OA 
HETATM   31  C   UNL     1      -7.709  10.029  62.655  1.00  0.00    -0.131 C  
ENDBRANCH  26  30
ENDBRANCH  23  24
ENDBRANCH  22  23
BRANCH  22  32
HETATM   32  C   UNL     1      -9.301   3.186  64.304  1.00  0.00    -0.137 A  
HETATM   33  N   UNL     1      -8.481   2.296  63.715  1.00  0.00    -0.084 NA 
HETATM   34  N   UNL     1     -10.602   3.285  64.008  1.00  0.00    -0.199 NA 
HETATM   35  C   UNL     1     -11.089   2.458  63.064  1.00  0.00    -0.217 A  
HETATM   36  C   UNL     1      -9.001   1.528  62.727  1.00  0.00    -0.075 A  
HETATM   37  C   UNL     1     -10.322   1.558  62.369  1.00  0.00    -0.095 A  
ENDBRANCH  22  32
ENDBRANCH  21  22
ENDBRANCH  20  21
ENDBRANCH  17  20
ENDBRANCH  16  17
ENDBRANCH  15  16
ENDBRANCH  14  15
ENDBRANCH  13  14
ENDBRANCH  12  13
ENDBRANCH  11  12
ENDBRANCH  10  11
ENDBRANCH   9  10
ENDBRANCH   8   9
ENDBRANCH   7   8
ENDBRANCH   6   7
ENDBRANCH   5   6
ENDBRANCH   4   5
ENDBRANCH   3   4
ENDBRANCH   2   3
TORSDOF 22
ENDMDL
MODEL      273
REMARK 921   NORMALIZED FREE ENERGY PREDICTED BY IDOCK:   -0.46 KCAL/MOL
REMARK 922        TOTAL FREE ENERGY PREDICTED BY IDOCK:   -5.51 KCAL/MOL
REMARK 923 INTER-LIGAND FREE ENERGY PREDICTED BY IDOCK:   -6.43 KCAL/MOL
REMARK 924 INTRA-LIGAND FREE ENERGY PREDICTED BY IDOCK:    0.92 KCAL/MOL
REMARK 927      BINDING AFFINITY PREDICTED BY RF-SCORE:    0.00 PKD
ROOT
HETATM    1  C   UNL     1      -8.841  15.679  65.877  1.00  0.00    -0.060 C  
HETATM    2  C   UNL     1      -9.810  14.918  66.765  1.00  0.00    -0.254 C  
ENDROOT
BRANCH   2   3
HETATM    3  C   UNL     1     -11.203  14.878  66.145  1.00  0.00    -0.325 C  
BRANCH   3   4
HETATM    4  C   UNL     1     -11.118  14.831  64.625  1.00  0.00    -0.337 C  
BRANCH   4   5
HETATM    5  C   UNL     1     -10.563  13.491  64.159  1.00  0.00    -0.179 C  
BRANCH   5   6
HETATM    6  C   UNL     1     -10.296  12.583  65.350  1.00  0.00    -0.305 C  
BRANCH   6   7
HETATM    7  C   UNL     1     -10.424  11.124  64.941  1.00  0.00    -0.372 C  
BRANCH   7   8
HETATM    8  C   UNL     1     -10.220  10.217  66.144  1.00  0.00    -0.285 C  
BRANCH   8   9
HETATM    9  C   UNL     1     -10.942  10.791  67.351  1.00  0.00    -0.361 C  
BRANCH   9  10
HETATM   10  C   UNL     1     -10.092  10.641  68.600  1.00  0.00    -0.194 C  
BRANCH  10  11
HETATM   11  C   UNL     1     -10.775  11.318  69.778  1.00  0.00     0.007 C  
BRANCH  11  12
HETATM   12  C   UNL     1     -12.246  11.553  69.464  1.00  0.00    -0.287 C  
BRANCH  12  13
HETATM   13  C   UNL     1     -13.137  10.692  70.345  1.00  0.00    -0.099 C  
BRANCH  13  14
HETATM   14  C   UNL     1     -12.632  10.635  71.791  1.00  0.00    -0.411 C  
BRANCH  14  15
HETATM   15  C   UNL     1     -12.854   9.283  72.487  1.00  0.00    -0.351 C  
BRANCH  15  16
HETATM   16  C   UNL     1     -12.766   8.143  71.477  1.00  0.00    -0.308 C  
BRANCH  16  17
HETATM   17  N   UNL     1     -11.454   7.371  71.485  1.00  0.00    -0.256 N  
HETATM   18  C   UNL     1     -10.782   7.423  70.106  1.00  0.00    -0.242 C  
HETATM   19  C   UNL     1     -11.635   5.912  71.880  1.00  0.00    -0.192 C  
BRANCH  17  20
HETATM   20  C   UNL     1     -10.478   8.076  72.477  1.00  0.00    -0.316 C  
BRANCH  20  21
HETATM   21  C   UNL     1      -9.176   8.667  71.852  1.00  0.00    -0.275 C  
BRANCH  21  22
HETATM   22  N   UNL     1      -8.298   7.577  71.439  1.00  0.00    -0.106 NA 
BRANCH  22  23
HETATM   23  C   UNL     1      -7.898   7.444  70.032  1.00  0.00    -0.104 C  
BRANCH  23  24
HETATM   24  C   UNL     1      -7.588   6.013  69.637  1.00  0.00    -0.089 A  
HETATM   25  C   UNL     1      -6.259   5.580  69.545  1.00  0.00    -0.029 A  
HETATM   26  C   UNL     1      -6.975   3.440  68.648  1.00  0.00    -0.049 A  
HETATM   27  C   UNL     1      -8.303   3.823  68.825  1.00  0.00    -0.088 A  
HETATM   28  C   UNL     1      -8.608   5.104  69.314  1.00  0.00    -0.100 A  
HETATM   29  C   UNL     1      -5.961   4.312  69.045  1.00  0.00    -0.023 A  
BRANCH  26  30
HETATM   30  O   UNL     1      -6.527   2.295  68.056  1.00  0.00    -0.028 OA 
HETATM   31  C   UNL     1      -6.709   2.132  66.657  1.00  0.00    -0.039 C  
ENDBRANCH  26  30
ENDBRANCH  23  24
ENDBRANCH  22  23
BRANCH  22  32
HETATM   32  C   UNL     1      -7.314   7.230  72.351  1.00  0.00    -0.075 A  
HETATM   33  N   UNL     1      -6.998   5.931  72.497  1.00  0.00    -0.078 NA 
HETATM   34  N   UNL     1      -6.616   8.219  72.921  1.00  0.00    -0.092 NA 
HETATM   35  C   UNL     1      -5.562   7.875  73.685  1.00  0.00    -0.050 A  
HETATM   36  C   UNL     1      -5.968   5.629  73.325  1.00  0.00    -0.040 A  
HETATM   37  C   UNL     1      -5.196   6.578  73.939  1.00  0.00    -0.041 A  
ENDBRANCH  22  32
ENDBRANCH  21  22
ENDBRANCH  20  21
ENDBRANCH  17  20
ENDBRANCH  16  17
ENDBRANCH  15  16
ENDBRANCH  14  15
ENDBRANCH  13  14
ENDBRANCH  12  13
ENDBRANCH  11  12
ENDBRANCH  10  11
ENDBRANCH   9  10
ENDBRANCH   8   9
ENDBRANCH   7   8
ENDBRANCH   6   7
ENDBRANCH   5   6
ENDBRANCH   4   5
ENDBRANCH   3   4
ENDBRANCH   2   3
TORSDOF 22
ENDMDL
MODEL      274
REMARK 921   NORMALIZED FREE ENERGY PREDICTED BY IDOCK:   -0.41 KCAL/MOL
REMARK 922        TOTAL FREE ENERGY PREDICTED BY IDOCK:   -5.39 KCAL/MOL
REMARK 923 INTER-LIGAND FREE ENERGY PREDICTED BY IDOCK:   -6.04 KCAL/MOL
REMARK 924 INTRA-LIGAND FREE ENERGY PREDICTED BY IDOCK:    0.64 KCAL/MOL
REMARK 927      BINDING AFFINITY PREDICTED BY RF-SCORE:    0.00 PKD
ROOT
HETATM    1  C   UNL     1      -8.585  15.526  68.858  1.00  0.00    -0.209 C  
HETATM    2  C   UNL     1      -8.501  14.219  68.090  1.00  0.00    -0.167 C  
ENDROOT
BRANCH   2   3
HETATM    3  C   UNL     1      -7.321  14.225  67.125  1.00  0.00     0.119 C  
BRANCH   3   4
HETATM    4  C   UNL     1      -6.061  13.710  67.809  1.00  0.00    -0.143 C  
BRANCH   4   5
HETATM    5  C   UNL     1      -5.670  14.615  68.970  1.00  0.00    -0.084 C  
BRANCH   5   6
HETATM    6  C   UNL     1      -5.187  15.963  68.455  1.00  0.00    -0.103 C  
BRANCH   6   7
HETATM    7  C   UNL     1      -5.941  16.346  67.192  1.00  0.00    -0.166 C  
BRANCH   7   8
HETATM    8  C   UNL     1      -5.730  17.818  66.875  1.00  0.00    -0.177 C  
BRANCH   8   9
HETATM    9  C   UNL     1      -6.450  18.176  65.586  1.00  0.00    -0.287 C  
BRANCH   9  10
HETATM   10  C   UNL     1      -7.918  18.458  65.856  1.00  0.00    -0.040 C  
BRANCH  10  11
HETATM   11  C   UNL     1      -8.674  17.150  66.033  1.00  0.00    -0.141 C  
BRANCH  11  12
HETATM   12  C   UNL     1     -10.138  17.431  66.338  1.00  0.00    -0.330 C  
BRANCH  12  13
HETATM   13  C   UNL     1     -11.010  17.164  65.122  1.00  0.00     0.044 C  
BRANCH  13  14
HETATM   14  C   UNL     1     -10.914  15.708  64.654  1.00  0.00    -0.344 C  
BRANCH  14  15
HETATM   15  C   UNL     1     -11.650  14.703  65.554  1.00  0.00    -0.335 C  
BRANCH  15  16
HETATM   16  C   UNL     1     -10.802  13.450  65.758  1.00  0.00    -0.275 C  
BRANCH  16  17
HETATM   17  N   UNL     1     -11.029  12.343  64.739  1.00  0.00    -0.290 N  
HETATM   18  C   UNL     1     -10.188  12.582  63.477  1.00  0.00    -0.193 C  
HETATM   19  C   UNL     1     -12.488  12.211  64.330  1.00  0.00    -0.363 C  
BRANCH  17  20
HETATM   20  C   UNL     1     -10.524  11.001  65.355  1.00  0.00    -0.241 C  
BRANCH  20  21
HETATM   21  C   UNL     1      -9.177  10.452  64.789  1.00  0.00    -0.230 C  
BRANCH  21  22
HETATM   22  N   UNL     1      -8.672   9.403  65.669  1.00  0.00    -0.144 NA 
BRANCH  22  23
HETATM   23  C   UNL     1      -8.071   8.188  65.102  1.00  0.00    -0.139 C  
BRANCH  23  24
HETATM   24  C   UNL     1      -8.482   6.926  65.835  1.00  0.00    -0.147 A  
HETATM   25  C   UNL     1      -7.631   5.815  65.856  1.00  0.00    -0.086 A  
HETATM   26  C   UNL     1      -9.333   4.480  66.960  1.00  0.00    -0.146 A  
HETATM   27  C   UNL     1     -10.153   5.604  67.032  1.00  0.00    -0.223 A  
HETATM   28  C   UNL     1      -9.731   6.820  66.470  1.00  0.00    -0.183 A  
HETATM   29  C   UNL     1      -8.060   4.604  66.402  1.00  0.00    -0.103 A  
BRANCH  26  30
HETATM   30  O   UNL     1      -9.659   3.207  67.330  1.00  0.00    -0.174 OA 
HETATM   31  C   UNL     1      -8.838   2.136  66.887  1.00  0.00    -0.133 C  
ENDBRANCH  26  30
ENDBRANCH  23  24
ENDBRANCH  22  23
BRANCH  22  32
HETATM   32  C   UNL     1      -8.075   9.846  66.838  1.00  0.00    -0.113 A  
HETATM   33  N   UNL     1      -8.811  10.560  67.709  1.00  0.00    -0.125 NA 
HETATM   34  N   UNL     1      -6.843   9.404  67.115  1.00  0.00    -0.083 NA 
HETATM   35  C   UNL     1      -6.330   9.713  68.321  1.00  0.00    -0.056 A  
HETATM   36  C   UNL     1      -8.230  10.899  68.885  1.00  0.00    -0.141 A  
HETATM   37  C   UNL     1      -6.979  10.481  69.253  1.00  0.00    -0.086 A  
ENDBRANCH  22  32
ENDBRANCH  21  22
ENDBRANCH  20  21
ENDBRANCH  17  20
ENDBRANCH  16  17
ENDBRANCH  15  16
ENDBRANCH  14  15
ENDBRANCH  13  14
ENDBRANCH  12  13
ENDBRANCH  11  12
ENDBRANCH  10  11
ENDBRANCH   9  10
ENDBRANCH   8   9
ENDBRANCH   7   8
ENDBRANCH   6   7
ENDBRANCH   5   6
ENDBRANCH   4   5
ENDBRANCH   3   4
ENDBRANCH   2   3
TORSDOF 22
ENDMDL
MODEL      275
REMARK 921   NORMALIZED FREE ENERGY PREDICTED BY IDOCK:   -0.40 KCAL/MOL
REMARK 922        TOTAL FREE ENERGY PREDICTED BY IDOCK:   -5.37 KCAL/MOL
REMARK 923 INTER-LIGAND FREE ENERGY PREDICTED BY IDOCK:   -4.84 KCAL/MOL
REMARK 924 INTRA-LIGAND FREE ENERGY PREDICTED BY IDOCK:   -0.54 KCAL/MOL
REMARK 927      BINDING AFFINITY PREDICTED BY RF-SCORE:    0.00 PKD
ROOT
HETATM    1  C   UNL     1      -7.970  18.243  67.566  1.00  0.00    -0.233 C  
HETATM    2  C   UNL     1      -9.319  18.646  66.997  1.00  0.00    -0.301 C  
ENDROOT
BRANCH   2   3
HETATM    3  C   UNL     1     -10.436  17.782  67.574  1.00  0.00    -0.376 C  
BRANCH   3   4
HETATM    4  C   UNL     1     -10.605  16.504  66.762  1.00  0.00    -0.224 C  
BRANCH   4   5
HETATM    5  C   UNL     1     -11.449  15.490  67.525  1.00  0.00    -0.184 C  
BRANCH   5   6
HETATM    6  C   UNL     1     -10.721  15.028  68.778  1.00  0.00    -0.241 C  
BRANCH   6   7
HETATM    7  C   UNL     1      -9.381  14.411  68.413  1.00  0.00    -0.206 C  
BRANCH   7   8
HETATM    8  C   UNL     1      -8.270  15.023  69.251  1.00  0.00    -0.165 C  
BRANCH   8   9
HETATM    9  C   UNL     1      -6.947  14.915  68.512  1.00  0.00    -0.107 C  
BRANCH   9  10
HETATM   10  C   UNL     1      -6.604  13.459  68.245  1.00  0.00    -0.105 C  
BRANCH  10  11
HETATM   11  C   UNL     1      -6.391  12.726  69.560  1.00  0.00    -0.108 C  
BRANCH  11  12
HETATM   12  C   UNL     1      -5.178  11.812  69.458  1.00  0.00    -0.058 C  
BRANCH  12  13
HETATM   13  C   UNL     1      -5.426  10.684  68.470  1.00  0.00    -0.040 C  
BRANCH  13  14
HETATM   14  C   UNL     1      -6.758   9.973  68.731  1.00  0.00    -0.049 C  
BRANCH  14  15
HETATM   15  C   UNL     1      -7.318   9.212  67.519  1.00  0.00    -0.084 C  
BRANCH  15  16
HETATM   16  C   UNL     1      -8.725   9.701  67.186  1.00  0.00    -0.132 C  
BRANCH  16  17
HETATM   17  N   UNL     1      -9.797   9.329  68.201  1.00  0.00    -0.157 N  
HETATM   18  C   UNL     1     -11.136   9.056  67.503  1.00  0.00     0.306 C  
HETATM   19  C   UNL     1     -10.011  10.409  69.251  1.00  0.00    -0.228 C  
BRANCH  17  20
HETATM   20  C   UNL     1      -9.378   7.992  68.887  1.00  0.00    -0.150 C  
BRANCH  20  21
HETATM   21  C   UNL     1     -10.382   7.415  69.933  1.00  0.00    -0.218 C  
BRANCH  21  22
HETATM   22  N   UNL     1     -10.480   5.969  69.765  1.00  0.00    -0.228 NA 
BRANCH  22  23
HETATM   23  C   UNL     1     -10.725   5.395  68.435  1.00  0.00    -0.001 C  
BRANCH  23  24
HETATM   24  C   UNL     1      -9.504   4.708  67.853  1.00  0.00    -0.194 A  
HETATM   25  C   UNL     1      -9.513   3.326  67.630  1.00  0.00    -0.214 A  
HETATM   26  C   UNL     1      -7.161   3.367  67.024  1.00  0.00    -0.058 A  
HETATM   27  C   UNL     1      -7.165   4.755  67.150  1.00  0.00    -0.077 A  
HETATM   28  C   UNL     1      -8.329   5.422  67.564  1.00  0.00    -0.103 A  
HETATM   29  C   UNL     1      -8.349   2.666  67.232  1.00  0.00    -0.097 A  
BRANCH  26  30
HETATM   30  O   UNL     1      -6.080   2.573  66.772  1.00  0.00    -0.023 OA 
HETATM   31  C   UNL     1      -5.413   2.703  65.525  1.00  0.00    -0.013 C  
ENDBRANCH  26  30
ENDBRANCH  23  24
ENDBRANCH  22  23
BRANCH  22  32
HETATM   32  C   UNL     1      -9.632   5.220  70.565  1.00  0.00    -0.176 A  
HETATM   33  N   UNL     1      -8.743   5.863  71.344  1.00  0.00    -0.132 NA 
HETATM   34  N   UNL     1      -9.851   3.902  70.643  1.00  0.00    -0.174 NA 
HETATM   35  C   UNL     1      -9.126   3.205  71.538  1.00  0.00    -0.103 A  
HETATM   36  C   UNL     1      -7.993   5.111  72.185  1.00  0.00    -0.112 A  
HETATM   37  C   UNL     1      -8.158   3.761  72.335  1.00  0.00    -0.073 A  
ENDBRANCH  22  32
ENDBRANCH  21  22
ENDBRANCH  20  21
ENDBRANCH  17  20
ENDBRANCH  16  17
ENDBRANCH  15  16
ENDBRANCH  14  15
ENDBRANCH  13  14
ENDBRANCH  12  13
ENDBRANCH  11  12
ENDBRANCH  10  11
ENDBRANCH   9  10
ENDBRANCH   8   9
ENDBRANCH   7   8
ENDBRANCH   6   7
ENDBRANCH   5   6
ENDBRANCH   4   5
ENDBRANCH   3   4
ENDBRANCH   2   3
TORSDOF 22
ENDMDL
MODEL      276
REMARK 921   NORMALIZED FREE ENERGY PREDICTED BY IDOCK:   -0.13 KCAL/MOL
REMARK 922        TOTAL FREE ENERGY PREDICTED BY IDOCK:   -4.75 KCAL/MOL
REMARK 923 INTER-LIGAND FREE ENERGY PREDICTED BY IDOCK:   -6.51 KCAL/MOL
REMARK 924 INTRA-LIGAND FREE ENERGY PREDICTED BY IDOCK:    1.76 KCAL/MOL
REMARK 927      BINDING AFFINITY PREDICTED BY RF-SCORE:    0.00 PKD
ROOT
HETATM    1  C   UNL     1      -9.376   7.735  73.368  1.00  0.00    -0.346 C  
HETATM    2  C   UNL     1      -8.259   6.725  73.172  1.00  0.00    -0.119 C  
ENDROOT
BRANCH   2   3
HETATM    3  C   UNL     1      -8.797   5.299  73.217  1.00  0.00    -0.118 C  
BRANCH   3   4
HETATM    4  C   UNL     1     -10.320   5.297  73.267  1.00  0.00    -0.239 C  
BRANCH   4   5
HETATM    5  C   UNL     1     -10.904   5.489  71.873  1.00  0.00    -0.286 C  
BRANCH   5   6
HETATM    6  C   UNL     1     -12.067   6.469  71.913  1.00  0.00    -0.388 C  
BRANCH   6   7
HETATM    7  C   UNL     1     -11.899   7.531  70.839  1.00  0.00    -0.293 C  
BRANCH   7   8
HETATM    8  C   UNL     1     -11.349   8.813  71.443  1.00  0.00    -0.364 C  
BRANCH   8   9
HETATM    9  C   UNL     1     -12.480   9.800  71.674  1.00  0.00    -0.500 C  
BRANCH   9  10
HETATM   10  C   UNL     1     -12.240  11.078  70.888  1.00  0.00    -0.471 C  
BRANCH  10  11
HETATM   11  C   UNL     1     -10.974  10.945  70.055  1.00  0.00    -0.221 C  
BRANCH  11  12
HETATM   12  C   UNL     1     -11.306  10.353  68.692  1.00  0.00    -0.277 C  
BRANCH  12  13
HETATM   13  C   UNL     1     -11.863  11.413  67.757  1.00  0.00    -0.196 C  
BRANCH  13  14
HETATM   14  C   UNL     1     -10.791  11.965  66.810  1.00  0.00    -0.307 C  
BRANCH  14  15
HETATM   15  C   UNL     1     -11.106  11.780  65.318  1.00  0.00    -0.333 C  
BRANCH  15  16
HETATM   16  C   UNL     1     -10.193  10.721  64.708  1.00  0.00    -0.334 C  
BRANCH  16  17
HETATM   17  N   UNL     1      -8.875  10.504  65.438  1.00  0.00    -0.180 N  
HETATM   18  C   UNL     1      -8.563  11.689  66.362  1.00  0.00    -0.143 C  
HETATM   19  C   UNL     1      -7.703  10.311  64.487  1.00  0.00    -0.107 C  
BRANCH  17  20
HETATM   20  C   UNL     1      -9.027   9.255  66.360  1.00  0.00    -0.154 C  
BRANCH  20  21
HETATM   21  C   UNL     1      -8.226   9.292  67.699  1.00  0.00    -0.115 C  
BRANCH  21  22
HETATM   22  N   UNL     1      -6.821   8.998  67.433  1.00  0.00    -0.076 NA 
BRANCH  22  23
HETATM   23  C   UNL     1      -5.795   9.331  68.430  1.00  0.00    -0.041 C  
BRANCH  23  24
HETATM   24  C   UNL     1      -5.541  10.822  68.542  1.00  0.00    -0.040 A  
HETATM   25  C   UNL     1      -5.462  11.431  69.800  1.00  0.00    -0.067 A  
HETATM   26  C   UNL     1      -5.337  13.629  68.775  1.00  0.00    -0.073 A  
HETATM   27  C   UNL     1      -5.318  13.029  67.518  1.00  0.00    -0.028 A  
HETATM   28  C   UNL     1      -5.422  11.633  67.401  1.00  0.00    -0.080 A  
HETATM   29  C   UNL     1      -5.373  12.820  69.911  1.00  0.00    -0.094 A  
BRANCH  26  30
HETATM   30  O   UNL     1      -5.386  14.967  69.041  1.00  0.00    -0.092 OA 
HETATM   31  C   UNL     1      -5.131  15.884  67.987  1.00  0.00    -0.119 C  
ENDBRANCH  26  30
ENDBRANCH  23  24
ENDBRANCH  22  23
BRANCH  22  32
HETATM   32  C   UNL     1      -6.583   7.825  66.736  1.00  0.00    -0.058 A  
HETATM   33  N   UNL     1      -7.027   6.664  67.252  1.00  0.00    -0.075 NA 
HETATM   34  N   UNL     1      -6.065   7.925  65.507  1.00  0.00    -0.038 NA 
HETATM   35  C   UNL     1      -5.979   6.798  64.775  1.00  0.00    -0.035 A  
HETATM   36  C   UNL     1      -6.863   5.546  66.504  1.00  0.00    -0.059 A  
HETATM   37  C   UNL     1      -6.353   5.561  65.234  1.00  0.00    -0.038 A  
ENDBRANCH  22  32
ENDBRANCH  21  22
ENDBRANCH  20  21
ENDBRANCH  17  20
ENDBRANCH  16  17
ENDBRANCH  15  16
ENDBRANCH  14  15
ENDBRANCH  13  14
ENDBRANCH  12  13
ENDBRANCH  11  12
ENDBRANCH  10  11
ENDBRANCH   9  10
ENDBRANCH   8   9
ENDBRANCH   7   8
ENDBRANCH   6   7
ENDBRANCH   5   6
ENDBRANCH   4   5
ENDBRANCH   3   4
ENDBRANCH   2   3
TORSDOF 22
ENDMDL
MODEL      277
REMARK 921   NORMALIZED FREE ENERGY PREDICTED BY IDOCK:   -0.11 KCAL/MOL
REMARK 922        TOTAL FREE ENERGY PREDICTED BY IDOCK:   -4.70 KCAL/MOL
REMARK 923 INTER-LIGAND FREE ENERGY PREDICTED BY IDOCK:   -3.88 KCAL/MOL
REMARK 924 INTRA-LIGAND FREE ENERGY PREDICTED BY IDOCK:   -0.82 KCAL/MOL
REMARK 927      BINDING AFFINITY PREDICTED BY RF-SCORE:    0.00 PKD
ROOT
HETATM    1  C   UNL     1     -12.361  14.280  63.565  1.00  0.00     0.271 C  
HETATM    2  C   UNL     1     -11.614  14.998  64.675  1.00  0.00    -0.386 C  
ENDROOT
BRANCH   2   3
HETATM    3  C   UNL     1     -11.737  16.511  64.528  1.00  0.00     0.320 C  
BRANCH   3   4
HETATM    4  C   UNL     1     -10.639  17.222  65.309  1.00  0.00    -0.002 C  
BRANCH   4   5
HETATM    5  C   UNL     1     -10.702  16.848  66.785  1.00  0.00    -0.111 C  
BRANCH   5   6
HETATM    6  C   UNL     1      -9.986  15.528  67.030  1.00  0.00    -0.240 C  
BRANCH   6   7
HETATM    7  C   UNL     1     -10.565  14.835  68.253  1.00  0.00    -0.241 C  
BRANCH   7   8
HETATM    8  C   UNL     1      -9.508  13.969  68.920  1.00  0.00     0.007 C  
BRANCH   8   9
HETATM    9  C   UNL     1      -9.513  12.582  68.301  1.00  0.00    -0.201 C  
BRANCH   9  10
HETATM   10  C   UNL     1     -10.607  11.727  68.917  1.00  0.00    -0.211 C  
BRANCH  10  11
HETATM   11  C   UNL     1     -11.426  11.062  67.822  1.00  0.00    -0.339 C  
BRANCH  11  12
HETATM   12  C   UNL     1     -11.503  11.970  66.603  1.00  0.00    -0.411 C  
BRANCH  12  13
HETATM   13  C   UNL     1     -10.569  11.491  65.505  1.00  0.00    -0.334 C  
BRANCH  13  14
HETATM   14  C   UNL     1     -10.306   9.983  65.591  1.00  0.00    -0.171 C  
BRANCH  14  15
HETATM   15  C   UNL     1      -9.039   9.517  64.858  1.00  0.00    -0.276 C  
BRANCH  15  16
HETATM   16  C   UNL     1      -8.569   8.174  65.408  1.00  0.00    -0.129 C  
BRANCH  16  17
HETATM   17  N   UNL     1      -7.094   8.106  65.777  1.00  0.00    -0.063 N  
HETATM   18  C   UNL     1      -6.220   8.642  64.634  1.00  0.00    -0.066 C  
HETATM   19  C   UNL     1      -6.637   6.694  66.114  1.00  0.00    -0.044 C  
BRANCH  17  20
HETATM   20  C   UNL     1      -6.851   9.050  66.996  1.00  0.00    -0.077 C  
BRANCH  20  21
HETATM   21  C   UNL     1      -8.078   9.289  67.931  1.00  0.00    -0.104 C  
BRANCH  21  22
HETATM   22  N   UNL     1      -7.933   8.480  69.137  1.00  0.00    -0.110 NA 
BRANCH  22  23
HETATM   23  C   UNL     1      -8.066   7.019  69.067  1.00  0.00    -0.121 C  
BRANCH  23  24
HETATM   24  C   UNL     1      -8.532   6.403  70.372  1.00  0.00    -0.131 A  
HETATM   25  C   UNL     1      -9.530   7.028  71.128  1.00  0.00    -0.165 A  
HETATM   26  C   UNL     1      -9.227   5.427  72.929  1.00  0.00    -0.134 A  
HETATM   27  C   UNL     1      -8.300   4.740  72.147  1.00  0.00    -0.119 A  
HETATM   28  C   UNL     1      -7.953   5.227  70.876  1.00  0.00    -0.099 A  
HETATM   29  C   UNL     1      -9.862   6.549  72.397  1.00  0.00    -0.169 A  
BRANCH  26  30
HETATM   30  O   UNL     1      -9.558   5.160  74.226  1.00  0.00    -0.127 OA 
HETATM   31  C   UNL     1     -10.737   4.413  74.490  1.00  0.00    -0.085 C  
ENDBRANCH  26  30
ENDBRANCH  23  24
ENDBRANCH  22  23
BRANCH  22  32
HETATM   32  C   UNL     1      -6.981   8.926  70.040  1.00  0.00    -0.044 A  
HETATM   33  N   UNL     1      -7.146  10.135  70.607  1.00  0.00    -0.321 NA 
HETATM   34  N   UNL     1      -6.032   8.064  70.422  1.00  0.00    -0.029 NA 
HETATM   35  C   UNL     1      -5.205   8.451  71.412  1.00  0.00    -0.033 A  
HETATM   36  C   UNL     1      -6.251  10.506  71.555  1.00  0.00     0.686 A  
HETATM   37  C   UNL     1      -5.258   9.682  72.012  1.00  0.00    -0.074 A  
ENDBRANCH  22  32
ENDBRANCH  21  22
ENDBRANCH  20  21
ENDBRANCH  17  20
ENDBRANCH  16  17
ENDBRANCH  15  16
ENDBRANCH  14  15
ENDBRANCH  13  14
ENDBRANCH  12  13
ENDBRANCH  11  12
ENDBRANCH  10  11
ENDBRANCH   9  10
ENDBRANCH   8   9
ENDBRANCH   7   8
ENDBRANCH   6   7
ENDBRANCH   5   6
ENDBRANCH   4   5
ENDBRANCH   3   4
ENDBRANCH   2   3
TORSDOF 22
ENDMDL
MODEL      278
REMARK 921   NORMALIZED FREE ENERGY PREDICTED BY IDOCK:    0.09 KCAL/MOL
REMARK 922        TOTAL FREE ENERGY PREDICTED BY IDOCK:   -4.24 KCAL/MOL
REMARK 923 INTER-LIGAND FREE ENERGY PREDICTED BY IDOCK:   -3.98 KCAL/MOL
REMARK 924 INTRA-LIGAND FREE ENERGY PREDICTED BY IDOCK:   -0.26 KCAL/MOL
REMARK 927      BINDING AFFINITY PREDICTED BY RF-SCORE:    0.00 PKD
ROOT
HETATM    1  C   UNL     1     -12.303  12.855  67.726  1.00  0.00     0.209 C  
HETATM    2  C   UNL     1     -12.247  13.644  69.023  1.00  0.00    -0.245 C  
ENDROOT
BRANCH   2   3
HETATM    3  C   UNL     1     -11.140  14.692  68.979  1.00  0.00    -0.273 C  
BRANCH   3   4
HETATM    4  C   UNL     1      -9.839  14.082  68.470  1.00  0.00    -0.225 C  
BRANCH   4   5
HETATM    5  C   UNL     1      -8.686  15.064  68.632  1.00  0.00    -0.176 C  
BRANCH   5   6
HETATM    6  C   UNL     1      -9.085  16.442  68.123  1.00  0.00    -0.201 C  
BRANCH   6   7
HETATM    7  C   UNL     1      -7.915  17.406  68.239  1.00  0.00    -0.253 C  
BRANCH   7   8
HETATM    8  C   UNL     1      -6.783  16.976  67.320  1.00  0.00    -0.195 C  
BRANCH   8   9
HETATM    9  C   UNL     1      -6.745  15.460  67.222  1.00  0.00    -0.096 C  
BRANCH   9  10
HETATM   10  C   UNL     1      -5.470  14.918  67.845  1.00  0.00    -0.112 C  
BRANCH  10  11
HETATM   11  C   UNL     1      -5.138  13.559  67.249  1.00  0.00     0.409 C  
BRANCH  11  12
HETATM   12  C   UNL     1      -6.216  12.549  67.618  1.00  0.00    -0.141 C  
BRANCH  12  13
HETATM   13  C   UNL     1      -6.489  12.564  69.113  1.00  0.00    -0.099 C  
BRANCH  13  14
HETATM   14  C   UNL     1      -5.332  11.958  69.915  1.00  0.00    -0.087 C  
BRANCH  14  15
HETATM   15  C   UNL     1      -5.766  11.190  71.173  1.00  0.00     0.102 C  
BRANCH  15  16
HETATM   16  C   UNL     1      -5.455   9.704  71.025  1.00  0.00    -0.059 C  
BRANCH  16  17
HETATM   17  N   UNL     1      -6.573   8.865  70.424  1.00  0.00    -0.041 N  
HETATM   18  C   UNL     1      -6.247   8.479  68.975  1.00  0.00    -0.044 C  
HETATM   19  C   UNL     1      -7.917   9.578  70.443  1.00  0.00    -0.178 C  
BRANCH  17  20
HETATM   20  C   UNL     1      -6.666   7.529  71.224  1.00  0.00    -0.049 C  
BRANCH  20  21
HETATM   21  C   UNL     1      -8.105   7.058  71.605  1.00  0.00    -0.103 C  
BRANCH  21  22
HETATM   22  N   UNL     1      -8.379   5.773  70.970  1.00  0.00    -0.121 NA 
BRANCH  22  23
HETATM   23  C   UNL     1      -7.478   5.256  69.931  1.00  0.00    -0.065 C  
BRANCH  23  24
HETATM   24  C   UNL     1      -8.185   4.987  68.616  1.00  0.00    -0.085 A  
HETATM   25  C   UNL     1      -9.063   3.902  68.498  1.00  0.00    -0.191 A  
HETATM   26  C   UNL     1      -9.303   4.304  66.114  1.00  0.00    -0.164 A  
HETATM   27  C   UNL     1      -8.508   5.441  66.237  1.00  0.00    -0.117 A  
HETATM   28  C   UNL     1      -7.949   5.779  67.481  1.00  0.00    -0.102 A  
HETATM   29  C   UNL     1      -9.604   3.562  67.257  1.00  0.00    -0.166 A  
BRANCH  26  30
HETATM   30  O   UNL     1      -9.795   3.772  64.958  1.00  0.00    -0.178 OA 
HETATM   31  C   UNL     1      -9.188   2.601  64.431  1.00  0.00    -0.128 C  
ENDBRANCH  26  30
ENDBRANCH  23  24
ENDBRANCH  22  23
BRANCH  22  32
HETATM   32  C   UNL     1      -8.912   4.801  71.802  1.00  0.00    -0.131 A  
HETATM   33  N   UNL     1     -10.157   4.974  72.282  1.00  0.00    -0.185 NA 
HETATM   34  N   UNL     1      -8.222   3.666  71.956  1.00  0.00    -0.071 NA 
HETATM   35  C   UNL     1      -8.814   2.668  72.638  1.00  0.00    -0.074 A  
HETATM   36  C   UNL     1     -10.687   3.966  73.015  1.00  0.00    -0.153 A  
HETATM   37  C   UNL     1     -10.055   2.768  73.212  1.00  0.00    -0.195 A  
ENDBRANCH  22  32
ENDBRANCH  21  22
ENDBRANCH  20  21
ENDBRANCH  17  20
ENDBRANCH  16  17
ENDBRANCH  15  16
ENDBRANCH  14  15
ENDBRANCH  13  14
ENDBRANCH  12  13
ENDBRANCH  11  12
ENDBRANCH  10  11
ENDBRANCH   9  10
ENDBRANCH   8   9
ENDBRANCH   7   8
ENDBRANCH   6   7
ENDBRANCH   5   6
ENDBRANCH   4   5
ENDBRANCH   3   4
ENDBRANCH   2   3
TORSDOF 22
ENDMDL
MODEL      279
REMARK 921   NORMALIZED FREE ENERGY PREDICTED BY IDOCK:    0.12 KCAL/MOL
REMARK 922        TOTAL FREE ENERGY PREDICTED BY IDOCK:   -4.18 KCAL/MOL
REMARK 923 INTER-LIGAND FREE ENERGY PREDICTED BY IDOCK:   -5.84 KCAL/MOL
REMARK 924 INTRA-LIGAND FREE ENERGY PREDICTED BY IDOCK:    1.66 KCAL/MOL
REMARK 927      BINDING AFFINITY PREDICTED BY RF-SCORE:    0.00 PKD
ROOT
HETATM    1  C   UNL     1      -8.062  16.243  66.109  1.00  0.00    -0.130 C  
HETATM    2  C   UNL     1      -9.538  16.180  66.457  1.00  0.00    -0.285 C  
ENDROOT
BRANCH   2   3
HETATM    3  C   UNL     1      -9.916  14.804  66.994  1.00  0.00    -0.238 C  
BRANCH   3   4
HETATM    4  C   UNL     1     -11.430  14.646  67.060  1.00  0.00    -0.379 C  
BRANCH   4   5
HETATM    5  C   UNL     1     -11.915  13.662  66.003  1.00  0.00    -0.447 C  
BRANCH   5   6
HETATM    6  C   UNL     1     -10.949  12.493  65.882  1.00  0.00    -0.314 C  
BRANCH   6   7
HETATM    7  C   UNL     1     -10.699  11.871  67.246  1.00  0.00    -0.276 C  
BRANCH   7   8
HETATM    8  C   UNL     1     -12.013  11.441  67.880  1.00  0.00    -0.120 C  
BRANCH   8   9
HETATM    9  C   UNL     1     -11.782  10.238  68.778  1.00  0.00    -0.021 C  
BRANCH   9  10
HETATM   10  C   UNL     1     -11.173  10.670  70.101  1.00  0.00    -0.378 C  
BRANCH  10  11
HETATM   11  C   UNL     1     -11.385   9.588  71.149  1.00  0.00    -0.440 C  
BRANCH  11  12
HETATM   12  C   UNL     1     -10.596   8.341  70.778  1.00  0.00    -0.236 C  
BRANCH  12  13
HETATM   13  C   UNL     1     -11.515   7.144  70.603  1.00  0.00    -0.346 C  
BRANCH  13  14
HETATM   14  C   UNL     1     -11.055   5.940  71.433  1.00  0.00    -0.313 C  
BRANCH  14  15
HETATM   15  C   UNL     1     -11.085   6.167  72.952  1.00  0.00    -0.281 C  
BRANCH  15  16
HETATM   16  C   UNL     1      -9.755   5.761  73.578  1.00  0.00    -0.158 C  
BRANCH  16  17
HETATM   17  N   UNL     1      -9.209   4.415  73.122  1.00  0.00    -0.117 N  
HETATM   18  C   UNL     1     -10.256   3.309  73.311  1.00  0.00    -0.147 C  
HETATM   19  C   UNL     1      -7.943   4.014  73.863  1.00  0.00    -0.084 C  
BRANCH  17  20
HETATM   20  C   UNL     1      -8.927   4.496  71.589  1.00  0.00    -0.125 C  
BRANCH  20  21
HETATM   21  C   UNL     1      -7.886   3.477  71.030  1.00  0.00    -0.051 C  
BRANCH  21  22
HETATM   22  N   UNL     1      -6.764   4.203  70.442  1.00  0.00    -0.032 NA 
BRANCH  22  23
HETATM   23  C   UNL     1      -5.819   3.510  69.557  1.00  0.00    -0.022 C  
BRANCH  23  24
HETATM   24  C   UNL     1      -6.488   2.887  68.348  1.00  0.00    -0.029 A  
HETATM   25  C   UNL     1      -5.714   2.358  67.308  1.00  0.00    -0.019 A  
HETATM   26  C   UNL     1      -7.702   1.966  65.970  1.00  0.00    -0.071 A  
HETATM   27  C   UNL     1      -8.490   2.400  67.033  1.00  0.00    -0.105 A  
HETATM   28  C   UNL     1      -7.886   2.861  68.215  1.00  0.00    -0.056 A  
HETATM   29  C   UNL     1      -6.317   1.915  66.130  1.00  0.00    -0.024 A  
BRANCH  26  30
HETATM   30  O   UNL     1      -8.132   1.626  64.720  1.00  0.00    -0.068 OA 
HETATM   31  C   UNL     1      -8.586   2.654  63.850  1.00  0.00    -0.086 C  
ENDBRANCH  26  30
ENDBRANCH  23  24
ENDBRANCH  22  23
BRANCH  22  32
HETATM   32  C   UNL     1      -7.029   5.515  70.084  1.00  0.00    -0.064 A  
HETATM   33  N   UNL     1      -6.487   6.506  70.814  1.00  0.00    -0.050 NA 
HETATM   34  N   UNL     1      -7.679   5.728  68.934  1.00  0.00    -0.089 NA 
HETATM   35  C   UNL     1      -7.798   7.002  68.515  1.00  0.00    -0.122 A  
HETATM   36  C   UNL     1      -6.686   7.776  70.386  1.00  0.00    -0.038 A  
HETATM   37  C   UNL     1      -7.329   8.082  69.217  1.00  0.00    -0.081 A  
ENDBRANCH  22  32
ENDBRANCH  21  22
ENDBRANCH  20  21
ENDBRANCH  17  20
ENDBRANCH  16  17
ENDBRANCH  15  16
ENDBRANCH  14  15
ENDBRANCH  13  14
ENDBRANCH  12  13
ENDBRANCH  11  12
ENDBRANCH  10  11
ENDBRANCH   9  10
ENDBRANCH   8   9
ENDBRANCH   7   8
ENDBRANCH   6   7
ENDBRANCH   5   6
ENDBRANCH   4   5
ENDBRANCH   3   4
ENDBRANCH   2   3
TORSDOF 22
ENDMDL
MODEL      280
REMARK 921   NORMALIZED FREE ENERGY PREDICTED BY IDOCK:    0.18 KCAL/MOL
REMARK 922        TOTAL FREE ENERGY PREDICTED BY IDOCK:   -4.03 KCAL/MOL
REMARK 923 INTER-LIGAND FREE ENERGY PREDICTED BY IDOCK:   -4.64 KCAL/MOL
REMARK 924 INTRA-LIGAND FREE ENERGY PREDICTED BY IDOCK:    0.61 KCAL/MOL
REMARK 927      BINDING AFFINITY PREDICTED BY RF-SCORE:    0.00 PKD
ROOT
HETATM    1  C   UNL     1      -8.354  15.974  69.493  1.00  0.00    -0.017 C  
HETATM    2  C   UNL     1      -8.499  14.631  68.799  1.00  0.00    -0.161 C  
ENDROOT
BRANCH   2   3
HETATM    3  C   UNL     1      -7.461  14.472  67.693  1.00  0.00    -0.195 C  
BRANCH   3   4
HETATM    4  C   UNL     1      -6.167  13.887  68.244  1.00  0.00    -0.111 C  
BRANCH   4   5
HETATM    5  C   UNL     1      -5.518  14.852  69.228  1.00  0.00    -0.093 C  
BRANCH   5   6
HETATM    6  C   UNL     1      -5.126  16.144  68.526  1.00  0.00    -0.096 C  
BRANCH   6   7
HETATM    7  C   UNL     1      -6.010  16.372  67.310  1.00  0.00    -0.193 C  
BRANCH   7   8
HETATM    8  C   UNL     1      -5.677  17.704  66.657  1.00  0.00    -0.216 C  
BRANCH   8   9
HETATM    9  C   UNL     1      -6.443  17.844  65.353  1.00  0.00    -0.008 C  
BRANCH   9  10
HETATM   10  C   UNL     1      -7.893  18.207  65.623  1.00  0.00     0.250 C  
BRANCH  10  11
HETATM   11  C   UNL     1      -8.650  16.986  66.121  1.00  0.00    -0.252 C  
BRANCH  11  12
HETATM   12  C   UNL     1     -10.023  17.396  66.636  1.00  0.00    -0.308 C  
BRANCH  12  13
HETATM   13  C   UNL     1     -11.082  17.234  65.558  1.00  0.00     0.266 C  
BRANCH  13  14
HETATM   14  C   UNL     1     -11.084  15.821  64.964  1.00  0.00    -0.380 C  
BRANCH  14  15
HETATM   15  C   UNL     1     -11.770  14.764  65.843  1.00  0.00    -0.248 C  
BRANCH  15  16
HETATM   16  C   UNL     1     -10.880  13.534  65.989  1.00  0.00    -0.278 C  
BRANCH  16  17
HETATM   17  N   UNL     1     -10.888  12.583  64.801  1.00  0.00    -0.286 N  
HETATM   18  C   UNL     1      -9.778  12.946  63.805  1.00  0.00     0.782 C  
HETATM   19  C   UNL     1     -12.218  12.579  64.061  1.00  0.00    -0.480 C  
BRANCH  17  20
HETATM   20  C   UNL     1     -10.562  11.149  65.320  1.00  0.00    -0.238 C  
BRANCH  20  21
HETATM   21  C   UNL     1      -9.154  10.589  64.944  1.00  0.00    -0.205 C  
BRANCH  21  22
HETATM   22  N   UNL     1      -8.843   9.446  65.798  1.00  0.00    -0.160 NA 
BRANCH  22  23
HETATM   23  C   UNL     1      -9.925   8.614  66.341  1.00  0.00    -0.260 C  
BRANCH  23  24
HETATM   24  C   UNL     1      -9.684   8.195  67.779  1.00  0.00    -0.193 A  
HETATM   25  C   UNL     1      -9.856   6.859  68.161  1.00  0.00    -0.145 A  
HETATM   26  C   UNL     1      -9.505   7.438  70.494  1.00  0.00    -0.161 A  
HETATM   27  C   UNL     1      -9.238   8.752  70.115  1.00  0.00    -0.179 A  
HETATM   28  C   UNL     1      -9.330   9.129  68.766  1.00  0.00    -0.139 A  
HETATM   29  C   UNL     1      -9.778   6.491  69.505  1.00  0.00    -0.161 A  
BRANCH  26  30
HETATM   30  O   UNL     1      -9.595   6.956  71.767  1.00  0.00    -0.160 OA 
HETATM   31  C   UNL     1     -10.857   6.509  72.241  1.00  0.00    -0.232 C  
ENDBRANCH  26  30
ENDBRANCH  23  24
ENDBRANCH  22  23
BRANCH  22  32
HETATM   32  C   UNL     1      -7.696   8.746  65.458  1.00  0.00    -0.092 A  
HETATM   33  N   UNL     1      -7.762   7.844  64.461  1.00  0.00    -0.118 NA 
HETATM   34  N   UNL     1      -6.546   9.119  66.030  1.00  0.00    -0.068 NA 
HETATM   35  C   UNL     1      -5.415   8.541  65.582  1.00  0.00    -0.035 A  
HETATM   36  C   UNL     1      -6.606   7.244  64.088  1.00  0.00    -0.044 A  
HETATM   37  C   UNL     1      -5.385   7.573  64.612  1.00  0.00    -0.029 A  
ENDBRANCH  22  32
ENDBRANCH  21  22
ENDBRANCH  20  21
ENDBRANCH  17  20
ENDBRANCH  16  17
ENDBRANCH  15  16
ENDBRANCH  14  15
ENDBRANCH  13  14
ENDBRANCH  12  13
ENDBRANCH  11  12
ENDBRANCH  10  11
ENDBRANCH   9  10
ENDBRANCH   8   9
ENDBRANCH   7   8
ENDBRANCH   6   7
ENDBRANCH   5   6
ENDBRANCH   4   5
ENDBRANCH   3   4
ENDBRANCH   2   3
TORSDOF 22
ENDMDL
MODEL      281
REMARK 921   NORMALIZED FREE ENERGY PREDICTED BY IDOCK:    0.58 KCAL/MOL
REMARK 922        TOTAL FREE ENERGY PREDICTED BY IDOCK:   -3.13 KCAL/MOL
REMARK 923 INTER-LIGAND FREE ENERGY PREDICTED BY IDOCK:   -4.90 KCAL/MOL
REMARK 924 INTRA-LIGAND FREE ENERGY PREDICTED BY IDOCK:    1.78 KCAL/MOL
REMARK 927      BINDING AFFINITY PREDICTED BY RF-SCORE:    0.00 PKD
ROOT
HETATM    1  C   UNL     1      -8.113   5.992  73.051  1.00  0.00    -0.113 C  
HETATM    2  C   UNL     1      -7.584   7.404  73.229  1.00  0.00    -0.109 C  
ENDROOT
BRANCH   2   3
HETATM    3  C   UNL     1      -7.514   8.135  71.893  1.00  0.00    -0.105 C  
BRANCH   3   4
HETATM    4  C   UNL     1      -8.657   7.707  70.982  1.00  0.00    -0.131 C  
BRANCH   4   5
HETATM    5  C   UNL     1      -9.890   8.567  71.227  1.00  0.00    -0.279 C  
BRANCH   5   6
HETATM    6  C   UNL     1     -10.864   7.850  72.150  1.00  0.00    -0.327 C  
BRANCH   6   7
HETATM    7  C   UNL     1     -10.951   6.377  71.783  1.00  0.00    -0.298 C  
BRANCH   7   8
HETATM    8  C   UNL     1     -11.687   6.203  70.465  1.00  0.00    -0.156 C  
BRANCH   8   9
HETATM    9  C   UNL     1     -10.687   6.050  69.332  1.00  0.00    -0.403 C  
BRANCH   9  10
HETATM   10  C   UNL     1     -10.376   4.582  69.091  1.00  0.00     0.236 C  
BRANCH  10  11
HETATM   11  C   UNL     1      -9.245   4.449  68.083  1.00  0.00    -0.178 C  
BRANCH  11  12
HETATM   12  C   UNL     1      -9.389   5.504  66.995  1.00  0.00    -0.118 C  
BRANCH  12  13
HETATM   13  C   UNL     1      -9.240   6.903  67.568  1.00  0.00    -0.124 C  
BRANCH  13  14
HETATM   14  C   UNL     1      -9.381   7.984  66.490  1.00  0.00    -0.261 C  
BRANCH  14  15
HETATM   15  C   UNL     1      -8.641   7.673  65.180  1.00  0.00     0.000 C  
BRANCH  15  16
HETATM   16  C   UNL     1      -7.597   8.747  64.890  1.00  0.00    -0.099 C  
BRANCH  16  17
HETATM   17  N   UNL     1      -8.146  10.046  64.317  1.00  0.00    -0.151 N  
HETATM   18  C   UNL     1      -9.671   9.969  64.155  1.00  0.00    -0.128 C  
HETATM   19  C   UNL     1      -7.534  10.399  62.970  1.00  0.00    -0.098 C  
BRANCH  17  20
HETATM   20  C   UNL     1      -7.871  11.187  65.344  1.00  0.00     0.298 C  
BRANCH  20  21
HETATM   21  C   UNL     1      -8.828  11.246  66.576  1.00  0.00    -0.179 C  
BRANCH  21  22
HETATM   22  N   UNL     1      -9.112  12.640  66.904  1.00  0.00    -0.214 NA 
BRANCH  22  23
HETATM   23  C   UNL     1      -8.010  13.590  67.104  1.00  0.00    -0.041 C  
BRANCH  23  24
HETATM   24  C   UNL     1      -7.158  13.262  68.314  1.00  0.00    -0.109 A  
HETATM   25  C   UNL     1      -6.335  12.129  68.310  1.00  0.00    -0.053 A  
HETATM   26  C   UNL     1      -5.768  12.479  70.646  1.00  0.00    -0.146 A  
HETATM   27  C   UNL     1      -6.507  13.661  70.636  1.00  0.00     0.273 A  
HETATM   28  C   UNL     1      -7.200  14.049  69.477  1.00  0.00     0.095 A  
HETATM   29  C   UNL     1      -5.659  11.739  69.467  1.00  0.00    -0.071 A  
BRANCH  26  30
HETATM   30  O   UNL     1      -5.163  11.903  71.724  1.00  0.00    -0.336 OA 
HETATM   31  C   UNL     1      -5.590  10.614  72.140  1.00  0.00     0.527 C  
ENDBRANCH  26  30
ENDBRANCH  23  24
ENDBRANCH  22  23
BRANCH  22  32
HETATM   32  C   UNL     1     -10.229  13.179  66.286  1.00  0.00    -0.293 A  
HETATM   33  N   UNL     1     -10.491  12.837  65.012  1.00  0.00    -0.305 NA 
HETATM   34  N   UNL     1     -11.079  13.884  67.041  1.00  0.00    -0.295 NA 
HETATM   35  C   UNL     1     -12.236  14.273  66.474  1.00  0.00    -0.391 A  
HETATM   36  C   UNL     1     -11.639  13.304  64.464  1.00  0.00    -0.369 A  
HETATM   37  C   UNL     1     -12.568  14.023  65.167  1.00  0.00    -0.453 A  
ENDBRANCH  22  32
ENDBRANCH  21  22
ENDBRANCH  20  21
ENDBRANCH  17  20
ENDBRANCH  16  17
ENDBRANCH  15  16
ENDBRANCH  14  15
ENDBRANCH  13  14
ENDBRANCH  12  13
ENDBRANCH  11  12
ENDBRANCH  10  11
ENDBRANCH   9  10
ENDBRANCH   8   9
ENDBRANCH   7   8
ENDBRANCH   6   7
ENDBRANCH   5   6
ENDBRANCH   4   5
ENDBRANCH   3   4
ENDBRANCH   2   3
TORSDOF 22
ENDMDL
MODEL      282
REMARK 921   NORMALIZED FREE ENERGY PREDICTED BY IDOCK:    0.62 KCAL/MOL
REMARK 922        TOTAL FREE ENERGY PREDICTED BY IDOCK:   -3.04 KCAL/MOL
REMARK 923 INTER-LIGAND FREE ENERGY PREDICTED BY IDOCK:   -2.19 KCAL/MOL
REMARK 924 INTRA-LIGAND FREE ENERGY PREDICTED BY IDOCK:   -0.85 KCAL/MOL
REMARK 927      BINDING AFFINITY PREDICTED BY RF-SCORE:    0.00 PKD
ROOT
HETATM    1  C   UNL     1     -11.816   6.392  67.959  1.00  0.00     1.492 C  
HETATM    2  C   UNL     1     -10.928   6.722  69.146  1.00  0.00    -0.290 C  
ENDROOT
BRANCH   2   3
HETATM    3  C   UNL     1     -11.249   5.823  70.335  1.00  0.00    -0.211 C  
BRANCH   3   4
HETATM    4  C   UNL     1     -10.228   6.016  71.450  1.00  0.00    -0.253 C  
BRANCH   4   5
HETATM    5  C   UNL     1      -9.590   7.396  71.361  1.00  0.00    -0.167 C  
BRANCH   5   6
HETATM    6  C   UNL     1      -9.183   7.703  69.928  1.00  0.00    -0.147 C  
BRANCH   6   7
HETATM    7  C   UNL     1      -8.894   9.187  69.768  1.00  0.00    -0.165 C  
BRANCH   7   8
HETATM    8  C   UNL     1      -7.717   9.593  70.641  1.00  0.00    -0.099 C  
BRANCH   8   9
HETATM    9  C   UNL     1      -6.478   8.817  70.228  1.00  0.00    -0.039 C  
BRANCH   9  10
HETATM   10  C   UNL     1      -5.294   9.755  70.061  1.00  0.00    -0.036 C  
BRANCH  10  11
HETATM   11  C   UNL     1      -5.342  10.412  68.690  1.00  0.00    -0.038 C  
BRANCH  11  12
HETATM   12  C   UNL     1      -6.172   9.567  67.734  1.00  0.00    -0.053 C  
BRANCH  12  13
HETATM   13  C   UNL     1      -5.478   9.423  66.390  1.00  0.00    -0.045 C  
BRANCH  13  14
HETATM   14  C   UNL     1      -5.126   7.964  66.079  1.00  0.00    -0.025 C  
BRANCH  14  15
HETATM   15  C   UNL     1      -5.199   7.021  67.290  1.00  0.00    -0.013 C  
BRANCH  15  16
HETATM   16  C   UNL     1      -6.542   6.298  67.321  1.00  0.00    -0.058 C  
BRANCH  16  17
HETATM   17  N   UNL     1      -6.461   4.790  67.517  1.00  0.00    -0.044 N  
HETATM   18  C   UNL     1      -6.683   4.419  68.990  1.00  0.00    -0.046 C  
HETATM   19  C   UNL     1      -5.128   4.211  67.068  1.00  0.00    -0.008 C  
BRANCH  17  20
HETATM   20  C   UNL     1      -7.627   4.130  66.718  1.00  0.00    -0.088 C  
BRANCH  20  21
HETATM   21  C   UNL     1      -8.925   4.985  66.569  1.00  0.00    -0.116 C  
BRANCH  21  22
HETATM   22  N   UNL     1      -9.133   5.309  65.160  1.00  0.00    -0.108 NA 
BRANCH  22  23
HETATM   23  C   UNL     1      -8.209   6.215  64.466  1.00  0.00    -0.079 C  
BRANCH  23  24
HETATM   24  C   UNL     1      -8.556   7.678  64.663  1.00  0.00     0.185 A  
HETATM   25  C   UNL     1      -9.303   8.081  65.777  1.00  0.00    -0.010 A  
HETATM   26  C   UNL     1      -9.444  10.348  64.915  1.00  0.00    -0.265 A  
HETATM   27  C   UNL     1      -8.622   9.982  63.852  1.00  0.00    -0.196 A  
HETATM   28  C   UNL     1      -8.182   8.654  63.725  1.00  0.00    -0.145 A  
HETATM   29  C   UNL     1      -9.750   9.399  65.892  1.00  0.00    -0.355 A  
BRANCH  26  30
HETATM   30  O   UNL     1     -10.060  11.552  65.095  1.00  0.00    -0.244 OA 
HETATM   31  C   UNL     1     -11.325  11.770  64.487  1.00  0.00    -0.281 C  
ENDBRANCH  26  30
ENDBRANCH  23  24
ENDBRANCH  22  23
BRANCH  22  32
HETATM   32  C   UNL     1      -9.614   4.271  64.378  1.00  0.00    -0.134 A  
HETATM   33  N   UNL     1     -10.940   4.048  64.344  1.00  0.00    -0.263 NA 
HETATM   34  N   UNL     1      -8.749   3.646  63.572  1.00  0.00    -0.094 NA 
HETATM   35  C   UNL     1      -9.248   2.746  62.704  1.00  0.00    -0.087 A  
HETATM   36  C   UNL     1     -11.390   3.088  63.500  1.00  0.00     0.481 A  
HETATM   37  C   UNL     1     -10.576   2.410  62.633  1.00  0.00    -0.148 A  
ENDBRANCH  22  32
ENDBRANCH  21  22
ENDBRANCH  20  21
ENDBRANCH  17  20
ENDBRANCH  16  17
ENDBRANCH  15  16
ENDBRANCH  14  15
ENDBRANCH  13  14
ENDBRANCH  12  13
ENDBRANCH  11  12
ENDBRANCH  10  11
ENDBRANCH   9  10
ENDBRANCH   8   9
ENDBRANCH   7   8
ENDBRANCH   6   7
ENDBRANCH   5   6
ENDBRANCH   4   5
ENDBRANCH   3   4
ENDBRANCH   2   3
TORSDOF 22
ENDMDL
MODEL      283
REMARK 921   NORMALIZED FREE ENERGY PREDICTED BY IDOCK:    0.83 KCAL/MOL
REMARK 922        TOTAL FREE ENERGY PREDICTED BY IDOCK:   -2.56 KCAL/MOL
REMARK 923 INTER-LIGAND FREE ENERGY PREDICTED BY IDOCK:   -0.74 KCAL/MOL
REMARK 924 INTRA-LIGAND FREE ENERGY PREDICTED BY IDOCK:   -1.82 KCAL/MOL
REMARK 927      BINDING AFFINITY PREDICTED BY RF-SCORE:    0.00 PKD
ROOT
HETATM    1  C   UNL     1     -12.501  16.035  64.710  1.00  0.00     1.012 C  
HETATM    2  C   UNL     1     -12.046  15.809  66.141  1.00  0.00     1.136 C  
ENDROOT
BRANCH   2   3
HETATM    3  C   UNL     1     -11.238  14.521  66.262  1.00  0.00    -0.342 C  
BRANCH   3   4
HETATM    4  C   UNL     1      -9.762  14.781  65.990  1.00  0.00    -0.350 C  
BRANCH   4   5
HETATM    5  C   UNL     1      -9.061  13.499  65.557  1.00  0.00     0.771 C  
BRANCH   5   6
HETATM    6  C   UNL     1      -9.548  12.321  66.387  1.00  0.00    -0.242 C  
BRANCH   6   7
HETATM    7  C   UNL     1      -8.631  12.102  67.580  1.00  0.00    -0.166 C  
BRANCH   7   8
HETATM    8  C   UNL     1      -8.425  13.406  68.334  1.00  0.00    -0.135 C  
BRANCH   8   9
HETATM    9  C   UNL     1      -7.551  13.164  69.553  1.00  0.00     0.669 C  
BRANCH   9  10
HETATM   10  C   UNL     1      -6.560  14.301  69.732  1.00  0.00    -0.125 C  
BRANCH  10  11
HETATM   11  C   UNL     1      -5.138  13.764  69.675  1.00  0.00    -0.084 C  
BRANCH  11  12
HETATM   12  C   UNL     1      -5.156  12.246  69.570  1.00  0.00    -0.070 C  
BRANCH  12  13
HETATM   13  C   UNL     1      -5.643  11.615  70.863  1.00  0.00    -0.069 C  
BRANCH  13  14
HETATM   14  C   UNL     1      -5.443  10.095  70.872  1.00  0.00    -0.077 C  
BRANCH  14  15
HETATM   15  C   UNL     1      -6.140   9.357  69.719  1.00  0.00    -0.039 C  
BRANCH  15  16
HETATM   16  C   UNL     1      -6.723   8.034  70.208  1.00  0.00    -0.037 C  
BRANCH  16  17
HETATM   17  N   UNL     1      -8.237   8.011  70.362  1.00  0.00    -0.116 N  
HETATM   18  C   UNL     1      -8.791   9.434  70.519  1.00  0.00    -0.239 C  
HETATM   19  C   UNL     1      -8.694   7.180  71.552  1.00  0.00    -0.119 C  
BRANCH  17  20
HETATM   20  C   UNL     1      -8.853   7.443  69.046  1.00  0.00    -0.132 C  
BRANCH  20  21
HETATM   21  C   UNL     1      -8.334   6.041  68.596  1.00  0.00    -0.113 C  
BRANCH  21  22
HETATM   22  N   UNL     1      -8.102   6.049  67.155  1.00  0.00    -0.105 NA 
BRANCH  22  23
HETATM   23  C   UNL     1      -6.889   6.669  66.605  1.00  0.00    -0.062 C  
BRANCH  23  24
HETATM   24  C   UNL     1      -7.185   7.853  65.705  1.00  0.00    -0.071 A  
HETATM   25  C   UNL     1      -8.474   8.400  65.662  1.00  0.00    -0.179 A  
HETATM   26  C   UNL     1      -7.830   9.878  63.846  1.00  0.00    -0.148 A  
HETATM   27  C   UNL     1      -6.522   9.410  63.943  1.00  0.00    -0.095 A  
HETATM   28  C   UNL     1      -6.201   8.401  64.866  1.00  0.00    -0.056 A  
HETATM   29  C   UNL     1      -8.791   9.393  64.734  1.00  0.00    -0.243 A  
BRANCH  26  30
HETATM   30  O   UNL     1      -8.320  10.745  62.912  1.00  0.00    -0.161 OA 
HETATM   31  C   UNL     1      -9.726  10.821  62.722  1.00  0.00    -0.260 C  
ENDBRANCH  26  30
ENDBRANCH  23  24
ENDBRANCH  22  23
BRANCH  22  32
HETATM   32  C   UNL     1      -8.523   4.914  66.481  1.00  0.00    -0.110 A  
HETATM   33  N   UNL     1      -7.844   3.766  66.662  1.00  0.00    -0.088 NA 
HETATM   34  N   UNL     1      -9.678   4.980  65.810  1.00  0.00    -0.160 NA 
HETATM   35  C   UNL     1     -10.158   3.836  65.287  1.00  0.00    -0.059 A  
HETATM   36  C   UNL     1      -8.333   2.652  66.065  1.00  0.00    -0.092 A  
HETATM   37  C   UNL     1      -9.512   2.629  65.370  1.00  0.00     0.014 A  
ENDBRANCH  22  32
ENDBRANCH  21  22
ENDBRANCH  20  21
ENDBRANCH  17  20
ENDBRANCH  16  17
ENDBRANCH  15  16
ENDBRANCH  14  15
ENDBRANCH  13  14
ENDBRANCH  12  13
ENDBRANCH  11  12
ENDBRANCH  10  11
ENDBRANCH   9  10
ENDBRANCH   8   9
ENDBRANCH   7   8
ENDBRANCH   6   7
ENDBRANCH   5   6
ENDBRANCH   4   5
ENDBRANCH   3   4
ENDBRANCH   2   3
TORSDOF 22
ENDMDL
MODEL      284
REMARK 921   NORMALIZED FREE ENERGY PREDICTED BY IDOCK:    0.86 KCAL/MOL
REMARK 922        TOTAL FREE ENERGY PREDICTED BY IDOCK:   -2.49 KCAL/MOL
REMARK 923 INTER-LIGAND FREE ENERGY PREDICTED BY IDOCK:   -5.40 KCAL/MOL
REMARK 924 INTRA-LIGAND FREE ENERGY PREDICTED BY IDOCK:    2.91 KCAL/MOL
REMARK 927      BINDING AFFINITY PREDICTED BY RF-SCORE:    0.00 PKD
ROOT
HETATM    1  C   UNL     1      -8.165  16.003  69.533  1.00  0.00    -0.018 C  
HETATM    2  C   UNL     1      -8.520  14.730  68.785  1.00  0.00    -0.170 C  
ENDROOT
BRANCH   2   3
HETATM    3  C   UNL     1      -7.536  14.471  67.649  1.00  0.00    -0.198 C  
BRANCH   3   4
HETATM    4  C   UNL     1      -6.385  13.591  68.120  1.00  0.00    -0.124 C  
BRANCH   4   5
HETATM    5  C   UNL     1      -5.631  14.259  69.263  1.00  0.00    -0.082 C  
BRANCH   5   6
HETATM    6  C   UNL     1      -5.127  15.630  68.838  1.00  0.00    -0.099 C  
BRANCH   6   7
HETATM    7  C   UNL     1      -5.936  16.148  67.660  1.00  0.00    -0.175 C  
BRANCH   7   8
HETATM    8  C   UNL     1      -5.415  17.506  67.217  1.00  0.00    -0.155 C  
BRANCH   8   9
HETATM    9  C   UNL     1      -6.159  17.962  65.973  1.00  0.00    -0.265 C  
BRANCH   9  10
HETATM   10  C   UNL     1      -7.496  18.578  66.348  1.00  0.00    -0.279 C  
BRANCH  10  11
HETATM   11  C   UNL     1      -8.483  17.485  66.729  1.00  0.00    -0.275 C  
BRANCH  11  12
HETATM   12  C   UNL     1      -9.720  18.099  67.368  1.00  0.00    -0.296 C  
BRANCH  12  13
HETATM   13  C   UNL     1     -10.955  17.849  66.519  1.00  0.00     0.228 C  
BRANCH  13  14
HETATM   14  C   UNL     1     -11.117  16.367  66.163  1.00  0.00     0.184 C  
BRANCH  14  15
HETATM   15  C   UNL     1     -11.569  15.479  67.333  1.00  0.00    -0.063 C  
BRANCH  15  16
HETATM   16  C   UNL     1     -10.664  14.257  67.455  1.00  0.00    -0.282 C  
BRANCH  16  17
HETATM   17  N   UNL     1     -11.044  13.079  66.569  1.00  0.00    -0.282 N  
HETATM   18  C   UNL     1     -10.236  13.095  65.264  1.00  0.00    -0.286 C  
HETATM   19  C   UNL     1     -12.525  13.060  66.221  1.00  0.00    -0.041 C  
BRANCH  17  20
HETATM   20  C   UNL     1     -10.653  11.764  67.311  1.00  0.00    -0.224 C  
BRANCH  20  21
HETATM   21  C   UNL     1      -9.517  10.919  66.654  1.00  0.00    -0.179 C  
BRANCH  21  22
HETATM   22  N   UNL     1      -9.126   9.844  67.561  1.00  0.00    -0.134 NA 
BRANCH  22  23
HETATM   23  C   UNL     1      -9.398   8.444  67.209  1.00  0.00    -0.146 C  
BRANCH  23  24
HETATM   24  C   UNL     1      -9.713   7.581  68.415  1.00  0.00    -0.161 A  
HETATM   25  C   UNL     1      -9.124   6.317  68.549  1.00  0.00    -0.125 A  
HETATM   26  C   UNL     1     -10.484   5.845  70.506  1.00  0.00    -0.254 A  
HETATM   27  C   UNL     1     -11.006   7.135  70.439  1.00  0.00    -0.290 A  
HETATM   28  C   UNL     1     -10.625   7.997  69.398  1.00  0.00    -0.210 A  
HETATM   29  C   UNL     1      -9.517   5.458  69.577  1.00  0.00    -0.182 A  
BRANCH  26  30
HETATM   30  O   UNL     1     -10.860   4.855  71.365  1.00  0.00    -0.044 OA 
HETATM   31  C   UNL     1     -10.544   4.989  72.744  1.00  0.00    -0.221 C  
ENDBRANCH  26  30
ENDBRANCH  23  24
ENDBRANCH  22  23
BRANCH  22  32
HETATM   32  C   UNL     1      -7.932  10.043  68.238  1.00  0.00    -0.097 A  
HETATM   33  N   UNL     1      -7.976  10.412  69.531  1.00  0.00    -0.160 NA 
HETATM   34  N   UNL     1      -6.799   9.702  67.615  1.00  0.00    -0.081 NA 
HETATM   35  C   UNL     1      -5.659   9.751  68.329  1.00  0.00    -0.039 A  
HETATM   36  C   UNL     1      -6.797  10.508  70.192  1.00  0.00    -0.141 A  
HETATM   37  C   UNL     1      -5.595  10.168  69.634  1.00  0.00    -0.038 A  
ENDBRANCH  22  32
ENDBRANCH  21  22
ENDBRANCH  20  21
ENDBRANCH  17  20
ENDBRANCH  16  17
ENDBRANCH  15  16
ENDBRANCH  14  15
ENDBRANCH  13  14
ENDBRANCH  12  13
ENDBRANCH  11  12
ENDBRANCH  10  11
ENDBRANCH   9  10
ENDBRANCH   8   9
ENDBRANCH   7   8
ENDBRANCH   6   7
ENDBRANCH   5   6
ENDBRANCH   4   5
ENDBRANCH   3   4
ENDBRANCH   2   3
TORSDOF 22
ENDMDL
MODEL      285
REMARK 921   NORMALIZED FREE ENERGY PREDICTED BY IDOCK:    1.57 KCAL/MOL
REMARK 922        TOTAL FREE ENERGY PREDICTED BY IDOCK:   -0.86 KCAL/MOL
REMARK 923 INTER-LIGAND FREE ENERGY PREDICTED BY IDOCK:   -4.31 KCAL/MOL
REMARK 924 INTRA-LIGAND FREE ENERGY PREDICTED BY IDOCK:    3.44 KCAL/MOL
REMARK 927      BINDING AFFINITY PREDICTED BY RF-SCORE:    0.00 PKD
ROOT
HETATM    1  C   UNL     1      -7.942  15.216  69.323  1.00  0.00    -0.213 C  
HETATM    2  C   UNL     1      -9.015  16.252  69.610  1.00  0.00     0.238 C  
ENDROOT
BRANCH   2   3
HETATM    3  C   UNL     1     -10.141  16.171  68.586  1.00  0.00    -0.231 C  
BRANCH   3   4
HETATM    4  C   UNL     1     -10.639  14.738  68.442  1.00  0.00    -0.242 C  
BRANCH   4   5
HETATM    5  C   UNL     1     -10.683  14.329  66.975  1.00  0.00    -0.290 C  
BRANCH   5   6
HETATM    6  C   UNL     1     -10.099  15.427  66.099  1.00  0.00    -0.325 C  
BRANCH   6   7
HETATM    7  C   UNL     1     -10.909  15.569  64.820  1.00  0.00    -0.385 C  
BRANCH   7   8
HETATM    8  C   UNL     1     -11.163  14.204  64.201  1.00  0.00    -0.056 C  
BRANCH   8   9
HETATM    9  C   UNL     1     -11.932  13.330  65.177  1.00  0.00    -0.413 C  
BRANCH   9  10
HETATM   10  C   UNL     1     -12.011  11.902  64.666  1.00  0.00    -0.251 C  
BRANCH  10  11
HETATM   11  C   UNL     1     -12.057  11.897  63.145  1.00  0.00    -0.321 C  
BRANCH  11  12
HETATM   12  C   UNL     1     -10.662  11.672  62.581  1.00  0.00     0.592 C  
BRANCH  12  13
HETATM   13  C   UNL     1      -9.661  11.396  63.691  1.00  0.00    -0.337 C  
BRANCH  13  14
HETATM   14  C   UNL     1      -9.148   9.953  63.657  1.00  0.00    -0.294 C  
BRANCH  14  15
HETATM   15  C   UNL     1      -7.804   9.774  62.933  1.00  0.00    -0.131 C  
BRANCH  15  16
HETATM   16  C   UNL     1      -7.381   8.308  62.951  1.00  0.00    -0.101 C  
BRANCH  16  17
HETATM   17  N   UNL     1      -6.422   7.925  64.069  1.00  0.00    -0.061 N  
HETATM   18  C   UNL     1      -5.204   7.177  63.511  1.00  0.00    -0.033 C  
HETATM   19  C   UNL     1      -7.078   7.055  65.131  1.00  0.00    -0.060 C  
BRANCH  17  20
HETATM   20  C   UNL     1      -5.876   9.235  64.715  1.00  0.00    -0.064 C  
BRANCH  20  21
HETATM   21  C   UNL     1      -5.134   9.069  66.079  1.00  0.00    -0.032 C  
BRANCH  21  22
HETATM   22  N   UNL     1      -6.101   8.726  67.118  1.00  0.00    -0.054 NA 
BRANCH  22  23
HETATM   23  C   UNL     1      -5.639   8.339  68.457  1.00  0.00    -0.037 C  
BRANCH  23  24
HETATM   24  C   UNL     1      -6.699   7.613  69.262  1.00  0.00    -0.044 A  
HETATM   25  C   UNL     1      -6.704   6.214  69.319  1.00  0.00    -0.060 A  
HETATM   26  C   UNL     1      -8.811   6.229  70.527  1.00  0.00    -0.144 A  
HETATM   27  C   UNL     1      -8.769   7.621  70.561  1.00  0.00    -0.138 A  
HETATM   28  C   UNL     1      -7.720   8.309  69.929  1.00  0.00    -0.097 A  
HETATM   29  C   UNL     1      -7.756   5.534  69.935  1.00  0.00    -0.082 A  
BRANCH  26  30
HETATM   30  O   UNL     1      -9.827   5.431  70.967  1.00  0.00    -0.170 OA 
HETATM   31  C   UNL     1     -10.868   5.088  70.063  1.00  0.00     0.385 C  
ENDBRANCH  26  30
ENDBRANCH  23  24
ENDBRANCH  22  23
BRANCH  22  32
HETATM   32  C   UNL     1      -7.271   9.467  67.106  1.00  0.00    -0.087 A  
HETATM   33  N   UNL     1      -7.203  10.780  66.819  1.00  0.00    -0.121 NA 
HETATM   34  N   UNL     1      -8.429   8.806  67.224  1.00  0.00    -0.111 NA 
HETATM   35  C   UNL     1      -9.565   9.510  67.058  1.00  0.00    -0.164 A  
HETATM   36  C   UNL     1      -8.371  11.459  66.723  1.00  0.00    -0.163 A  
HETATM   37  C   UNL     1      -9.598  10.859  66.818  1.00  0.00    -0.210 A  
ENDBRANCH  22  32
ENDBRANCH  21  22
ENDBRANCH  20  21
ENDBRANCH  17  20
ENDBRANCH  16  17
ENDBRANCH  15  16
ENDBRANCH  14  15
ENDBRANCH  13  14
ENDBRANCH  12  13
ENDBRANCH  11  12
ENDBRANCH  10  11
ENDBRANCH   9  10
ENDBRANCH   8   9
ENDBRANCH   7   8
ENDBRANCH   6   7
ENDBRANCH   5   6
ENDBRANCH   4   5
ENDBRANCH   3   4
ENDBRANCH   2   3
TORSDOF 22
ENDMDL
MODEL      286
REMARK 921   NORMALIZED FREE ENERGY PREDICTED BY IDOCK:    2.29 KCAL/MOL
REMARK 922        TOTAL FREE ENERGY PREDICTED BY IDOCK:    0.79 KCAL/MOL
REMARK 923 INTER-LIGAND FREE ENERGY PREDICTED BY IDOCK:   -2.75 KCAL/MOL
REMARK 924 INTRA-LIGAND FREE ENERGY PREDICTED BY IDOCK:    3.54 KCAL/MOL
REMARK 927      BINDING AFFINITY PREDICTED BY RF-SCORE:    0.00 PKD
ROOT
HETATM    1  C   UNL     1      -8.157  16.004  69.535  1.00  0.00    -0.028 C  
HETATM    2  C   UNL     1      -8.449  14.705  68.805  1.00  0.00    -0.161 C  
ENDROOT
BRANCH   2   3
HETATM    3  C   UNL     1      -7.446  14.472  67.680  1.00  0.00    -0.195 C  
BRANCH   3   4
HETATM    4  C   UNL     1      -6.238  13.694  68.185  1.00  0.00    -0.117 C  
BRANCH   4   5
HETATM    5  C   UNL     1      -5.528  14.462  69.293  1.00  0.00    -0.085 C  
BRANCH   5   6
HETATM    6  C   UNL     1      -5.130  15.848  68.807  1.00  0.00    -0.103 C  
BRANCH   6   7
HETATM    7  C   UNL     1      -6.128  16.353  67.778  1.00  0.00    -0.152 C  
BRANCH   7   8
HETATM    8  C   UNL     1      -5.726  17.733  67.284  1.00  0.00    -0.157 C  
BRANCH   8   9
HETATM    9  C   UNL     1      -6.660  18.174  66.170  1.00  0.00    -0.281 C  
BRANCH   9  10
HETATM   10  C   UNL     1      -7.959  18.713  66.746  1.00  0.00    -0.266 C  
BRANCH  10  11
HETATM   11  C   UNL     1      -8.794  17.569  67.302  1.00  0.00    -0.235 C  
BRANCH  11  12
HETATM   12  C   UNL     1      -9.973  18.120  68.091  1.00  0.00    -0.368 C  
BRANCH  12  13
HETATM   13  C   UNL     1     -11.214  18.222  67.220  1.00  0.00     0.344 C  
BRANCH  13  14
HETATM   14  C   UNL     1     -11.504  16.913  66.477  1.00  0.00     1.043 C  
BRANCH  14  15
HETATM   15  C   UNL     1     -12.003  15.770  67.375  1.00  0.00     0.567 C  
BRANCH  15  16
HETATM   16  C   UNL     1     -11.165  14.514  67.153  1.00  0.00    -0.333 C  
BRANCH  16  17
HETATM   17  N   UNL     1     -11.628  13.620  66.011  1.00  0.00    -0.326 N  
HETATM   18  C   UNL     1     -10.878  13.959  64.715  1.00  0.00    -0.419 C  
HETATM   19  C   UNL     1     -13.123  13.732  65.747  1.00  0.00    -0.066 C  
BRANCH  17  20
HETATM   20  C   UNL     1     -11.257  12.146  66.362  1.00  0.00    -0.331 C  
BRANCH  20  21
HETATM   21  C   UNL     1     -10.193  11.471  65.442  1.00  0.00    -0.264 C  
BRANCH  21  22
HETATM   22  N   UNL     1      -9.232  10.741  66.264  1.00  0.00    -0.168 NA 
BRANCH  22  23
HETATM   23  C   UNL     1      -9.661   9.566  67.033  1.00  0.00    -0.176 C  
BRANCH  23  24
HETATM   24  C   UNL     1      -8.921   9.417  68.349  1.00  0.00    -0.128 A  
HETATM   25  C   UNL     1      -9.321  10.156  69.469  1.00  0.00    -0.230 A  
HETATM   26  C   UNL     1      -7.402   9.362  70.729  1.00  0.00    -0.111 A  
HETATM   27  C   UNL     1      -7.047   8.549  69.654  1.00  0.00    -0.052 A  
HETATM   28  C   UNL     1      -7.801   8.578  68.470  1.00  0.00    -0.108 A  
HETATM   29  C   UNL     1      -8.560  10.135  70.639  1.00  0.00     0.863 A  
BRANCH  26  30
HETATM   30  O   UNL     1      -6.694   9.548  71.881  1.00  0.00    -0.298 OA 
HETATM   31  C   UNL     1      -5.311   9.858  71.791  1.00  0.00    -0.048 C  
ENDBRANCH  26  30
ENDBRANCH  23  24
ENDBRANCH  22  23
BRANCH  22  32
HETATM   32  C   UNL     1      -7.953  10.648  65.740  1.00  0.00    -0.152 A  
HETATM   33  N   UNL     1      -6.990  11.442  66.243  1.00  0.00    -0.003 NA 
HETATM   34  N   UNL     1      -7.705   9.661  64.873  1.00  0.00    -0.114 NA 
HETATM   35  C   UNL     1      -6.428   9.480  64.486  1.00  0.00    -0.093 A  
HETATM   36  C   UNL     1      -5.729  11.264  65.778  1.00  0.00     0.122 A  
HETATM   37  C   UNL     1      -5.387  10.272  64.899  1.00  0.00    -0.117 A  
ENDBRANCH  22  32
ENDBRANCH  21  22
ENDBRANCH  20  21
ENDBRANCH  17  20
ENDBRANCH  16  17
ENDBRANCH  15  16
ENDBRANCH  14  15
ENDBRANCH  13  14
ENDBRANCH  12  13
ENDBRANCH  11  12
ENDBRANCH  10  11
ENDBRANCH   9  10
ENDBRANCH   8   9
ENDBRANCH   7   8
ENDBRANCH   6   7
ENDBRANCH   5   6
ENDBRANCH   4   5
ENDBRANCH   3   4
ENDBRANCH   2   3
TORSDOF 22
ENDMDL
MODEL      287
REMARK 921   NORMALIZED FREE ENERGY PREDICTED BY IDOCK:    2.51 KCAL/MOL
REMARK 922        TOTAL FREE ENERGY PREDICTED BY IDOCK:    1.28 KCAL/MOL
REMARK 923 INTER-LIGAND FREE ENERGY PREDICTED BY IDOCK:   -3.68 KCAL/MOL
REMARK 924 INTRA-LIGAND FREE ENERGY PREDICTED BY IDOCK:    4.96 KCAL/MOL
REMARK 927      BINDING AFFINITY PREDICTED BY RF-SCORE:    0.00 PKD
ROOT
HETATM    1  C   UNL     1      -6.573   3.486  74.538  1.00  0.00    -0.039 C  
HETATM    2  C   UNL     1      -6.762   3.516  73.032  1.00  0.00    -0.037 C  
ENDROOT
BRANCH   2   3
HETATM    3  C   UNL     1      -8.192   3.899  72.668  1.00  0.00    -0.094 C  
BRANCH   3   4
HETATM    4  C   UNL     1      -9.071   2.661  72.550  1.00  0.00    -0.119 C  
BRANCH   4   5
HETATM    5  C   UNL     1     -10.467   3.036  72.068  1.00  0.00     0.135 C  
BRANCH   5   6
HETATM    6  C   UNL     1     -11.411   3.201  73.249  1.00  0.00    -0.070 C  
BRANCH   6   7
HETATM    7  C   UNL     1     -12.201   4.493  73.116  1.00  0.00     0.305 C  
BRANCH   7   8
HETATM    8  C   UNL     1     -11.546   5.411  72.096  1.00  0.00    -0.026 C  
BRANCH   8   9
HETATM    9  C   UNL     1     -12.268   6.747  72.067  1.00  0.00    -0.331 C  
BRANCH   9  10
HETATM   10  C   UNL     1     -11.518   7.776  72.896  1.00  0.00    -0.359 C  
BRANCH  10  11
HETATM   11  C   UNL     1     -11.649   9.151  72.261  1.00  0.00    -0.149 C  
BRANCH  11  12
HETATM   12  C   UNL     1     -10.421   9.455  71.415  1.00  0.00    -0.358 C  
BRANCH  12  13
HETATM   13  C   UNL     1      -9.511   8.242  71.317  1.00  0.00    -0.219 C  
BRANCH  13  14
HETATM   14  C   UNL     1     -10.048   7.199  70.331  1.00  0.00    -0.199 C  
BRANCH  14  15
HETATM   15  C   UNL     1     -10.169   7.698  68.883  1.00  0.00    -0.217 C  
BRANCH  15  16
HETATM   16  C   UNL     1     -10.919   9.026  68.838  1.00  0.00     0.054 C  
BRANCH  16  17
HETATM   17  N   UNL     1     -10.377  10.043  67.844  1.00  0.00    -0.192 N  
HETATM   18  C   UNL     1     -10.885  11.453  68.174  1.00  0.00    -0.213 C  
HETATM   19  C   UNL     1     -10.755   9.717  66.407  1.00  0.00     0.058 C  
BRANCH  17  20
HETATM   20  C   UNL     1      -8.824  10.089  67.990  1.00  0.00    -0.125 C  
BRANCH  20  21
HETATM   21  C   UNL     1      -8.097   8.708  68.017  1.00  0.00    -0.111 C  
BRANCH  21  22
HETATM   22  N   UNL     1      -7.805   8.287  66.650  1.00  0.00    -0.093 NA 
BRANCH  22  23
HETATM   23  C   UNL     1      -8.881   7.781  65.788  1.00  0.00    -0.106 C  
BRANCH  23  24
HETATM   24  C   UNL     1      -8.566   6.428  65.180  1.00  0.00    -0.011 A  
HETATM   25  C   UNL     1      -8.071   6.341  63.873  1.00  0.00    -0.055 A  
HETATM   26  C   UNL     1      -8.224   3.918  63.932  1.00  0.00    -0.091 A  
HETATM   27  C   UNL     1      -8.626   3.987  65.264  1.00  0.00    -0.114 A  
HETATM   28  C   UNL     1      -8.799   5.235  65.884  1.00  0.00    -0.145 A  
HETATM   29  C   UNL     1      -7.915   5.099  63.256  1.00  0.00    -0.090 A  
BRANCH  26  30
HETATM   30  O   UNL     1      -8.150   2.796  63.158  1.00  0.00    -0.068 OA 
HETATM   31  C   UNL     1      -7.083   1.884  63.376  1.00  0.00    -0.036 C  
ENDBRANCH  26  30
ENDBRANCH  23  24
ENDBRANCH  22  23
BRANCH  22  32
HETATM   32  C   UNL     1      -6.847   9.039  65.990  1.00  0.00    -0.080 A  
HETATM   33  N   UNL     1      -6.480   8.673  64.748  1.00  0.00    -0.065 NA 
HETATM   34  N   UNL     1      -6.452  10.183  66.559  1.00  0.00    -0.072 NA 
HETATM   35  C   UNL     1      -5.639  10.984  65.844  1.00  0.00    -0.128 A  
HETATM   36  C   UNL     1      -5.612   9.479  64.091  1.00  0.00    -0.072 A  
HETATM   37  C   UNL     1      -5.167  10.671  64.595  1.00  0.00    -0.146 A  
ENDBRANCH  22  32
ENDBRANCH  21  22
ENDBRANCH  20  21
ENDBRANCH  17  20
ENDBRANCH  16  17
ENDBRANCH  15  16
ENDBRANCH  14  15
ENDBRANCH  13  14
ENDBRANCH  12  13
ENDBRANCH  11  12
ENDBRANCH  10  11
ENDBRANCH   9  10
ENDBRANCH   8   9
ENDBRANCH   7   8
ENDBRANCH   6   7
ENDBRANCH   5   6
ENDBRANCH   4   5
ENDBRANCH   3   4
ENDBRANCH   2   3
TORSDOF 22
ENDMDL
MODEL      288
REMARK 921   NORMALIZED FREE ENERGY PREDICTED BY IDOCK:    3.63 KCAL/MOL
REMARK 922        TOTAL FREE ENERGY PREDICTED BY IDOCK:    3.84 KCAL/MOL
REMARK 923 INTER-LIGAND FREE ENERGY PREDICTED BY IDOCK:    1.35 KCAL/MOL
REMARK 924 INTRA-LIGAND FREE ENERGY PREDICTED BY IDOCK:    2.48 KCAL/MOL
REMARK 927      BINDING AFFINITY PREDICTED BY RF-SCORE:    0.00 PKD
ROOT
HETATM    1  C   UNL     1     -11.789  16.455  65.147  1.00  0.00     0.889 C  
HETATM    2  C   UNL     1     -11.186  16.369  66.538  1.00  0.00     0.328 C  
ENDROOT
BRANCH   2   3
HETATM    3  C   UNL     1     -10.145  15.257  66.616  1.00  0.00    -0.268 C  
BRANCH   3   4
HETATM    4  C   UNL     1      -8.753  15.798  66.314  1.00  0.00    -0.358 C  
BRANCH   4   5
HETATM    5  C   UNL     1      -7.836  14.681  65.831  1.00  0.00     3.121 C  
BRANCH   5   6
HETATM    6  C   UNL     1      -8.283  13.342  66.399  1.00  0.00     0.761 C  
BRANCH   6   7
HETATM    7  C   UNL     1      -7.835  13.208  67.846  1.00  0.00    -0.151 C  
BRANCH   7   8
HETATM    8  C   UNL     1      -8.182  14.465  68.626  1.00  0.00    -0.148 C  
BRANCH   8   9
HETATM    9  C   UNL     1      -7.643  14.358  70.042  1.00  0.00     0.456 C  
BRANCH   9  10
HETATM   10  C   UNL     1      -6.872  15.613  70.415  1.00  0.00     0.422 C  
BRANCH  10  11
HETATM   11  C   UNL     1      -5.394  15.288  70.570  1.00  0.00    -0.134 C  
BRANCH  11  12
HETATM   12  C   UNL     1      -5.132  13.844  70.169  1.00  0.00    -0.091 C  
BRANCH  12  13
HETATM   13  C   UNL     1      -6.021  12.890  70.949  1.00  0.00     0.141 C  
BRANCH  13  14
HETATM   14  C   UNL     1      -5.656  11.424  70.692  1.00  0.00    -0.135 C  
BRANCH  14  15
HETATM   15  C   UNL     1      -6.100  10.890  69.322  1.00  0.00    -0.047 C  
BRANCH  15  16
HETATM   16  C   UNL     1      -6.697   9.493  69.462  1.00  0.00    -0.049 C  
BRANCH  16  17
HETATM   17  N   UNL     1      -8.217   9.440  69.515  1.00  0.00    -0.114 N  
HETATM   18  C   UNL     1      -8.808  10.853  69.622  1.00  0.00     0.428 C  
HETATM   19  C   UNL     1      -8.736   8.610  70.680  1.00  0.00    -0.165 C  
BRANCH  17  20
HETATM   20  C   UNL     1      -8.733   8.849  68.166  1.00  0.00    -0.134 C  
BRANCH  20  21
HETATM   21  C   UNL     1      -8.098   7.494  67.726  1.00  0.00    -0.119 C  
BRANCH  21  22
HETATM   22  N   UNL     1      -8.124   7.397  66.269  1.00  0.00    -0.112 NA 
BRANCH  22  23
HETATM   23  C   UNL     1      -7.550   8.470  65.447  1.00  0.00    -0.088 C  
BRANCH  23  24
HETATM   24  C   UNL     1      -8.580   9.489  65.000  1.00  0.00    -0.187 A  
HETATM   25  C   UNL     1      -9.556   9.942  65.895  1.00  0.00    -0.300 A  
HETATM   26  C   UNL     1     -10.667  11.178  64.123  1.00  0.00    -0.345 A  
HETATM   27  C   UNL     1      -9.648  10.812  63.246  1.00  0.00    -0.384 A  
HETATM   28  C   UNL     1      -8.612   9.970  63.681  1.00  0.00    -0.204 A  
HETATM   29  C   UNL     1     -10.593  10.767  65.455  1.00  0.00    -0.224 A  
BRANCH  26  30
HETATM   30  O   UNL     1     -11.804  11.866  63.814  1.00  0.00    -0.441 OA 
HETATM   31  C   UNL     1     -11.808  13.279  63.959  1.00  0.00    -0.455 C  
ENDBRANCH  26  30
ENDBRANCH  23  24
ENDBRANCH  22  23
BRANCH  22  32
HETATM   32  C   UNL     1      -7.944   6.122  65.756  1.00  0.00    -0.115 A  
HETATM   33  N   UNL     1      -8.318   5.877  64.487  1.00  0.00    -0.109 NA 
HETATM   34  N   UNL     1      -7.259   5.244  66.497  1.00  0.00    -0.076 NA 
HETATM   35  C   UNL     1      -6.954   4.060  65.932  1.00  0.00    -0.065 A  
HETATM   36  C   UNL     1      -8.044   4.650  63.983  1.00  0.00    -0.104 A  
HETATM   37  C   UNL     1      -7.339   3.697  64.667  1.00  0.00    -0.068 A  
ENDBRANCH  22  32
ENDBRANCH  21  22
ENDBRANCH  20  21
ENDBRANCH  17  20
ENDBRANCH  16  17
ENDBRANCH  15  16
ENDBRANCH  14  15
ENDBRANCH  13  14
ENDBRANCH  12  13
ENDBRANCH  11  12
ENDBRANCH  10  11
ENDBRANCH   9  10
ENDBRANCH   8   9
ENDBRANCH   7   8
ENDBRANCH   6   7
ENDBRANCH   5   6
ENDBRANCH   4   5
ENDBRANCH   3   4
ENDBRANCH   2   3
TORSDOF 22
ENDMDL
MODEL      289
REMARK 921   NORMALIZED FREE ENERGY PREDICTED BY IDOCK:    4.21 KCAL/MOL
REMARK 922        TOTAL FREE ENERGY PREDICTED BY IDOCK:    5.16 KCAL/MOL
REMARK 923 INTER-LIGAND FREE ENERGY PREDICTED BY IDOCK:   -1.98 KCAL/MOL
REMARK 924 INTRA-LIGAND FREE ENERGY PREDICTED BY IDOCK:    7.14 KCAL/MOL
REMARK 927      BINDING AFFINITY PREDICTED BY RF-SCORE:    0.00 PKD
ROOT
HETATM    1  C   UNL     1     -10.491  15.771  70.003  1.00  0.00    -0.313 C  
HETATM    2  C   UNL     1      -9.104  15.779  69.386  1.00  0.00    -0.254 C  
ENDROOT
BRANCH   2   3
HETATM    3  C   UNL     1      -8.030  15.579  70.451  1.00  0.00     1.106 C  
BRANCH   3   4
HETATM    4  C   UNL     1      -6.827  14.844  69.875  1.00  0.00    -0.167 C  
BRANCH   4   5
HETATM    5  C   UNL     1      -7.218  13.442  69.425  1.00  0.00     0.208 C  
BRANCH   5   6
HETATM    6  C   UNL     1      -7.073  13.308  67.916  1.00  0.00    -0.133 C  
BRANCH   6   7
HETATM    7  C   UNL     1      -8.239  12.519  67.343  1.00  0.00    -0.183 C  
BRANCH   7   8
HETATM    8  C   UNL     1      -7.736  11.461  66.374  1.00  0.00    -0.051 C  
BRANCH   8   9
HETATM    9  C   UNL     1      -6.571  10.707  66.992  1.00  0.00    -0.081 C  
BRANCH   9  10
HETATM   10  C   UNL     1      -7.041   9.880  68.177  1.00  0.00    -0.077 C  
BRANCH  10  11
HETATM   11  C   UNL     1      -7.876  10.741  69.113  1.00  0.00    -0.142 C  
BRANCH  11  12
HETATM   12  C   UNL     1      -8.308   9.926  70.324  1.00  0.00    -0.085 C  
BRANCH  12  13
HETATM   13  C   UNL     1      -7.873   8.477  70.191  1.00  0.00    -0.099 C  
BRANCH  13  14
HETATM   14  C   UNL     1      -7.118   8.221  68.882  1.00  0.00    -0.066 C  
BRANCH  14  15
HETATM   15  C   UNL     1      -7.713   7.100  68.016  1.00  0.00    -0.113 C  
BRANCH  15  16
HETATM   16  C   UNL     1      -8.526   6.137  68.875  1.00  0.00    -0.118 C  
BRANCH  16  17
HETATM   17  N   UNL     1      -7.734   4.990  69.488  1.00  0.00    -0.067 N  
HETATM   18  C   UNL     1      -8.365   4.538  70.813  1.00  0.00    -0.087 C  
HETATM   19  C   UNL     1      -6.279   5.353  69.745  1.00  0.00    -0.025 C  
BRANCH  17  20
HETATM   20  C   UNL     1      -7.816   3.768  68.522  1.00  0.00    -0.067 C  
BRANCH  20  21
HETATM   21  C   UNL     1      -6.840   3.791  67.304  1.00  0.00    -0.051 C  
BRANCH  21  22
HETATM   22  N   UNL     1      -7.405   4.622  66.246  1.00  0.00    -0.080 NA 
BRANCH  22  23
HETATM   23  C   UNL     1      -6.655   5.777  65.734  1.00  0.00    -0.044 C  
BRANCH  23  24
HETATM   24  C   UNL     1      -7.521   6.744  64.950  1.00  0.00    -0.094 A  
HETATM   25  C   UNL     1      -7.494   6.737  63.550  1.00  0.00    -0.080 A  
HETATM   26  C   UNL     1      -8.914   8.706  63.471  1.00  0.00     0.482 A  
HETATM   27  C   UNL     1      -9.026   8.667  64.859  1.00  0.00    -0.007 A  
HETATM   28  C   UNL     1      -8.331   7.692  65.595  1.00  0.00    -0.143 A  
HETATM   29  C   UNL     1      -8.174   7.716  62.824  1.00  0.00    -0.044 A  
BRANCH  26  30
HETATM   30  O   UNL     1      -9.408   9.668  62.639  1.00  0.00    -0.258 OA 
HETATM   31  C   UNL     1      -8.595  10.791  62.332  1.00  0.00    -0.281 C  
ENDBRANCH  26  30
ENDBRANCH  23  24
ENDBRANCH  22  23
BRANCH  22  32
HETATM   32  C   UNL     1      -8.138   3.943  65.285  1.00  0.00    -0.097 A  
HETATM   33  N   UNL     1      -7.488   3.129  64.433  1.00  0.00    -0.073 NA 
HETATM   34  N   UNL     1      -9.472   4.007  65.359  1.00  0.00    -0.160 NA 
HETATM   35  C   UNL     1     -10.178   3.223  64.521  1.00  0.00    -0.037 A  
HETATM   36  C   UNL     1      -8.239   2.407  63.567  1.00  0.00    -0.081 A  
HETATM   37  C   UNL     1      -9.608   2.404  63.581  1.00  0.00    -0.116 A  
ENDBRANCH  22  32
ENDBRANCH  21  22
ENDBRANCH  20  21
ENDBRANCH  17  20
ENDBRANCH  16  17
ENDBRANCH  15  16
ENDBRANCH  14  15
ENDBRANCH  13  14
ENDBRANCH  12  13
ENDBRANCH  11  12
ENDBRANCH  10  11
ENDBRANCH   9  10
ENDBRANCH   8   9
ENDBRANCH   7   8
ENDBRANCH   6   7
ENDBRANCH   5   6
ENDBRANCH   4   5
ENDBRANCH   3   4
ENDBRANCH   2   3
TORSDOF 22
ENDMDL
MODEL      290
REMARK 921   NORMALIZED FREE ENERGY PREDICTED BY IDOCK:    5.09 KCAL/MOL
REMARK 922        TOTAL FREE ENERGY PREDICTED BY IDOCK:    7.18 KCAL/MOL
REMARK 923 INTER-LIGAND FREE ENERGY PREDICTED BY IDOCK:    2.33 KCAL/MOL
REMARK 924 INTRA-LIGAND FREE ENERGY PREDICTED BY IDOCK:    4.85 KCAL/MOL
REMARK 927      BINDING AFFINITY PREDICTED BY RF-SCORE:    0.00 PKD
ROOT
HETATM    1  C   UNL     1     -10.658  18.125  71.945  1.00  0.00     3.510 C  
HETATM    2  C   UNL     1     -11.918  17.748  72.705  1.00  0.00     2.629 C  
ENDROOT
BRANCH   2   3
HETATM    3  C   UNL     1     -11.827  16.324  73.242  1.00  0.00    -0.420 C  
BRANCH   3   4
HETATM    4  C   UNL     1     -13.217  15.734  73.449  1.00  0.00    -0.653 C  
BRANCH   4   5
HETATM    5  C   UNL     1     -13.324  14.366  72.788  1.00  0.00    -0.606 C  
BRANCH   5   6
HETATM    6  C   UNL     1     -12.555  14.347  71.475  1.00  0.00    -0.424 C  
BRANCH   6   7
HETATM    7  C   UNL     1     -12.972  15.522  70.604  1.00  0.00    -0.425 C  
BRANCH   7   8
HETATM    8  C   UNL     1     -12.247  15.473  69.269  1.00  0.00    -0.209 C  
BRANCH   8   9
HETATM    9  C   UNL     1     -12.485  14.129  68.601  1.00  0.00     0.170 C  
BRANCH   9  10
HETATM   10  C   UNL     1     -11.435  13.872  67.534  1.00  0.00    -0.368 C  
BRANCH  10  11
HETATM   11  C   UNL     1     -12.108  13.635  66.190  1.00  0.00    -0.477 C  
BRANCH  11  12
HETATM   12  C   UNL     1     -12.060  12.156  65.836  1.00  0.00    -0.128 C  
BRANCH  12  13
HETATM   13  C   UNL     1     -12.243  11.291  67.072  1.00  0.00     1.456 C  
BRANCH  13  14
HETATM   14  C   UNL     1     -10.902  10.850  67.668  1.00  0.00    -0.317 C  
BRANCH  14  15
HETATM   15  C   UNL     1     -10.642  11.364  69.093  1.00  0.00    -0.196 C  
BRANCH  15  16
HETATM   16  C   UNL     1      -9.142  11.454  69.361  1.00  0.00     0.540 C  
BRANCH  16  17
HETATM   17  N   UNL     1      -8.474  10.143  69.749  1.00  0.00    -0.164 N  
HETATM   18  C   UNL     1      -8.585   9.117  68.613  1.00  0.00    -0.128 C  
HETATM   19  C   UNL     1      -9.066   9.533  71.011  1.00  0.00     0.087 C  
BRANCH  17  20
HETATM   20  C   UNL     1      -6.950  10.412  69.951  1.00  0.00    -0.149 C  
BRANCH  20  21
HETATM   21  C   UNL     1      -6.167   9.335  70.765  1.00  0.00    -0.066 C  
BRANCH  21  22
HETATM   22  N   UNL     1      -6.556   8.004  70.309  1.00  0.00    -0.037 NA 
BRANCH  22  23
HETATM   23  C   UNL     1      -5.619   7.189  69.526  1.00  0.00    -0.015 C  
BRANCH  23  24
HETATM   24  C   UNL     1      -6.257   6.569  68.298  1.00  0.00    -0.032 A  
HETATM   25  C   UNL     1      -7.536   6.969  67.892  1.00  0.00    -0.111 A  
HETATM   26  C   UNL     1      -7.577   5.246  66.180  1.00  0.00    -0.087 A  
HETATM   27  C   UNL     1      -6.268   4.902  66.511  1.00  0.00    -0.032 A  
HETATM   28  C   UNL     1      -5.612   5.558  67.566  1.00  0.00    -0.012 A  
HETATM   29  C   UNL     1      -8.189   6.304  66.852  1.00  0.00    -0.109 A  
BRANCH  26  30
HETATM   30  O   UNL     1      -8.386   4.610  65.284  1.00  0.00    -0.117 OA 
HETATM   31  C   UNL     1      -9.146   3.493  65.722  1.00  0.00    -0.150 C  
ENDBRANCH  26  30
ENDBRANCH  23  24
ENDBRANCH  22  23
BRANCH  22  32
HETATM   32  C   UNL     1      -7.346   7.283  71.190  1.00  0.00    -0.074 A  
HETATM   33  N   UNL     1      -8.313   6.491  70.692  1.00  0.00    -0.131 NA 
HETATM   34  N   UNL     1      -7.001   7.288  72.483  1.00  0.00    -0.067 NA 
HETATM   35  C   UNL     1      -7.676   6.465  73.308  1.00  0.00    -0.097 A  
HETATM   36  C   UNL     1      -9.007   5.727  71.569  1.00  0.00    -0.140 A  
HETATM   37  C   UNL     1      -8.713   5.664  72.905  1.00  0.00    -0.121 A  
ENDBRANCH  22  32
ENDBRANCH  21  22
ENDBRANCH  20  21
ENDBRANCH  17  20
ENDBRANCH  16  17
ENDBRANCH  15  16
ENDBRANCH  14  15
ENDBRANCH  13  14
ENDBRANCH  12  13
ENDBRANCH  11  12
ENDBRANCH  10  11
ENDBRANCH   9  10
ENDBRANCH   8   9
ENDBRANCH   7   8
ENDBRANCH   6   7
ENDBRANCH   5   6
ENDBRANCH   4   5
ENDBRANCH   3   4
ENDBRANCH   2   3
TORSDOF 22
ENDMDL
MODEL      291
REMARK 921   NORMALIZED FREE ENERGY PREDICTED BY IDOCK:    6.00 KCAL/MOL
REMARK 922        TOTAL FREE ENERGY PREDICTED BY IDOCK:    9.27 KCAL/MOL
REMARK 923 INTER-LIGAND FREE ENERGY PREDICTED BY IDOCK:    0.63 KCAL/MOL
REMARK 924 INTRA-LIGAND FREE ENERGY PREDICTED BY IDOCK:    8.64 KCAL/MOL
REMARK 927      BINDING AFFINITY PREDICTED BY RF-SCORE:    0.00 PKD
ROOT
HETATM    1  C   UNL     1      -9.681   8.356  73.248  1.00  0.00     0.044 C  
HETATM    2  C   UNL     1      -8.367   7.598  73.310  1.00  0.00    -0.193 C  
ENDROOT
BRANCH   2   3
HETATM    3  C   UNL     1      -8.584   6.106  73.076  1.00  0.00    -0.118 C  
BRANCH   3   4
HETATM    4  C   UNL     1     -10.021   5.829  72.654  1.00  0.00    -0.198 C  
BRANCH   4   5
HETATM    5  C   UNL     1     -10.260   6.291  71.222  1.00  0.00    -0.238 C  
BRANCH   5   6
HETATM    6  C   UNL     1     -11.525   7.133  71.139  1.00  0.00    -0.322 C  
BRANCH   6   7
HETATM    7  C   UNL     1     -11.268   8.393  70.329  1.00  0.00    -0.175 C  
BRANCH   7   8
HETATM    8  C   UNL     1     -11.182   9.603  71.245  1.00  0.00    -0.446 C  
BRANCH   8   9
HETATM    9  C   UNL     1     -12.555  10.235  71.395  1.00  0.00    -0.539 C  
BRANCH   9  10
HETATM   10  C   UNL     1     -12.664  11.482  70.535  1.00  0.00    -0.193 C  
BRANCH  10  11
HETATM   11  C   UNL     1     -11.419  11.630  69.673  1.00  0.00    -0.359 C  
BRANCH  11  12
HETATM   12  C   UNL     1     -11.483  10.670  68.494  1.00  0.00    -0.333 C  
BRANCH  12  13
HETATM   13  C   UNL     1     -12.606  11.047  67.543  1.00  0.00     3.254 C  
BRANCH  13  14
HETATM   14  C   UNL     1     -12.121  11.972  66.420  1.00  0.00     0.118 C  
BRANCH  14  15
HETATM   15  C   UNL     1     -12.358  11.427  65.003  1.00  0.00     1.224 C  
BRANCH  15  16
HETATM   16  C   UNL     1     -11.036  11.007  64.367  1.00  0.00     0.040 C  
BRANCH  16  17
HETATM   17  N   UNL     1      -9.787  11.453  65.114  1.00  0.00    -0.250 N  
HETATM   18  C   UNL     1     -10.128  12.532  66.151  1.00  0.00    -0.251 C  
HETATM   19  C   UNL     1      -8.711  11.997  64.187  1.00  0.00     1.253 C  
BRANCH  17  20
HETATM   20  C   UNL     1      -9.235  10.233  65.915  1.00  0.00    -0.167 C  
BRANCH  20  21
HETATM   21  C   UNL     1      -8.180  10.559  67.018  1.00  0.00    -0.125 C  
BRANCH  21  22
HETATM   22  N   UNL     1      -7.033  11.227  66.409  1.00  0.00    -0.097 NA 
BRANCH  22  23
HETATM   23  C   UNL     1      -5.956  11.761  67.253  1.00  0.00    -0.124 C  
BRANCH  23  24
HETATM   24  C   UNL     1      -6.294  13.107  67.864  1.00  0.00    -0.139 A  
HETATM   25  C   UNL     1      -7.335  13.878  67.335  1.00  0.00    -0.129 A  
HETATM   26  C   UNL     1      -6.769  15.726  68.807  1.00  0.00    -0.119 A  
HETATM   27  C   UNL     1      -5.793  14.934  69.407  1.00  0.00    -0.102 A  
HETATM   28  C   UNL     1      -5.554  13.632  68.936  1.00  0.00    -0.074 A  
HETATM   29  C   UNL     1      -7.559  15.177  67.796  1.00  0.00    -0.171 A  
BRANCH  26  30
HETATM   30  O   UNL     1      -7.019  17.045  69.055  1.00  0.00    -0.209 OA 
HETATM   31  C   UNL     1      -6.816  17.987  68.012  1.00  0.00    -0.206 C  
ENDBRANCH  26  30
ENDBRANCH  23  24
ENDBRANCH  22  23
BRANCH  22  32
HETATM   32  C   UNL     1      -6.607  10.694  65.204  1.00  0.00     0.035 A  
HETATM   33  N   UNL     1      -7.303   9.676  64.665  1.00  0.00    -0.117 NA 
HETATM   34  N   UNL     1      -5.619  11.323  64.558  1.00  0.00     0.325 NA 
HETATM   35  C   UNL     1      -5.314  10.893  63.319  1.00  0.00    -0.070 A  
HETATM   36  C   UNL     1      -6.919   9.236  63.442  1.00  0.00    -0.090 A  
HETATM   37  C   UNL     1      -5.928   9.829  62.709  1.00  0.00    -0.104 A  
ENDBRANCH  22  32
ENDBRANCH  21  22
ENDBRANCH  20  21
ENDBRANCH  17  20
ENDBRANCH  16  17
ENDBRANCH  15  16
ENDBRANCH  14  15
ENDBRANCH  13  14
ENDBRANCH  12  13
ENDBRANCH  11  12
ENDBRANCH  10  11
ENDBRANCH   9  10
ENDBRANCH   8   9
ENDBRANCH   7   8
ENDBRANCH   6   7
ENDBRANCH   5   6
ENDBRANCH   4   5
ENDBRANCH   3   4
ENDBRANCH   2   3
TORSDOF 22
ENDMDL
MODEL      292
REMARK 921   NORMALIZED FREE ENERGY PREDICTED BY IDOCK:   12.35 KCAL/MOL
REMARK 922        TOTAL FREE ENERGY PREDICTED BY IDOCK:   23.79 KCAL/MOL
REMARK 923 INTER-LIGAND FREE ENERGY PREDICTED BY IDOCK:   16.76 KCAL/MOL
REMARK 924 INTRA-LIGAND FREE ENERGY PREDICTED BY IDOCK:    7.03 KCAL/MOL
REMARK 927      BINDING AFFINITY PREDICTED BY RF-SCORE:    0.00 PKD
ROOT
HETATM    1  C   UNL     1      -7.077  14.086  72.220  1.00  0.00     3.984 C  
HETATM    2  C   UNL     1      -8.409  14.799  72.070  1.00  0.00     5.801 C  
ENDROOT
BRANCH   2   3
HETATM    3  C   UNL     1      -8.219  16.200  71.498  1.00  0.00     6.841 C  
BRANCH   3   4
HETATM    4  C   UNL     1      -7.141  16.202  70.421  1.00  0.00     1.131 C  
BRANCH   4   5
HETATM    5  C   UNL     1      -7.683  16.777  69.119  1.00  0.00    -0.165 C  
BRANCH   5   6
HETATM    6  C   UNL     1      -7.643  18.297  69.151  1.00  0.00    -0.086 C  
BRANCH   6   7
HETATM    7  C   UNL     1      -7.589  18.854  67.738  1.00  0.00    -0.255 C  
BRANCH   7   8
HETATM    8  C   UNL     1      -6.435  18.232  66.968  1.00  0.00    -0.198 C  
BRANCH   8   9
HETATM    9  C   UNL     1      -5.874  17.052  67.743  1.00  0.00    -0.143 C  
BRANCH   9  10
HETATM   10  C   UNL     1      -5.148  16.098  66.810  1.00  0.00     0.469 C  
BRANCH  10  11
HETATM   11  C   UNL     1      -6.030  14.897  66.505  1.00  0.00     2.977 C  
BRANCH  11  12
HETATM   12  C   UNL     1      -7.327  14.987  67.297  1.00  0.00    -0.195 C  
BRANCH  12  13
HETATM   13  C   UNL     1      -8.149  16.189  66.865  1.00  0.00    -0.275 C  
BRANCH  13  14
HETATM   14  C   UNL     1      -9.110  15.847  65.721  1.00  0.00    -0.188 C  
BRANCH  14  15
HETATM   15  C   UNL     1     -10.048  14.665  66.012  1.00  0.00    -0.330 C  
BRANCH  15  16
HETATM   16  C   UNL     1     -11.091  15.057  67.054  1.00  0.00    -0.334 C  
BRANCH  16  17
HETATM   17  N   UNL     1     -11.736  13.894  67.795  1.00  0.00    -0.346 N  
HETATM   18  C   UNL     1     -12.934  13.343  67.009  1.00  0.00     1.579 C  
HETATM   19  C   UNL     1     -12.208  14.276  69.190  1.00  0.00    -0.237 C  
BRANCH  17  20
HETATM   20  C   UNL     1     -10.696  12.734  67.882  1.00  0.00    -0.219 C  
BRANCH  20  21
HETATM   21  C   UNL     1     -10.034  12.306  66.535  1.00  0.00    -0.220 C  
BRANCH  21  22
HETATM   22  N   UNL     1      -9.382  11.011  66.705  1.00  0.00    -0.179 NA 
BRANCH  22  23
HETATM   23  C   UNL     1     -10.189   9.793  66.863  1.00  0.00    -0.245 C  
BRANCH  23  24
HETATM   24  C   UNL     1      -9.880   9.040  68.142  1.00  0.00    -0.191 A  
HETATM   25  C   UNL     1      -9.837   7.640  68.142  1.00  0.00    -0.186 A  
HETATM   26  C   UNL     1      -9.573   7.608  70.557  1.00  0.00    -0.167 A  
HETATM   27  C   UNL     1      -9.518   9.000  70.558  1.00  0.00    -0.265 A  
HETATM   28  C   UNL     1      -9.673   9.712  69.357  1.00  0.00    -0.203 A  
HETATM   29  C   UNL     1      -9.698   6.937  69.340  1.00  0.00    -0.157 A  
BRANCH  26  30
HETATM   30  O   UNL     1      -9.581   6.789  71.649  1.00  0.00    -0.163 OA 
HETATM   31  C   UNL     1     -10.740   6.011  71.912  1.00  0.00    -0.234 C  
ENDBRANCH  26  30
ENDBRANCH  23  24
ENDBRANCH  22  23
BRANCH  22  32
HETATM   32  C   UNL     1      -8.214  10.835  65.981  1.00  0.00    -0.164 A  
HETATM   33  N   UNL     1      -7.047  11.211  66.535  1.00  0.00    -0.140 NA 
HETATM   34  N   UNL     1      -8.289  10.152  64.833  1.00  0.00    -0.158 NA 
HETATM   35  C   UNL     1      -7.132   9.851  64.213  1.00  0.00    -0.131 A  
HETATM   36  C   UNL     1      -5.913  10.942  65.844  1.00  0.00    -0.116 A  
HETATM   37  C   UNL     1      -5.899  10.239  64.670  1.00  0.00    -0.133 A  
ENDBRANCH  22  32
ENDBRANCH  21  22
ENDBRANCH  20  21
ENDBRANCH  17  20
ENDBRANCH  16  17
ENDBRANCH  15  16
ENDBRANCH  14  15
ENDBRANCH  13  14
ENDBRANCH  12  13
ENDBRANCH  11  12
ENDBRANCH  10  11
ENDBRANCH   9  10
ENDBRANCH   8   9
ENDBRANCH   7   8
ENDBRANCH   6   7
ENDBRANCH   5   6
ENDBRANCH   4   5
ENDBRANCH   3   4
ENDBRANCH   2   3
TORSDOF 22
ENDMDL
MODEL      293
REMARK 921   NORMALIZED FREE ENERGY PREDICTED BY IDOCK:   13.08 KCAL/MOL
REMARK 922        TOTAL FREE ENERGY PREDICTED BY IDOCK:   25.45 KCAL/MOL
REMARK 923 INTER-LIGAND FREE ENERGY PREDICTED BY IDOCK:   15.98 KCAL/MOL
REMARK 924 INTRA-LIGAND FREE ENERGY PREDICTED BY IDOCK:    9.47 KCAL/MOL
REMARK 927      BINDING AFFINITY PREDICTED BY RF-SCORE:    0.00 PKD
ROOT
HETATM    1  C   UNL     1      -7.761  14.741  70.087  1.00  0.00     0.460 C  
HETATM    2  C   UNL     1      -8.370  14.118  71.331  1.00  0.00     5.896 C  
ENDROOT
BRANCH   2   3
HETATM    3  C   UNL     1      -9.870  13.903  71.158  1.00  0.00     5.328 C  
BRANCH   3   4
HETATM    4  C   UNL     1     -10.144  12.713  70.247  1.00  0.00     3.340 C  
BRANCH   4   5
HETATM    5  C   UNL     1     -10.703  13.179  68.908  1.00  0.00    -0.202 C  
BRANCH   5   6
HETATM    6  C   UNL     1     -10.610  14.693  68.790  1.00  0.00    -0.248 C  
BRANCH   6   7
HETATM    7  C   UNL     1     -11.657  15.211  67.818  1.00  0.00    -0.303 C  
BRANCH   7   8
HETATM    8  C   UNL     1     -11.652  14.382  66.544  1.00  0.00    -0.388 C  
BRANCH   8   9
HETATM    9  C   UNL     1     -12.047  12.950  66.859  1.00  0.00    -0.313 C  
BRANCH   9  10
HETATM   10  C   UNL     1     -11.952  12.085  65.614  1.00  0.00    -0.151 C  
BRANCH  10  11
HETATM   11  C   UNL     1     -11.821  12.964  64.380  1.00  0.00    -0.441 C  
BRANCH  11  12
HETATM   12  C   UNL     1     -10.398  12.899  63.842  1.00  0.00    -0.264 C  
BRANCH  12  13
HETATM   13  C   UNL     1      -9.560  11.908  64.633  1.00  0.00    -0.048 C  
BRANCH  13  14
HETATM   14  C   UNL     1      -9.859  10.458  64.236  1.00  0.00    -0.388 C  
BRANCH  14  15
HETATM   15  C   UNL     1      -8.913   9.884  63.170  1.00  0.00    -0.275 C  
BRANCH  15  16
HETATM   16  C   UNL     1      -9.371   8.493  62.745  1.00  0.00     1.389 C  
BRANCH  16  17
HETATM   17  N   UNL     1      -8.666   7.337  63.441  1.00  0.00     0.542 N  
HETATM   18  C   UNL     1      -8.081   6.357  62.415  1.00  0.00    -0.097 C  
HETATM   19  C   UNL     1      -9.586   6.565  64.376  1.00  0.00     2.389 C  
BRANCH  17  20
HETATM   20  C   UNL     1      -7.455   7.913  64.239  1.00  0.00    -0.103 C  
BRANCH  20  21
HETATM   21  C   UNL     1      -6.683   6.898  65.138  1.00  0.00    -0.050 C  
BRANCH  21  22
HETATM   22  N   UNL     1      -7.308   6.843  66.456  1.00  0.00    -0.072 NA 
BRANCH  22  23
HETATM   23  C   UNL     1      -6.786   5.933  67.484  1.00  0.00    -0.060 C  
BRANCH  23  24
HETATM   24  C   UNL     1      -7.173   6.345  68.891  1.00  0.00    -0.084 A  
HETATM   25  C   UNL     1      -8.509   6.275  69.303  1.00  0.00    -0.124 A  
HETATM   26  C   UNL     1      -7.961   7.356  71.408  1.00  0.00    -0.096 A  
HETATM   27  C   UNL     1      -6.615   7.345  71.050  1.00  0.00    -0.043 A  
HETATM   28  C   UNL     1      -6.223   6.845  69.797  1.00  0.00    -0.034 A  
HETATM   29  C   UNL     1      -8.896   6.786  70.543  1.00  0.00    -0.151 A  
BRANCH  26  30
HETATM   30  O   UNL     1      -8.507   7.932  72.518  1.00  0.00    -0.119 OA 
HETATM   31  C   UNL     1      -8.776   9.326  72.503  1.00  0.00     1.394 C  
ENDBRANCH  26  30
ENDBRANCH  23  24
ENDBRANCH  22  23
BRANCH  22  32
HETATM   32  C   UNL     1      -7.770   8.055  66.944  1.00  0.00    -0.099 A  
HETATM   33  N   UNL     1      -7.658   9.149  66.169  1.00  0.00    -0.095 NA 
HETATM   34  N   UNL     1      -8.450   8.044  68.096  1.00  0.00    -0.123 NA 
HETATM   35  C   UNL     1      -9.028   9.196  68.486  1.00  0.00    -0.133 A  
HETATM   36  C   UNL     1      -8.202  10.300  66.632  1.00  0.00    -0.125 A  
HETATM   37  C   UNL     1      -8.923  10.375  67.793  1.00  0.00    -0.131 A  
ENDBRANCH  22  32
ENDBRANCH  21  22
ENDBRANCH  20  21
ENDBRANCH  17  20
ENDBRANCH  16  17
ENDBRANCH  15  16
ENDBRANCH  14  15
ENDBRANCH  13  14
ENDBRANCH  12  13
ENDBRANCH  11  12
ENDBRANCH  10  11
ENDBRANCH   9  10
ENDBRANCH   8   9
ENDBRANCH   7   8
ENDBRANCH   6   7
ENDBRANCH   5   6
ENDBRANCH   4   5
ENDBRANCH   3   4
ENDBRANCH   2   3
TORSDOF 22
ENDMDL
MODEL      294
REMARK 921   NORMALIZED FREE ENERGY PREDICTED BY IDOCK:   13.08 KCAL/MOL
REMARK 922        TOTAL FREE ENERGY PREDICTED BY IDOCK:   25.46 KCAL/MOL
REMARK 923 INTER-LIGAND FREE ENERGY PREDICTED BY IDOCK:   10.63 KCAL/MOL
REMARK 924 INTRA-LIGAND FREE ENERGY PREDICTED BY IDOCK:   14.83 KCAL/MOL
REMARK 927      BINDING AFFINITY PREDICTED BY RF-SCORE:    0.00 PKD
ROOT
HETATM    1  C   UNL     1     -10.027  18.266  71.864  1.00  0.00     5.987 C  
HETATM    2  C   UNL     1     -11.225  17.761  72.649  1.00  0.00     2.217 C  
ENDROOT
BRANCH   2   3
HETATM    3  C   UNL     1     -10.913  16.431  73.328  1.00  0.00     2.552 C  
BRANCH   3   4
HETATM    4  C   UNL     1     -12.139  15.527  73.336  1.00  0.00    -0.609 C  
BRANCH   4   5
HETATM    5  C   UNL     1     -11.900  14.290  72.480  1.00  0.00     0.421 C  
BRANCH   5   6
HETATM    6  C   UNL     1     -11.006  14.627  71.296  1.00  0.00     0.432 C  
BRANCH   6   7
HETATM    7  C   UNL     1     -11.507  15.881  70.597  1.00  0.00    -0.426 C  
BRANCH   7   8
HETATM    8  C   UNL     1     -10.689  16.152  69.345  1.00  0.00    -0.307 C  
BRANCH   8   9
HETATM    9  C   UNL     1     -10.862  15.010  68.359  1.00  0.00    -0.256 C  
BRANCH   9  10
HETATM   10  C   UNL     1      -9.660  14.919  67.434  1.00  0.00    -0.206 C  
BRANCH  10  11
HETATM   11  C   UNL     1     -10.032  15.419  66.047  1.00  0.00    -0.350 C  
BRANCH  11  12
HETATM   12  C   UNL     1     -10.664  14.296  65.239  1.00  0.00    -0.377 C  
BRANCH  12  13
HETATM   13  C   UNL     1     -11.667  13.518  66.074  1.00  0.00    -0.389 C  
BRANCH  13  14
HETATM   14  C   UNL     1     -11.001  12.387  66.866  1.00  0.00    -0.307 C  
BRANCH  14  15
HETATM   15  C   UNL     1     -11.740  11.995  68.155  1.00  0.00    -0.398 C  
BRANCH  15  16
HETATM   16  C   UNL     1     -10.743  11.611  69.245  1.00  0.00    -0.097 C  
BRANCH  16  17
HETATM   17  N   UNL     1      -9.428  11.030  68.744  1.00  0.00    -0.194 N  
HETATM   18  C   UNL     1      -9.069   9.752  69.515  1.00  0.00    -0.216 C  
HETATM   19  C   UNL     1      -8.269  12.008  68.864  1.00  0.00     0.131 C  
BRANCH  17  20
HETATM   20  C   UNL     1      -9.617  10.606  67.254  1.00  0.00    -0.163 C  
BRANCH  20  21
HETATM   21  C   UNL     1      -9.286   9.118  66.919  1.00  0.00    -0.156 C  
BRANCH  21  22
HETATM   22  N   UNL     1      -9.342   8.321  68.141  1.00  0.00    -0.134 NA 
BRANCH  22  23
HETATM   23  C   UNL     1     -10.324   7.237  68.272  1.00  0.00    -0.193 C  
BRANCH  23  24
HETATM   24  C   UNL     1     -10.984   7.197  69.636  1.00  0.00    -0.236 A  
HETATM   25  C   UNL     1     -10.738   8.214  70.567  1.00  0.00    -0.233 A  
HETATM   26  C   UNL     1     -11.984   7.012  72.272  1.00  0.00    -0.211 A  
HETATM   27  C   UNL     1     -12.315   6.042  71.328  1.00  0.00     0.514 A  
HETATM   28  C   UNL     1     -11.817   6.132  70.019  1.00  0.00     0.128 A  
HETATM   29  C   UNL     1     -11.224   8.112  71.872  1.00  0.00    -0.351 A  
BRANCH  26  30
HETATM   30  O   UNL     1     -12.271   6.987  73.605  1.00  0.00     1.579 OA 
HETATM   31  C   UNL     1     -11.387   6.305  74.483  1.00  0.00     2.881 C  
ENDBRANCH  26  30
ENDBRANCH  23  24
ENDBRANCH  22  23
BRANCH  22  32
HETATM   32  C   UNL     1      -8.118   8.061  68.736  1.00  0.00    -0.125 A  
HETATM   33  N   UNL     1      -8.030   8.102  70.078  1.00  0.00    -0.103 NA 
HETATM   34  N   UNL     1      -7.125   7.625  67.953  1.00  0.00    -0.082 NA 
HETATM   35  C   UNL     1      -5.988   7.227  68.555  1.00  0.00    -0.027 A  
HETATM   36  C   UNL     1      -6.845   7.752  70.636  1.00  0.00    -0.042 A  
HETATM   37  C   UNL     1      -5.783   7.285  69.910  1.00  0.00    -0.023 A  
ENDBRANCH  22  32
ENDBRANCH  21  22
ENDBRANCH  20  21
ENDBRANCH  17  20
ENDBRANCH  16  17
ENDBRANCH  15  16
ENDBRANCH  14  15
ENDBRANCH  13  14
ENDBRANCH  12  13
ENDBRANCH  11  12
ENDBRANCH  10  11
ENDBRANCH   9  10
ENDBRANCH   8   9
ENDBRANCH   7   8
ENDBRANCH   6   7
ENDBRANCH   5   6
ENDBRANCH   4   5
ENDBRANCH   3   4
ENDBRANCH   2   3
TORSDOF 22
ENDMDL
MODEL      295
REMARK 921   NORMALIZED FREE ENERGY PREDICTED BY IDOCK:   15.79 KCAL/MOL
REMARK 922        TOTAL FREE ENERGY PREDICTED BY IDOCK:   31.64 KCAL/MOL
REMARK 923 INTER-LIGAND FREE ENERGY PREDICTED BY IDOCK:   26.89 KCAL/MOL
REMARK 924 INTRA-LIGAND FREE ENERGY PREDICTED BY IDOCK:    4.76 KCAL/MOL
REMARK 927      BINDING AFFINITY PREDICTED BY RF-SCORE:    0.00 PKD
ROOT
HETATM    1  C   UNL     1      -6.686  13.288  73.192  1.00  0.00     4.342 C  
HETATM    2  C   UNL     1      -8.033  13.983  73.100  1.00  0.00     8.664 C  
ENDROOT
BRANCH   2   3
HETATM    3  C   UNL     1      -7.887  15.384  72.514  1.00  0.00     7.821 C  
BRANCH   3   4
HETATM    4  C   UNL     1      -6.873  15.391  71.377  1.00  0.00     1.808 C  
BRANCH   4   5
HETATM    5  C   UNL     1      -7.520  15.868  70.083  1.00  0.00     0.661 C  
BRANCH   5   6
HETATM    6  C   UNL     1      -7.686  17.380  70.096  1.00  0.00     2.080 C  
BRANCH   6   7
HETATM    7  C   UNL     1      -7.765  17.915  68.676  1.00  0.00    -0.293 C  
BRANCH   7   8
HETATM    8  C   UNL     1      -6.587  17.414  67.855  1.00  0.00    -0.171 C  
BRANCH   8   9
HETATM    9  C   UNL     1      -5.951  16.218  68.544  1.00  0.00    -0.112 C  
BRANCH   9  10
HETATM   10  C   UNL     1      -5.132  15.408  67.553  1.00  0.00     0.059 C  
BRANCH  10  11
HETATM   11  C   UNL     1      -5.966  14.259  67.007  1.00  0.00     1.212 C  
BRANCH  11  12
HETATM   12  C   UNL     1      -7.350  14.270  67.641  1.00  0.00    -0.192 C  
BRANCH  12  13
HETATM   13  C   UNL     1      -8.100  15.545  67.294  1.00  0.00    -0.226 C  
BRANCH  13  14
HETATM   14  C   UNL     1      -8.893  15.408  65.989  1.00  0.00    -0.097 C  
BRANCH  14  15
HETATM   15  C   UNL     1      -9.925  14.270  65.991  1.00  0.00    -0.337 C  
BRANCH  15  16
HETATM   16  C   UNL     1     -10.950  14.483  67.102  1.00  0.00    -0.304 C  
BRANCH  16  17
HETATM   17  N   UNL     1     -11.633  13.219  67.603  1.00  0.00    -0.324 N  
HETATM   18  C   UNL     1     -12.794  12.823  66.680  1.00  0.00     1.518 C  
HETATM   19  C   UNL     1     -12.170  13.364  69.019  1.00  0.00    -0.148 C  
BRANCH  17  20
HETATM   20  C   UNL     1     -10.603  12.048  67.540  1.00  0.00    -0.221 C  
BRANCH  20  21
HETATM   21  C   UNL     1     -10.055  11.545  68.912  1.00  0.00    -0.127 C  
BRANCH  21  22
HETATM   22  N   UNL     1      -8.897  10.684  68.685  1.00  0.00    -0.144 NA 
BRANCH  22  23
HETATM   23  C   UNL     1      -8.081  10.849  67.475  1.00  0.00    -0.116 C  
BRANCH  23  24
HETATM   24  C   UNL     1      -7.913   9.559  66.695  1.00  0.00    -0.108 A  
HETATM   25  C   UNL     1      -7.609   9.597  65.329  1.00  0.00    -0.113 A  
HETATM   26  C   UNL     1      -7.859   7.187  65.163  1.00  0.00    -0.124 A  
HETATM   27  C   UNL     1      -8.069   7.126  66.539  1.00  0.00    -0.114 A  
HETATM   28  C   UNL     1      -8.098   8.306  67.301  1.00  0.00    -0.109 A  
HETATM   29  C   UNL     1      -7.595   8.424  64.573  1.00  0.00    -0.106 A  
BRANCH  26  30
HETATM   30  O   UNL     1      -7.944   6.152  64.277  1.00  0.00    -0.117 OA 
HETATM   31  C   UNL     1      -7.119   6.174  63.121  1.00  0.00    -0.052 C  
ENDBRANCH  26  30
ENDBRANCH  23  24
ENDBRANCH  22  23
BRANCH  22  32
HETATM   32  C   UNL     1      -8.178  10.345  69.820  1.00  0.00    -0.018 A  
HETATM   33  N   UNL     1      -6.985  10.932  70.028  1.00  0.00    -0.146 NA 
HETATM   34  N   UNL     1      -8.780   9.574  70.732  1.00  0.00    -0.239 NA 
HETATM   35  C   UNL     1      -8.139   9.375  71.899  1.00  0.00     0.914 A  
HETATM   36  C   UNL     1      -6.348  10.653  71.191  1.00  0.00     0.486 A  
HETATM   37  C   UNL     1      -6.896   9.883  72.181  1.00  0.00     1.382 A  
ENDBRANCH  22  32
ENDBRANCH  21  22
ENDBRANCH  20  21
ENDBRANCH  17  20
ENDBRANCH  16  17
ENDBRANCH  15  16
ENDBRANCH  14  15
ENDBRANCH  13  14
ENDBRANCH  12  13
ENDBRANCH  11  12
ENDBRANCH  10  11
ENDBRANCH   9  10
ENDBRANCH   8   9
ENDBRANCH   7   8
ENDBRANCH   6   7
ENDBRANCH   5   6
ENDBRANCH   4   5
ENDBRANCH   3   4
ENDBRANCH   2   3
TORSDOF 22
ENDMDL
MODEL      296
REMARK 921   NORMALIZED FREE ENERGY PREDICTED BY IDOCK:   19.88 KCAL/MOL
REMARK 922        TOTAL FREE ENERGY PREDICTED BY IDOCK:   41.01 KCAL/MOL
REMARK 923 INTER-LIGAND FREE ENERGY PREDICTED BY IDOCK:   27.44 KCAL/MOL
REMARK 924 INTRA-LIGAND FREE ENERGY PREDICTED BY IDOCK:   13.57 KCAL/MOL
REMARK 927      BINDING AFFINITY PREDICTED BY RF-SCORE:    0.00 PKD
ROOT
HETATM    1  C   UNL     1      -6.879  13.043  73.209  1.00  0.00     5.757 C  
HETATM    2  C   UNL     1      -8.339  13.381  72.964  1.00  0.00    14.116 C  
ENDROOT
BRANCH   2   3
HETATM    3  C   UNL     1      -8.476  14.685  72.186  1.00  0.00     6.526 C  
BRANCH   3   4
HETATM    4  C   UNL     1      -7.356  14.823  71.162  1.00  0.00     1.763 C  
BRANCH   4   5
HETATM    5  C   UNL     1      -7.924  14.885  69.749  1.00  0.00     0.082 C  
BRANCH   5   6
HETATM    6  C   UNL     1      -8.392  16.296  69.426  1.00  0.00    -0.027 C  
BRANCH   6   7
HETATM    7  C   UNL     1      -8.337  16.539  67.926  1.00  0.00    -0.175 C  
BRANCH   7   8
HETATM    8  C   UNL     1      -6.998  16.087  67.366  1.00  0.00    -0.223 C  
BRANCH   8   9
HETATM    9  C   UNL     1      -6.277  15.225  68.387  1.00  0.00    -0.106 C  
BRANCH   9  10
HETATM   10  C   UNL     1      -5.436  14.168  67.692  1.00  0.00     0.057 C  
BRANCH  10  11
HETATM   11  C   UNL     1      -6.300  12.968  67.336  1.00  0.00    -0.096 C  
BRANCH  11  12
HETATM   12  C   UNL     1      -7.724  13.186  67.827  1.00  0.00    -0.153 C  
BRANCH  12  13
HETATM   13  C   UNL     1      -8.224  14.571  67.454  1.00  0.00    -0.220 C  
BRANCH  13  14
HETATM   14  C   UNL     1      -8.923  14.581  66.089  1.00  0.00     0.035 C  
BRANCH  14  15
HETATM   15  C   UNL     1     -10.123  13.628  65.984  1.00  0.00    -0.320 C  
BRANCH  15  16
HETATM   16  C   UNL     1     -11.137  13.924  67.085  1.00  0.00    -0.300 C  
BRANCH  16  17
HETATM   17  N   UNL     1     -11.827  12.703  67.677  1.00  0.00    -0.358 N  
HETATM   18  C   UNL     1     -13.124  12.390  66.919  1.00  0.00     3.851 C  
HETATM   19  C   UNL     1     -12.157  12.872  69.152  1.00  0.00    -0.168 C  
BRANCH  17  20
HETATM   20  C   UNL     1     -10.892  11.470  67.477  1.00  0.00    -0.237 C  
BRANCH  20  21
HETATM   21  C   UNL     1     -11.344  10.149  68.176  1.00  0.00    -0.099 C  
BRANCH  21  22
HETATM   22  N   UNL     1     -10.227   9.209  68.204  1.00  0.00    -0.198 NA 
BRANCH  22  23
HETATM   23  C   UNL     1      -8.855   9.685  67.979  1.00  0.00    -0.119 C  
BRANCH  23  24
HETATM   24  C   UNL     1      -8.173   8.992  66.815  1.00  0.00    -0.115 A  
HETATM   25  C   UNL     1      -7.121   9.623  66.140  1.00  0.00    -0.094 A  
HETATM   26  C   UNL     1      -7.064   7.847  64.484  1.00  0.00    -0.073 A  
HETATM   27  C   UNL     1      -8.044   7.163  65.201  1.00  0.00    -0.127 A  
HETATM   28  C   UNL     1      -8.597   7.734  66.359  1.00  0.00    -0.153 A  
HETATM   29  C   UNL     1      -6.584   9.059  64.981  1.00  0.00    -0.069 A  
BRANCH  26  30
HETATM   30  O   UNL     1      -6.538   7.491  63.276  1.00  0.00    -0.056 OA 
HETATM   31  C   UNL     1      -5.185   7.821  62.996  1.00  0.00    -0.049 C  
ENDBRANCH  26  30
ENDBRANCH  23  24
ENDBRANCH  22  23
BRANCH  22  32
HETATM   32  C   UNL     1     -10.334   8.189  69.136  1.00  0.00    -0.220 A  
HETATM   33  N   UNL     1      -9.613   8.270  70.269  1.00  0.00    -0.167 NA 
HETATM   34  N   UNL     1     -11.270   7.255  68.932  1.00  0.00     0.084 NA 
HETATM   35  C   UNL     1     -11.474   6.356  69.914  1.00  0.00    -0.415 A  
HETATM   36  C   UNL     1      -9.808   7.307  71.202  1.00  0.00    -0.182 A  
HETATM   37  C   UNL     1     -10.752   6.323  71.079  1.00  0.00    -0.313 A  
ENDBRANCH  22  32
ENDBRANCH  21  22
ENDBRANCH  20  21
ENDBRANCH  17  20
ENDBRANCH  16  17
ENDBRANCH  15  16
ENDBRANCH  14  15
ENDBRANCH  13  14
ENDBRANCH  12  13
ENDBRANCH  11  12
ENDBRANCH  10  11
ENDBRANCH   9  10
ENDBRANCH   8   9
ENDBRANCH   7   8
ENDBRANCH   6   7
ENDBRANCH   5   6
ENDBRANCH   4   5
ENDBRANCH   3   4
ENDBRANCH   2   3
TORSDOF 22
ENDMDL
MODEL      297
REMARK 921   NORMALIZED FREE ENERGY PREDICTED BY IDOCK:   34.99 KCAL/MOL
REMARK 922        TOTAL FREE ENERGY PREDICTED BY IDOCK:   75.55 KCAL/MOL
REMARK 923 INTER-LIGAND FREE ENERGY PREDICTED BY IDOCK:   49.78 KCAL/MOL
REMARK 924 INTRA-LIGAND FREE ENERGY PREDICTED BY IDOCK:   25.77 KCAL/MOL
REMARK 927      BINDING AFFINITY PREDICTED BY RF-SCORE:    0.00 PKD
ROOT
HETATM    1  C   UNL     1     -10.007  14.580  65.394  1.00  0.00    -0.352 C  
HETATM    2  C   UNL     1      -8.974  14.487  66.503  1.00  0.00    -0.211 C  
ENDROOT
BRANCH   2   3
HETATM    3  C   UNL     1      -8.224  13.161  66.442  1.00  0.00     0.670 C  
BRANCH   3   4
HETATM    4  C   UNL     1      -7.166  13.188  65.347  1.00  0.00     6.987 C  
BRANCH   4   5
HETATM    5  C   UNL     1      -6.596  11.794  65.115  1.00  0.00     2.570 C  
BRANCH   5   6
HETATM    6  C   UNL     1      -7.030  10.850  66.226  1.00  0.00    -0.120 C  
BRANCH   6   7
HETATM    7  C   UNL     1      -7.039  11.577  67.562  1.00  0.00    -0.106 C  
BRANCH   7   8
HETATM    8  C   UNL     1      -7.819  12.877  67.452  1.00  0.00    -0.170 C  
BRANCH   8   9
HETATM    9  C   UNL     1      -7.642  13.693  68.721  1.00  0.00    -0.079 C  
BRANCH   9  10
HETATM   10  C   UNL     1      -7.249  15.121  68.385  1.00  0.00    -0.114 C  
BRANCH  10  11
HETATM   11  C   UNL     1      -5.792  15.359  68.751  1.00  0.00    -0.092 C  
BRANCH  11  12
HETATM   12  C   UNL     1      -5.167  14.071  69.268  1.00  0.00    -0.081 C  
BRANCH  12  13
HETATM   13  C   UNL     1      -5.958  13.511  70.438  1.00  0.00    -0.140 C  
BRANCH  13  14
HETATM   14  C   UNL     1      -5.691  12.017  70.650  1.00  0.00    -0.127 C  
BRANCH  14  15
HETATM   15  C   UNL     1      -6.221  11.112  69.526  1.00  0.00    -0.091 C  
BRANCH  15  16
HETATM   16  C   UNL     1      -7.217  10.099  70.083  1.00  0.00    -0.154 C  
BRANCH  16  17
HETATM   17  N   UNL     1      -8.647  10.603  70.216  1.00  0.00     0.892 N  
HETATM   18  C   UNL     1      -8.715  12.119  69.988  1.00  0.00     3.307 C  
HETATM   19  C   UNL     1      -9.255  10.291  71.575  1.00  0.00     3.796 C  
BRANCH  17  20
HETATM   20  C   UNL     1      -9.502   9.950  69.086  1.00  0.00    -0.196 C  
BRANCH  20  21
HETATM   21  C   UNL     1      -9.718  10.814  67.805  1.00  0.00    -0.162 C  
BRANCH  21  22
HETATM   22  N   UNL     1     -10.932  10.376  67.122  1.00  0.00    -0.241 NA 
BRANCH  22  23
HETATM   23  C   UNL     1     -12.174  10.175  67.881  1.00  0.00     2.743 C  
BRANCH  23  24
HETATM   24  C   UNL     1     -12.215   8.845  68.607  1.00  0.00     3.306 A  
HETATM   25  C   UNL     1     -12.100   7.648  67.891  1.00  0.00     3.552 A  
HETATM   26  C   UNL     1     -12.557   6.355  69.896  1.00  0.00     1.824 A  
HETATM   27  C   UNL     1     -12.578   7.535  70.637  1.00  0.00     0.083 A  
HETATM   28  C   UNL     1     -12.411   8.773  69.996  1.00  0.00     0.944 A  
HETATM   29  C   UNL     1     -12.282   6.420  68.529  1.00  0.00     2.999 A  
BRANCH  26  30
HETATM   30  O   UNL     1     -12.842   5.100  70.349  1.00  0.00     6.253 OA 
HETATM   31  C   UNL     1     -12.134   3.998  69.800  1.00  0.00    13.156 C  
ENDBRANCH  26  30
ENDBRANCH  23  24
ENDBRANCH  22  23
BRANCH  22  32
HETATM   32  C   UNL     1     -11.114  10.890  65.848  1.00  0.00     0.107 A  
HETATM   33  N   UNL     1     -10.344  10.425  64.848  1.00  0.00    -0.263 NA 
HETATM   34  N   UNL     1     -12.156  11.705  65.648  1.00  0.00    -0.080 NA 
HETATM   35  C   UNL     1     -12.419  12.076  64.381  1.00  0.00    -0.231 A  
HETATM   36  C   UNL     1     -10.608  10.876  63.597  1.00  0.00    -0.156 A  
HETATM   37  C   UNL     1     -11.659  11.701  63.303  1.00  0.00    -0.246 A  
ENDBRANCH  22  32
ENDBRANCH  21  22
ENDBRANCH  20  21
ENDBRANCH  17  20
ENDBRANCH  16  17
ENDBRANCH  15  16
ENDBRANCH  14  15
ENDBRANCH  13  14
ENDBRANCH  12  13
ENDBRANCH  11  12
ENDBRANCH  10  11
ENDBRANCH   9  10
ENDBRANCH   8   9
ENDBRANCH   7   8
ENDBRANCH   6   7
ENDBRANCH   5   6
ENDBRANCH   4   5
ENDBRANCH   3   4
ENDBRANCH   2   3
TORSDOF 22
ENDMDL
MODEL      298
REMARK 921   NORMALIZED FREE ENERGY PREDICTED BY IDOCK:   45.44 KCAL/MOL
REMARK 922        TOTAL FREE ENERGY PREDICTED BY IDOCK:   99.43 KCAL/MOL
REMARK 923 INTER-LIGAND FREE ENERGY PREDICTED BY IDOCK:   11.69 KCAL/MOL
REMARK 924 INTRA-LIGAND FREE ENERGY PREDICTED BY IDOCK:   87.74 KCAL/MOL
REMARK 927      BINDING AFFINITY PREDICTED BY RF-SCORE:    0.00 PKD
ROOT
HETATM    1  C   UNL     1     -10.014  14.602  65.438  1.00  0.00    -0.365 C  
HETATM    2  C   UNL     1      -9.030  14.849  66.568  1.00  0.00    -0.288 C  
ENDROOT
BRANCH   2   3
HETATM    3  C   UNL     1      -8.295  13.567  66.944  1.00  0.00    -0.012 C  
BRANCH   3   4
HETATM    4  C   UNL     1      -7.349  13.140  65.829  1.00  0.00     4.498 C  
BRANCH   4   5
HETATM    5  C   UNL     1      -6.591  11.878  66.221  1.00  0.00     0.567 C  
BRANCH   5   6
HETATM    6  C   UNL     1      -6.693  11.640  67.720  1.00  0.00    -0.072 C  
BRANCH   6   7
HETATM    7  C   UNL     1      -6.859  12.961  68.453  1.00  0.00    -0.096 C  
BRANCH   7   8
HETATM    8  C   UNL     1      -8.050  13.727  67.900  1.00  0.00    -0.166 C  
BRANCH   8   9
HETATM    9  C   UNL     1      -7.957  15.188  68.304  1.00  0.00    -0.129 C  
BRANCH   9  10
HETATM   10  C   UNL     1      -8.343  16.088  67.142  1.00  0.00    -0.228 C  
BRANCH  10  11
HETATM   11  C   UNL     1      -7.119  16.834  66.634  1.00  0.00    -0.275 C  
BRANCH  11  12
HETATM   12  C   UNL     1      -5.874  16.354  67.366  1.00  0.00    -0.189 C  
BRANCH  12  13
HETATM   13  C   UNL     1      -6.077  16.389  68.871  1.00  0.00    -0.141 C  
BRANCH  13  14
HETATM   14  C   UNL     1      -5.132  15.429  69.601  1.00  0.00    -0.095 C  
BRANCH  14  15
HETATM   15  C   UNL     1      -5.226  13.968  69.134  1.00  0.00    -0.074 C  
BRANCH  15  16
HETATM   16  C   UNL     1      -5.958  13.123  70.171  1.00  0.00    -0.138 C  
BRANCH  16  17
HETATM   17  N   UNL     1      -7.477  13.151  70.075  1.00  0.00     1.184 N  
HETATM   18  C   UNL     1      -7.942  14.256  69.117  1.00  0.00     0.046 C  
HETATM   19  C   UNL     1      -8.147  13.366  71.424  1.00  0.00     8.902 C  
BRANCH  17  20
HETATM   20  C   UNL     1      -7.952  11.801  69.452  1.00  0.00     0.507 C  
BRANCH  20  21
HETATM   21  C   UNL     1      -8.186  11.805  67.909  1.00  0.00    -0.147 C  
BRANCH  21  22
HETATM   22  N   UNL     1      -9.181  10.792  67.567  1.00  0.00    -0.143 NA 
BRANCH  22  23
HETATM   23  C   UNL     1     -10.459  10.739  68.288  1.00  0.00    -0.181 C  
BRANCH  23  24
HETATM   24  C   UNL     1     -10.321  10.203  69.700  1.00  0.00    -0.278 A  
HETATM   25  C   UNL     1      -9.165   9.509  70.079  1.00  0.00    -0.264 A  
HETATM   26  C   UNL     1     -10.149   8.964  72.232  1.00  0.00    -0.120 A  
HETATM   27  C   UNL     1     -11.264   9.732  71.904  1.00  0.00     0.269 A  
HETATM   28  C   UNL     1     -11.351  10.346  70.644  1.00  0.00    -0.411 A  
HETATM   29  C   UNL     1      -9.089   8.888  71.327  1.00  0.00    -0.323 A  
BRANCH  26  30
HETATM   30  O   UNL     1      -9.984   8.198  73.350  1.00  0.00    -0.224 OA 
HETATM   31  C   UNL     1      -8.686   8.082  73.914  1.00  0.00    -0.244 C  
ENDBRANCH  26  30
ENDBRANCH  23  24
ENDBRANCH  22  23
BRANCH  22  32
HETATM   32  C   UNL     1      -9.268  10.478  66.220  1.00  0.00    -0.168 A  
HETATM   33  N   UNL     1      -8.271   9.773  65.655  1.00  0.00    -0.126 NA 
HETATM   34  N   UNL     1     -10.416  10.753  65.590  1.00  0.00    -0.221 NA 
HETATM   35  C   UNL     1     -10.552  10.307  64.327  1.00  0.00     0.706 A  
HETATM   36  C   UNL     1      -8.427   9.400  64.362  1.00  0.00    -0.184 A  
HETATM   37  C   UNL     1      -9.572   9.630  63.647  1.00  0.00     0.315 A  
ENDBRANCH  22  32
ENDBRANCH  21  22
ENDBRANCH  20  21
ENDBRANCH  17  20
ENDBRANCH  16  17
ENDBRANCH  15  16
ENDBRANCH  14  15
ENDBRANCH  13  14
ENDBRANCH  12  13
ENDBRANCH  11  12
ENDBRANCH  10  11
ENDBRANCH   9  10
ENDBRANCH   8   9
ENDBRANCH   7   8
ENDBRANCH   6   7
ENDBRANCH   5   6
ENDBRANCH   4   5
ENDBRANCH   3   4
ENDBRANCH   2   3
TORSDOF 22
ENDMDL
MODEL      299
REMARK 921   NORMALIZED FREE ENERGY PREDICTED BY IDOCK:   50.83 KCAL/MOL
REMARK 922        TOTAL FREE ENERGY PREDICTED BY IDOCK:  111.76 KCAL/MOL
REMARK 923 INTER-LIGAND FREE ENERGY PREDICTED BY IDOCK:   18.09 KCAL/MOL
REMARK 924 INTRA-LIGAND FREE ENERGY PREDICTED BY IDOCK:   93.67 KCAL/MOL
REMARK 927      BINDING AFFINITY PREDICTED BY RF-SCORE:    0.00 PKD
ROOT
HETATM    1  C   UNL     1     -10.014  14.602  65.438  1.00  0.00    -0.365 C  
HETATM    2  C   UNL     1      -9.035  14.854  66.571  1.00  0.00    -0.288 C  
ENDROOT
BRANCH   2   3
HETATM    3  C   UNL     1      -8.289  13.577  66.944  1.00  0.00    -0.012 C  
BRANCH   3   4
HETATM    4  C   UNL     1      -7.337  13.161  65.830  1.00  0.00     4.498 C  
BRANCH   4   5
HETATM    5  C   UNL     1      -6.570  11.904  66.219  1.00  0.00     0.567 C  
BRANCH   5   6
HETATM    6  C   UNL     1      -6.673  11.661  67.718  1.00  0.00    -0.072 C  
BRANCH   6   7
HETATM    7  C   UNL     1      -6.852  12.979  68.454  1.00  0.00    -0.097 C  
BRANCH   7   8
HETATM    8  C   UNL     1      -8.048  13.736  67.901  1.00  0.00    -0.166 C  
BRANCH   8   9
HETATM    9  C   UNL     1      -7.967  15.197  68.310  1.00  0.00    -0.129 C  
BRANCH   9  10
HETATM   10  C   UNL     1      -8.358  16.097  67.150  1.00  0.00    -0.225 C  
BRANCH  10  11
HETATM   11  C   UNL     1      -7.140  16.854  66.646  1.00  0.00    -0.289 C  
BRANCH  11  12
HETATM   12  C   UNL     1      -5.892  16.383  67.379  1.00  0.00    -0.189 C  
BRANCH  12  13
HETATM   13  C   UNL     1      -6.099  16.412  68.884  1.00  0.00    -0.141 C  
BRANCH  13  14
HETATM   14  C   UNL     1      -5.147  15.457  69.613  1.00  0.00    -0.095 C  
BRANCH  14  15
HETATM   15  C   UNL     1      -5.228  13.997  69.141  1.00  0.00    -0.074 C  
BRANCH  15  16
HETATM   16  C   UNL     1      -5.955  13.143  70.175  1.00  0.00    -0.138 C  
BRANCH  16  17
HETATM   17  N   UNL     1      -7.474  13.158  70.076  1.00  0.00     1.184 N  
HETATM   18  C   UNL     1      -7.946  14.263  69.120  1.00  0.00     0.046 C  
HETATM   19  C   UNL     1      -8.148  13.364  71.424  1.00  0.00     8.902 C  
BRANCH  17  20
HETATM   20  C   UNL     1      -7.936  11.807  69.448  1.00  0.00     0.507 C  
BRANCH  20  21
HETATM   21  C   UNL     1      -6.829  10.968  68.736  1.00  0.00    -0.073 C  
BRANCH  21  22
HETATM   22  N   UNL     1      -7.439  10.140  67.700  1.00  0.00    -0.089 NA 
BRANCH  22  23
HETATM   23  C   UNL     1      -8.352  10.739  66.717  1.00  0.00    -0.136 C  
BRANCH  23  24
HETATM   24  C   UNL     1      -9.704  11.093  67.305  1.00  0.00    -0.186 A  
HETATM   25  C   UNL     1     -10.103  10.548  68.531  1.00  0.00    -0.187 A  
HETATM   26  C   UNL     1     -12.316  11.521  68.290  1.00  0.00     0.552 A  
HETATM   27  C   UNL     1     -11.901  12.147  67.117  1.00  0.00    -0.292 A  
HETATM   28  C   UNL     1     -10.603  11.932  66.625  1.00  0.00    -0.273 A  
HETATM   29  C   UNL     1     -11.399  10.753  69.008  1.00  0.00    -0.349 A  
BRANCH  26  30
HETATM   30  O   UNL     1     -13.577  11.518  68.812  1.00  0.00     3.504 OA 
HETATM   31  C   UNL     1     -13.732  11.516  70.224  1.00  0.00     2.454 C  
ENDBRANCH  26  30
ENDBRANCH  23  24
ENDBRANCH  22  23
BRANCH  22  32
HETATM   32  C   UNL     1      -6.632   9.133  67.194  1.00  0.00    -0.061 A  
HETATM   33  N   UNL     1      -6.365   8.068  67.970  1.00  0.00    -0.050 NA 
HETATM   34  N   UNL     1      -6.292   9.198  65.902  1.00  0.00    -0.059 NA 
HETATM   35  C   UNL     1      -5.640   8.142  65.378  1.00  0.00    -0.040 A  
HETATM   36  C   UNL     1      -5.652   7.056  67.418  1.00  0.00    -0.024 A  
HETATM   37  C   UNL     1      -5.274   7.037  66.102  1.00  0.00    -0.023 A  
ENDBRANCH  22  32
ENDBRANCH  21  22
ENDBRANCH  20  21
ENDBRANCH  17  20
ENDBRANCH  16  17
ENDBRANCH  15  16
ENDBRANCH  14  15
ENDBRANCH  13  14
ENDBRANCH  12  13
ENDBRANCH  11  12
ENDBRANCH  10  11
ENDBRANCH   9  10
ENDBRANCH   8   9
ENDBRANCH   7   8
ENDBRANCH   6   7
ENDBRANCH   5   6
ENDBRANCH   4   5
ENDBRANCH   3   4
ENDBRANCH   2   3
TORSDOF 22
ENDMDL
