MODEL        1
REMARK 921   NORMALIZED FREE ENERGY PREDICTED BY IDOCK:   -4.36 KCAL/MOL
REMARK 922        TOTAL FREE ENERGY PREDICTED BY IDOCK:   -4.63 KCAL/MOL
REMARK 923 INTER-LIGAND FREE ENERGY PREDICTED BY IDOCK:   -4.62 KCAL/MOL
REMARK 924 INTRA-LIGAND FREE ENERGY PREDICTED BY IDOCK:   -0.01 KCAL/MOL
REMARK 927      BINDING AFFINITY PREDICTED BY RF-SCORE:    0.00 PKD
ROOT
ATOM      1  CG2 THR A   1      -8.958  15.695  66.284  1.00  0.00    -0.377 C  
ATOM      2  CB  THR A   1     -10.399  16.108  65.998  1.00  0.00    -0.358 C  
ATOM      3  HG1 THR A   1     -11.315  17.735  65.380  1.00  0.00     0.000 HD 
ATOM      4  OG1 THR A   1     -10.418  17.478  65.557  1.00  0.00    -0.628 OA 
ENDROOT
BRANCH   2   5
ATOM      5  CA  THR A   1     -11.117  15.232  64.951  1.00  0.00    -0.424 C  
ATOM      6  N   THR A   1     -11.794  16.062  63.931  1.00  0.00    -1.338 NA 
ATOM      7  C   THR A   1     -12.109  14.238  65.593  1.00  0.00    -0.393 C  
ATOM      8  OXT THR A   1     -13.226  13.991  65.153  1.00  0.00    -0.768 OA 
ATOM      9  O   THR A   1     -11.590  13.550  66.642  1.00  0.00    -0.331 OA 
ATOM     10  H1  THR A   1     -12.269  15.483  63.239  1.00  0.00     0.000 HD 
ATOM     11  H2  THR A   1     -11.148  16.717  63.492  1.00  0.00     0.000 HD 
ENDBRANCH   2   5
TORSDOF 1
ENDMDL
MODEL        2
REMARK 921   NORMALIZED FREE ENERGY PREDICTED BY IDOCK:   -4.33 KCAL/MOL
REMARK 922        TOTAL FREE ENERGY PREDICTED BY IDOCK:   -4.60 KCAL/MOL
REMARK 923 INTER-LIGAND FREE ENERGY PREDICTED BY IDOCK:   -4.55 KCAL/MOL
REMARK 924 INTRA-LIGAND FREE ENERGY PREDICTED BY IDOCK:   -0.05 KCAL/MOL
REMARK 927      BINDING AFFINITY PREDICTED BY RF-SCORE:    0.00 PKD
ROOT
ATOM      1  CG2 THR A   1     -11.072  12.160  65.858  1.00  0.00    -0.360 C  
ATOM      2  CB  THR A   1     -10.698  13.193  64.798  1.00  0.00    -0.364 C  
ATOM      3  HG1 THR A   1     -10.128  13.156  62.916  1.00  0.00     0.000 HD 
ATOM      4  OG1 THR A   1     -10.361  12.513  63.575  1.00  0.00    -0.407 OA 
ENDROOT
BRANCH   2   5
ATOM      5  CA  THR A   1     -11.799  14.235  64.508  1.00  0.00    -0.442 C  
ATOM      6  N   THR A   1     -12.390  14.032  63.168  1.00  0.00    -1.094 NA 
ATOM      7  C   THR A   1     -11.296  15.686  64.669  1.00  0.00    -0.349 C  
ATOM      8  OXT THR A   1     -11.569  16.604  63.904  1.00  0.00    -1.204 OA 
ATOM      9  O   THR A   1     -10.607  15.900  65.820  1.00  0.00    -0.332 OA 
ATOM     10  H1  THR A   1     -13.117  14.720  62.976  1.00  0.00     0.000 HD 
ATOM     11  H2  THR A   1     -12.735  13.080  63.052  1.00  0.00     0.000 HD 
ENDBRANCH   2   5
TORSDOF 1
ENDMDL
MODEL        3
REMARK 921   NORMALIZED FREE ENERGY PREDICTED BY IDOCK:   -4.26 KCAL/MOL
REMARK 922        TOTAL FREE ENERGY PREDICTED BY IDOCK:   -4.52 KCAL/MOL
REMARK 923 INTER-LIGAND FREE ENERGY PREDICTED BY IDOCK:   -4.46 KCAL/MOL
REMARK 924 INTRA-LIGAND FREE ENERGY PREDICTED BY IDOCK:   -0.06 KCAL/MOL
REMARK 927      BINDING AFFINITY PREDICTED BY RF-SCORE:    0.00 PKD
ROOT
ATOM      1  CG2 THR A   1     -11.998  12.722  63.544  1.00  0.00    -0.633 C  
ATOM      2  CB  THR A   1     -12.054  14.091  64.215  1.00  0.00    -0.445 C  
ATOM      3  HG1 THR A   1     -13.084  14.919  65.672  1.00  0.00     0.000 HD 
ATOM      4  OG1 THR A   1     -13.049  14.066  65.254  1.00  0.00    -0.782 OA 
ENDROOT
BRANCH   2   5
ATOM      5  CA  THR A   1     -10.712  14.562  64.814  1.00  0.00    -0.393 C  
ATOM      6  N   THR A   1     -10.346  13.765  66.004  1.00  0.00    -0.301 NA 
ATOM      7  C   THR A   1     -10.710  16.070  65.145  1.00  0.00    -0.409 C  
ATOM      8  OXT THR A   1     -10.232  16.555  66.164  1.00  0.00    -0.316 OA 
ATOM      9  O   THR A   1     -11.183  16.851  64.139  1.00  0.00    -1.176 OA 
ATOM     10  H1  THR A   1      -9.460  14.076  66.399  1.00  0.00     0.000 HD 
ATOM     11  H2  THR A   1     -10.334  12.766  65.796  1.00  0.00     0.000 HD 
ENDBRANCH   2   5
TORSDOF 1
ENDMDL
MODEL        4
REMARK 921   NORMALIZED FREE ENERGY PREDICTED BY IDOCK:   -4.19 KCAL/MOL
REMARK 922        TOTAL FREE ENERGY PREDICTED BY IDOCK:   -4.44 KCAL/MOL
REMARK 923 INTER-LIGAND FREE ENERGY PREDICTED BY IDOCK:   -4.53 KCAL/MOL
REMARK 924 INTRA-LIGAND FREE ENERGY PREDICTED BY IDOCK:    0.09 KCAL/MOL
REMARK 927      BINDING AFFINITY PREDICTED BY RF-SCORE:    0.00 PKD
ROOT
ATOM      1  CG2 THR A   1      -9.860  15.949  65.639  1.00  0.00    -0.337 C  
ATOM      2  CB  THR A   1     -11.235  15.628  65.059  1.00  0.00    -0.329 C  
ATOM      3  HG1 THR A   1     -12.391  16.370  63.652  1.00  0.00     0.000 HD 
ATOM      4  OG1 THR A   1     -11.536  16.569  64.012  1.00  0.00    -1.137 OA 
ENDROOT
BRANCH   2   5
ATOM      5  CA  THR A   1     -11.374  14.195  64.504  1.00  0.00    -0.348 C  
ATOM      6  N   THR A   1     -12.199  14.173  63.277  1.00  0.00    -1.043 NA 
ATOM      7  C   THR A   1     -11.929  13.207  65.552  1.00  0.00    -0.412 C  
ATOM      8  OXT THR A   1     -12.770  12.347  65.318  1.00  0.00    -0.617 OA 
ATOM      9  O   THR A   1     -11.309  13.286  66.758  1.00  0.00    -0.304 OA 
ATOM     10  H1  THR A   1     -12.291  13.227  62.910  1.00  0.00     0.000 HD 
ATOM     11  H2  THR A   1     -11.837  14.815  62.571  1.00  0.00     0.000 HD 
ENDBRANCH   2   5
TORSDOF 1
ENDMDL
MODEL        5
REMARK 921   NORMALIZED FREE ENERGY PREDICTED BY IDOCK:   -4.14 KCAL/MOL
REMARK 922        TOTAL FREE ENERGY PREDICTED BY IDOCK:   -4.39 KCAL/MOL
REMARK 923 INTER-LIGAND FREE ENERGY PREDICTED BY IDOCK:   -4.65 KCAL/MOL
REMARK 924 INTRA-LIGAND FREE ENERGY PREDICTED BY IDOCK:    0.25 KCAL/MOL
REMARK 927      BINDING AFFINITY PREDICTED BY RF-SCORE:    0.00 PKD
ROOT
ATOM      1  CG2 THR A   1     -12.503  13.359  65.650  1.00  0.00    -0.519 C  
ATOM      2  CB  THR A   1     -11.797  14.202  64.591  1.00  0.00    -0.431 C  
ATOM      3  HG1 THR A   1     -12.153  14.740  62.734  1.00  0.00     0.000 HD 
ATOM      4  OG1 THR A   1     -12.593  14.216  63.392  1.00  0.00    -0.818 OA 
ENDROOT
BRANCH   2   5
ATOM      5  CA  THR A   1     -11.510  15.656  65.022  1.00  0.00    -0.175 C  
ATOM      6  N   THR A   1     -11.420  16.554  63.851  1.00  0.00    -1.599 NA 
ATOM      7  C   THR A   1     -10.244  15.772  65.898  1.00  0.00    -0.355 C  
ATOM      8  OXT THR A   1      -9.403  16.657  65.786  1.00  0.00    -0.501 OA 
ATOM      9  O   THR A   1     -10.193  14.866  66.907  1.00  0.00    -0.249 OA 
ATOM     10  H1  THR A   1     -11.230  17.514  64.135  1.00  0.00     0.000 HD 
ATOM     11  H2  THR A   1     -12.255  16.494  63.268  1.00  0.00     0.000 HD 
ENDBRANCH   2   5
TORSDOF 1
ENDMDL
MODEL        6
REMARK 921   NORMALIZED FREE ENERGY PREDICTED BY IDOCK:   -4.14 KCAL/MOL
REMARK 922        TOTAL FREE ENERGY PREDICTED BY IDOCK:   -4.39 KCAL/MOL
REMARK 923 INTER-LIGAND FREE ENERGY PREDICTED BY IDOCK:   -4.33 KCAL/MOL
REMARK 924 INTRA-LIGAND FREE ENERGY PREDICTED BY IDOCK:   -0.06 KCAL/MOL
REMARK 927      BINDING AFFINITY PREDICTED BY RF-SCORE:    0.00 PKD
ROOT
ATOM      1  CG2 THR A   1      -9.810  16.382  66.012  1.00  0.00    -0.362 C  
ATOM      2  CB  THR A   1     -11.103  15.827  65.419  1.00  0.00    -0.228 C  
ATOM      3  HG1 THR A   1     -12.180  16.151  63.807  1.00  0.00     0.000 HD 
ATOM      4  OG1 THR A   1     -11.376  16.496  64.175  1.00  0.00    -1.060 OA 
ENDROOT
BRANCH   2   5
ATOM      5  CA  THR A   1     -11.092  14.303  65.180  1.00  0.00    -0.352 C  
ATOM      6  N   THR A   1     -10.040  13.920  64.215  1.00  0.00    -0.687 NA 
ATOM      7  C   THR A   1     -12.467  13.766  64.732  1.00  0.00    -0.349 C  
ATOM      8  OXT THR A   1     -12.632  12.932  63.847  1.00  0.00    -0.647 OA 
ATOM      9  O   THR A   1     -13.501  14.208  65.493  1.00  0.00    -0.643 OA 
ATOM     10  H1  THR A   1     -10.032  12.913  64.057  1.00  0.00     0.000 HD 
ATOM     11  H2  THR A   1      -9.123  14.260  64.505  1.00  0.00     0.000 HD 
ENDBRANCH   2   5
TORSDOF 1
ENDMDL
MODEL        7
REMARK 921   NORMALIZED FREE ENERGY PREDICTED BY IDOCK:   -3.92 KCAL/MOL
REMARK 922        TOTAL FREE ENERGY PREDICTED BY IDOCK:   -4.16 KCAL/MOL
REMARK 923 INTER-LIGAND FREE ENERGY PREDICTED BY IDOCK:   -4.10 KCAL/MOL
REMARK 924 INTRA-LIGAND FREE ENERGY PREDICTED BY IDOCK:   -0.06 KCAL/MOL
REMARK 927      BINDING AFFINITY PREDICTED BY RF-SCORE:    0.00 PKD
ROOT
ATOM      1  CG2 THR A   1      -9.185  11.020  65.361  1.00  0.00    -0.232 C  
ATOM      2  CB  THR A   1     -10.602  11.461  65.003  1.00  0.00    -0.299 C  
ATOM      3  HG1 THR A   1     -12.147  12.199  65.971  1.00  0.00     0.000 HD 
ATOM      4  OG1 THR A   1     -11.265  11.925  66.193  1.00  0.00    -0.319 OA 
ENDROOT
BRANCH   2   5
ATOM      5  CA  THR A   1     -10.674  12.562  63.925  1.00  0.00    -0.437 C  
ATOM      6  N   THR A   1      -9.921  13.766  64.337  1.00  0.00    -0.728 NA 
ATOM      7  C   THR A   1     -12.126  12.928  63.550  1.00  0.00    -0.555 C  
ATOM      8  OXT THR A   1     -12.529  14.072  63.373  1.00  0.00    -0.826 OA 
ATOM      9  O   THR A   1     -12.915  11.850  63.307  1.00  0.00    -0.707 OA 
ATOM     10  H1  THR A   1      -9.968  14.494  63.624  1.00  0.00     0.000 HD 
ATOM     11  H2  THR A   1      -8.956  13.540  64.578  1.00  0.00     0.000 HD 
ENDBRANCH   2   5
TORSDOF 1
ENDMDL
MODEL        8
REMARK 921   NORMALIZED FREE ENERGY PREDICTED BY IDOCK:   -3.91 KCAL/MOL
REMARK 922        TOTAL FREE ENERGY PREDICTED BY IDOCK:   -4.15 KCAL/MOL
REMARK 923 INTER-LIGAND FREE ENERGY PREDICTED BY IDOCK:   -4.09 KCAL/MOL
REMARK 924 INTRA-LIGAND FREE ENERGY PREDICTED BY IDOCK:   -0.06 KCAL/MOL
REMARK 927      BINDING AFFINITY PREDICTED BY RF-SCORE:    0.00 PKD
ROOT
ATOM      1  CG2 THR A   1     -10.954  11.996  66.111  1.00  0.00    -0.343 C  
ATOM      2  CB  THR A   1     -11.683  13.269  65.690  1.00  0.00    -0.356 C  
ATOM      3  HG1 THR A   1     -12.560  14.773  66.605  1.00  0.00     0.000 HD 
ATOM      4  OG1 THR A   1     -12.106  13.980  66.867  1.00  0.00    -0.424 OA 
ENDROOT
BRANCH   2   5
ATOM      5  CA  THR A   1     -10.850  14.216  64.801  1.00  0.00    -0.413 C  
ATOM      6  N   THR A   1      -9.601  14.626  65.478  1.00  0.00    -0.520 NA 
ATOM      7  C   THR A   1     -11.652  15.452  64.341  1.00  0.00    -0.264 C  
ATOM      8  OXT THR A   1     -11.209  16.595  64.310  1.00  0.00    -1.098 OA 
ATOM      9  O   THR A   1     -12.881  15.153  63.847  1.00  0.00    -0.671 OA 
ATOM     10  H1  THR A   1      -9.050  15.251  64.890  1.00  0.00     0.000 HD 
ATOM     11  H2  THR A   1      -9.056  13.817  65.778  1.00  0.00     0.000 HD 
ENDBRANCH   2   5
TORSDOF 1
ENDMDL
MODEL        9
REMARK 921   NORMALIZED FREE ENERGY PREDICTED BY IDOCK:   -3.88 KCAL/MOL
REMARK 922        TOTAL FREE ENERGY PREDICTED BY IDOCK:   -4.12 KCAL/MOL
REMARK 923 INTER-LIGAND FREE ENERGY PREDICTED BY IDOCK:   -4.45 KCAL/MOL
REMARK 924 INTRA-LIGAND FREE ENERGY PREDICTED BY IDOCK:    0.34 KCAL/MOL
REMARK 927      BINDING AFFINITY PREDICTED BY RF-SCORE:    0.00 PKD
ROOT
ATOM      1  CG2 THR A   1     -10.667  12.417  63.626  1.00  0.00    -0.497 C  
ATOM      2  CB  THR A   1     -12.016  13.114  63.470  1.00  0.00    -0.513 C  
ATOM      3  HG1 THR A   1     -13.905  12.569  63.465  1.00  0.00     0.000 HD 
ATOM      4  OG1 THR A   1     -13.066  12.135  63.563  1.00  0.00    -0.785 OA 
ENDROOT
BRANCH   2   5
ATOM      5  CA  THR A   1     -12.278  14.233  64.500  1.00  0.00    -0.455 C  
ATOM      6  N   THR A   1     -11.675  15.512  64.067  1.00  0.00    -0.924 NA 
ATOM      7  C   THR A   1     -11.798  13.855  65.917  1.00  0.00    -0.382 C  
ATOM      8  OXT THR A   1     -11.209  14.617  66.676  1.00  0.00    -0.334 OA 
ATOM      9  O   THR A   1     -12.194  12.619  66.316  1.00  0.00    -0.562 OA 
ATOM     10  H1  THR A   1     -11.848  16.251  64.747  1.00  0.00     0.000 HD 
ATOM     11  H2  THR A   1     -11.992  15.779  63.135  1.00  0.00     0.000 HD 
ENDBRANCH   2   5
TORSDOF 1
ENDMDL
MODEL       10
REMARK 921   NORMALIZED FREE ENERGY PREDICTED BY IDOCK:   -3.83 KCAL/MOL
REMARK 922        TOTAL FREE ENERGY PREDICTED BY IDOCK:   -4.06 KCAL/MOL
REMARK 923 INTER-LIGAND FREE ENERGY PREDICTED BY IDOCK:   -4.00 KCAL/MOL
REMARK 924 INTRA-LIGAND FREE ENERGY PREDICTED BY IDOCK:   -0.06 KCAL/MOL
REMARK 927      BINDING AFFINITY PREDICTED BY RF-SCORE:    0.00 PKD
ROOT
ATOM      1  CG2 THR A   1     -10.276  15.769  65.773  1.00  0.00    -0.394 C  
ATOM      2  CB  THR A   1     -10.945  14.397  65.758  1.00  0.00    -0.314 C  
ATOM      3  HG1 THR A   1     -12.462  13.546  66.675  1.00  0.00     0.000 HD 
ATOM      4  OG1 THR A   1     -12.046  14.400  66.684  1.00  0.00    -0.419 OA 
ENDROOT
BRANCH   2   5
ATOM      5  CA  THR A   1     -11.453  13.951  64.371  1.00  0.00    -0.361 C  
ATOM      6  N   THR A   1     -12.489  14.873  63.858  1.00  0.00    -1.056 NA 
ATOM      7  C   THR A   1     -11.969  12.496  64.371  1.00  0.00    -0.404 C  
ATOM      8  OXT THR A   1     -12.985  12.121  63.797  1.00  0.00    -0.753 OA 
ATOM      9  O   THR A   1     -11.124  11.618  64.969  1.00  0.00    -0.299 OA 
ATOM     10  H1  THR A   1     -12.825  14.579  62.942  1.00  0.00     0.000 HD 
ATOM     11  H2  THR A   1     -12.158  15.838  63.843  1.00  0.00     0.000 HD 
ENDBRANCH   2   5
TORSDOF 1
ENDMDL
MODEL       11
REMARK 921   NORMALIZED FREE ENERGY PREDICTED BY IDOCK:   -3.79 KCAL/MOL
REMARK 922        TOTAL FREE ENERGY PREDICTED BY IDOCK:   -4.02 KCAL/MOL
REMARK 923 INTER-LIGAND FREE ENERGY PREDICTED BY IDOCK:   -3.98 KCAL/MOL
REMARK 924 INTRA-LIGAND FREE ENERGY PREDICTED BY IDOCK:   -0.04 KCAL/MOL
REMARK 927      BINDING AFFINITY PREDICTED BY RF-SCORE:    0.00 PKD
ROOT
ATOM      1  CG2 THR A   1     -11.780  14.525  66.808  1.00  0.00    -0.393 C  
ATOM      2  CB  THR A   1     -12.289  13.609  65.698  1.00  0.00    -0.478 C  
ATOM      3  HG1 THR A   1     -13.971  13.377  64.707  1.00  0.00     0.000 HD 
ATOM      4  OG1 THR A   1     -13.655  13.947  65.397  1.00  0.00    -0.571 OA 
ENDROOT
BRANCH   2   5
ATOM      5  CA  THR A   1     -11.459  13.661  64.398  1.00  0.00    -0.386 C  
ATOM      6  N   THR A   1     -12.314  13.954  63.228  1.00  0.00    -1.148 NA 
ATOM      7  C   THR A   1     -10.641  12.372  64.168  1.00  0.00    -0.385 C  
ATOM      8  OXT THR A   1     -10.520  11.812  63.084  1.00  0.00    -0.378 OA 
ATOM      9  O   THR A   1      -9.948  11.963  65.262  1.00  0.00    -0.246 OA 
ATOM     10  H1  THR A   1     -11.766  13.988  62.369  1.00  0.00     0.000 HD 
ATOM     11  H2  THR A   1     -12.853  14.809  63.363  1.00  0.00     0.000 HD 
ENDBRANCH   2   5
TORSDOF 1
ENDMDL
MODEL       12
REMARK 921   NORMALIZED FREE ENERGY PREDICTED BY IDOCK:   -3.79 KCAL/MOL
REMARK 922        TOTAL FREE ENERGY PREDICTED BY IDOCK:   -4.02 KCAL/MOL
REMARK 923 INTER-LIGAND FREE ENERGY PREDICTED BY IDOCK:   -3.98 KCAL/MOL
REMARK 924 INTRA-LIGAND FREE ENERGY PREDICTED BY IDOCK:   -0.04 KCAL/MOL
REMARK 927      BINDING AFFINITY PREDICTED BY RF-SCORE:    0.00 PKD
ROOT
ATOM      1  CG2 THR A   1     -12.021   6.492  71.853  1.00  0.00    -0.389 C  
ATOM      2  CB  THR A   1     -12.885   7.679  71.433  1.00  0.00    -0.319 C  
ATOM      3  HG1 THR A   1     -14.784   7.977  71.016  1.00  0.00     0.000 HD 
ATOM      4  OG1 THR A   1     -14.246   7.239  71.277  1.00  0.00    -0.394 OA 
ENDROOT
BRANCH   2   5
ATOM      5  CA  THR A   1     -12.850   8.870  72.413  1.00  0.00    -0.380 C  
ATOM      6  N   THR A   1     -14.090   8.941  73.217  1.00  0.00    -1.248 NA 
ATOM      7  C   THR A   1     -12.584  10.213  71.701  1.00  0.00    -0.434 C  
ATOM      8  OXT THR A   1     -13.165  11.262  71.957  1.00  0.00    -0.506 OA 
ATOM      9  O   THR A   1     -11.544  10.172  70.828  1.00  0.00    -0.304 OA 
ATOM     10  H1  THR A   1     -14.066   9.728  73.864  1.00  0.00     0.000 HD 
ATOM     11  H2  THR A   1     -14.272   8.062  73.701  1.00  0.00     0.000 HD 
ENDBRANCH   2   5
TORSDOF 1
ENDMDL
MODEL       13
REMARK 921   NORMALIZED FREE ENERGY PREDICTED BY IDOCK:   -3.78 KCAL/MOL
REMARK 922        TOTAL FREE ENERGY PREDICTED BY IDOCK:   -4.01 KCAL/MOL
REMARK 923 INTER-LIGAND FREE ENERGY PREDICTED BY IDOCK:   -3.96 KCAL/MOL
REMARK 924 INTRA-LIGAND FREE ENERGY PREDICTED BY IDOCK:   -0.05 KCAL/MOL
REMARK 927      BINDING AFFINITY PREDICTED BY RF-SCORE:    0.00 PKD
ROOT
ATOM      1  CG2 THR A   1      -9.918  10.347  64.753  1.00  0.00    -0.409 C  
ATOM      2  CB  THR A   1     -10.165  11.758  64.225  1.00  0.00    -0.302 C  
ATOM      3  HG1 THR A   1      -9.731  12.759  62.588  1.00  0.00     0.000 HD 
ATOM      4  OG1 THR A   1      -9.577  11.881  62.917  1.00  0.00    -0.367 OA 
ENDROOT
BRANCH   2   5
ATOM      5  CA  THR A   1     -11.653  12.159  64.148  1.00  0.00    -0.390 C  
ATOM      6  N   THR A   1     -12.304  11.576  62.955  1.00  0.00    -0.935 NA 
ATOM      7  C   THR A   1     -11.856  13.688  64.189  1.00  0.00    -0.422 C  
ATOM      8  OXT THR A   1     -12.649  14.302  63.483  1.00  0.00    -0.814 OA 
ATOM      9  O   THR A   1     -11.157  14.306  65.176  1.00  0.00    -0.318 OA 
ATOM     10  H1  THR A   1     -13.288  11.840  62.905  1.00  0.00     0.000 HD 
ATOM     11  H2  THR A   1     -12.186  10.563  62.922  1.00  0.00     0.000 HD 
ENDBRANCH   2   5
TORSDOF 1
ENDMDL
MODEL       14
REMARK 921   NORMALIZED FREE ENERGY PREDICTED BY IDOCK:   -3.76 KCAL/MOL
REMARK 922        TOTAL FREE ENERGY PREDICTED BY IDOCK:   -3.99 KCAL/MOL
REMARK 923 INTER-LIGAND FREE ENERGY PREDICTED BY IDOCK:   -3.93 KCAL/MOL
REMARK 924 INTRA-LIGAND FREE ENERGY PREDICTED BY IDOCK:   -0.06 KCAL/MOL
REMARK 927      BINDING AFFINITY PREDICTED BY RF-SCORE:    0.00 PKD
ROOT
ATOM      1  CG2 THR A   1     -12.424  15.773  74.234  1.00  0.00    -0.800 C  
ATOM      2  CB  THR A   1     -12.939  15.017  73.012  1.00  0.00    -0.488 C  
ATOM      3  HG1 THR A   1     -14.494  15.142  71.816  1.00  0.00     0.000 HD 
ATOM      4  OG1 THR A   1     -14.174  15.612  72.576  1.00  0.00    -0.557 OA 
ENDROOT
BRANCH   2   5
ATOM      5  CA  THR A   1     -11.952  14.977  71.826  1.00  0.00    -0.375 C  
ATOM      6  N   THR A   1     -11.790  16.315  71.218  1.00  0.00    -0.636 NA 
ATOM      7  C   THR A   1     -12.355  13.938  70.758  1.00  0.00    -0.378 C  
ATOM      8  OXT THR A   1     -12.302  14.129  69.548  1.00  0.00    -0.328 OA 
ATOM      9  O   THR A   1     -12.667  12.720  71.272  1.00  0.00    -0.368 OA 
ATOM     10  H1  THR A   1     -11.139  16.289  70.435  1.00  0.00     0.000 HD 
ATOM     11  H2  THR A   1     -11.514  17.011  71.912  1.00  0.00     0.000 HD 
ENDBRANCH   2   5
TORSDOF 1
ENDMDL
MODEL       15
REMARK 921   NORMALIZED FREE ENERGY PREDICTED BY IDOCK:   -3.73 KCAL/MOL
REMARK 922        TOTAL FREE ENERGY PREDICTED BY IDOCK:   -3.96 KCAL/MOL
REMARK 923 INTER-LIGAND FREE ENERGY PREDICTED BY IDOCK:   -3.91 KCAL/MOL
REMARK 924 INTRA-LIGAND FREE ENERGY PREDICTED BY IDOCK:   -0.04 KCAL/MOL
REMARK 927      BINDING AFFINITY PREDICTED BY RF-SCORE:    0.00 PKD
ROOT
ATOM      1  CG2 THR A   1     -12.574  13.650  65.675  1.00  0.00    -0.531 C  
ATOM      2  CB  THR A   1     -11.243  14.364  65.452  1.00  0.00    -0.335 C  
ATOM      3  HG1 THR A   1      -9.786  14.274  64.135  1.00  0.00     0.000 HD 
ATOM      4  OG1 THR A   1     -10.614  13.830  64.273  1.00  0.00    -0.367 OA 
ENDROOT
BRANCH   2   5
ATOM      5  CA  THR A   1     -11.358  15.897  65.312  1.00  0.00    -0.049 C  
ATOM      6  N   THR A   1     -11.423  16.302  63.891  1.00  0.00    -1.539 NA 
ATOM      7  C   THR A   1     -10.221  16.643  66.041  1.00  0.00    -0.351 C  
ATOM      8  OXT THR A   1      -9.623  17.612  65.586  1.00  0.00    -0.503 OA 
ATOM      9  O   THR A   1     -10.008  16.209  67.310  1.00  0.00    -0.239 OA 
ATOM     10  H1  THR A   1     -11.499  17.314  63.798  1.00  0.00     0.000 HD 
ATOM     11  H2  THR A   1     -12.177  15.823  63.399  1.00  0.00     0.000 HD 
ENDBRANCH   2   5
TORSDOF 1
ENDMDL
MODEL       16
REMARK 921   NORMALIZED FREE ENERGY PREDICTED BY IDOCK:   -3.73 KCAL/MOL
REMARK 922        TOTAL FREE ENERGY PREDICTED BY IDOCK:   -3.95 KCAL/MOL
REMARK 923 INTER-LIGAND FREE ENERGY PREDICTED BY IDOCK:   -3.90 KCAL/MOL
REMARK 924 INTRA-LIGAND FREE ENERGY PREDICTED BY IDOCK:   -0.06 KCAL/MOL
REMARK 927      BINDING AFFINITY PREDICTED BY RF-SCORE:    0.00 PKD
ROOT
ATOM      1  CG2 THR A   1     -10.761  14.060  67.107  1.00  0.00    -0.283 C  
ATOM      2  CB  THR A   1     -11.047  12.944  66.105  1.00  0.00    -0.286 C  
ATOM      3  HG1 THR A   1     -11.965  11.205  66.139  1.00  0.00     0.000 HD 
ATOM      4  OG1 THR A   1     -11.787  11.899  66.763  1.00  0.00    -0.598 OA 
ENDROOT
BRANCH   2   5
ATOM      5  CA  THR A   1     -11.822  13.398  64.851  1.00  0.00    -0.372 C  
ATOM      6  N   THR A   1     -13.104  14.038  65.215  1.00  0.00    -0.765 NA 
ATOM      7  C   THR A   1     -12.052  12.246  63.850  1.00  0.00    -0.506 C  
ATOM      8  OXT THR A   1     -13.101  12.049  63.247  1.00  0.00    -0.701 OA 
ATOM      9  O   THR A   1     -10.935  11.518  63.589  1.00  0.00    -0.386 OA 
ATOM     10  H1  THR A   1     -13.616  14.338  64.386  1.00  0.00     0.000 HD 
ATOM     11  H2  THR A   1     -12.966  14.809  65.869  1.00  0.00     0.000 HD 
ENDBRANCH   2   5
TORSDOF 1
ENDMDL
MODEL       17
REMARK 921   NORMALIZED FREE ENERGY PREDICTED BY IDOCK:   -3.69 KCAL/MOL
REMARK 922        TOTAL FREE ENERGY PREDICTED BY IDOCK:   -3.91 KCAL/MOL
REMARK 923 INTER-LIGAND FREE ENERGY PREDICTED BY IDOCK:   -3.87 KCAL/MOL
REMARK 924 INTRA-LIGAND FREE ENERGY PREDICTED BY IDOCK:   -0.05 KCAL/MOL
REMARK 927      BINDING AFFINITY PREDICTED BY RF-SCORE:    0.00 PKD
ROOT
ATOM      1  CG2 THR A   1     -10.309  13.193  67.153  1.00  0.00    -0.247 C  
ATOM      2  CB  THR A   1     -10.607  13.613  65.716  1.00  0.00    -0.285 C  
ATOM      3  HG1 THR A   1     -11.207  12.719  64.071  1.00  0.00     0.000 HD 
ATOM      4  OG1 THR A   1     -11.023  12.458  64.965  1.00  0.00    -0.282 OA 
ENDROOT
BRANCH   2   5
ATOM      5  CA  THR A   1     -11.680  14.714  65.583  1.00  0.00    -0.304 C  
ATOM      6  N   THR A   1     -12.890  14.203  64.904  1.00  0.00    -0.702 NA 
ATOM      7  C   THR A   1     -11.146  15.976  64.874  1.00  0.00    -0.370 C  
ATOM      8  OXT THR A   1     -11.767  16.613  64.030  1.00  0.00    -1.143 OA 
ATOM      9  O   THR A   1      -9.952  16.409  65.354  1.00  0.00    -0.534 OA 
ATOM     10  H1  THR A   1     -13.599  14.931  64.816  1.00  0.00     0.000 HD 
ATOM     11  H2  THR A   1     -13.259  13.374  65.369  1.00  0.00     0.000 HD 
ENDBRANCH   2   5
TORSDOF 1
ENDMDL
MODEL       18
REMARK 921   NORMALIZED FREE ENERGY PREDICTED BY IDOCK:   -3.66 KCAL/MOL
REMARK 922        TOTAL FREE ENERGY PREDICTED BY IDOCK:   -3.88 KCAL/MOL
REMARK 923 INTER-LIGAND FREE ENERGY PREDICTED BY IDOCK:   -3.85 KCAL/MOL
REMARK 924 INTRA-LIGAND FREE ENERGY PREDICTED BY IDOCK:   -0.03 KCAL/MOL
REMARK 927      BINDING AFFINITY PREDICTED BY RF-SCORE:    0.00 PKD
ROOT
ATOM      1  CG2 THR A   1      -9.812  12.722  67.011  1.00  0.00    -0.231 C  
ATOM      2  CB  THR A   1     -11.117  12.785  66.222  1.00  0.00    -0.288 C  
ATOM      3  HG1 THR A   1     -12.749  13.882  66.261  1.00  0.00     0.000 HD 
ATOM      4  OG1 THR A   1     -11.937  13.843  66.752  1.00  0.00    -0.396 OA 
ENDROOT
BRANCH   2   5
ATOM      5  CA  THR A   1     -10.934  13.001  64.705  1.00  0.00    -0.342 C  
ATOM      6  N   THR A   1     -10.038  14.144  64.430  1.00  0.00    -0.663 NA 
ATOM      7  C   THR A   1     -12.279  13.172  63.967  1.00  0.00    -0.414 C  
ATOM      8  OXT THR A   1     -12.486  13.997  63.084  1.00  0.00    -0.733 OA 
ATOM      9  O   THR A   1     -13.205  12.234  64.294  1.00  0.00    -0.785 OA 
ATOM     10  H1  THR A   1      -9.917  14.287  63.428  1.00  0.00     0.000 HD 
ATOM     11  H2  THR A   1      -9.141  14.039  64.904  1.00  0.00     0.000 HD 
ENDBRANCH   2   5
TORSDOF 1
ENDMDL
MODEL       19
REMARK 921   NORMALIZED FREE ENERGY PREDICTED BY IDOCK:   -3.64 KCAL/MOL
REMARK 922        TOTAL FREE ENERGY PREDICTED BY IDOCK:   -3.86 KCAL/MOL
REMARK 923 INTER-LIGAND FREE ENERGY PREDICTED BY IDOCK:   -3.80 KCAL/MOL
REMARK 924 INTRA-LIGAND FREE ENERGY PREDICTED BY IDOCK:   -0.06 KCAL/MOL
REMARK 927      BINDING AFFINITY PREDICTED BY RF-SCORE:    0.00 PKD
ROOT
ATOM      1  CG2 THR A   1     -11.958  14.128  68.026  1.00  0.00    -0.372 C  
ATOM      2  CB  THR A   1     -11.737  14.406  66.541  1.00  0.00    -0.391 C  
ATOM      3  HG1 THR A   1     -10.187  14.587  65.344  1.00  0.00     0.000 HD 
ATOM      4  OG1 THR A   1     -10.324  14.414  66.268  1.00  0.00    -0.281 OA 
ENDROOT
BRANCH   2   5
ATOM      5  CA  THR A   1     -12.427  13.401  65.595  1.00  0.00    -0.464 C  
ATOM      6  N   THR A   1     -11.943  12.024  65.831  1.00  0.00    -0.519 NA 
ATOM      7  C   THR A   1     -12.272  13.787  64.109  1.00  0.00    -0.396 C  
ATOM      8  OXT THR A   1     -12.026  12.993  63.208  1.00  0.00    -0.562 OA 
ATOM      9  O   THR A   1     -12.557  15.089  63.850  1.00  0.00    -0.813 OA 
ATOM     10  H1  THR A   1     -12.399  11.359  65.207  1.00  0.00     0.000 HD 
ATOM     11  H2  THR A   1     -12.049  11.752  66.809  1.00  0.00     0.000 HD 
ENDBRANCH   2   5
TORSDOF 1
ENDMDL
MODEL       20
REMARK 921   NORMALIZED FREE ENERGY PREDICTED BY IDOCK:   -3.58 KCAL/MOL
REMARK 922        TOTAL FREE ENERGY PREDICTED BY IDOCK:   -3.80 KCAL/MOL
REMARK 923 INTER-LIGAND FREE ENERGY PREDICTED BY IDOCK:   -3.75 KCAL/MOL
REMARK 924 INTRA-LIGAND FREE ENERGY PREDICTED BY IDOCK:   -0.05 KCAL/MOL
REMARK 927      BINDING AFFINITY PREDICTED BY RF-SCORE:    0.00 PKD
ROOT
ATOM      1  CG2 THR A   1     -10.717  19.296  67.030  1.00  0.00    -0.565 C  
ATOM      2  CB  THR A   1     -10.254  18.261  66.009  1.00  0.00    -0.323 C  
ATOM      3  HG1 THR A   1      -8.529  17.635  65.301  1.00  0.00     0.000 HD 
ATOM      4  OG1 THR A   1      -8.817  18.279  65.937  1.00  0.00    -0.501 OA 
ENDROOT
BRANCH   2   5
ATOM      5  CA  THR A   1     -10.725  16.821  66.303  1.00  0.00    -0.106 C  
ATOM      6  N   THR A   1      -9.819  16.144  67.255  1.00  0.00    -0.238 NA 
ATOM      7  C   THR A   1     -10.895  15.982  65.019  1.00  0.00    -0.404 C  
ATOM      8  OXT THR A   1     -10.540  14.814  64.901  1.00  0.00    -0.414 OA 
ATOM      9  O   THR A   1     -11.594  16.614  64.041  1.00  0.00    -1.197 OA 
ATOM     10  H1  THR A   1     -10.130  15.193  67.449  1.00  0.00     0.000 HD 
ATOM     11  H2  THR A   1      -9.706  16.684  68.113  1.00  0.00     0.000 HD 
ENDBRANCH   2   5
TORSDOF 1
ENDMDL
MODEL       21
REMARK 921   NORMALIZED FREE ENERGY PREDICTED BY IDOCK:   -3.54 KCAL/MOL
REMARK 922        TOTAL FREE ENERGY PREDICTED BY IDOCK:   -3.76 KCAL/MOL
REMARK 923 INTER-LIGAND FREE ENERGY PREDICTED BY IDOCK:   -3.74 KCAL/MOL
REMARK 924 INTRA-LIGAND FREE ENERGY PREDICTED BY IDOCK:   -0.02 KCAL/MOL
REMARK 927      BINDING AFFINITY PREDICTED BY RF-SCORE:    0.00 PKD
ROOT
ATOM      1  CG2 THR A   1     -12.235  14.831  64.348  1.00  0.00    -0.447 C  
ATOM      2  CB  THR A   1     -12.301  13.559  65.191  1.00  0.00    -0.449 C  
ATOM      3  HG1 THR A   1     -13.095  11.770  65.003  1.00  0.00     0.000 HD 
ATOM      4  OG1 THR A   1     -13.054  12.561  64.478  1.00  0.00    -0.816 OA 
ENDROOT
BRANCH   2   5
ATOM      5  CA  THR A   1     -10.925  12.976  65.573  1.00  0.00    -0.274 C  
ATOM      6  N   THR A   1     -10.042  12.866  64.391  1.00  0.00    -0.594 NA 
ATOM      7  C   THR A   1     -11.039  11.618  66.297  1.00  0.00    -0.290 C  
ATOM      8  OXT THR A   1     -10.313  10.654  66.082  1.00  0.00    -0.245 OA 
ATOM      9  O   THR A   1     -11.952  11.610  67.302  1.00  0.00    -0.627 OA 
ATOM     10  H1  THR A   1      -9.133  12.481  64.644  1.00  0.00     0.000 HD 
ATOM     11  H2  THR A   1      -9.950  13.760  63.909  1.00  0.00     0.000 HD 
ENDBRANCH   2   5
TORSDOF 1
ENDMDL
MODEL       22
REMARK 921   NORMALIZED FREE ENERGY PREDICTED BY IDOCK:   -3.53 KCAL/MOL
REMARK 922        TOTAL FREE ENERGY PREDICTED BY IDOCK:   -3.74 KCAL/MOL
REMARK 923 INTER-LIGAND FREE ENERGY PREDICTED BY IDOCK:   -3.74 KCAL/MOL
REMARK 924 INTRA-LIGAND FREE ENERGY PREDICTED BY IDOCK:   -0.00 KCAL/MOL
REMARK 927      BINDING AFFINITY PREDICTED BY RF-SCORE:    0.00 PKD
ROOT
ATOM      1  CG2 THR A   1     -11.572  14.542  64.615  1.00  0.00    -0.413 C  
ATOM      2  CB  THR A   1     -12.436  13.752  65.594  1.00  0.00    -0.503 C  
ATOM      3  HG1 THR A   1     -13.601  12.170  65.505  1.00  0.00     0.000 HD 
ATOM      4  OG1 THR A   1     -13.063  12.661  64.896  1.00  0.00    -0.850 OA 
ENDROOT
BRANCH   2   5
ATOM      5  CA  THR A   1     -11.670  13.196  66.813  1.00  0.00    -0.385 C  
ATOM      6  N   THR A   1     -12.003  11.775  67.052  1.00  0.00    -0.575 NA 
ATOM      7  C   THR A   1     -11.903  14.033  68.089  1.00  0.00    -0.367 C  
ATOM      8  OXT THR A   1     -12.090  13.560  69.205  1.00  0.00    -0.329 OA 
ATOM      9  O   THR A   1     -11.762  15.370  67.898  1.00  0.00    -0.319 OA 
ATOM     10  H1  THR A   1     -11.497  11.407  67.857  1.00  0.00     0.000 HD 
ATOM     11  H2  THR A   1     -11.844  11.208  66.219  1.00  0.00     0.000 HD 
ENDBRANCH   2   5
TORSDOF 1
ENDMDL
MODEL       23
REMARK 921   NORMALIZED FREE ENERGY PREDICTED BY IDOCK:   -3.40 KCAL/MOL
REMARK 922        TOTAL FREE ENERGY PREDICTED BY IDOCK:   -3.61 KCAL/MOL
REMARK 923 INTER-LIGAND FREE ENERGY PREDICTED BY IDOCK:   -3.55 KCAL/MOL
REMARK 924 INTRA-LIGAND FREE ENERGY PREDICTED BY IDOCK:   -0.06 KCAL/MOL
REMARK 927      BINDING AFFINITY PREDICTED BY RF-SCORE:    0.00 PKD
ROOT
ATOM      1  CG2 THR A   1     -11.646  12.464  63.915  1.00  0.00    -0.518 C  
ATOM      2  CB  THR A   1     -11.838  13.538  64.983  1.00  0.00    -0.353 C  
ATOM      3  HG1 THR A   1     -13.357  14.516  65.758  1.00  0.00     0.000 HD 
ATOM      4  OG1 THR A   1     -13.239  13.848  65.093  1.00  0.00    -0.768 OA 
ENDROOT
BRANCH   2   5
ATOM      5  CA  THR A   1     -11.294  13.155  66.375  1.00  0.00    -0.315 C  
ATOM      6  N   THR A   1     -11.902  11.897  66.861  1.00  0.00    -0.610 NA 
ATOM      7  C   THR A   1     -11.477  14.285  67.411  1.00  0.00    -0.347 C  
ATOM      8  OXT THR A   1     -11.842  14.113  68.569  1.00  0.00    -0.329 OA 
ATOM      9  O   THR A   1     -11.076  15.504  66.966  1.00  0.00    -0.312 OA 
ATOM     10  H1  THR A   1     -11.543  11.644  67.781  1.00  0.00     0.000 HD 
ATOM     11  H2  THR A   1     -11.780  11.139  66.189  1.00  0.00     0.000 HD 
ENDBRANCH   2   5
TORSDOF 1
ENDMDL
MODEL       24
REMARK 921   NORMALIZED FREE ENERGY PREDICTED BY IDOCK:   -3.37 KCAL/MOL
REMARK 922        TOTAL FREE ENERGY PREDICTED BY IDOCK:   -3.58 KCAL/MOL
REMARK 923 INTER-LIGAND FREE ENERGY PREDICTED BY IDOCK:   -3.53 KCAL/MOL
REMARK 924 INTRA-LIGAND FREE ENERGY PREDICTED BY IDOCK:   -0.04 KCAL/MOL
REMARK 927      BINDING AFFINITY PREDICTED BY RF-SCORE:    0.00 PKD
ROOT
ATOM      1  CG2 THR A   1     -12.481  13.853  65.886  1.00  0.00    -0.519 C  
ATOM      2  CB  THR A   1     -12.227  12.491  65.246  1.00  0.00    -0.433 C  
ATOM      3  HG1 THR A   1     -13.209  11.280  64.047  1.00  0.00     0.000 HD 
ATOM      4  OG1 THR A   1     -13.367  12.128  64.445  1.00  0.00    -0.740 OA 
ENDROOT
BRANCH   2   5
ATOM      5  CA  THR A   1     -10.957  12.423  64.373  1.00  0.00    -0.334 C  
ATOM      6  N   THR A   1     -11.254  12.765  62.966  1.00  0.00    -0.609 NA 
ATOM      7  C   THR A   1     -10.249  11.055  64.466  1.00  0.00    -0.344 C  
ATOM      8  OXT THR A   1      -9.774  10.454  63.509  1.00  0.00    -0.307 OA 
ATOM      9  O   THR A   1     -10.082  10.611  65.738  1.00  0.00    -0.245 OA 
ATOM     10  H1  THR A   1     -10.414  12.721  62.389  1.00  0.00     0.000 HD 
ATOM     11  H2  THR A   1     -11.713  13.673  62.890  1.00  0.00     0.000 HD 
ENDBRANCH   2   5
TORSDOF 1
ENDMDL
MODEL       25
REMARK 921   NORMALIZED FREE ENERGY PREDICTED BY IDOCK:   -3.28 KCAL/MOL
REMARK 922        TOTAL FREE ENERGY PREDICTED BY IDOCK:   -3.48 KCAL/MOL
REMARK 923 INTER-LIGAND FREE ENERGY PREDICTED BY IDOCK:   -3.41 KCAL/MOL
REMARK 924 INTRA-LIGAND FREE ENERGY PREDICTED BY IDOCK:   -0.06 KCAL/MOL
REMARK 927      BINDING AFFINITY PREDICTED BY RF-SCORE:    0.00 PKD
ROOT
ATOM      1  CG2 THR A   1      -8.680  14.745  66.855  1.00  0.00    -0.264 C  
ATOM      2  CB  THR A   1     -10.141  14.302  66.848  1.00  0.00    -0.264 C  
ATOM      3  HG1 THR A   1     -11.890  15.175  66.637  1.00  0.00     0.000 HD 
ATOM      4  OG1 THR A   1     -10.981  15.451  66.641  1.00  0.00    -0.313 OA 
ENDROOT
BRANCH   2   5
ATOM      5  CA  THR A   1     -10.477  13.234  65.786  1.00  0.00    -0.284 C  
ATOM      6  N   THR A   1     -10.260  13.752  64.418  1.00  0.00    -0.729 NA 
ATOM      7  C   THR A   1     -11.910  12.679  65.939  1.00  0.00    -0.444 C  
ATOM      8  OXT THR A   1     -12.674  12.464  65.004  1.00  0.00    -0.631 OA 
ATOM      9  O   THR A   1     -12.225  12.326  67.211  1.00  0.00    -0.485 OA 
ATOM     10  H1  THR A   1     -10.482  13.047  63.716  1.00  0.00     0.000 HD 
ATOM     11  H2  THR A   1      -9.314  14.113  64.300  1.00  0.00     0.000 HD 
ENDBRANCH   2   5
TORSDOF 1
ENDMDL
MODEL       26
REMARK 921   NORMALIZED FREE ENERGY PREDICTED BY IDOCK:   -3.26 KCAL/MOL
REMARK 922        TOTAL FREE ENERGY PREDICTED BY IDOCK:   -3.47 KCAL/MOL
REMARK 923 INTER-LIGAND FREE ENERGY PREDICTED BY IDOCK:   -3.42 KCAL/MOL
REMARK 924 INTRA-LIGAND FREE ENERGY PREDICTED BY IDOCK:   -0.04 KCAL/MOL
REMARK 927      BINDING AFFINITY PREDICTED BY RF-SCORE:    0.00 PKD
ROOT
ATOM      1  CG2 THR A   1      -9.464  17.245  67.965  1.00  0.00    -0.271 C  
ATOM      2  CB  THR A   1      -9.862  16.952  66.520  1.00  0.00    -0.296 C  
ATOM      3  HG1 THR A   1      -8.918  16.629  64.825  1.00  0.00     0.000 HD 
ATOM      4  OG1 THR A   1      -8.671  16.811  65.724  1.00  0.00    -0.496 OA 
ENDROOT
BRANCH   2   5
ATOM      5  CA  THR A   1     -10.739  15.695  66.343  1.00  0.00    -0.291 C  
ATOM      6  N   THR A   1     -10.117  14.513  66.979  1.00  0.00    -0.252 NA 
ATOM      7  C   THR A   1     -11.068  15.409  64.862  1.00  0.00    -0.423 C  
ATOM      8  OXT THR A   1     -11.054  14.294  64.351  1.00  0.00    -0.335 OA 
ATOM      9  O   THR A   1     -11.502  16.499  64.179  1.00  0.00    -1.059 OA 
ATOM     10  H1  THR A   1     -10.697  13.683  66.862  1.00  0.00     0.000 HD 
ATOM     11  H2  THR A   1      -9.904  14.686  67.961  1.00  0.00     0.000 HD 
ENDBRANCH   2   5
TORSDOF 1
ENDMDL
MODEL       27
REMARK 921   NORMALIZED FREE ENERGY PREDICTED BY IDOCK:   -3.24 KCAL/MOL
REMARK 922        TOTAL FREE ENERGY PREDICTED BY IDOCK:   -3.44 KCAL/MOL
REMARK 923 INTER-LIGAND FREE ENERGY PREDICTED BY IDOCK:   -3.42 KCAL/MOL
REMARK 924 INTRA-LIGAND FREE ENERGY PREDICTED BY IDOCK:   -0.02 KCAL/MOL
REMARK 927      BINDING AFFINITY PREDICTED BY RF-SCORE:    0.00 PKD
ROOT
ATOM      1  CG2 THR A   1     -12.590  10.944  69.972  1.00  0.00    -0.253 C  
ATOM      2  CB  THR A   1     -12.474  10.661  71.468  1.00  0.00    -0.366 C  
ATOM      3  HG1 THR A   1     -13.347  11.304  73.108  1.00  0.00     0.000 HD 
ATOM      4  OG1 THR A   1     -13.420  11.480  72.177  1.00  0.00    -0.410 OA 
ENDROOT
BRANCH   2   5
ATOM      5  CA  THR A   1     -12.696   9.184  71.855  1.00  0.00    -0.389 C  
ATOM      6  N   THR A   1     -13.666   9.061  72.966  1.00  0.00    -1.040 NA 
ATOM      7  C   THR A   1     -11.378   8.458  72.199  1.00  0.00    -0.366 C  
ATOM      8  OXT THR A   1     -11.238   7.681  73.136  1.00  0.00    -0.391 OA 
ATOM      9  O   THR A   1     -10.392   8.658  71.287  1.00  0.00    -0.204 OA 
ATOM     10  H1  THR A   1     -13.813   8.085  73.222  1.00  0.00     0.000 HD 
ATOM     11  H2  THR A   1     -14.546   9.528  72.748  1.00  0.00     0.000 HD 
ENDBRANCH   2   5
TORSDOF 1
ENDMDL
MODEL       28
REMARK 921   NORMALIZED FREE ENERGY PREDICTED BY IDOCK:   -3.22 KCAL/MOL
REMARK 922        TOTAL FREE ENERGY PREDICTED BY IDOCK:   -3.42 KCAL/MOL
REMARK 923 INTER-LIGAND FREE ENERGY PREDICTED BY IDOCK:   -3.35 KCAL/MOL
REMARK 924 INTRA-LIGAND FREE ENERGY PREDICTED BY IDOCK:   -0.06 KCAL/MOL
REMARK 927      BINDING AFFINITY PREDICTED BY RF-SCORE:    0.00 PKD
ROOT
ATOM      1  CG2 THR A   1     -10.184  19.920  66.696  1.00  0.00    -0.609 C  
ATOM      2  CB  THR A   1     -10.519  18.451  66.450  1.00  0.00    -0.383 C  
ATOM      3  HG1 THR A   1     -11.120  17.367  64.923  1.00  0.00     0.000 HD 
ATOM      4  OG1 THR A   1     -10.912  18.281  65.076  1.00  0.00    -0.684 OA 
ENDROOT
BRANCH   2   5
ATOM      5  CA  THR A   1      -9.368  17.474  66.769  1.00  0.00    -0.265 C  
ATOM      6  N   THR A   1      -8.196  17.724  65.902  1.00  0.00    -0.537 NA 
ATOM      7  C   THR A   1      -9.806  15.996  66.682  1.00  0.00    -0.260 C  
ATOM      8  OXT THR A   1      -9.138  15.103  66.173  1.00  0.00    -0.295 OA 
ATOM      9  O   THR A   1     -10.967  15.732  67.336  1.00  0.00    -0.320 OA 
ATOM     10  H1  THR A   1      -7.436  17.078  66.113  1.00  0.00     0.000 HD 
ATOM     11  H2  THR A   1      -7.890  18.695  65.958  1.00  0.00     0.000 HD 
ENDBRANCH   2   5
TORSDOF 1
ENDMDL
MODEL       29
REMARK 921   NORMALIZED FREE ENERGY PREDICTED BY IDOCK:   -3.20 KCAL/MOL
REMARK 922        TOTAL FREE ENERGY PREDICTED BY IDOCK:   -3.40 KCAL/MOL
REMARK 923 INTER-LIGAND FREE ENERGY PREDICTED BY IDOCK:   -3.36 KCAL/MOL
REMARK 924 INTRA-LIGAND FREE ENERGY PREDICTED BY IDOCK:   -0.05 KCAL/MOL
REMARK 927      BINDING AFFINITY PREDICTED BY RF-SCORE:    0.00 PKD
ROOT
ATOM      1  CG2 THR A   1      -9.321  20.022  66.832  1.00  0.00    -0.515 C  
ATOM      2  CB  THR A   1     -10.402  18.967  66.611  1.00  0.00    -0.428 C  
ATOM      3  HG1 THR A   1     -11.625  18.470  65.153  1.00  0.00     0.000 HD 
ATOM      4  OG1 THR A   1     -10.952  19.127  65.291  1.00  0.00    -0.512 OA 
ENDROOT
BRANCH   2   5
ATOM      5  CA  THR A   1      -9.916  17.512  66.782  1.00  0.00    -0.313 C  
ATOM      6  N   THR A   1     -10.140  16.724  65.551  1.00  0.00    -0.596 NA 
ATOM      7  C   THR A   1     -10.558  16.816  68.001  1.00  0.00    -0.347 C  
ATOM      8  OXT THR A   1     -10.970  15.661  68.002  1.00  0.00    -0.296 OA 
ATOM      9  O   THR A   1     -10.521  17.559  69.137  1.00  0.00    -0.347 OA 
ATOM     10  H1  THR A   1      -9.819  15.763  65.664  1.00  0.00     0.000 HD 
ATOM     11  H2  THR A   1      -9.712  17.169  64.739  1.00  0.00     0.000 HD 
ENDBRANCH   2   5
TORSDOF 1
ENDMDL
MODEL       30
REMARK 921   NORMALIZED FREE ENERGY PREDICTED BY IDOCK:   -3.18 KCAL/MOL
REMARK 922        TOTAL FREE ENERGY PREDICTED BY IDOCK:   -3.37 KCAL/MOL
REMARK 923 INTER-LIGAND FREE ENERGY PREDICTED BY IDOCK:   -3.43 KCAL/MOL
REMARK 924 INTRA-LIGAND FREE ENERGY PREDICTED BY IDOCK:    0.05 KCAL/MOL
REMARK 927      BINDING AFFINITY PREDICTED BY RF-SCORE:    0.00 PKD
ROOT
ATOM      1  CG2 THR A   1     -10.327  16.142  65.537  1.00  0.00    -0.391 C  
ATOM      2  CB  THR A   1     -11.153  14.901  65.209  1.00  0.00    -0.378 C  
ATOM      3  HG1 THR A   1     -10.878  13.237  64.198  1.00  0.00     0.000 HD 
ATOM      4  OG1 THR A   1     -10.364  14.009  64.402  1.00  0.00    -0.342 OA 
ENDROOT
BRANCH   2   5
ATOM      5  CA  THR A   1     -11.672  14.136  66.445  1.00  0.00    -0.390 C  
ATOM      6  N   THR A   1     -10.637  14.053  67.498  1.00  0.00    -0.258 NA 
ATOM      7  C   THR A   1     -12.204  12.731  66.090  1.00  0.00    -0.271 C  
ATOM      8  OXT THR A   1     -11.991  11.721  66.752  1.00  0.00    -0.584 OA 
ATOM      9  O   THR A   1     -13.048  12.720  65.026  1.00  0.00    -0.811 OA 
ATOM     10  H1  THR A   1     -10.979  13.548  68.314  1.00  0.00     0.000 HD 
ATOM     11  H2  THR A   1     -10.283  14.976  67.749  1.00  0.00     0.000 HD 
ENDBRANCH   2   5
TORSDOF 1
ENDMDL
MODEL       31
REMARK 921   NORMALIZED FREE ENERGY PREDICTED BY IDOCK:   -3.16 KCAL/MOL
REMARK 922        TOTAL FREE ENERGY PREDICTED BY IDOCK:   -3.36 KCAL/MOL
REMARK 923 INTER-LIGAND FREE ENERGY PREDICTED BY IDOCK:   -3.65 KCAL/MOL
REMARK 924 INTRA-LIGAND FREE ENERGY PREDICTED BY IDOCK:    0.29 KCAL/MOL
REMARK 927      BINDING AFFINITY PREDICTED BY RF-SCORE:    0.00 PKD
ROOT
ATOM      1  CG2 THR A   1     -11.620  14.358  64.624  1.00  0.00    -0.414 C  
ATOM      2  CB  THR A   1     -10.791  15.599  64.945  1.00  0.00    -0.418 C  
ATOM      3  HG1 THR A   1     -10.955  17.535  64.640  1.00  0.00     0.000 HD 
ATOM      4  OG1 THR A   1     -11.471  16.763  64.441  1.00  0.00    -1.024 OA 
ENDROOT
BRANCH   2   5
ATOM      5  CA  THR A   1     -10.498  15.799  66.447  1.00  0.00    -0.303 C  
ATOM      6  N   THR A   1     -11.522  15.140  67.286  1.00  0.00    -0.322 NA 
ATOM      7  C   THR A   1     -10.355  17.287  66.828  1.00  0.00    -0.308 C  
ATOM      8  OXT THR A   1     -10.829  17.793  67.839  1.00  0.00    -0.365 OA 
ATOM      9  O   THR A   1      -9.540  17.988  65.998  1.00  0.00    -0.499 OA 
ATOM     10  H1  THR A   1     -11.328  15.271  68.278  1.00  0.00     0.000 HD 
ATOM     11  H2  THR A   1     -11.619  14.152  67.050  1.00  0.00     0.000 HD 
ENDBRANCH   2   5
TORSDOF 1
ENDMDL
MODEL       32
REMARK 921   NORMALIZED FREE ENERGY PREDICTED BY IDOCK:   -3.13 KCAL/MOL
REMARK 922        TOTAL FREE ENERGY PREDICTED BY IDOCK:   -3.33 KCAL/MOL
REMARK 923 INTER-LIGAND FREE ENERGY PREDICTED BY IDOCK:   -3.37 KCAL/MOL
REMARK 924 INTRA-LIGAND FREE ENERGY PREDICTED BY IDOCK:    0.04 KCAL/MOL
REMARK 927      BINDING AFFINITY PREDICTED BY RF-SCORE:    0.00 PKD
ROOT
ATOM      1  CG2 THR A   1     -11.627  14.449  64.873  1.00  0.00    -0.395 C  
ATOM      2  CB  THR A   1     -10.777  15.706  64.709  1.00  0.00    -0.276 C  
ATOM      3  HG1 THR A   1     -10.967  17.442  63.805  1.00  0.00     0.000 HD 
ATOM      4  OG1 THR A   1     -11.496  16.660  63.907  1.00  0.00    -1.186 OA 
ENDROOT
BRANCH   2   5
ATOM      5  CA  THR A   1     -10.364  16.374  66.038  1.00  0.00    -0.352 C  
ATOM      6  N   THR A   1     -10.471  17.847  65.953  1.00  0.00    -0.537 NA 
ATOM      7  C   THR A   1      -8.951  15.955  66.496  1.00  0.00    -0.296 C  
ATOM      8  OXT THR A   1      -8.118  16.722  66.965  1.00  0.00    -0.168 OA 
ATOM      9  O   THR A   1      -8.738  14.614  66.449  1.00  0.00    -0.162 OA 
ATOM     10  H1  THR A   1     -10.199  18.288  66.831  1.00  0.00     0.000 HD 
ATOM     11  H2  THR A   1     -11.404  18.138  65.661  1.00  0.00     0.000 HD 
ENDBRANCH   2   5
TORSDOF 1
ENDMDL
MODEL       33
REMARK 921   NORMALIZED FREE ENERGY PREDICTED BY IDOCK:   -3.12 KCAL/MOL
REMARK 922        TOTAL FREE ENERGY PREDICTED BY IDOCK:   -3.32 KCAL/MOL
REMARK 923 INTER-LIGAND FREE ENERGY PREDICTED BY IDOCK:   -3.26 KCAL/MOL
REMARK 924 INTRA-LIGAND FREE ENERGY PREDICTED BY IDOCK:   -0.06 KCAL/MOL
REMARK 927      BINDING AFFINITY PREDICTED BY RF-SCORE:    0.00 PKD
ROOT
ATOM      1  CG2 THR A   1     -11.173  11.304  67.804  1.00  0.00    -0.354 C  
ATOM      2  CB  THR A   1     -11.648  12.663  67.296  1.00  0.00    -0.364 C  
ATOM      3  HG1 THR A   1     -11.624  14.514  67.958  1.00  0.00     0.000 HD 
ATOM      4  OG1 THR A   1     -11.328  13.669  68.274  1.00  0.00    -0.257 OA 
ENDROOT
BRANCH   2   5
ATOM      5  CA  THR A   1     -11.054  13.077  65.934  1.00  0.00    -0.280 C  
ATOM      6  N   THR A   1      -9.626  13.438  66.059  1.00  0.00    -0.457 NA 
ATOM      7  C   THR A   1     -11.849  14.219  65.266  1.00  0.00    -0.374 C  
ATOM      8  OXT THR A   1     -11.340  15.176  64.693  1.00  0.00    -0.390 OA 
ATOM      9  O   THR A   1     -13.192  14.016  65.257  1.00  0.00    -0.782 OA 
ATOM     10  H1  THR A   1      -9.233  13.711  65.159  1.00  0.00     0.000 HD 
ATOM     11  H2  THR A   1      -9.087  12.687  66.490  1.00  0.00     0.000 HD 
ENDBRANCH   2   5
TORSDOF 1
ENDMDL
MODEL       34
REMARK 921   NORMALIZED FREE ENERGY PREDICTED BY IDOCK:   -3.11 KCAL/MOL
REMARK 922        TOTAL FREE ENERGY PREDICTED BY IDOCK:   -3.31 KCAL/MOL
REMARK 923 INTER-LIGAND FREE ENERGY PREDICTED BY IDOCK:   -3.26 KCAL/MOL
REMARK 924 INTRA-LIGAND FREE ENERGY PREDICTED BY IDOCK:   -0.05 KCAL/MOL
REMARK 927      BINDING AFFINITY PREDICTED BY RF-SCORE:    0.00 PKD
ROOT
ATOM      1  CG2 THR A   1      -6.680  20.161  65.160  1.00  0.00    -0.333 C  
ATOM      2  CB  THR A   1      -7.440  19.894  66.456  1.00  0.00    -0.275 C  
ATOM      3  HG1 THR A   1      -7.583  20.748  68.221  1.00  0.00     0.000 HD 
ATOM      4  OG1 THR A   1      -7.110  20.915  67.415  1.00  0.00    -0.342 OA 
ENDROOT
BRANCH   2   5
ATOM      5  CA  THR A   1      -8.974  19.832  66.294  1.00  0.00    -0.376 C  
ATOM      6  N   THR A   1      -9.644  20.843  67.141  1.00  0.00    -0.689 NA 
ATOM      7  C   THR A   1      -9.541  18.424  66.572  1.00  0.00    -0.327 C  
ATOM      8  OXT THR A   1     -10.564  18.201  67.209  1.00  0.00    -0.393 OA 
ATOM      9  O   THR A   1      -8.867  17.429  65.938  1.00  0.00    -0.526 OA 
ATOM     10  H1  THR A   1     -10.656  20.802  67.034  1.00  0.00     0.000 HD 
ATOM     11  H2  THR A   1      -9.285  21.780  66.960  1.00  0.00     0.000 HD 
ENDBRANCH   2   5
TORSDOF 1
ENDMDL
MODEL       35
REMARK 921   NORMALIZED FREE ENERGY PREDICTED BY IDOCK:   -3.11 KCAL/MOL
REMARK 922        TOTAL FREE ENERGY PREDICTED BY IDOCK:   -3.30 KCAL/MOL
REMARK 923 INTER-LIGAND FREE ENERGY PREDICTED BY IDOCK:   -3.24 KCAL/MOL
REMARK 924 INTRA-LIGAND FREE ENERGY PREDICTED BY IDOCK:   -0.06 KCAL/MOL
REMARK 927      BINDING AFFINITY PREDICTED BY RF-SCORE:    0.00 PKD
ROOT
ATOM      1  CG2 THR A   1     -11.674  14.224  67.489  1.00  0.00    -0.415 C  
ATOM      2  CB  THR A   1     -12.060  14.230  68.966  1.00  0.00    -0.285 C  
ATOM      3  HG1 THR A   1     -11.819  13.027  70.502  1.00  0.00     0.000 HD 
ATOM      4  OG1 THR A   1     -11.579  13.023  69.584  1.00  0.00    -0.286 OA 
ENDROOT
BRANCH   2   5
ATOM      5  CA  THR A   1     -11.533  15.446  69.757  1.00  0.00    -0.324 C  
ATOM      6  N   THR A   1     -10.083  15.326  70.021  1.00  0.00    -0.482 NA 
ATOM      7  C   THR A   1     -12.310  15.677  71.071  1.00  0.00    -0.428 C  
ATOM      8  OXT THR A   1     -11.790  15.973  72.141  1.00  0.00    -0.453 OA 
ATOM      9  O   THR A   1     -13.659  15.646  70.920  1.00  0.00    -0.568 OA 
ATOM     10  H1  THR A   1      -9.735  16.129  70.544  1.00  0.00     0.000 HD 
ATOM     11  H2  THR A   1      -9.556  15.182  69.160  1.00  0.00     0.000 HD 
ENDBRANCH   2   5
TORSDOF 1
ENDMDL
MODEL       36
REMARK 921   NORMALIZED FREE ENERGY PREDICTED BY IDOCK:   -3.09 KCAL/MOL
REMARK 922        TOTAL FREE ENERGY PREDICTED BY IDOCK:   -3.28 KCAL/MOL
REMARK 923 INTER-LIGAND FREE ENERGY PREDICTED BY IDOCK:   -3.23 KCAL/MOL
REMARK 924 INTRA-LIGAND FREE ENERGY PREDICTED BY IDOCK:   -0.05 KCAL/MOL
REMARK 927      BINDING AFFINITY PREDICTED BY RF-SCORE:    0.00 PKD
ROOT
ATOM      1  CG2 THR A   1     -10.042  10.925  67.081  1.00  0.00    -0.235 C  
ATOM      2  CB  THR A   1     -11.433  11.492  66.806  1.00  0.00    -0.157 C  
ATOM      3  HG1 THR A   1     -13.070  11.807  67.848  1.00  0.00     0.000 HD 
ATOM      4  OG1 THR A   1     -12.205  11.454  68.019  1.00  0.00    -0.607 OA 
ENDROOT
BRANCH   2   5
ATOM      5  CA  THR A   1     -11.435  12.932  66.252  1.00  0.00    -0.348 C  
ATOM      6  N   THR A   1     -12.181  13.848  67.142  1.00  0.00    -0.481 NA 
ATOM      7  C   THR A   1     -11.978  13.009  64.809  1.00  0.00    -0.395 C  
ATOM      8  OXT THR A   1     -12.740  13.879  64.401  1.00  0.00    -0.656 OA 
ATOM      9  O   THR A   1     -11.439  12.086  63.973  1.00  0.00    -0.353 OA 
ATOM     10  H1  THR A   1     -12.182  14.799  66.776  1.00  0.00     0.000 HD 
ATOM     11  H2  THR A   1     -11.825  13.814  68.097  1.00  0.00     0.000 HD 
ENDBRANCH   2   5
TORSDOF 1
ENDMDL
MODEL       37
REMARK 921   NORMALIZED FREE ENERGY PREDICTED BY IDOCK:   -3.07 KCAL/MOL
REMARK 922        TOTAL FREE ENERGY PREDICTED BY IDOCK:   -3.26 KCAL/MOL
REMARK 923 INTER-LIGAND FREE ENERGY PREDICTED BY IDOCK:   -3.21 KCAL/MOL
REMARK 924 INTRA-LIGAND FREE ENERGY PREDICTED BY IDOCK:   -0.05 KCAL/MOL
REMARK 927      BINDING AFFINITY PREDICTED BY RF-SCORE:    0.00 PKD
ROOT
ATOM      1  CG2 THR A   1      -9.649   9.090  71.222  1.00  0.00    -0.361 C  
ATOM      2  CB  THR A   1     -11.151   8.907  71.021  1.00  0.00    -0.276 C  
ATOM      3  HG1 THR A   1     -12.313   7.640  70.066  1.00  0.00     0.000 HD 
ATOM      4  OG1 THR A   1     -11.379   7.754  70.191  1.00  0.00    -0.225 OA 
ENDROOT
BRANCH   2   5
ATOM      5  CA  THR A   1     -11.955   8.753  72.329  1.00  0.00    -0.345 C  
ATOM      6  N   THR A   1     -12.031   7.337  72.748  1.00  0.00    -0.537 NA 
ATOM      7  C   THR A   1     -13.366   9.370  72.232  1.00  0.00    -0.461 C  
ATOM      8  OXT THR A   1     -14.383   8.850  72.677  1.00  0.00    -0.613 OA 
ATOM      9  O   THR A   1     -13.379  10.623  71.707  1.00  0.00    -0.394 OA 
ATOM     10  H1  THR A   1     -12.561   7.235  73.613  1.00  0.00     0.000 HD 
ATOM     11  H2  THR A   1     -11.103   6.920  72.827  1.00  0.00     0.000 HD 
ENDBRANCH   2   5
TORSDOF 1
ENDMDL
MODEL       38
REMARK 921   NORMALIZED FREE ENERGY PREDICTED BY IDOCK:   -3.07 KCAL/MOL
REMARK 922        TOTAL FREE ENERGY PREDICTED BY IDOCK:   -3.26 KCAL/MOL
REMARK 923 INTER-LIGAND FREE ENERGY PREDICTED BY IDOCK:   -3.21 KCAL/MOL
REMARK 924 INTRA-LIGAND FREE ENERGY PREDICTED BY IDOCK:   -0.04 KCAL/MOL
REMARK 927      BINDING AFFINITY PREDICTED BY RF-SCORE:    0.00 PKD
ROOT
ATOM      1  CG2 THR A   1     -14.188   8.552  72.061  1.00  0.00    -0.535 C  
ATOM      2  CB  THR A   1     -12.949   9.435  71.934  1.00  0.00    -0.417 C  
ATOM      3  HG1 THR A   1     -11.008   9.148  71.800  1.00  0.00     0.000 HD 
ATOM      4  OG1 THR A   1     -11.779   8.599  71.879  1.00  0.00    -0.305 OA 
ENDROOT
BRANCH   2   5
ATOM      5  CA  THR A   1     -12.957  10.371  70.707  1.00  0.00    -0.341 C  
ATOM      6  N   THR A   1     -12.007   9.908  69.673  1.00  0.00    -0.461 NA 
ATOM      7  C   THR A   1     -12.680  11.841  71.085  1.00  0.00    -0.305 C  
ATOM      8  OXT THR A   1     -11.952  12.596  70.450  1.00  0.00    -0.338 OA 
ATOM      9  O   THR A   1     -13.418  12.284  72.136  1.00  0.00    -0.509 OA 
ATOM     10  H1  THR A   1     -12.012  10.527  68.863  1.00  0.00     0.000 HD 
ATOM     11  H2  THR A   1     -12.186   8.940  69.407  1.00  0.00     0.000 HD 
ENDBRANCH   2   5
TORSDOF 1
ENDMDL
MODEL       39
REMARK 921   NORMALIZED FREE ENERGY PREDICTED BY IDOCK:   -3.05 KCAL/MOL
REMARK 922        TOTAL FREE ENERGY PREDICTED BY IDOCK:   -3.24 KCAL/MOL
REMARK 923 INTER-LIGAND FREE ENERGY PREDICTED BY IDOCK:   -3.20 KCAL/MOL
REMARK 924 INTRA-LIGAND FREE ENERGY PREDICTED BY IDOCK:   -0.05 KCAL/MOL
REMARK 927      BINDING AFFINITY PREDICTED BY RF-SCORE:    0.00 PKD
ROOT
ATOM      1  CG2 THR A   1     -11.407  14.030  68.386  1.00  0.00    -0.321 C  
ATOM      2  CB  THR A   1     -11.480  14.393  69.867  1.00  0.00    -0.260 C  
ATOM      3  HG1 THR A   1     -10.982  15.938  70.977  1.00  0.00     0.000 HD 
ATOM      4  OG1 THR A   1     -10.937  15.712  70.055  1.00  0.00    -0.270 OA 
ENDROOT
BRANCH   2   5
ATOM      5  CA  THR A   1     -12.901  14.342  70.466  1.00  0.00    -0.294 C  
ATOM      6  N   THR A   1     -13.378  15.694  70.829  1.00  0.00    -0.771 NA 
ATOM      7  C   THR A   1     -12.999  13.386  71.674  1.00  0.00    -0.355 C  
ATOM      8  OXT THR A   1     -13.614  13.632  72.705  1.00  0.00    -0.672 OA 
ATOM      9  O   THR A   1     -12.437  12.169  71.453  1.00  0.00    -0.252 OA 
ATOM     10  H1  THR A   1     -14.317  15.661  71.225  1.00  0.00     0.000 HD 
ATOM     11  H2  THR A   1     -13.328  16.334  70.036  1.00  0.00     0.000 HD 
ENDBRANCH   2   5
TORSDOF 1
ENDMDL
MODEL       40
REMARK 921   NORMALIZED FREE ENERGY PREDICTED BY IDOCK:   -3.05 KCAL/MOL
REMARK 922        TOTAL FREE ENERGY PREDICTED BY IDOCK:   -3.24 KCAL/MOL
REMARK 923 INTER-LIGAND FREE ENERGY PREDICTED BY IDOCK:   -3.21 KCAL/MOL
REMARK 924 INTRA-LIGAND FREE ENERGY PREDICTED BY IDOCK:   -0.03 KCAL/MOL
REMARK 927      BINDING AFFINITY PREDICTED BY RF-SCORE:    0.00 PKD
ROOT
ATOM      1  CG2 THR A   1     -10.261  13.313  67.775  1.00  0.00    -0.228 C  
ATOM      2  CB  THR A   1     -11.643  12.777  68.140  1.00  0.00    -0.336 C  
ATOM      3  HG1 THR A   1     -13.003  11.648  67.277  1.00  0.00     0.000 HD 
ATOM      4  OG1 THR A   1     -12.143  11.981  67.049  1.00  0.00    -0.603 OA 
ENDROOT
BRANCH   2   5
ATOM      5  CA  THR A   1     -11.680  11.937  69.434  1.00  0.00    -0.339 C  
ATOM      6  N   THR A   1     -12.324  10.626  69.205  1.00  0.00    -0.755 NA 
ATOM      7  C   THR A   1     -12.359  12.683  70.602  1.00  0.00    -0.290 C  
ATOM      8  OXT THR A   1     -13.145  12.168  71.390  1.00  0.00    -0.332 OA 
ATOM      9  O   THR A   1     -11.916  13.956  70.769  1.00  0.00    -0.326 OA 
ATOM     10  H1  THR A   1     -12.348  10.071  70.060  1.00  0.00     0.000 HD 
ATOM     11  H2  THR A   1     -11.878  10.118  68.441  1.00  0.00     0.000 HD 
ENDBRANCH   2   5
TORSDOF 1
ENDMDL
MODEL       41
REMARK 921   NORMALIZED FREE ENERGY PREDICTED BY IDOCK:   -3.03 KCAL/MOL
REMARK 922        TOTAL FREE ENERGY PREDICTED BY IDOCK:   -3.22 KCAL/MOL
REMARK 923 INTER-LIGAND FREE ENERGY PREDICTED BY IDOCK:   -3.18 KCAL/MOL
REMARK 924 INTRA-LIGAND FREE ENERGY PREDICTED BY IDOCK:   -0.05 KCAL/MOL
REMARK 927      BINDING AFFINITY PREDICTED BY RF-SCORE:    0.00 PKD
ROOT
ATOM      1  CG2 THR A   1     -12.848  10.456  71.457  1.00  0.00    -0.569 C  
ATOM      2  CB  THR A   1     -13.003   9.155  72.241  1.00  0.00    -0.420 C  
ATOM      3  HG1 THR A   1     -14.501   8.078  72.924  1.00  0.00     0.000 HD 
ATOM      4  OG1 THR A   1     -14.404   8.887  72.436  1.00  0.00    -0.513 OA 
ENDROOT
BRANCH   2   5
ATOM      5  CA  THR A   1     -12.343   7.928  71.578  1.00  0.00    -0.315 C  
ATOM      6  N   THR A   1     -13.359   6.976  71.080  1.00  0.00    -0.460 NA 
ATOM      7  C   THR A   1     -11.342   7.218  72.514  1.00  0.00    -0.296 C  
ATOM      8  OXT THR A   1     -11.244   6.002  72.630  1.00  0.00    -0.263 OA 
ATOM      9  O   THR A   1     -10.472   8.064  73.125  1.00  0.00    -0.338 OA 
ATOM     10  H1  THR A   1     -12.924   6.166  70.641  1.00  0.00     0.000 HD 
ATOM     11  H2  THR A   1     -14.022   7.431  70.452  1.00  0.00     0.000 HD 
ENDBRANCH   2   5
TORSDOF 1
ENDMDL
MODEL       42
REMARK 921   NORMALIZED FREE ENERGY PREDICTED BY IDOCK:   -3.00 KCAL/MOL
REMARK 922        TOTAL FREE ENERGY PREDICTED BY IDOCK:   -3.18 KCAL/MOL
REMARK 923 INTER-LIGAND FREE ENERGY PREDICTED BY IDOCK:   -3.13 KCAL/MOL
REMARK 924 INTRA-LIGAND FREE ENERGY PREDICTED BY IDOCK:   -0.05 KCAL/MOL
REMARK 927      BINDING AFFINITY PREDICTED BY RF-SCORE:    0.00 PKD
ROOT
ATOM      1  CG2 THR A   1     -10.352  19.840  66.143  1.00  0.00    -0.627 C  
ATOM      2  CB  THR A   1      -9.070  19.266  66.742  1.00  0.00    -0.323 C  
ATOM      3  HG1 THR A   1      -7.784  17.859  66.262  1.00  0.00     0.000 HD 
ATOM      4  OG1 THR A   1      -8.581  18.216  65.889  1.00  0.00    -0.507 OA 
ENDROOT
BRANCH   2   5
ATOM      5  CA  THR A   1      -7.948  20.304  66.958  1.00  0.00    -0.324 C  
ATOM      6  N   THR A   1      -7.181  20.530  65.715  1.00  0.00    -0.498 NA 
ATOM      7  C   THR A   1      -7.006  19.921  68.120  1.00  0.00    -0.296 C  
ATOM      8  OXT THR A   1      -5.786  20.034  68.089  1.00  0.00    -0.215 OA 
ATOM      9  O   THR A   1      -7.659  19.553  69.253  1.00  0.00    -0.343 OA 
ATOM     10  H1  THR A   1      -6.440  21.215  65.858  1.00  0.00     0.000 HD 
ATOM     11  H2  THR A   1      -7.791  20.794  64.941  1.00  0.00     0.000 HD 
ENDBRANCH   2   5
TORSDOF 1
ENDMDL
MODEL       43
REMARK 921   NORMALIZED FREE ENERGY PREDICTED BY IDOCK:   -2.99 KCAL/MOL
REMARK 922        TOTAL FREE ENERGY PREDICTED BY IDOCK:   -3.18 KCAL/MOL
REMARK 923 INTER-LIGAND FREE ENERGY PREDICTED BY IDOCK:   -3.22 KCAL/MOL
REMARK 924 INTRA-LIGAND FREE ENERGY PREDICTED BY IDOCK:    0.04 KCAL/MOL
REMARK 927      BINDING AFFINITY PREDICTED BY RF-SCORE:    0.00 PKD
ROOT
ATOM      1  CG2 THR A   1     -13.022  10.617  71.745  1.00  0.00    -0.577 C  
ATOM      2  CB  THR A   1     -12.959   9.095  71.837  1.00  0.00    -0.404 C  
ATOM      3  HG1 THR A   1     -14.149   7.594  71.394  1.00  0.00     0.000 HD 
ATOM      4  OG1 THR A   1     -14.189   8.541  71.336  1.00  0.00    -0.388 OA 
ENDROOT
BRANCH   2   5
ATOM      5  CA  THR A   1     -11.774   8.459  71.080  1.00  0.00    -0.280 C  
ATOM      6  N   THR A   1     -11.579   9.095  69.759  1.00  0.00    -0.426 NA 
ATOM      7  C   THR A   1     -11.918   6.930  70.935  1.00  0.00    -0.381 C  
ATOM      8  OXT THR A   1     -11.658   6.302  69.914  1.00  0.00    -0.435 OA 
ATOM      9  O   THR A   1     -12.250   6.300  72.091  1.00  0.00    -0.328 OA 
ATOM     10  H1  THR A   1     -10.797   8.675  69.259  1.00  0.00     0.000 HD 
ATOM     11  H2  THR A   1     -11.473  10.106  69.842  1.00  0.00     0.000 HD 
ENDBRANCH   2   5
TORSDOF 1
ENDMDL
MODEL       44
REMARK 921   NORMALIZED FREE ENERGY PREDICTED BY IDOCK:   -2.99 KCAL/MOL
REMARK 922        TOTAL FREE ENERGY PREDICTED BY IDOCK:   -3.17 KCAL/MOL
REMARK 923 INTER-LIGAND FREE ENERGY PREDICTED BY IDOCK:   -3.12 KCAL/MOL
REMARK 924 INTRA-LIGAND FREE ENERGY PREDICTED BY IDOCK:   -0.05 KCAL/MOL
REMARK 927      BINDING AFFINITY PREDICTED BY RF-SCORE:    0.00 PKD
ROOT
ATOM      1  CG2 THR A   1     -11.627  12.220  66.668  1.00  0.00    -0.438 C  
ATOM      2  CB  THR A   1     -11.611  13.717  66.372  1.00  0.00    -0.360 C  
ATOM      3  HG1 THR A   1     -12.897  15.048  65.706  1.00  0.00     0.000 HD 
ATOM      4  OG1 THR A   1     -12.908  14.116  65.891  1.00  0.00    -0.471 OA 
ENDROOT
BRANCH   2   5
ATOM      5  CA  THR A   1     -11.227  14.601  67.577  1.00  0.00    -0.333 C  
ATOM      6  N   THR A   1     -12.381  14.811  68.477  1.00  0.00    -0.594 NA 
ATOM      7  C   THR A   1     -10.616  15.952  67.147  1.00  0.00    -0.316 C  
ATOM      8  OXT THR A   1     -10.880  17.030  67.669  1.00  0.00    -0.331 OA 
ATOM      9  O   THR A   1      -9.648  15.838  66.202  1.00  0.00    -0.278 OA 
ATOM     10  H1  THR A   1     -12.127  15.395  69.274  1.00  0.00     0.000 HD 
ATOM     11  H2  THR A   1     -12.788  13.925  68.777  1.00  0.00     0.000 HD 
ENDBRANCH   2   5
TORSDOF 1
ENDMDL
MODEL       45
REMARK 921   NORMALIZED FREE ENERGY PREDICTED BY IDOCK:   -2.98 KCAL/MOL
REMARK 922        TOTAL FREE ENERGY PREDICTED BY IDOCK:   -3.17 KCAL/MOL
REMARK 923 INTER-LIGAND FREE ENERGY PREDICTED BY IDOCK:   -3.11 KCAL/MOL
REMARK 924 INTRA-LIGAND FREE ENERGY PREDICTED BY IDOCK:   -0.06 KCAL/MOL
REMARK 927      BINDING AFFINITY PREDICTED BY RF-SCORE:    0.00 PKD
ROOT
ATOM      1  CG2 THR A   1      -8.957  18.769  68.497  1.00  0.00    -0.375 C  
ATOM      2  CB  THR A   1      -9.643  17.598  67.798  1.00  0.00    -0.267 C  
ATOM      3  HG1 THR A   1     -11.410  16.738  67.872  1.00  0.00     0.000 HD 
ATOM      4  OG1 THR A   1     -10.983  17.467  68.307  1.00  0.00    -0.317 OA 
ENDROOT
BRANCH   2   5
ATOM      5  CA  THR A   1      -9.697  17.717  66.261  1.00  0.00    -0.263 C  
ATOM      6  N   THR A   1     -10.496  18.888  65.841  1.00  0.00    -0.559 NA 
ATOM      7  C   THR A   1     -10.218  16.430  65.587  1.00  0.00    -0.324 C  
ATOM      8  OXT THR A   1     -11.009  16.408  64.651  1.00  0.00    -0.707 OA 
ATOM      9  O   THR A   1      -9.625  15.296  66.044  1.00  0.00    -0.293 OA 
ATOM     10  H1  THR A   1     -10.531  18.966  64.825  1.00  0.00     0.000 HD 
ATOM     11  H2  THR A   1     -10.156  19.747  66.271  1.00  0.00     0.000 HD 
ENDBRANCH   2   5
TORSDOF 1
ENDMDL
MODEL       46
REMARK 921   NORMALIZED FREE ENERGY PREDICTED BY IDOCK:   -2.98 KCAL/MOL
REMARK 922        TOTAL FREE ENERGY PREDICTED BY IDOCK:   -3.16 KCAL/MOL
REMARK 923 INTER-LIGAND FREE ENERGY PREDICTED BY IDOCK:   -3.17 KCAL/MOL
REMARK 924 INTRA-LIGAND FREE ENERGY PREDICTED BY IDOCK:    0.00 KCAL/MOL
REMARK 927      BINDING AFFINITY PREDICTED BY RF-SCORE:    0.00 PKD
ROOT
ATOM      1  CG2 THR A   1     -13.321  12.483  72.036  1.00  0.00    -0.528 C  
ATOM      2  CB  THR A   1     -13.620  13.902  71.558  1.00  0.00    -0.279 C  
ATOM      3  HG1 THR A   1     -14.569  15.470  72.270  1.00  0.00     0.000 HD 
ATOM      4  OG1 THR A   1     -14.383  14.587  72.568  1.00  0.00    -0.479 OA 
ENDROOT
BRANCH   2   5
ATOM      5  CA  THR A   1     -12.367  14.737  71.219  1.00  0.00    -0.327 C  
ATOM      6  N   THR A   1     -12.447  16.088  71.814  1.00  0.00    -0.539 NA 
ATOM      7  C   THR A   1     -12.109  14.824  69.700  1.00  0.00    -0.304 C  
ATOM      8  OXT THR A   1     -11.767  15.844  69.111  1.00  0.00    -0.376 OA 
ATOM      9  O   THR A   1     -12.175  13.625  69.065  1.00  0.00    -0.334 OA 
ATOM     10  H1  THR A   1     -11.619  16.640  71.591  1.00  0.00     0.000 HD 
ATOM     11  H2  THR A   1     -12.607  16.045  72.821  1.00  0.00     0.000 HD 
ENDBRANCH   2   5
TORSDOF 1
ENDMDL
MODEL       47
REMARK 921   NORMALIZED FREE ENERGY PREDICTED BY IDOCK:   -2.98 KCAL/MOL
REMARK 922        TOTAL FREE ENERGY PREDICTED BY IDOCK:   -3.16 KCAL/MOL
REMARK 923 INTER-LIGAND FREE ENERGY PREDICTED BY IDOCK:   -3.51 KCAL/MOL
REMARK 924 INTRA-LIGAND FREE ENERGY PREDICTED BY IDOCK:    0.35 KCAL/MOL
REMARK 927      BINDING AFFINITY PREDICTED BY RF-SCORE:    0.00 PKD
ROOT
ATOM      1  CG2 THR A   1     -10.464  19.750  66.355  1.00  0.00    -0.618 C  
ATOM      2  CB  THR A   1      -9.554  19.788  67.581  1.00  0.00    -0.355 C  
ATOM      3  HG1 THR A   1      -9.240  18.650  69.153  1.00  0.00     0.000 HD 
ATOM      4  OG1 THR A   1      -9.806  18.626  68.391  1.00  0.00    -0.343 OA 
ENDROOT
BRANCH   2   5
ATOM      5  CA  THR A   1      -8.048  19.859  67.255  1.00  0.00    -0.306 C  
ATOM      6  N   THR A   1      -7.594  21.260  67.121  1.00  0.00    -0.755 NA 
ATOM      7  C   THR A   1      -7.677  19.043  65.998  1.00  0.00    -0.229 C  
ATOM      8  OXT THR A   1      -6.901  19.423  65.129  1.00  0.00    -0.409 OA 
ATOM      9  O   THR A   1      -8.196  17.788  65.990  1.00  0.00    -0.492 OA 
ATOM     10  H1  THR A   1      -6.598  21.307  66.906  1.00  0.00     0.000 HD 
ATOM     11  H2  THR A   1      -7.824  21.809  67.950  1.00  0.00     0.000 HD 
ENDBRANCH   2   5
TORSDOF 1
ENDMDL
MODEL       48
REMARK 921   NORMALIZED FREE ENERGY PREDICTED BY IDOCK:   -2.97 KCAL/MOL
REMARK 922        TOTAL FREE ENERGY PREDICTED BY IDOCK:   -3.15 KCAL/MOL
REMARK 923 INTER-LIGAND FREE ENERGY PREDICTED BY IDOCK:   -3.09 KCAL/MOL
REMARK 924 INTRA-LIGAND FREE ENERGY PREDICTED BY IDOCK:   -0.06 KCAL/MOL
REMARK 927      BINDING AFFINITY PREDICTED BY RF-SCORE:    0.00 PKD
ROOT
ATOM      1  CG2 THR A   1     -14.191   7.416  71.459  1.00  0.00    -0.571 C  
ATOM      2  CB  THR A   1     -12.676   7.313  71.613  1.00  0.00    -0.375 C  
ATOM      3  HG1 THR A   1     -11.187   6.579  70.557  1.00  0.00     0.000 HD 
ATOM      4  OG1 THR A   1     -12.130   6.644  70.461  1.00  0.00    -0.390 OA 
ENDROOT
BRANCH   2   5
ATOM      5  CA  THR A   1     -11.960   8.667  71.795  1.00  0.00    -0.336 C  
ATOM      6  N   THR A   1     -12.008   9.471  70.554  1.00  0.00    -0.437 NA 
ATOM      7  C   THR A   1     -10.505   8.505  72.285  1.00  0.00    -0.332 C  
ATOM      8  OXT THR A   1      -9.554   9.152  71.860  1.00  0.00    -0.310 OA 
ATOM      9  O   THR A   1     -10.374   7.653  73.334  1.00  0.00    -0.341 OA 
ATOM     10  H1  THR A   1     -11.535  10.365  70.675  1.00  0.00     0.000 HD 
ATOM     11  H2  THR A   1     -12.965   9.594  70.225  1.00  0.00     0.000 HD 
ENDBRANCH   2   5
TORSDOF 1
ENDMDL
MODEL       49
REMARK 921   NORMALIZED FREE ENERGY PREDICTED BY IDOCK:   -2.96 KCAL/MOL
REMARK 922        TOTAL FREE ENERGY PREDICTED BY IDOCK:   -3.14 KCAL/MOL
REMARK 923 INTER-LIGAND FREE ENERGY PREDICTED BY IDOCK:   -3.09 KCAL/MOL
REMARK 924 INTRA-LIGAND FREE ENERGY PREDICTED BY IDOCK:   -0.05 KCAL/MOL
REMARK 927      BINDING AFFINITY PREDICTED BY RF-SCORE:    0.00 PKD
ROOT
ATOM      1  CG2 THR A   1     -11.138   7.121  70.870  1.00  0.00    -0.290 C  
ATOM      2  CB  THR A   1     -11.171   8.418  71.674  1.00  0.00    -0.278 C  
ATOM      3  HG1 THR A   1      -9.843   9.671  72.404  1.00  0.00     0.000 HD 
ATOM      4  OG1 THR A   1      -9.822   8.864  71.903  1.00  0.00    -0.312 OA 
ENDROOT
BRANCH   2   5
ATOM      5  CA  THR A   1     -11.973   9.558  71.011  1.00  0.00    -0.328 C  
ATOM      6  N   THR A   1     -11.077  10.618  70.502  1.00  0.00    -0.441 NA 
ATOM      7  C   THR A   1     -13.043  10.152  71.952  1.00  0.00    -0.466 C  
ATOM      8  OXT THR A   1     -13.279  11.350  72.065  1.00  0.00    -0.503 OA 
ATOM      9  O   THR A   1     -13.805   9.215  72.573  1.00  0.00    -0.475 OA 
ATOM     10  H1  THR A   1     -11.606  11.371  70.064  1.00  0.00     0.000 HD 
ATOM     11  H2  THR A   1     -10.370  10.240  69.871  1.00  0.00     0.000 HD 
ENDBRANCH   2   5
TORSDOF 1
ENDMDL
MODEL       50
REMARK 921   NORMALIZED FREE ENERGY PREDICTED BY IDOCK:   -2.95 KCAL/MOL
REMARK 922        TOTAL FREE ENERGY PREDICTED BY IDOCK:   -3.13 KCAL/MOL
REMARK 923 INTER-LIGAND FREE ENERGY PREDICTED BY IDOCK:   -3.09 KCAL/MOL
REMARK 924 INTRA-LIGAND FREE ENERGY PREDICTED BY IDOCK:   -0.05 KCAL/MOL
REMARK 927      BINDING AFFINITY PREDICTED BY RF-SCORE:    0.00 PKD
ROOT
ATOM      1  CG2 THR A   1     -11.222  10.322  69.989  1.00  0.00    -0.376 C  
ATOM      2  CB  THR A   1     -11.983  11.600  69.644  1.00  0.00    -0.324 C  
ATOM      3  HG1 THR A   1     -12.912  13.014  70.646  1.00  0.00     0.000 HD 
ATOM      4  OG1 THR A   1     -12.439  12.219  70.861  1.00  0.00    -0.371 OA 
ENDROOT
BRANCH   2   5
ATOM      5  CA  THR A   1     -11.168  12.626  68.830  1.00  0.00    -0.280 C  
ATOM      6  N   THR A   1     -11.021  13.900  69.567  1.00  0.00    -0.432 NA 
ATOM      7  C   THR A   1     -11.763  12.873  67.427  1.00  0.00    -0.372 C  
ATOM      8  OXT THR A   1     -11.863  13.976  66.900  1.00  0.00    -0.385 OA 
ATOM      9  O   THR A   1     -12.065  11.733  66.754  1.00  0.00    -0.547 OA 
ATOM     10  H1  THR A   1     -10.482  14.578  69.029  1.00  0.00     0.000 HD 
ATOM     11  H2  THR A   1     -10.619  13.752  70.493  1.00  0.00     0.000 HD 
ENDBRANCH   2   5
TORSDOF 1
ENDMDL
MODEL       51
REMARK 921   NORMALIZED FREE ENERGY PREDICTED BY IDOCK:   -2.94 KCAL/MOL
REMARK 922        TOTAL FREE ENERGY PREDICTED BY IDOCK:   -3.13 KCAL/MOL
REMARK 923 INTER-LIGAND FREE ENERGY PREDICTED BY IDOCK:   -3.32 KCAL/MOL
REMARK 924 INTRA-LIGAND FREE ENERGY PREDICTED BY IDOCK:    0.19 KCAL/MOL
REMARK 927      BINDING AFFINITY PREDICTED BY RF-SCORE:    0.00 PKD
ROOT
ATOM      1  CG2 THR A   1      -9.873  10.774  65.744  1.00  0.00    -0.292 C  
ATOM      2  CB  THR A   1     -10.447  12.027  65.089  1.00  0.00    -0.289 C  
ATOM      3  HG1 THR A   1     -11.558  12.426  63.516  1.00  0.00     0.000 HD 
ATOM      4  OG1 THR A   1     -11.201  11.646  63.924  1.00  0.00    -0.376 OA 
ENDROOT
BRANCH   2   5
ATOM      5  CA  THR A   1     -11.345  12.875  66.014  1.00  0.00    -0.317 C  
ATOM      6  N   THR A   1     -12.048  12.029  67.003  1.00  0.00    -0.545 NA 
ATOM      7  C   THR A   1     -12.349  13.744  65.228  1.00  0.00    -0.464 C  
ATOM      8  OXT THR A   1     -13.524  13.904  65.542  1.00  0.00    -0.657 OA 
ATOM      9  O   THR A   1     -11.787  14.435  64.202  1.00  0.00    -0.380 OA 
ATOM     10  H1  THR A   1     -12.641  12.589  67.614  1.00  0.00     0.000 HD 
ATOM     11  H2  THR A   1     -11.394  11.456  67.536  1.00  0.00     0.000 HD 
ENDBRANCH   2   5
TORSDOF 1
ENDMDL
MODEL       52
REMARK 921   NORMALIZED FREE ENERGY PREDICTED BY IDOCK:   -2.94 KCAL/MOL
REMARK 922        TOTAL FREE ENERGY PREDICTED BY IDOCK:   -3.12 KCAL/MOL
REMARK 923 INTER-LIGAND FREE ENERGY PREDICTED BY IDOCK:   -3.07 KCAL/MOL
REMARK 924 INTRA-LIGAND FREE ENERGY PREDICTED BY IDOCK:   -0.05 KCAL/MOL
REMARK 927      BINDING AFFINITY PREDICTED BY RF-SCORE:    0.00 PKD
ROOT
ATOM      1  CG2 THR A   1     -10.525  19.220  65.955  1.00  0.00    -0.573 C  
ATOM      2  CB  THR A   1      -9.693  19.901  67.040  1.00  0.00    -0.401 C  
ATOM      3  HG1 THR A   1      -9.942  20.378  68.931  1.00  0.00     0.000 HD 
ATOM      4  OG1 THR A   1     -10.460  19.955  68.256  1.00  0.00    -0.426 OA 
ENDROOT
BRANCH   2   5
ATOM      5  CA  THR A   1      -8.339  19.218  67.326  1.00  0.00    -0.282 C  
ATOM      6  N   THR A   1      -8.511  18.027  68.186  1.00  0.00    -0.262 NA 
ATOM      7  C   THR A   1      -7.307  20.188  67.938  1.00  0.00    -0.291 C  
ATOM      8  OXT THR A   1      -6.552  19.906  68.862  1.00  0.00    -0.297 OA 
ATOM      9  O   THR A   1      -7.211  21.371  67.278  1.00  0.00    -0.538 OA 
ATOM     10  H1  THR A   1      -7.617  17.575  68.375  1.00  0.00     0.000 HD 
ATOM     11  H2  THR A   1      -9.184  17.372  67.788  1.00  0.00     0.000 HD 
ENDBRANCH   2   5
TORSDOF 1
ENDMDL
MODEL       53
REMARK 921   NORMALIZED FREE ENERGY PREDICTED BY IDOCK:   -2.93 KCAL/MOL
REMARK 922        TOTAL FREE ENERGY PREDICTED BY IDOCK:   -3.11 KCAL/MOL
REMARK 923 INTER-LIGAND FREE ENERGY PREDICTED BY IDOCK:   -3.05 KCAL/MOL
REMARK 924 INTRA-LIGAND FREE ENERGY PREDICTED BY IDOCK:   -0.06 KCAL/MOL
REMARK 927      BINDING AFFINITY PREDICTED BY RF-SCORE:    0.00 PKD
ROOT
ATOM      1  CG2 THR A   1     -11.995  13.794  69.108  1.00  0.00    -0.403 C  
ATOM      2  CB  THR A   1     -11.893  14.747  70.295  1.00  0.00    -0.302 C  
ATOM      3  HG1 THR A   1     -11.896  16.696  70.557  1.00  0.00     0.000 HD 
ATOM      4  OG1 THR A   1     -11.960  16.103  69.818  1.00  0.00    -0.244 OA 
ENDROOT
BRANCH   2   5
ATOM      5  CA  THR A   1     -12.977  14.539  71.374  1.00  0.00    -0.333 C  
ATOM      6  N   THR A   1     -14.333  14.723  70.814  1.00  0.00    -0.384 NA 
ATOM      7  C   THR A   1     -12.766  15.445  72.605  1.00  0.00    -0.392 C  
ATOM      8  OXT THR A   1     -13.664  16.041  73.190  1.00  0.00    -0.597 OA 
ATOM      9  O   THR A   1     -11.493  15.437  73.078  1.00  0.00    -0.394 OA 
ATOM     10  H1  THR A   1     -15.049  14.585  71.527  1.00  0.00     0.000 HD 
ATOM     11  H2  THR A   1     -14.489  14.122  70.005  1.00  0.00     0.000 HD 
ENDBRANCH   2   5
TORSDOF 1
ENDMDL
MODEL       54
REMARK 921   NORMALIZED FREE ENERGY PREDICTED BY IDOCK:   -2.93 KCAL/MOL
REMARK 922        TOTAL FREE ENERGY PREDICTED BY IDOCK:   -3.11 KCAL/MOL
REMARK 923 INTER-LIGAND FREE ENERGY PREDICTED BY IDOCK:   -3.06 KCAL/MOL
REMARK 924 INTRA-LIGAND FREE ENERGY PREDICTED BY IDOCK:   -0.06 KCAL/MOL
REMARK 927      BINDING AFFINITY PREDICTED BY RF-SCORE:    0.00 PKD
ROOT
ATOM      1  CG2 THR A   1     -14.161   8.131  71.608  1.00  0.00    -0.536 C  
ATOM      2  CB  THR A   1     -12.846   8.865  71.356  1.00  0.00    -0.289 C  
ATOM      3  HG1 THR A   1     -12.052  10.582  71.895  1.00  0.00     0.000 HD 
ATOM      4  OG1 THR A   1     -12.870  10.125  72.052  1.00  0.00    -0.411 OA 
ENDROOT
BRANCH   2   5
ATOM      5  CA  THR A   1     -11.587   8.080  71.778  1.00  0.00    -0.285 C  
ATOM      6  N   THR A   1     -11.655   7.682  73.201  1.00  0.00    -0.636 NA 
ATOM      7  C   THR A   1     -10.284   8.854  71.489  1.00  0.00    -0.328 C  
ATOM      8  OXT THR A   1      -9.328   8.914  72.254  1.00  0.00    -0.360 OA 
ATOM      9  O   THR A   1     -10.227   9.379  70.237  1.00  0.00    -0.211 OA 
ATOM     10  H1  THR A   1     -10.823   7.163  73.480  1.00  0.00     0.000 HD 
ATOM     11  H2  THR A   1     -12.508   7.161  73.404  1.00  0.00     0.000 HD 
ENDBRANCH   2   5
TORSDOF 1
ENDMDL
MODEL       55
REMARK 921   NORMALIZED FREE ENERGY PREDICTED BY IDOCK:   -2.92 KCAL/MOL
REMARK 922        TOTAL FREE ENERGY PREDICTED BY IDOCK:   -3.10 KCAL/MOL
REMARK 923 INTER-LIGAND FREE ENERGY PREDICTED BY IDOCK:   -3.43 KCAL/MOL
REMARK 924 INTRA-LIGAND FREE ENERGY PREDICTED BY IDOCK:    0.34 KCAL/MOL
REMARK 927      BINDING AFFINITY PREDICTED BY RF-SCORE:    0.00 PKD
ROOT
ATOM      1  CG2 THR A   1     -12.344  14.801  64.384  1.00  0.00    -0.389 C  
ATOM      2  CB  THR A   1     -12.900  13.819  65.413  1.00  0.00    -0.410 C  
ATOM      3  HG1 THR A   1     -13.620  11.990  65.387  1.00  0.00     0.000 HD 
ATOM      4  OG1 THR A   1     -13.274  12.600  64.746  1.00  0.00    -0.846 OA 
ENDROOT
BRANCH   2   5
ATOM      5  CA  THR A   1     -11.929  13.487  66.565  1.00  0.00    -0.413 C  
ATOM      6  N   THR A   1     -11.963  14.529  67.613  1.00  0.00    -0.543 NA 
ATOM      7  C   THR A   1     -10.485  13.255  66.072  1.00  0.00    -0.286 C  
ATOM      8  OXT THR A   1      -9.483  13.682  66.635  1.00  0.00    -0.267 OA 
ATOM      9  O   THR A   1     -10.399  12.420  65.004  1.00  0.00    -0.281 OA 
ATOM     10  H1  THR A   1     -11.322  14.309  68.374  1.00  0.00     0.000 HD 
ATOM     11  H2  THR A   1     -12.911  14.685  67.955  1.00  0.00     0.000 HD 
ENDBRANCH   2   5
TORSDOF 1
ENDMDL
MODEL       56
REMARK 921   NORMALIZED FREE ENERGY PREDICTED BY IDOCK:   -2.87 KCAL/MOL
REMARK 922        TOTAL FREE ENERGY PREDICTED BY IDOCK:   -3.04 KCAL/MOL
REMARK 923 INTER-LIGAND FREE ENERGY PREDICTED BY IDOCK:   -3.00 KCAL/MOL
REMARK 924 INTRA-LIGAND FREE ENERGY PREDICTED BY IDOCK:   -0.05 KCAL/MOL
REMARK 927      BINDING AFFINITY PREDICTED BY RF-SCORE:    0.00 PKD
ROOT
ATOM      1  CG2 THR A   1     -13.001  10.776  71.532  1.00  0.00    -0.562 C  
ATOM      2  CB  THR A   1     -11.794  10.973  70.619  1.00  0.00    -0.333 C  
ATOM      3  HG1 THR A   1     -10.300   9.865  69.980  1.00  0.00     0.000 HD 
ATOM      4  OG1 THR A   1     -11.051   9.742  70.548  1.00  0.00    -0.270 OA 
ENDROOT
BRANCH   2   5
ATOM      5  CA  THR A   1     -12.144  11.433  69.189  1.00  0.00    -0.264 C  
ATOM      6  N   THR A   1     -11.776  10.407  68.190  1.00  0.00    -0.743 NA 
ATOM      7  C   THR A   1     -11.508  12.794  68.833  1.00  0.00    -0.305 C  
ATOM      8  OXT THR A   1     -10.987  13.056  67.755  1.00  0.00    -0.239 OA 
ATOM      9  O   THR A   1     -11.682  13.744  69.789  1.00  0.00    -0.282 OA 
ATOM     10  H1  THR A   1     -12.008  10.711  67.245  1.00  0.00     0.000 HD 
ATOM     11  H2  THR A   1     -12.198   9.504  68.407  1.00  0.00     0.000 HD 
ENDBRANCH   2   5
TORSDOF 1
ENDMDL
MODEL       57
REMARK 921   NORMALIZED FREE ENERGY PREDICTED BY IDOCK:   -2.86 KCAL/MOL
REMARK 922        TOTAL FREE ENERGY PREDICTED BY IDOCK:   -3.04 KCAL/MOL
REMARK 923 INTER-LIGAND FREE ENERGY PREDICTED BY IDOCK:   -2.98 KCAL/MOL
REMARK 924 INTRA-LIGAND FREE ENERGY PREDICTED BY IDOCK:   -0.06 KCAL/MOL
REMARK 927      BINDING AFFINITY PREDICTED BY RF-SCORE:    0.00 PKD
ROOT
ATOM      1  CG2 THR A   1     -10.686  15.637  68.494  1.00  0.00    -0.264 C  
ATOM      2  CB  THR A   1     -10.657  14.184  68.027  1.00  0.00    -0.239 C  
ATOM      3  HG1 THR A   1      -9.357  12.709  68.052  1.00  0.00     0.000 HD 
ATOM      4  OG1 THR A   1      -9.375  13.613  68.343  1.00  0.00    -0.203 OA 
ENDROOT
BRANCH   2   5
ATOM      5  CA  THR A   1     -11.767  13.298  68.632  1.00  0.00    -0.341 C  
ATOM      6  N   THR A   1     -11.557  13.093  70.082  1.00  0.00    -0.533 NA 
ATOM      7  C   THR A   1     -11.905  11.945  67.903  1.00  0.00    -0.238 C  
ATOM      8  OXT THR A   1     -12.073  10.868  68.465  1.00  0.00    -0.545 OA 
ATOM      9  O   THR A   1     -11.949  12.055  66.551  1.00  0.00    -0.616 OA 
ATOM     10  H1  THR A   1     -12.290  12.508  70.482  1.00  0.00     0.000 HD 
ATOM     11  H2  THR A   1     -11.474  13.980  70.577  1.00  0.00     0.000 HD 
ENDBRANCH   2   5
TORSDOF 1
ENDMDL
MODEL       58
REMARK 921   NORMALIZED FREE ENERGY PREDICTED BY IDOCK:   -2.86 KCAL/MOL
REMARK 922        TOTAL FREE ENERGY PREDICTED BY IDOCK:   -3.04 KCAL/MOL
REMARK 923 INTER-LIGAND FREE ENERGY PREDICTED BY IDOCK:   -2.99 KCAL/MOL
REMARK 924 INTRA-LIGAND FREE ENERGY PREDICTED BY IDOCK:   -0.05 KCAL/MOL
REMARK 927      BINDING AFFINITY PREDICTED BY RF-SCORE:    0.00 PKD
ROOT
ATOM      1  CG2 THR A   1     -10.246  12.013  67.955  1.00  0.00    -0.203 C  
ATOM      2  CB  THR A   1     -11.557  12.773  67.769  1.00  0.00    -0.353 C  
ATOM      3  HG1 THR A   1     -12.761  13.830  68.909  1.00  0.00     0.000 HD 
ATOM      4  OG1 THR A   1     -11.945  13.357  69.025  1.00  0.00    -0.319 OA 
ENDROOT
BRANCH   2   5
ATOM      5  CA  THR A   1     -11.505  13.878  66.693  1.00  0.00    -0.355 C  
ATOM      6  N   THR A   1     -11.730  15.214  67.286  1.00  0.00    -0.239 NA 
ATOM      7  C   THR A   1     -12.493  13.622  65.535  1.00  0.00    -0.503 C  
ATOM      8  OXT THR A   1     -13.189  14.486  65.013  1.00  0.00    -0.469 OA 
ATOM      9  O   THR A   1     -12.442  12.357  65.044  1.00  0.00    -0.549 OA 
ATOM     10  H1  THR A   1     -11.696  15.945  66.576  1.00  0.00     0.000 HD 
ATOM     11  H2  THR A   1     -11.077  15.401  68.047  1.00  0.00     0.000 HD 
ENDBRANCH   2   5
TORSDOF 1
ENDMDL
MODEL       59
REMARK 921   NORMALIZED FREE ENERGY PREDICTED BY IDOCK:   -2.85 KCAL/MOL
REMARK 922        TOTAL FREE ENERGY PREDICTED BY IDOCK:   -3.03 KCAL/MOL
REMARK 923 INTER-LIGAND FREE ENERGY PREDICTED BY IDOCK:   -2.99 KCAL/MOL
REMARK 924 INTRA-LIGAND FREE ENERGY PREDICTED BY IDOCK:   -0.04 KCAL/MOL
REMARK 927      BINDING AFFINITY PREDICTED BY RF-SCORE:    0.00 PKD
ROOT
ATOM      1  CG2 THR A   1     -14.297   7.233  71.596  1.00  0.00    -0.583 C  
ATOM      2  CB  THR A   1     -12.893   7.829  71.649  1.00  0.00    -0.340 C  
ATOM      3  HG1 THR A   1     -12.043   9.391  72.488  1.00  0.00     0.000 HD 
ATOM      4  OG1 THR A   1     -12.917   9.021  72.455  1.00  0.00    -0.418 OA 
ENDROOT
BRANCH   2   5
ATOM      5  CA  THR A   1     -11.814   6.871  72.197  1.00  0.00    -0.281 C  
ATOM      6  N   THR A   1     -11.101   7.468  73.346  1.00  0.00    -0.565 NA 
ATOM      7  C   THR A   1     -10.817   6.420  71.109  1.00  0.00    -0.258 C  
ATOM      8  OXT THR A   1      -9.605   6.332  71.273  1.00  0.00    -0.172 OA 
ATOM      9  O   THR A   1     -11.412   6.000  69.963  1.00  0.00    -0.372 OA 
ATOM     10  H1  THR A   1     -10.389   6.836  73.709  1.00  0.00     0.000 HD 
ATOM     11  H2  THR A   1     -11.748   7.762  74.078  1.00  0.00     0.000 HD 
ENDBRANCH   2   5
TORSDOF 1
ENDMDL
MODEL       60
REMARK 921   NORMALIZED FREE ENERGY PREDICTED BY IDOCK:   -2.84 KCAL/MOL
REMARK 922        TOTAL FREE ENERGY PREDICTED BY IDOCK:   -3.01 KCAL/MOL
REMARK 923 INTER-LIGAND FREE ENERGY PREDICTED BY IDOCK:   -2.97 KCAL/MOL
REMARK 924 INTRA-LIGAND FREE ENERGY PREDICTED BY IDOCK:   -0.04 KCAL/MOL
REMARK 927      BINDING AFFINITY PREDICTED BY RF-SCORE:    0.00 PKD
ROOT
ATOM      1  CG2 THR A   1     -12.273  14.445  64.360  1.00  0.00    -0.481 C  
ATOM      2  CB  THR A   1     -11.501  13.297  65.004  1.00  0.00    -0.305 C  
ATOM      3  HG1 THR A   1     -10.086  12.049  64.450  1.00  0.00     0.000 HD 
ATOM      4  OG1 THR A   1     -10.566  12.764  64.049  1.00  0.00    -0.392 OA 
ENDROOT
BRANCH   2   5
ATOM      5  CA  THR A   1     -10.742  13.683  66.291  1.00  0.00    -0.285 C  
ATOM      6  N   THR A   1      -9.349  14.080  65.993  1.00  0.00    -0.514 NA 
ATOM      7  C   THR A   1     -10.775  12.564  67.354  1.00  0.00    -0.229 C  
ATOM      8  OXT THR A   1      -9.815  12.228  68.038  1.00  0.00    -0.192 OA 
ATOM      9  O   THR A   1     -12.013  12.047  67.564  1.00  0.00    -0.572 OA 
ATOM     10  H1  THR A   1      -8.848  14.335  66.843  1.00  0.00     0.000 HD 
ATOM     11  H2  THR A   1      -9.313  14.827  65.299  1.00  0.00     0.000 HD 
ENDBRANCH   2   5
TORSDOF 1
ENDMDL
MODEL       61
REMARK 921   NORMALIZED FREE ENERGY PREDICTED BY IDOCK:   -2.84 KCAL/MOL
REMARK 922        TOTAL FREE ENERGY PREDICTED BY IDOCK:   -3.01 KCAL/MOL
REMARK 923 INTER-LIGAND FREE ENERGY PREDICTED BY IDOCK:   -2.95 KCAL/MOL
REMARK 924 INTRA-LIGAND FREE ENERGY PREDICTED BY IDOCK:   -0.06 KCAL/MOL
REMARK 927      BINDING AFFINITY PREDICTED BY RF-SCORE:    0.00 PKD
ROOT
ATOM      1  CG2 THR A   1     -13.212  15.377  71.214  1.00  0.00    -0.585 C  
ATOM      2  CB  THR A   1     -12.226  15.222  70.059  1.00  0.00    -0.349 C  
ATOM      3  HG1 THR A   1     -10.285  15.416  69.812  1.00  0.00     0.000 HD 
ATOM      4  OG1 THR A   1     -10.898  15.512  70.531  1.00  0.00    -0.316 OA 
ENDROOT
BRANCH   2   5
ATOM      5  CA  THR A   1     -12.233  13.827  69.399  1.00  0.00    -0.278 C  
ATOM      6  N   THR A   1     -11.813  12.780  70.355  1.00  0.00    -0.550 NA 
ATOM      7  C   THR A   1     -11.371  13.775  68.119  1.00  0.00    -0.284 C  
ATOM      8  OXT THR A   1     -10.622  12.851  67.824  1.00  0.00    -0.216 OA 
ATOM      9  O   THR A   1     -11.602  14.804  67.263  1.00  0.00    -0.370 OA 
ATOM     10  H1  THR A   1     -11.818  11.858  69.919  1.00  0.00     0.000 HD 
ATOM     11  H2  THR A   1     -12.382  12.797  71.202  1.00  0.00     0.000 HD 
ENDBRANCH   2   5
TORSDOF 1
ENDMDL
MODEL       62
REMARK 921   NORMALIZED FREE ENERGY PREDICTED BY IDOCK:   -2.82 KCAL/MOL
REMARK 922        TOTAL FREE ENERGY PREDICTED BY IDOCK:   -2.99 KCAL/MOL
REMARK 923 INTER-LIGAND FREE ENERGY PREDICTED BY IDOCK:   -2.94 KCAL/MOL
REMARK 924 INTRA-LIGAND FREE ENERGY PREDICTED BY IDOCK:   -0.06 KCAL/MOL
REMARK 927      BINDING AFFINITY PREDICTED BY RF-SCORE:    0.00 PKD
ROOT
ATOM      1  CG2 THR A   1      -7.504  17.323  68.218  1.00  0.00    -0.224 C  
ATOM      2  CB  THR A   1      -8.295  17.780  66.995  1.00  0.00    -0.226 C  
ATOM      3  HG1 THR A   1      -7.929  18.035  65.080  1.00  0.00     0.000 HD 
ATOM      4  OG1 THR A   1      -7.437  17.750  65.840  1.00  0.00    -0.463 OA 
ENDROOT
BRANCH   2   5
ATOM      5  CA  THR A   1      -9.559  16.944  66.705  1.00  0.00    -0.267 C  
ATOM      6  N   THR A   1      -9.231  15.509  66.558  1.00  0.00    -0.268 NA 
ATOM      7  C   THR A   1     -10.336  17.455  65.473  1.00  0.00    -0.060 C  
ATOM      8  OXT THR A   1     -10.831  16.732  64.616  1.00  0.00    -0.835 OA 
ATOM      9  O   THR A   1     -10.537  18.798  65.473  1.00  0.00    -0.596 OA 
ATOM     10  H1  THR A   1     -10.066  14.957  66.367  1.00  0.00     0.000 HD 
ATOM     11  H2  THR A   1      -8.726  15.156  67.371  1.00  0.00     0.000 HD 
ENDBRANCH   2   5
TORSDOF 1
ENDMDL
MODEL       63
REMARK 921   NORMALIZED FREE ENERGY PREDICTED BY IDOCK:   -2.78 KCAL/MOL
REMARK 922        TOTAL FREE ENERGY PREDICTED BY IDOCK:   -2.95 KCAL/MOL
REMARK 923 INTER-LIGAND FREE ENERGY PREDICTED BY IDOCK:   -2.90 KCAL/MOL
REMARK 924 INTRA-LIGAND FREE ENERGY PREDICTED BY IDOCK:   -0.05 KCAL/MOL
REMARK 927      BINDING AFFINITY PREDICTED BY RF-SCORE:    0.00 PKD
ROOT
ATOM      1  CG2 THR A   1     -10.746  16.064  68.932  1.00  0.00    -0.275 C  
ATOM      2  CB  THR A   1      -9.715  17.007  68.318  1.00  0.00    -0.275 C  
ATOM      3  HG1 THR A   1      -8.116  16.823  67.187  1.00  0.00     0.000 HD 
ATOM      4  OG1 THR A   1      -8.758  16.236  67.568  1.00  0.00    -0.179 OA 
ENDROOT
BRANCH   2   5
ATOM      5  CA  THR A   1     -10.312  18.096  67.402  1.00  0.00    -0.389 C  
ATOM      6  N   THR A   1      -9.926  17.881  65.991  1.00  0.00    -0.540 NA 
ATOM      7  C   THR A   1      -9.940  19.522  67.859  1.00  0.00    -0.395 C  
ATOM      8  OXT THR A   1      -9.607  20.428  67.103  1.00  0.00    -0.412 OA 
ATOM      9  O   THR A   1     -10.130  19.737  69.187  1.00  0.00    -0.438 OA 
ATOM     10  H1  THR A   1     -10.321  18.600  65.386  1.00  0.00     0.000 HD 
ATOM     11  H2  THR A   1     -10.176  16.945  65.673  1.00  0.00     0.000 HD 
ENDBRANCH   2   5
TORSDOF 1
ENDMDL
MODEL       64
REMARK 921   NORMALIZED FREE ENERGY PREDICTED BY IDOCK:   -2.78 KCAL/MOL
REMARK 922        TOTAL FREE ENERGY PREDICTED BY IDOCK:   -2.95 KCAL/MOL
REMARK 923 INTER-LIGAND FREE ENERGY PREDICTED BY IDOCK:   -2.89 KCAL/MOL
REMARK 924 INTRA-LIGAND FREE ENERGY PREDICTED BY IDOCK:   -0.06 KCAL/MOL
REMARK 927      BINDING AFFINITY PREDICTED BY RF-SCORE:    0.00 PKD
ROOT
ATOM      1  CG2 THR A   1      -9.140  11.815  67.225  1.00  0.00    -0.171 C  
ATOM      2  CB  THR A   1      -9.822  11.396  65.926  1.00  0.00    -0.226 C  
ATOM      3  HG1 THR A   1     -10.832   9.832  65.292  1.00  0.00     0.000 HD 
ATOM      4  OG1 THR A   1     -10.408  10.093  66.100  1.00  0.00    -0.227 OA 
ENDROOT
BRANCH   2   5
ATOM      5  CA  THR A   1     -10.908  12.375  65.432  1.00  0.00    -0.285 C  
ATOM      6  N   THR A   1     -12.107  12.326  66.296  1.00  0.00    -0.620 NA 
ATOM      7  C   THR A   1     -11.290  12.137  63.955  1.00  0.00    -0.395 C  
ATOM      8  OXT THR A   1     -12.437  12.158  63.523  1.00  0.00    -0.554 OA 
ATOM      9  O   THR A   1     -10.220  12.019  63.127  1.00  0.00    -0.410 OA 
ATOM     10  H1  THR A   1     -12.825  12.972  65.970  1.00  0.00     0.000 HD 
ATOM     11  H2  THR A   1     -11.870  12.491  67.274  1.00  0.00     0.000 HD 
ENDBRANCH   2   5
TORSDOF 1
ENDMDL
MODEL       65
REMARK 921   NORMALIZED FREE ENERGY PREDICTED BY IDOCK:   -2.77 KCAL/MOL
REMARK 922        TOTAL FREE ENERGY PREDICTED BY IDOCK:   -2.95 KCAL/MOL
REMARK 923 INTER-LIGAND FREE ENERGY PREDICTED BY IDOCK:   -2.90 KCAL/MOL
REMARK 924 INTRA-LIGAND FREE ENERGY PREDICTED BY IDOCK:   -0.05 KCAL/MOL
REMARK 927      BINDING AFFINITY PREDICTED BY RF-SCORE:    0.00 PKD
ROOT
ATOM      1  CG2 THR A   1     -10.528  19.597  66.145  1.00  0.00    -0.624 C  
ATOM      2  CB  THR A   1      -9.630  18.423  66.525  1.00  0.00    -0.327 C  
ATOM      3  HG1 THR A   1      -7.790  17.854  66.126  1.00  0.00     0.000 HD 
ATOM      4  OG1 THR A   1      -8.349  18.585  65.890  1.00  0.00    -0.494 OA 
ENDROOT
BRANCH   2   5
ATOM      5  CA  THR A   1      -9.420  18.247  68.044  1.00  0.00    -0.290 C  
ATOM      6  N   THR A   1      -7.997  18.408  68.411  1.00  0.00    -0.300 NA 
ATOM      7  C   THR A   1      -9.969  16.901  68.564  1.00  0.00    -0.275 C  
ATOM      8  OXT THR A   1      -9.394  16.184  69.376  1.00  0.00    -0.252 OA 
ATOM      9  O   THR A   1     -11.226  16.621  68.133  1.00  0.00    -0.339 OA 
ATOM     10  H1  THR A   1      -7.858  18.292  69.414  1.00  0.00     0.000 HD 
ATOM     11  H2  THR A   1      -7.624  19.298  68.082  1.00  0.00     0.000 HD 
ENDBRANCH   2   5
TORSDOF 1
ENDMDL
MODEL       66
REMARK 921   NORMALIZED FREE ENERGY PREDICTED BY IDOCK:   -2.77 KCAL/MOL
REMARK 922        TOTAL FREE ENERGY PREDICTED BY IDOCK:   -2.94 KCAL/MOL
REMARK 923 INTER-LIGAND FREE ENERGY PREDICTED BY IDOCK:   -3.28 KCAL/MOL
REMARK 924 INTRA-LIGAND FREE ENERGY PREDICTED BY IDOCK:    0.34 KCAL/MOL
REMARK 927      BINDING AFFINITY PREDICTED BY RF-SCORE:    0.00 PKD
ROOT
ATOM      1  CG2 THR A   1     -10.907  12.377  67.390  1.00  0.00    -0.273 C  
ATOM      2  CB  THR A   1     -12.030  13.286  66.897  1.00  0.00    -0.375 C  
ATOM      3  HG1 THR A   1     -12.578  15.153  67.187  1.00  0.00     0.000 HD 
ATOM      4  OG1 THR A   1     -11.879  14.587  67.493  1.00  0.00    -0.378 OA 
ENDROOT
BRANCH   2   5
ATOM      5  CA  THR A   1     -12.100  13.439  65.364  1.00  0.00    -0.421 C  
ATOM      6  N   THR A   1     -12.925  12.373  64.755  1.00  0.00    -0.768 NA 
ATOM      7  C   THR A   1     -10.702  13.488  64.711  1.00  0.00    -0.401 C  
ATOM      8  OXT THR A   1     -10.400  12.907  63.675  1.00  0.00    -0.346 OA 
ATOM      9  O   THR A   1      -9.843  14.343  65.324  1.00  0.00    -0.319 OA 
ATOM     10  H1  THR A   1     -12.971  12.475  63.742  1.00  0.00     0.000 HD 
ATOM     11  H2  THR A   1     -13.855  12.337  65.171  1.00  0.00     0.000 HD 
ENDBRANCH   2   5
TORSDOF 1
ENDMDL
MODEL       67
REMARK 921   NORMALIZED FREE ENERGY PREDICTED BY IDOCK:   -2.75 KCAL/MOL
REMARK 922        TOTAL FREE ENERGY PREDICTED BY IDOCK:   -2.92 KCAL/MOL
REMARK 923 INTER-LIGAND FREE ENERGY PREDICTED BY IDOCK:   -2.87 KCAL/MOL
REMARK 924 INTRA-LIGAND FREE ENERGY PREDICTED BY IDOCK:   -0.06 KCAL/MOL
REMARK 927      BINDING AFFINITY PREDICTED BY RF-SCORE:    0.00 PKD
ROOT
ATOM      1  CG2 THR A   1      -7.334  15.800  67.142  1.00  0.00    -0.257 C  
ATOM      2  CB  THR A   1      -8.836  15.985  66.939  1.00  0.00    -0.231 C  
ATOM      3  HG1 THR A   1      -9.994  16.848  65.605  1.00  0.00     0.000 HD 
ATOM      4  OG1 THR A   1      -9.059  16.734  65.731  1.00  0.00    -0.515 OA 
ENDROOT
BRANCH   2   5
ATOM      5  CA  THR A   1      -9.636  14.667  66.871  1.00  0.00    -0.244 C  
ATOM      6  N   THR A   1      -9.423  13.977  65.581  1.00  0.00    -0.524 NA 
ATOM      7  C   THR A   1     -11.142  14.877  67.136  1.00  0.00    -0.332 C  
ATOM      8  OXT THR A   1     -12.040  14.332  66.504  1.00  0.00    -0.431 OA 
ATOM      9  O   THR A   1     -11.403  15.637  68.231  1.00  0.00    -0.334 OA 
ATOM     10  H1  THR A   1      -9.952  13.106  65.535  1.00  0.00     0.000 HD 
ATOM     11  H2  THR A   1      -8.431  13.823  65.397  1.00  0.00     0.000 HD 
ENDBRANCH   2   5
TORSDOF 1
ENDMDL
MODEL       68
REMARK 921   NORMALIZED FREE ENERGY PREDICTED BY IDOCK:   -2.71 KCAL/MOL
REMARK 922        TOTAL FREE ENERGY PREDICTED BY IDOCK:   -2.88 KCAL/MOL
REMARK 923 INTER-LIGAND FREE ENERGY PREDICTED BY IDOCK:   -2.83 KCAL/MOL
REMARK 924 INTRA-LIGAND FREE ENERGY PREDICTED BY IDOCK:   -0.05 KCAL/MOL
REMARK 927      BINDING AFFINITY PREDICTED BY RF-SCORE:    0.00 PKD
ROOT
ATOM      1  CG2 THR A   1     -11.600  10.356  70.088  1.00  0.00    -0.392 C  
ATOM      2  CB  THR A   1     -11.220   9.036  70.753  1.00  0.00    -0.275 C  
ATOM      3  HG1 THR A   1     -10.018   8.469  72.203  1.00  0.00     0.000 HD 
ATOM      4  OG1 THR A   1     -10.255   9.291  71.790  1.00  0.00    -0.311 OA 
ENDROOT
BRANCH   2   5
ATOM      5  CA  THR A   1     -12.411   8.259  71.354  1.00  0.00    -0.299 C  
ATOM      6  N   THR A   1     -12.709   8.714  72.729  1.00  0.00    -0.587 NA 
ATOM      7  C   THR A   1     -12.197   6.731  71.318  1.00  0.00    -0.364 C  
ATOM      8  OXT THR A   1     -12.480   5.969  72.237  1.00  0.00    -0.206 OA 
ATOM      9  O   THR A   1     -11.772   6.267  70.115  1.00  0.00    -0.398 OA 
ATOM     10  H1  THR A   1     -13.495   8.201  73.126  1.00  0.00     0.000 HD 
ATOM     11  H2  THR A   1     -12.862   9.722  72.765  1.00  0.00     0.000 HD 
ENDBRANCH   2   5
TORSDOF 1
ENDMDL
MODEL       69
REMARK 921   NORMALIZED FREE ENERGY PREDICTED BY IDOCK:   -2.69 KCAL/MOL
REMARK 922        TOTAL FREE ENERGY PREDICTED BY IDOCK:   -2.86 KCAL/MOL
REMARK 923 INTER-LIGAND FREE ENERGY PREDICTED BY IDOCK:   -2.80 KCAL/MOL
REMARK 924 INTRA-LIGAND FREE ENERGY PREDICTED BY IDOCK:   -0.06 KCAL/MOL
REMARK 927      BINDING AFFINITY PREDICTED BY RF-SCORE:    0.00 PKD
ROOT
ATOM      1  CG2 THR A   1     -11.193   5.312  73.071  1.00  0.00    -0.387 C  
ATOM      2  CB  THR A   1     -10.948   6.447  72.080  1.00  0.00    -0.251 C  
ATOM      3  HG1 THR A   1     -11.237   6.743  70.158  1.00  0.00     0.000 HD 
ATOM      4  OG1 THR A   1     -11.389   6.036  70.774  1.00  0.00    -0.301 OA 
ENDROOT
BRANCH   2   5
ATOM      5  CA  THR A   1     -11.640   7.776  72.451  1.00  0.00    -0.356 C  
ATOM      6  N   THR A   1     -13.103   7.692  72.253  1.00  0.00    -0.503 NA 
ATOM      7  C   THR A   1     -11.054   8.981  71.684  1.00  0.00    -0.363 C  
ATOM      8  OXT THR A   1     -11.723   9.883  71.194  1.00  0.00    -0.338 OA 
ATOM      9  O   THR A   1      -9.697   9.029  71.700  1.00  0.00    -0.300 OA 
ATOM     10  H1  THR A   1     -13.560   8.569  72.498  1.00  0.00     0.000 HD 
ATOM     11  H2  THR A   1     -13.505   6.905  72.763  1.00  0.00     0.000 HD 
ENDBRANCH   2   5
TORSDOF 1
ENDMDL
MODEL       70
REMARK 921   NORMALIZED FREE ENERGY PREDICTED BY IDOCK:   -2.68 KCAL/MOL
REMARK 922        TOTAL FREE ENERGY PREDICTED BY IDOCK:   -2.85 KCAL/MOL
REMARK 923 INTER-LIGAND FREE ENERGY PREDICTED BY IDOCK:   -2.78 KCAL/MOL
REMARK 924 INTRA-LIGAND FREE ENERGY PREDICTED BY IDOCK:   -0.06 KCAL/MOL
REMARK 927      BINDING AFFINITY PREDICTED BY RF-SCORE:    0.00 PKD
ROOT
ATOM      1  CG2 THR A   1      -7.995  11.412  66.232  1.00  0.00    -0.037 C  
ATOM      2  CB  THR A   1      -9.315  12.138  66.480  1.00  0.00    -0.228 C  
ATOM      3  HG1 THR A   1      -9.872  13.990  66.835  1.00  0.00     0.000 HD 
ATOM      4  OG1 THR A   1      -9.051  13.539  66.681  1.00  0.00    -0.234 OA 
ENDROOT
BRANCH   2   5
ATOM      5  CA  THR A   1     -10.353  11.978  65.350  1.00  0.00    -0.266 C  
ATOM      6  N   THR A   1      -9.849  12.537  64.076  1.00  0.00    -0.609 NA 
ATOM      7  C   THR A   1     -11.721  12.593  65.713  1.00  0.00    -0.419 C  
ATOM      8  OXT THR A   1     -12.411  13.253  64.944  1.00  0.00    -0.461 OA 
ATOM      9  O   THR A   1     -12.170  12.236  66.944  1.00  0.00    -0.530 OA 
ATOM     10  H1  THR A   1     -10.535  12.431  63.329  1.00  0.00     0.000 HD 
ATOM     11  H2  THR A   1      -8.949  12.131  63.820  1.00  0.00     0.000 HD 
ENDBRANCH   2   5
TORSDOF 1
ENDMDL
MODEL       71
REMARK 921   NORMALIZED FREE ENERGY PREDICTED BY IDOCK:   -2.68 KCAL/MOL
REMARK 922        TOTAL FREE ENERGY PREDICTED BY IDOCK:   -2.85 KCAL/MOL
REMARK 923 INTER-LIGAND FREE ENERGY PREDICTED BY IDOCK:   -2.80 KCAL/MOL
REMARK 924 INTRA-LIGAND FREE ENERGY PREDICTED BY IDOCK:   -0.04 KCAL/MOL
REMARK 927      BINDING AFFINITY PREDICTED BY RF-SCORE:    0.00 PKD
ROOT
ATOM      1  CG2 THR A   1      -9.886  16.099  67.225  1.00  0.00    -0.241 C  
ATOM      2  CB  THR A   1     -10.664  15.012  67.962  1.00  0.00    -0.262 C  
ATOM      3  HG1 THR A   1     -12.276  14.933  69.086  1.00  0.00     0.000 HD 
ATOM      4  OG1 THR A   1     -11.792  15.609  68.627  1.00  0.00    -0.372 OA 
ENDROOT
BRANCH   2   5
ATOM      5  CA  THR A   1     -11.162  13.862  67.061  1.00  0.00    -0.313 C  
ATOM      6  N   THR A   1     -12.532  14.122  66.568  1.00  0.00    -0.534 NA 
ATOM      7  C   THR A   1     -11.083  12.488  67.759  1.00  0.00    -0.249 C  
ATOM      8  OXT THR A   1     -11.954  11.627  67.695  1.00  0.00    -0.618 OA 
ATOM      9  O   THR A   1      -9.892  12.252  68.367  1.00  0.00    -0.213 OA 
ATOM     10  H1  THR A   1     -12.860  13.362  65.972  1.00  0.00     0.000 HD 
ATOM     11  H2  THR A   1     -12.595  15.023  66.095  1.00  0.00     0.000 HD 
ENDBRANCH   2   5
TORSDOF 1
ENDMDL
MODEL       72
REMARK 921   NORMALIZED FREE ENERGY PREDICTED BY IDOCK:   -2.68 KCAL/MOL
REMARK 922        TOTAL FREE ENERGY PREDICTED BY IDOCK:   -2.84 KCAL/MOL
REMARK 923 INTER-LIGAND FREE ENERGY PREDICTED BY IDOCK:   -2.89 KCAL/MOL
REMARK 924 INTRA-LIGAND FREE ENERGY PREDICTED BY IDOCK:    0.05 KCAL/MOL
REMARK 927      BINDING AFFINITY PREDICTED BY RF-SCORE:    0.00 PKD
ROOT
ATOM      1  CG2 THR A   1      -9.224  15.854  66.319  1.00  0.00    -0.372 C  
ATOM      2  CB  THR A   1     -10.729  15.688  66.516  1.00  0.00    -0.293 C  
ATOM      3  HG1 THR A   1     -12.218  14.910  65.495  1.00  0.00     0.000 HD 
ATOM      4  OG1 THR A   1     -11.282  15.013  65.372  1.00  0.00    -0.345 OA 
ENDROOT
BRANCH   2   5
ATOM      5  CA  THR A   1     -11.123  14.919  67.795  1.00  0.00    -0.309 C  
ATOM      6  N   THR A   1     -12.237  13.982  67.535  1.00  0.00    -0.535 NA 
ATOM      7  C   THR A   1     -11.463  15.861  68.969  1.00  0.00    -0.380 C  
ATOM      8  OXT THR A   1     -12.403  15.697  69.739  1.00  0.00    -0.333 OA 
ATOM      9  O   THR A   1     -10.547  16.844  69.164  1.00  0.00    -0.325 OA 
ATOM     10  H1  THR A   1     -12.497  13.474  68.379  1.00  0.00     0.000 HD 
ATOM     11  H2  THR A   1     -12.021  13.347  66.767  1.00  0.00     0.000 HD 
ENDBRANCH   2   5
TORSDOF 1
ENDMDL
MODEL       73
REMARK 921   NORMALIZED FREE ENERGY PREDICTED BY IDOCK:   -2.68 KCAL/MOL
REMARK 922        TOTAL FREE ENERGY PREDICTED BY IDOCK:   -2.84 KCAL/MOL
REMARK 923 INTER-LIGAND FREE ENERGY PREDICTED BY IDOCK:   -2.83 KCAL/MOL
REMARK 924 INTRA-LIGAND FREE ENERGY PREDICTED BY IDOCK:   -0.01 KCAL/MOL
REMARK 927      BINDING AFFINITY PREDICTED BY RF-SCORE:    0.00 PKD
ROOT
ATOM      1  CG2 THR A   1     -10.262  14.968  68.455  1.00  0.00    -0.227 C  
ATOM      2  CB  THR A   1      -9.686  15.587  67.184  1.00  0.00    -0.222 C  
ATOM      3  HG1 THR A   1      -8.958  14.921  65.483  1.00  0.00     0.000 HD 
ATOM      4  OG1 THR A   1      -9.316  14.536  66.274  1.00  0.00    -0.285 OA 
ENDROOT
BRANCH   2   5
ATOM      5  CA  THR A   1     -10.639  16.565  66.465  1.00  0.00    -0.217 C  
ATOM      6  N   THR A   1     -10.727  16.262  65.020  1.00  0.00    -0.656 NA 
ATOM      7  C   THR A   1     -10.249  18.041  66.690  1.00  0.00    -0.373 C  
ATOM      8  OXT THR A   1     -10.259  18.903  65.818  1.00  0.00    -0.531 OA 
ATOM      9  O   THR A   1     -10.004  18.349  67.990  1.00  0.00    -0.317 OA 
ATOM     10  H1  THR A   1     -11.356  16.908  64.544  1.00  0.00     0.000 HD 
ATOM     11  H2  THR A   1     -10.993  15.291  64.857  1.00  0.00     0.000 HD 
ENDBRANCH   2   5
TORSDOF 1
ENDMDL
MODEL       74
REMARK 921   NORMALIZED FREE ENERGY PREDICTED BY IDOCK:   -2.66 KCAL/MOL
REMARK 922        TOTAL FREE ENERGY PREDICTED BY IDOCK:   -2.83 KCAL/MOL
REMARK 923 INTER-LIGAND FREE ENERGY PREDICTED BY IDOCK:   -2.78 KCAL/MOL
REMARK 924 INTRA-LIGAND FREE ENERGY PREDICTED BY IDOCK:   -0.04 KCAL/MOL
REMARK 927      BINDING AFFINITY PREDICTED BY RF-SCORE:    0.00 PKD
ROOT
ATOM      1  CG2 THR A   1      -9.590   8.518  70.273  1.00  0.00    -0.177 C  
ATOM      2  CB  THR A   1     -10.958   8.847  70.864  1.00  0.00    -0.266 C  
ATOM      3  HG1 THR A   1     -12.490   9.973  70.360  1.00  0.00     0.000 HD 
ATOM      4  OG1 THR A   1     -11.639   9.768  69.992  1.00  0.00    -0.218 OA 
ENDROOT
BRANCH   2   5
ATOM      5  CA  THR A   1     -11.861   7.619  71.103  1.00  0.00    -0.293 C  
ATOM      6  N   THR A   1     -11.992   6.803  69.877  1.00  0.00    -0.659 NA 
ATOM      7  C   THR A   1     -13.251   8.006  71.653  1.00  0.00    -0.330 C  
ATOM      8  OXT THR A   1     -14.307   7.506  71.283  1.00  0.00    -0.413 OA 
ATOM      9  O   THR A   1     -13.203   8.881  72.691  1.00  0.00    -0.427 OA 
ATOM     10  H1  THR A   1     -12.589   5.991  70.036  1.00  0.00     0.000 HD 
ATOM     11  H2  THR A   1     -11.081   6.532  69.509  1.00  0.00     0.000 HD 
ENDBRANCH   2   5
TORSDOF 1
ENDMDL
MODEL       75
REMARK 921   NORMALIZED FREE ENERGY PREDICTED BY IDOCK:   -2.65 KCAL/MOL
REMARK 922        TOTAL FREE ENERGY PREDICTED BY IDOCK:   -2.81 KCAL/MOL
REMARK 923 INTER-LIGAND FREE ENERGY PREDICTED BY IDOCK:   -2.79 KCAL/MOL
REMARK 924 INTRA-LIGAND FREE ENERGY PREDICTED BY IDOCK:   -0.03 KCAL/MOL
REMARK 927      BINDING AFFINITY PREDICTED BY RF-SCORE:    0.00 PKD
ROOT
ATOM      1  CG2 THR A   1      -9.716  10.509  68.097  1.00  0.00    -0.166 C  
ATOM      2  CB  THR A   1     -10.942  10.714  67.211  1.00  0.00    -0.284 C  
ATOM      3  HG1 THR A   1     -12.801  11.300  67.471  1.00  0.00     0.000 HD 
ATOM      4  OG1 THR A   1     -12.038  11.173  68.023  1.00  0.00    -0.635 OA 
ENDROOT
BRANCH   2   5
ATOM      5  CA  THR A   1     -10.729  11.703  66.046  1.00  0.00    -0.280 C  
ATOM      6  N   THR A   1     -11.786  12.736  66.019  1.00  0.00    -0.420 NA 
ATOM      7  C   THR A   1     -10.624  10.992  64.680  1.00  0.00    -0.299 C  
ATOM      8  OXT THR A   1     -11.157  11.389  63.649  1.00  0.00    -0.399 OA 
ATOM      9  O   THR A   1      -9.777   9.931  64.680  1.00  0.00    -0.303 OA 
ATOM     10  H1  THR A   1     -11.646  13.390  65.250  1.00  0.00     0.000 HD 
ATOM     11  H2  THR A   1     -11.859  13.220  66.914  1.00  0.00     0.000 HD 
ENDBRANCH   2   5
TORSDOF 1
ENDMDL
MODEL       76
REMARK 921   NORMALIZED FREE ENERGY PREDICTED BY IDOCK:   -2.63 KCAL/MOL
REMARK 922        TOTAL FREE ENERGY PREDICTED BY IDOCK:   -2.79 KCAL/MOL
REMARK 923 INTER-LIGAND FREE ENERGY PREDICTED BY IDOCK:   -2.75 KCAL/MOL
REMARK 924 INTRA-LIGAND FREE ENERGY PREDICTED BY IDOCK:   -0.05 KCAL/MOL
REMARK 927      BINDING AFFINITY PREDICTED BY RF-SCORE:    0.00 PKD
ROOT
ATOM      1  CG2 THR A   1     -10.564  19.606  66.861  1.00  0.00    -0.603 C  
ATOM      2  CB  THR A   1      -9.359  19.095  67.647  1.00  0.00    -0.303 C  
ATOM      3  HG1 THR A   1      -8.866  18.930  69.544  1.00  0.00     0.000 HD 
ATOM      4  OG1 THR A   1      -9.616  19.248  69.055  1.00  0.00    -0.399 OA 
ENDROOT
BRANCH   2   5
ATOM      5  CA  THR A   1      -8.988  17.625  67.359  1.00  0.00    -0.231 C  
ATOM      6  N   THR A   1      -9.025  16.811  68.593  1.00  0.00    -0.244 NA 
ATOM      7  C   THR A   1      -7.621  17.489  66.656  1.00  0.00    -0.251 C  
ATOM      8  OXT THR A   1      -6.780  16.640  66.932  1.00  0.00    -0.185 OA 
ATOM      9  O   THR A   1      -7.465  18.326  65.598  1.00  0.00    -0.532 OA 
ATOM     10  H1  THR A   1      -8.780  15.840  68.403  1.00  0.00     0.000 HD 
ATOM     11  H2  THR A   1      -9.928  16.885  69.063  1.00  0.00     0.000 HD 
ENDBRANCH   2   5
TORSDOF 1
ENDMDL
MODEL       77
REMARK 921   NORMALIZED FREE ENERGY PREDICTED BY IDOCK:   -2.63 KCAL/MOL
REMARK 922        TOTAL FREE ENERGY PREDICTED BY IDOCK:   -2.79 KCAL/MOL
REMARK 923 INTER-LIGAND FREE ENERGY PREDICTED BY IDOCK:   -2.73 KCAL/MOL
REMARK 924 INTRA-LIGAND FREE ENERGY PREDICTED BY IDOCK:   -0.06 KCAL/MOL
REMARK 927      BINDING AFFINITY PREDICTED BY RF-SCORE:    0.00 PKD
ROOT
ATOM      1  CG2 THR A   1     -11.977  13.973  69.619  1.00  0.00    -0.393 C  
ATOM      2  CB  THR A   1     -11.553  15.426  69.423  1.00  0.00    -0.340 C  
ATOM      3  HG1 THR A   1     -11.302  17.001  70.574  1.00  0.00     0.000 HD 
ATOM      4  OG1 THR A   1     -11.566  16.097  70.696  1.00  0.00    -0.376 OA 
ENDROOT
BRANCH   2   5
ATOM      5  CA  THR A   1     -10.164  15.603  68.774  1.00  0.00    -0.215 C  
ATOM      6  N   THR A   1      -9.106  14.973  69.592  1.00  0.00    -0.456 NA 
ATOM      7  C   THR A   1      -9.829  17.083  68.492  1.00  0.00    -0.290 C  
ATOM      8  OXT THR A   1      -8.734  17.597  68.694  1.00  0.00    -0.293 OA 
ATOM      9  O   THR A   1     -10.829  17.762  67.873  1.00  0.00    -0.365 OA 
ATOM     10  H1  THR A   1      -8.189  15.090  69.164  1.00  0.00     0.000 HD 
ATOM     11  H2  THR A   1      -9.311  13.991  69.778  1.00  0.00     0.000 HD 
ENDBRANCH   2   5
TORSDOF 1
ENDMDL
MODEL       78
REMARK 921   NORMALIZED FREE ENERGY PREDICTED BY IDOCK:   -2.61 KCAL/MOL
REMARK 922        TOTAL FREE ENERGY PREDICTED BY IDOCK:   -2.78 KCAL/MOL
REMARK 923 INTER-LIGAND FREE ENERGY PREDICTED BY IDOCK:   -2.73 KCAL/MOL
REMARK 924 INTRA-LIGAND FREE ENERGY PREDICTED BY IDOCK:   -0.04 KCAL/MOL
REMARK 927      BINDING AFFINITY PREDICTED BY RF-SCORE:    0.00 PKD
ROOT
ATOM      1  CG2 THR A   1     -11.585  14.409  66.449  1.00  0.00    -0.383 C  
ATOM      2  CB  THR A   1     -11.130  13.824  65.115  1.00  0.00    -0.328 C  
ATOM      3  HG1 THR A   1      -9.717  14.208  63.803  1.00  0.00     0.000 HD 
ATOM      4  OG1 THR A   1      -9.999  14.572  64.634  1.00  0.00    -0.194 OA 
ENDROOT
BRANCH   2   5
ATOM      5  CA  THR A   1     -10.758  12.327  65.170  1.00  0.00    -0.293 C  
ATOM      6  N   THR A   1      -9.310  12.144  65.411  1.00  0.00    -0.436 NA 
ATOM      7  C   THR A   1     -11.202  11.561  63.905  1.00  0.00    -0.355 C  
ATOM      8  OXT THR A   1     -10.521  10.721  63.328  1.00  0.00    -0.226 OA 
ATOM      9  O   THR A   1     -12.487  11.808  63.541  1.00  0.00    -0.520 OA 
ATOM     10  H1  THR A   1      -9.064  11.155  65.447  1.00  0.00     0.000 HD 
ATOM     11  H2  THR A   1      -9.005  12.637  66.250  1.00  0.00     0.000 HD 
ENDBRANCH   2   5
TORSDOF 1
ENDMDL
MODEL       79
REMARK 921   NORMALIZED FREE ENERGY PREDICTED BY IDOCK:   -2.61 KCAL/MOL
REMARK 922        TOTAL FREE ENERGY PREDICTED BY IDOCK:   -2.77 KCAL/MOL
REMARK 923 INTER-LIGAND FREE ENERGY PREDICTED BY IDOCK:   -2.72 KCAL/MOL
REMARK 924 INTRA-LIGAND FREE ENERGY PREDICTED BY IDOCK:   -0.05 KCAL/MOL
REMARK 927      BINDING AFFINITY PREDICTED BY RF-SCORE:    0.00 PKD
ROOT
ATOM      1  CG2 THR A   1     -11.916  12.185  69.773  1.00  0.00    -0.372 C  
ATOM      2  CB  THR A   1     -11.920  10.901  70.599  1.00  0.00    -0.368 C  
ATOM      3  HG1 THR A   1     -13.273   9.620  71.227  1.00  0.00     0.000 HD 
ATOM      4  OG1 THR A   1     -13.271  10.419  70.713  1.00  0.00    -0.375 OA 
ENDROOT
BRANCH   2   5
ATOM      5  CA  THR A   1     -11.029   9.776  70.031  1.00  0.00    -0.277 C  
ATOM      6  N   THR A   1     -11.363   9.489  68.619  1.00  0.00    -0.464 NA 
ATOM      7  C   THR A   1     -11.092   8.489  70.880  1.00  0.00    -0.255 C  
ATOM      8  OXT THR A   1     -11.157   7.355  70.417  1.00  0.00    -0.258 OA 
ATOM      9  O   THR A   1     -10.944   8.706  72.213  1.00  0.00    -0.354 OA 
ATOM     10  H1  THR A   1     -10.774   8.746  68.244  1.00  0.00     0.000 HD 
ATOM     11  H2  THR A   1     -11.315  10.331  68.045  1.00  0.00     0.000 HD 
ENDBRANCH   2   5
TORSDOF 1
ENDMDL
MODEL       80
REMARK 921   NORMALIZED FREE ENERGY PREDICTED BY IDOCK:   -2.60 KCAL/MOL
REMARK 922        TOTAL FREE ENERGY PREDICTED BY IDOCK:   -2.77 KCAL/MOL
REMARK 923 INTER-LIGAND FREE ENERGY PREDICTED BY IDOCK:   -3.10 KCAL/MOL
REMARK 924 INTRA-LIGAND FREE ENERGY PREDICTED BY IDOCK:    0.34 KCAL/MOL
REMARK 927      BINDING AFFINITY PREDICTED BY RF-SCORE:    0.00 PKD
ROOT
ATOM      1  CG2 THR A   1     -10.583  19.909  66.211  1.00  0.00    -0.534 C  
ATOM      2  CB  THR A   1      -9.354  19.772  67.106  1.00  0.00    -0.351 C  
ATOM      3  HG1 THR A   1      -8.999  19.751  69.040  1.00  0.00     0.000 HD 
ATOM      4  OG1 THR A   1      -9.764  19.837  68.484  1.00  0.00    -0.371 OA 
ENDROOT
BRANCH   2   5
ATOM      5  CA  THR A   1      -8.545  18.477  66.882  1.00  0.00    -0.278 C  
ATOM      6  N   THR A   1      -7.572  18.637  65.779  1.00  0.00    -0.504 NA 
ATOM      7  C   THR A   1      -9.449  17.250  66.639  1.00  0.00    -0.265 C  
ATOM      8  OXT THR A   1      -9.235  16.387  65.796  1.00  0.00    -0.464 OA 
ATOM      9  O   THR A   1     -10.462  17.132  67.537  1.00  0.00    -0.337 OA 
ATOM     10  H1  THR A   1      -7.038  17.782  65.631  1.00  0.00     0.000 HD 
ATOM     11  H2  THR A   1      -6.961  19.439  65.932  1.00  0.00     0.000 HD 
ENDBRANCH   2   5
TORSDOF 1
ENDMDL
MODEL       81
REMARK 921   NORMALIZED FREE ENERGY PREDICTED BY IDOCK:   -2.60 KCAL/MOL
REMARK 922        TOTAL FREE ENERGY PREDICTED BY IDOCK:   -2.76 KCAL/MOL
REMARK 923 INTER-LIGAND FREE ENERGY PREDICTED BY IDOCK:   -2.69 KCAL/MOL
REMARK 924 INTRA-LIGAND FREE ENERGY PREDICTED BY IDOCK:   -0.06 KCAL/MOL
REMARK 927      BINDING AFFINITY PREDICTED BY RF-SCORE:    0.00 PKD
ROOT
ATOM      1  CG2 THR A   1     -11.419   9.727  70.334  1.00  0.00    -0.347 C  
ATOM      2  CB  THR A   1     -11.674  10.885  69.371  1.00  0.00    -0.325 C  
ATOM      3  HG1 THR A   1     -12.039  12.810  69.530  1.00  0.00     0.000 HD 
ATOM      4  OG1 THR A   1     -11.880  12.091  70.129  1.00  0.00    -0.335 OA 
ENDROOT
BRANCH   2   5
ATOM      5  CA  THR A   1     -10.545  11.121  68.346  1.00  0.00    -0.193 C  
ATOM      6  N   THR A   1      -9.270  11.452  69.019  1.00  0.00    -0.400 NA 
ATOM      7  C   THR A   1     -10.909  12.199  67.304  1.00  0.00    -0.244 C  
ATOM      8  OXT THR A   1     -10.141  13.068  66.907  1.00  0.00    -0.236 OA 
ATOM      9  O   THR A   1     -12.141  12.036  66.757  1.00  0.00    -0.613 OA 
ATOM     10  H1  THR A   1      -8.525  11.608  68.342  1.00  0.00     0.000 HD 
ATOM     11  H2  THR A   1      -9.013  10.742  69.704  1.00  0.00     0.000 HD 
ENDBRANCH   2   5
TORSDOF 1
ENDMDL
MODEL       82
REMARK 921   NORMALIZED FREE ENERGY PREDICTED BY IDOCK:   -2.60 KCAL/MOL
REMARK 922        TOTAL FREE ENERGY PREDICTED BY IDOCK:   -2.76 KCAL/MOL
REMARK 923 INTER-LIGAND FREE ENERGY PREDICTED BY IDOCK:   -2.76 KCAL/MOL
REMARK 924 INTRA-LIGAND FREE ENERGY PREDICTED BY IDOCK:   -0.00 KCAL/MOL
REMARK 927      BINDING AFFINITY PREDICTED BY RF-SCORE:    0.00 PKD
ROOT
ATOM      1  CG2 THR A   1      -8.748   9.225  64.069  1.00  0.00    -0.198 C  
ATOM      2  CB  THR A   1      -9.571  10.289  64.793  1.00  0.00    -0.307 C  
ATOM      3  HG1 THR A   1      -9.212  11.729  66.083  1.00  0.00     0.000 HD 
ATOM      4  OG1 THR A   1      -8.699  11.068  65.633  1.00  0.00    -0.186 OA 
ENDROOT
BRANCH   2   5
ATOM      5  CA  THR A   1     -10.350  11.237  63.858  1.00  0.00    -0.381 C  
ATOM      6  N   THR A   1      -9.491  11.732  62.760  1.00  0.00    -0.598 NA 
ATOM      7  C   THR A   1     -10.999  12.414  64.617  1.00  0.00    -0.305 C  
ATOM      8  OXT THR A   1     -11.010  13.574  64.221  1.00  0.00    -0.383 OA 
ATOM      9  O   THR A   1     -11.679  12.036  65.730  1.00  0.00    -0.398 OA 
ATOM     10  H1  THR A   1     -10.006  12.359  62.142  1.00  0.00     0.000 HD 
ATOM     11  H2  THR A   1      -9.064  10.964  62.244  1.00  0.00     0.000 HD 
ENDBRANCH   2   5
TORSDOF 1
ENDMDL
MODEL       83
REMARK 921   NORMALIZED FREE ENERGY PREDICTED BY IDOCK:   -2.59 KCAL/MOL
REMARK 922        TOTAL FREE ENERGY PREDICTED BY IDOCK:   -2.75 KCAL/MOL
REMARK 923 INTER-LIGAND FREE ENERGY PREDICTED BY IDOCK:   -2.70 KCAL/MOL
REMARK 924 INTRA-LIGAND FREE ENERGY PREDICTED BY IDOCK:   -0.05 KCAL/MOL
REMARK 927      BINDING AFFINITY PREDICTED BY RF-SCORE:    0.00 PKD
ROOT
ATOM      1  CG2 THR A   1     -11.012  15.693  70.267  1.00  0.00    -0.363 C  
ATOM      2  CB  THR A   1     -10.499  16.709  69.250  1.00  0.00    -0.333 C  
ATOM      3  HG1 THR A   1      -8.745  17.257  68.551  1.00  0.00     0.000 HD 
ATOM      4  OG1 THR A   1      -9.064  16.625  69.184  1.00  0.00    -0.245 OA 
ENDROOT
BRANCH   2   5
ATOM      5  CA  THR A   1     -11.080  16.538  67.831  1.00  0.00    -0.229 C  
ATOM      6  N   THR A   1     -10.891  15.157  67.337  1.00  0.00    -0.295 NA 
ATOM      7  C   THR A   1     -10.501  17.560  66.829  1.00  0.00    -0.270 C  
ATOM      8  OXT THR A   1     -10.164  17.292  65.681  1.00  0.00    -0.579 OA 
ATOM      9  O   THR A   1     -10.505  18.838  67.289  1.00  0.00    -0.388 OA 
ATOM     10  H1  THR A   1     -11.275  15.044  66.399  1.00  0.00     0.000 HD 
ATOM     11  H2  THR A   1     -11.279  14.472  67.985  1.00  0.00     0.000 HD 
ENDBRANCH   2   5
TORSDOF 1
ENDMDL
MODEL       84
REMARK 921   NORMALIZED FREE ENERGY PREDICTED BY IDOCK:   -2.58 KCAL/MOL
REMARK 922        TOTAL FREE ENERGY PREDICTED BY IDOCK:   -2.74 KCAL/MOL
REMARK 923 INTER-LIGAND FREE ENERGY PREDICTED BY IDOCK:   -2.68 KCAL/MOL
REMARK 924 INTRA-LIGAND FREE ENERGY PREDICTED BY IDOCK:   -0.06 KCAL/MOL
REMARK 927      BINDING AFFINITY PREDICTED BY RF-SCORE:    0.00 PKD
ROOT
ATOM      1  CG2 THR A   1     -13.392   8.983  72.052  1.00  0.00    -0.494 C  
ATOM      2  CB  THR A   1     -11.887   8.748  71.946  1.00  0.00    -0.367 C  
ATOM      3  HG1 THR A   1     -10.537   7.718  72.937  1.00  0.00     0.000 HD 
ATOM      4  OG1 THR A   1     -11.473   7.863  73.003  1.00  0.00    -0.383 OA 
ENDROOT
BRANCH   2   5
ATOM      5  CA  THR A   1     -11.427   8.167  70.593  1.00  0.00    -0.231 C  
ATOM      6  N   THR A   1     -12.070   6.864  70.322  1.00  0.00    -0.627 NA 
ATOM      7  C   THR A   1      -9.891   8.049  70.493  1.00  0.00    -0.182 C  
ATOM      8  OXT THR A   1      -9.299   7.089  70.013  1.00  0.00    -0.158 OA 
ATOM      9  O   THR A   1      -9.231   9.173  70.877  1.00  0.00    -0.234 OA 
ATOM     10  H1  THR A   1     -11.767   6.480  69.428  1.00  0.00     0.000 HD 
ATOM     11  H2  THR A   1     -13.087   6.930  70.375  1.00  0.00     0.000 HD 
ENDBRANCH   2   5
TORSDOF 1
ENDMDL
MODEL       85
REMARK 921   NORMALIZED FREE ENERGY PREDICTED BY IDOCK:   -2.57 KCAL/MOL
REMARK 922        TOTAL FREE ENERGY PREDICTED BY IDOCK:   -2.73 KCAL/MOL
REMARK 923 INTER-LIGAND FREE ENERGY PREDICTED BY IDOCK:   -2.78 KCAL/MOL
REMARK 924 INTRA-LIGAND FREE ENERGY PREDICTED BY IDOCK:    0.04 KCAL/MOL
REMARK 927      BINDING AFFINITY PREDICTED BY RF-SCORE:    0.00 PKD
ROOT
ATOM      1  CG2 THR A   1     -10.407  11.657  64.680  1.00  0.00    -0.341 C  
ATOM      2  CB  THR A   1     -10.935  11.995  66.072  1.00  0.00    -0.304 C  
ATOM      3  HG1 THR A   1     -12.657  12.551  66.843  1.00  0.00     0.000 HD 
ATOM      4  OG1 THR A   1     -12.329  12.340  65.977  1.00  0.00    -0.609 OA 
ENDROOT
BRANCH   2   5
ATOM      5  CA  THR A   1     -10.765  10.866  67.109  1.00  0.00    -0.270 C  
ATOM      6  N   THR A   1     -11.968  10.732  67.958  1.00  0.00    -0.773 NA 
ATOM      7  C   THR A   1      -9.502  11.047  67.978  1.00  0.00    -0.166 C  
ATOM      8  OXT THR A   1      -9.458  10.854  69.188  1.00  0.00    -0.176 OA 
ATOM      9  O   THR A   1      -8.382  11.326  67.261  1.00  0.00    -0.136 OA 
ATOM     10  H1  THR A   1     -11.856   9.985  68.643  1.00  0.00     0.000 HD 
ATOM     11  H2  THR A   1     -12.810  10.601  67.397  1.00  0.00     0.000 HD 
ENDBRANCH   2   5
TORSDOF 1
ENDMDL
MODEL       86
REMARK 921   NORMALIZED FREE ENERGY PREDICTED BY IDOCK:   -2.54 KCAL/MOL
REMARK 922        TOTAL FREE ENERGY PREDICTED BY IDOCK:   -2.69 KCAL/MOL
REMARK 923 INTER-LIGAND FREE ENERGY PREDICTED BY IDOCK:   -2.65 KCAL/MOL
REMARK 924 INTRA-LIGAND FREE ENERGY PREDICTED BY IDOCK:   -0.05 KCAL/MOL
REMARK 927      BINDING AFFINITY PREDICTED BY RF-SCORE:    0.00 PKD
ROOT
ATOM      1  CG2 THR A   1      -7.962  16.022  66.928  1.00  0.00    -0.283 C  
ATOM      2  CB  THR A   1      -9.182  16.929  66.783  1.00  0.00    -0.247 C  
ATOM      3  HG1 THR A   1     -11.119  16.763  67.076  1.00  0.00     0.000 HD 
ATOM      4  OG1 THR A   1     -10.360  16.198  67.166  1.00  0.00    -0.281 OA 
ENDROOT
BRANCH   2   5
ATOM      5  CA  THR A   1      -9.107  18.233  67.604  1.00  0.00    -0.263 C  
ATOM      6  N   THR A   1     -10.222  18.321  68.572  1.00  0.00    -0.391 NA 
ATOM      7  C   THR A   1      -9.058  19.491  66.712  1.00  0.00    -0.339 C  
ATOM      8  OXT THR A   1      -9.682  20.523  66.932  1.00  0.00    -0.432 OA 
ATOM      9  O   THR A   1      -8.152  19.410  65.703  1.00  0.00    -0.414 OA 
ATOM     10  H1  THR A   1     -10.173  19.183  69.115  1.00  0.00     0.000 HD 
ATOM     11  H2  THR A   1     -10.260  17.500  69.175  1.00  0.00     0.000 HD 
ENDBRANCH   2   5
TORSDOF 1
ENDMDL
MODEL       87
REMARK 921   NORMALIZED FREE ENERGY PREDICTED BY IDOCK:   -2.53 KCAL/MOL
REMARK 922        TOTAL FREE ENERGY PREDICTED BY IDOCK:   -2.69 KCAL/MOL
REMARK 923 INTER-LIGAND FREE ENERGY PREDICTED BY IDOCK:   -2.64 KCAL/MOL
REMARK 924 INTRA-LIGAND FREE ENERGY PREDICTED BY IDOCK:   -0.05 KCAL/MOL
REMARK 927      BINDING AFFINITY PREDICTED BY RF-SCORE:    0.00 PKD
ROOT
ATOM      1  CG2 THR A   1      -9.572   4.951  70.470  1.00  0.00    -0.253 C  
ATOM      2  CB  THR A   1      -9.865   6.356  70.990  1.00  0.00    -0.180 C  
ATOM      3  HG1 THR A   1      -9.608   8.193  70.339  1.00  0.00     0.000 HD 
ATOM      4  OG1 THR A   1      -9.426   7.319  70.015  1.00  0.00    -0.161 OA 
ENDROOT
BRANCH   2   5
ATOM      5  CA  THR A   1     -11.349   6.616  71.323  1.00  0.00    -0.299 C  
ATOM      6  N   THR A   1     -12.135   6.878  70.099  1.00  0.00    -0.641 NA 
ATOM      7  C   THR A   1     -11.533   7.757  72.346  1.00  0.00    -0.363 C  
ATOM      8  OXT THR A   1     -12.396   8.625  72.269  1.00  0.00    -0.360 OA 
ATOM      9  O   THR A   1     -10.723   7.654  73.431  1.00  0.00    -0.379 OA 
ATOM     10  H1  THR A   1     -13.116   7.050  70.319  1.00  0.00     0.000 HD 
ATOM     11  H2  THR A   1     -12.030   6.126  69.418  1.00  0.00     0.000 HD 
ENDBRANCH   2   5
TORSDOF 1
ENDMDL
MODEL       88
REMARK 921   NORMALIZED FREE ENERGY PREDICTED BY IDOCK:   -2.53 KCAL/MOL
REMARK 922        TOTAL FREE ENERGY PREDICTED BY IDOCK:   -2.69 KCAL/MOL
REMARK 923 INTER-LIGAND FREE ENERGY PREDICTED BY IDOCK:   -2.64 KCAL/MOL
REMARK 924 INTRA-LIGAND FREE ENERGY PREDICTED BY IDOCK:   -0.04 KCAL/MOL
REMARK 927      BINDING AFFINITY PREDICTED BY RF-SCORE:    0.00 PKD
ROOT
ATOM      1  CG2 THR A   1      -6.911  20.401  67.948  1.00  0.00    -0.336 C  
ATOM      2  CB  THR A   1      -7.894  19.233  67.964  1.00  0.00    -0.298 C  
ATOM      3  HG1 THR A   1      -9.635  18.853  68.796  1.00  0.00     0.000 HD 
ATOM      4  OG1 THR A   1      -9.023  19.580  68.786  1.00  0.00    -0.364 OA 
ENDROOT
BRANCH   2   5
ATOM      5  CA  THR A   1      -8.398  18.805  66.570  1.00  0.00    -0.297 C  
ATOM      6  N   THR A   1      -9.780  19.273  66.332  1.00  0.00    -0.356 NA 
ATOM      7  C   THR A   1      -8.290  17.282  66.345  1.00  0.00    -0.280 C  
ATOM      8  OXT THR A   1      -9.152  16.598  65.805  1.00  0.00    -0.503 OA 
ATOM      9  O   THR A   1      -7.083  16.763  66.691  1.00  0.00    -0.209 OA 
ATOM     10  H1  THR A   1     -10.113  18.990  65.411  1.00  0.00     0.000 HD 
ATOM     11  H2  THR A   1      -9.864  20.280  66.468  1.00  0.00     0.000 HD 
ENDBRANCH   2   5
TORSDOF 1
ENDMDL
MODEL       89
REMARK 921   NORMALIZED FREE ENERGY PREDICTED BY IDOCK:   -2.51 KCAL/MOL
REMARK 922        TOTAL FREE ENERGY PREDICTED BY IDOCK:   -2.67 KCAL/MOL
REMARK 923 INTER-LIGAND FREE ENERGY PREDICTED BY IDOCK:   -2.62 KCAL/MOL
REMARK 924 INTRA-LIGAND FREE ENERGY PREDICTED BY IDOCK:   -0.05 KCAL/MOL
REMARK 927      BINDING AFFINITY PREDICTED BY RF-SCORE:    0.00 PKD
ROOT
ATOM      1  CG2 THR A   1      -6.325  19.224  69.264  1.00  0.00    -0.330 C  
ATOM      2  CB  THR A   1      -7.455  18.587  68.459  1.00  0.00    -0.297 C  
ATOM      3  HG1 THR A   1      -8.565  16.970  68.602  1.00  0.00     0.000 HD 
ATOM      4  OG1 THR A   1      -7.863  17.367  69.104  1.00  0.00    -0.169 OA 
ENDROOT
BRANCH   2   5
ATOM      5  CA  THR A   1      -8.689  19.492  68.266  1.00  0.00    -0.336 C  
ATOM      6  N   THR A   1      -9.854  18.978  69.017  1.00  0.00    -0.387 NA 
ATOM      7  C   THR A   1      -9.045  19.696  66.778  1.00  0.00    -0.355 C  
ATOM      8  OXT THR A   1     -10.186  19.679  66.329  1.00  0.00    -0.419 OA 
ATOM      9  O   THR A   1      -7.980  20.023  66.002  1.00  0.00    -0.328 OA 
ATOM     10  H1  THR A   1     -10.670  19.576  68.890  1.00  0.00     0.000 HD 
ATOM     11  H2  THR A   1      -9.635  18.848  70.005  1.00  0.00     0.000 HD 
ENDBRANCH   2   5
TORSDOF 1
ENDMDL
MODEL       90
REMARK 921   NORMALIZED FREE ENERGY PREDICTED BY IDOCK:   -2.50 KCAL/MOL
REMARK 922        TOTAL FREE ENERGY PREDICTED BY IDOCK:   -2.66 KCAL/MOL
REMARK 923 INTER-LIGAND FREE ENERGY PREDICTED BY IDOCK:   -3.00 KCAL/MOL
REMARK 924 INTRA-LIGAND FREE ENERGY PREDICTED BY IDOCK:    0.34 KCAL/MOL
REMARK 927      BINDING AFFINITY PREDICTED BY RF-SCORE:    0.00 PKD
ROOT
ATOM      1  CG2 THR A   1     -10.438  20.034  66.708  1.00  0.00    -0.520 C  
ATOM      2  CB  THR A   1     -10.650  18.525  66.790  1.00  0.00    -0.354 C  
ATOM      3  HG1 THR A   1     -10.573  17.010  65.539  1.00  0.00     0.000 HD 
ATOM      4  OG1 THR A   1     -10.441  17.949  65.488  1.00  0.00    -0.650 OA 
ENDROOT
BRANCH   2   5
ATOM      5  CA  THR A   1      -9.740  17.808  67.810  1.00  0.00    -0.285 C  
ATOM      6  N   THR A   1     -10.332  17.831  69.165  1.00  0.00    -0.397 NA 
ATOM      7  C   THR A   1      -8.308  18.383  67.830  1.00  0.00    -0.262 C  
ATOM      8  OXT THR A   1      -7.658  18.593  68.848  1.00  0.00    -0.302 OA 
ATOM      9  O   THR A   1      -7.762  18.531  66.595  1.00  0.00    -0.227 OA 
ATOM     10  H1  THR A   1      -9.731  17.358  69.839  1.00  0.00     0.000 HD 
ATOM     11  H2  THR A   1     -11.276  17.444  69.168  1.00  0.00     0.000 HD 
ENDBRANCH   2   5
TORSDOF 1
ENDMDL
MODEL       91
REMARK 921   NORMALIZED FREE ENERGY PREDICTED BY IDOCK:   -2.47 KCAL/MOL
REMARK 922        TOTAL FREE ENERGY PREDICTED BY IDOCK:   -2.63 KCAL/MOL
REMARK 923 INTER-LIGAND FREE ENERGY PREDICTED BY IDOCK:   -2.60 KCAL/MOL
REMARK 924 INTRA-LIGAND FREE ENERGY PREDICTED BY IDOCK:   -0.02 KCAL/MOL
REMARK 927      BINDING AFFINITY PREDICTED BY RF-SCORE:    0.00 PKD
ROOT
ATOM      1  CG2 THR A   1      -9.398   8.768  71.486  1.00  0.00    -0.337 C  
ATOM      2  CB  THR A   1     -10.714   8.040  71.746  1.00  0.00    -0.240 C  
ATOM      3  HG1 THR A   1     -11.667   7.346  73.320  1.00  0.00     0.000 HD 
ATOM      4  OG1 THR A   1     -10.848   7.799  73.159  1.00  0.00    -0.389 OA 
ENDROOT
BRANCH   2   5
ATOM      5  CA  THR A   1     -11.966   8.786  71.241  1.00  0.00    -0.301 C  
ATOM      6  N   THR A   1     -11.973  10.193  71.697  1.00  0.00    -0.317 NA 
ATOM      7  C   THR A   1     -13.278   8.077  71.640  1.00  0.00    -0.330 C  
ATOM      8  OXT THR A   1     -14.281   8.652  72.047  1.00  0.00    -0.427 OA 
ATOM      9  O   THR A   1     -13.277   6.743  71.385  1.00  0.00    -0.261 OA 
ATOM     10  H1  THR A   1     -12.800  10.686  71.363  1.00  0.00     0.000 HD 
ATOM     11  H2  THR A   1     -11.115  10.676  71.430  1.00  0.00     0.000 HD 
ENDBRANCH   2   5
TORSDOF 1
ENDMDL
MODEL       92
REMARK 921   NORMALIZED FREE ENERGY PREDICTED BY IDOCK:   -2.47 KCAL/MOL
REMARK 922        TOTAL FREE ENERGY PREDICTED BY IDOCK:   -2.62 KCAL/MOL
REMARK 923 INTER-LIGAND FREE ENERGY PREDICTED BY IDOCK:   -2.99 KCAL/MOL
REMARK 924 INTRA-LIGAND FREE ENERGY PREDICTED BY IDOCK:    0.36 KCAL/MOL
REMARK 927      BINDING AFFINITY PREDICTED BY RF-SCORE:    0.00 PKD
ROOT
ATOM      1  CG2 THR A   1     -11.887   6.934  70.788  1.00  0.00    -0.427 C  
ATOM      2  CB  THR A   1     -12.186   7.900  71.932  1.00  0.00    -0.314 C  
ATOM      3  HG1 THR A   1     -11.445   8.260  73.717  1.00  0.00     0.000 HD 
ATOM      4  OG1 THR A   1     -11.259   7.659  73.006  1.00  0.00    -0.384 OA 
ENDROOT
BRANCH   2   5
ATOM      5  CA  THR A   1     -12.125   9.391  71.538  1.00  0.00    -0.379 C  
ATOM      6  N   THR A   1     -13.316   9.788  70.756  1.00  0.00    -0.606 NA 
ATOM      7  C   THR A   1     -10.829   9.750  70.780  1.00  0.00    -0.333 C  
ATOM      8  OXT THR A   1     -10.780  10.481  69.798  1.00  0.00    -0.258 OA 
ATOM      9  O   THR A   1      -9.702   9.278  71.373  1.00  0.00    -0.284 OA 
ATOM     10  H1  THR A   1     -13.276  10.773  70.496  1.00  0.00     0.000 HD 
ATOM     11  H2  THR A   1     -14.180   9.566  71.251  1.00  0.00     0.000 HD 
ENDBRANCH   2   5
TORSDOF 1
ENDMDL
MODEL       93
REMARK 921   NORMALIZED FREE ENERGY PREDICTED BY IDOCK:   -2.46 KCAL/MOL
REMARK 922        TOTAL FREE ENERGY PREDICTED BY IDOCK:   -2.61 KCAL/MOL
REMARK 923 INTER-LIGAND FREE ENERGY PREDICTED BY IDOCK:   -2.55 KCAL/MOL
REMARK 924 INTRA-LIGAND FREE ENERGY PREDICTED BY IDOCK:   -0.06 KCAL/MOL
REMARK 927      BINDING AFFINITY PREDICTED BY RF-SCORE:    0.00 PKD
ROOT
ATOM      1  CG2 THR A   1     -10.060  20.043  67.169  1.00  0.00    -0.587 C  
ATOM      2  CB  THR A   1      -9.588  18.647  67.565  1.00  0.00    -0.294 C  
ATOM      3  HG1 THR A   1     -10.139  16.799  67.179  1.00  0.00     0.000 HD 
ATOM      4  OG1 THR A   1     -10.432  17.668  66.932  1.00  0.00    -0.329 OA 
ENDROOT
BRANCH   2   5
ATOM      5  CA  THR A   1      -8.117  18.347  67.211  1.00  0.00    -0.240 C  
ATOM      6  N   THR A   1      -7.867  18.523  65.764  1.00  0.00    -0.499 NA 
ATOM      7  C   THR A   1      -7.671  16.945  67.676  1.00  0.00    -0.165 C  
ATOM      8  OXT THR A   1      -6.980  16.180  67.011  1.00  0.00    -0.201 OA 
ATOM      9  O   THR A   1      -8.009  16.663  68.961  1.00  0.00    -0.240 OA 
ATOM     10  H1  THR A   1      -6.895  18.325  65.529  1.00  0.00     0.000 HD 
ATOM     11  H2  THR A   1      -8.149  19.450  65.445  1.00  0.00     0.000 HD 
ENDBRANCH   2   5
TORSDOF 1
ENDMDL
MODEL       94
REMARK 921   NORMALIZED FREE ENERGY PREDICTED BY IDOCK:   -2.44 KCAL/MOL
REMARK 922        TOTAL FREE ENERGY PREDICTED BY IDOCK:   -2.59 KCAL/MOL
REMARK 923 INTER-LIGAND FREE ENERGY PREDICTED BY IDOCK:   -2.65 KCAL/MOL
REMARK 924 INTRA-LIGAND FREE ENERGY PREDICTED BY IDOCK:    0.05 KCAL/MOL
REMARK 927      BINDING AFFINITY PREDICTED BY RF-SCORE:    0.00 PKD
ROOT
ATOM      1  CG2 THR A   1      -7.450  20.365  67.040  1.00  0.00    -0.356 C  
ATOM      2  CB  THR A   1      -8.770  19.960  67.693  1.00  0.00    -0.334 C  
ATOM      3  HG1 THR A   1     -10.632  20.590  67.641  1.00  0.00     0.000 HD 
ATOM      4  OG1 THR A   1      -9.811  20.842  67.235  1.00  0.00    -0.474 OA 
ENDROOT
BRANCH   2   5
ATOM      5  CA  THR A   1      -9.191  18.500  67.425  1.00  0.00    -0.278 C  
ATOM      6  N   THR A   1     -10.645  18.400  67.173  1.00  0.00    -0.402 NA 
ATOM      7  C   THR A   1      -8.766  17.545  68.560  1.00  0.00    -0.282 C  
ATOM      8  OXT THR A   1      -9.471  16.651  69.015  1.00  0.00    -0.259 OA 
ATOM      9  O   THR A   1      -7.472  17.695  68.944  1.00  0.00    -0.262 OA 
ATOM     10  H1  THR A   1     -10.924  17.435  66.996  1.00  0.00     0.000 HD 
ATOM     11  H2  THR A   1     -10.938  19.019  66.418  1.00  0.00     0.000 HD 
ENDBRANCH   2   5
TORSDOF 1
ENDMDL
MODEL       95
REMARK 921   NORMALIZED FREE ENERGY PREDICTED BY IDOCK:   -2.44 KCAL/MOL
REMARK 922        TOTAL FREE ENERGY PREDICTED BY IDOCK:   -2.59 KCAL/MOL
REMARK 923 INTER-LIGAND FREE ENERGY PREDICTED BY IDOCK:   -2.58 KCAL/MOL
REMARK 924 INTRA-LIGAND FREE ENERGY PREDICTED BY IDOCK:   -0.01 KCAL/MOL
REMARK 927      BINDING AFFINITY PREDICTED BY RF-SCORE:    0.00 PKD
ROOT
ATOM      1  CG2 THR A   1     -10.580  13.134  68.175  1.00  0.00    -0.257 C  
ATOM      2  CB  THR A   1     -10.595  14.466  67.430  1.00  0.00    -0.270 C  
ATOM      3  HG1 THR A   1     -10.707  16.367  67.920  1.00  0.00     0.000 HD 
ATOM      4  OG1 THR A   1     -10.697  15.539  68.384  1.00  0.00    -0.247 OA 
ENDROOT
BRANCH   2   5
ATOM      5  CA  THR A   1      -9.364  14.707  66.531  1.00  0.00    -0.288 C  
ATOM      6  N   THR A   1      -8.108  14.399  67.249  1.00  0.00    -0.235 NA 
ATOM      7  C   THR A   1      -9.326  16.137  65.953  1.00  0.00    -0.281 C  
ATOM      8  OXT THR A   1      -8.315  16.828  65.875  1.00  0.00    -0.463 OA 
ATOM      9  O   THR A   1     -10.505  16.539  65.411  1.00  0.00    -0.543 OA 
ATOM     10  H1  THR A   1      -7.295  14.558  66.655  1.00  0.00     0.000 HD 
ATOM     11  H2  THR A   1      -8.116  13.453  67.628  1.00  0.00     0.000 HD 
ENDBRANCH   2   5
TORSDOF 1
ENDMDL
MODEL       96
REMARK 921   NORMALIZED FREE ENERGY PREDICTED BY IDOCK:   -2.43 KCAL/MOL
REMARK 922        TOTAL FREE ENERGY PREDICTED BY IDOCK:   -2.58 KCAL/MOL
REMARK 923 INTER-LIGAND FREE ENERGY PREDICTED BY IDOCK:   -2.55 KCAL/MOL
REMARK 924 INTRA-LIGAND FREE ENERGY PREDICTED BY IDOCK:   -0.03 KCAL/MOL
REMARK 927      BINDING AFFINITY PREDICTED BY RF-SCORE:    0.00 PKD
ROOT
ATOM      1  CG2 THR A   1      -9.638  12.338  66.395  1.00  0.00    -0.242 C  
ATOM      2  CB  THR A   1      -9.575  12.443  67.917  1.00  0.00    -0.205 C  
ATOM      3  HG1 THR A   1      -8.325  13.191  69.238  1.00  0.00     0.000 HD 
ATOM      4  OG1 THR A   1      -8.364  13.126  68.291  1.00  0.00    -0.152 OA 
ENDROOT
BRANCH   2   5
ATOM      5  CA  THR A   1     -10.779  13.164  68.556  1.00  0.00    -0.259 C  
ATOM      6  N   THR A   1     -10.337  14.240  69.469  1.00  0.00    -0.436 NA 
ATOM      7  C   THR A   1     -11.733  12.191  69.281  1.00  0.00    -0.328 C  
ATOM      8  OXT THR A   1     -12.252  12.411  70.370  1.00  0.00    -0.346 OA 
ATOM      9  O   THR A   1     -12.058  11.097  68.546  1.00  0.00    -0.586 OA 
ATOM     10  H1  THR A   1     -11.132  14.717  69.892  1.00  0.00     0.000 HD 
ATOM     11  H2  THR A   1      -9.713  14.897  69.000  1.00  0.00     0.000 HD 
ENDBRANCH   2   5
TORSDOF 1
ENDMDL
MODEL       97
REMARK 921   NORMALIZED FREE ENERGY PREDICTED BY IDOCK:   -2.43 KCAL/MOL
REMARK 922        TOTAL FREE ENERGY PREDICTED BY IDOCK:   -2.58 KCAL/MOL
REMARK 923 INTER-LIGAND FREE ENERGY PREDICTED BY IDOCK:   -2.55 KCAL/MOL
REMARK 924 INTRA-LIGAND FREE ENERGY PREDICTED BY IDOCK:   -0.03 KCAL/MOL
REMARK 927      BINDING AFFINITY PREDICTED BY RF-SCORE:    0.00 PKD
ROOT
ATOM      1  CG2 THR A   1     -11.468   6.371  70.173  1.00  0.00    -0.484 C  
ATOM      2  CB  THR A   1     -11.418   7.507  71.192  1.00  0.00    -0.273 C  
ATOM      3  HG1 THR A   1     -12.701   8.409  72.377  1.00  0.00     0.000 HD 
ATOM      4  OG1 THR A   1     -12.733   7.702  71.744  1.00  0.00    -0.318 OA 
ENDROOT
BRANCH   2   5
ATOM      5  CA  THR A   1     -10.415   7.287  72.343  1.00  0.00    -0.229 C  
ATOM      6  N   THR A   1     -11.065   7.459  73.661  1.00  0.00    -0.549 NA 
ATOM      7  C   THR A   1      -9.172   8.194  72.225  1.00  0.00    -0.201 C  
ATOM      8  OXT THR A   1      -8.648   8.780  73.166  1.00  0.00    -0.366 OA 
ATOM      9  O   THR A   1      -8.615   8.197  70.987  1.00  0.00    -0.125 OA 
ATOM     10  H1  THR A   1     -10.403   7.313  74.421  1.00  0.00     0.000 HD 
ATOM     11  H2  THR A   1     -11.883   6.858  73.756  1.00  0.00     0.000 HD 
ENDBRANCH   2   5
TORSDOF 1
ENDMDL
MODEL       98
REMARK 921   NORMALIZED FREE ENERGY PREDICTED BY IDOCK:   -2.42 KCAL/MOL
REMARK 922        TOTAL FREE ENERGY PREDICTED BY IDOCK:   -2.58 KCAL/MOL
REMARK 923 INTER-LIGAND FREE ENERGY PREDICTED BY IDOCK:   -2.53 KCAL/MOL
REMARK 924 INTRA-LIGAND FREE ENERGY PREDICTED BY IDOCK:   -0.04 KCAL/MOL
REMARK 927      BINDING AFFINITY PREDICTED BY RF-SCORE:    0.00 PKD
ROOT
ATOM      1  CG2 THR A   1     -13.388   9.130  72.330  1.00  0.00    -0.540 C  
ATOM      2  CB  THR A   1     -12.370   9.348  71.213  1.00  0.00    -0.341 C  
ATOM      3  HG1 THR A   1     -11.467  10.891  70.396  1.00  0.00     0.000 HD 
ATOM      4  OG1 THR A   1     -12.100  10.756  71.090  1.00  0.00    -0.341 OA 
ENDROOT
BRANCH   2   5
ATOM      5  CA  THR A   1     -11.038   8.594  71.410  1.00  0.00    -0.274 C  
ATOM      6  N   THR A   1      -9.889   9.525  71.401  1.00  0.00    -0.241 NA 
ATOM      7  C   THR A   1     -10.837   7.469  70.373  1.00  0.00    -0.244 C  
ATOM      8  OXT THR A   1      -9.777   7.230  69.804  1.00  0.00    -0.166 OA 
ATOM      9  O   THR A   1     -11.921   6.665  70.223  1.00  0.00    -0.387 OA 
ATOM     10  H1  THR A   1      -9.009   9.028  71.531  1.00  0.00     0.000 HD 
ATOM     11  H2  THR A   1     -10.004  10.269  72.089  1.00  0.00     0.000 HD 
ENDBRANCH   2   5
TORSDOF 1
ENDMDL
MODEL       99
REMARK 921   NORMALIZED FREE ENERGY PREDICTED BY IDOCK:   -2.41 KCAL/MOL
REMARK 922        TOTAL FREE ENERGY PREDICTED BY IDOCK:   -2.56 KCAL/MOL
REMARK 923 INTER-LIGAND FREE ENERGY PREDICTED BY IDOCK:   -2.52 KCAL/MOL
REMARK 924 INTRA-LIGAND FREE ENERGY PREDICTED BY IDOCK:   -0.04 KCAL/MOL
REMARK 927      BINDING AFFINITY PREDICTED BY RF-SCORE:    0.00 PKD
ROOT
ATOM      1  CG2 THR A   1     -10.763  18.866  67.324  1.00  0.00    -0.523 C  
ATOM      2  CB  THR A   1      -9.997  18.214  68.472  1.00  0.00    -0.395 C  
ATOM      3  HG1 THR A   1     -10.307  16.730  69.725  1.00  0.00     0.000 HD 
ATOM      4  OG1 THR A   1     -10.784  17.136  69.011  1.00  0.00    -0.309 OA 
ENDROOT
BRANCH   2   5
ATOM      5  CA  THR A   1      -8.604  17.676  68.083  1.00  0.00    -0.261 C  
ATOM      6  N   THR A   1      -8.461  16.248  68.443  1.00  0.00    -0.187 NA 
ATOM      7  C   THR A   1      -7.458  18.509  68.694  1.00  0.00    -0.301 C  
ATOM      8  OXT THR A   1      -6.441  18.034  69.188  1.00  0.00    -0.233 OA 
ATOM      9  O   THR A   1      -7.609  19.849  68.529  1.00  0.00    -0.316 OA 
ATOM     10  H1  THR A   1      -7.541  15.892  68.186  1.00  0.00     0.000 HD 
ATOM     11  H2  THR A   1      -9.208  15.684  68.037  1.00  0.00     0.000 HD 
ENDBRANCH   2   5
TORSDOF 1
ENDMDL
MODEL      100
REMARK 921   NORMALIZED FREE ENERGY PREDICTED BY IDOCK:   -2.39 KCAL/MOL
REMARK 922        TOTAL FREE ENERGY PREDICTED BY IDOCK:   -2.54 KCAL/MOL
REMARK 923 INTER-LIGAND FREE ENERGY PREDICTED BY IDOCK:   -2.48 KCAL/MOL
REMARK 924 INTRA-LIGAND FREE ENERGY PREDICTED BY IDOCK:   -0.05 KCAL/MOL
REMARK 927      BINDING AFFINITY PREDICTED BY RF-SCORE:    0.00 PKD
ROOT
ATOM      1  CG2 THR A   1      -9.489   9.960  69.775  1.00  0.00    -0.254 C  
ATOM      2  CB  THR A   1      -9.814  10.461  68.370  1.00  0.00    -0.162 C  
ATOM      3  HG1 THR A   1     -10.459   9.664  66.692  1.00  0.00     0.000 HD 
ATOM      4  OG1 THR A   1     -10.257   9.353  67.566  1.00  0.00    -0.200 OA 
ENDROOT
BRANCH   2   5
ATOM      5  CA  THR A   1     -10.880  11.576  68.322  1.00  0.00    -0.216 C  
ATOM      6  N   THR A   1     -12.239  11.027  68.520  1.00  0.00    -0.781 NA 
ATOM      7  C   THR A   1     -10.810  12.404  67.022  1.00  0.00    -0.246 C  
ATOM      8  OXT THR A   1     -11.788  12.769  66.379  1.00  0.00    -0.382 OA 
ATOM      9  O   THR A   1      -9.555  12.812  66.702  1.00  0.00    -0.242 OA 
ATOM     10  H1  THR A   1     -12.943  11.763  68.489  1.00  0.00     0.000 HD 
ATOM     11  H2  THR A   1     -12.302  10.484  69.382  1.00  0.00     0.000 HD 
ENDBRANCH   2   5
TORSDOF 1
ENDMDL
MODEL      101
REMARK 921   NORMALIZED FREE ENERGY PREDICTED BY IDOCK:   -2.38 KCAL/MOL
REMARK 922        TOTAL FREE ENERGY PREDICTED BY IDOCK:   -2.53 KCAL/MOL
REMARK 923 INTER-LIGAND FREE ENERGY PREDICTED BY IDOCK:   -2.88 KCAL/MOL
REMARK 924 INTRA-LIGAND FREE ENERGY PREDICTED BY IDOCK:    0.34 KCAL/MOL
REMARK 927      BINDING AFFINITY PREDICTED BY RF-SCORE:    0.00 PKD
ROOT
ATOM      1  CG2 THR A   1      -7.834  19.461  68.669  1.00  0.00    -0.399 C  
ATOM      2  CB  THR A   1      -7.969  18.069  68.057  1.00  0.00    -0.255 C  
ATOM      3  HG1 THR A   1      -8.859  16.384  68.543  1.00  0.00     0.000 HD 
ATOM      4  OG1 THR A   1      -8.775  17.250  68.923  1.00  0.00    -0.257 OA 
ENDROOT
BRANCH   2   5
ATOM      5  CA  THR A   1      -8.576  18.052  66.639  1.00  0.00    -0.263 C  
ATOM      6  N   THR A   1      -7.566  18.405  65.618  1.00  0.00    -0.518 NA 
ATOM      7  C   THR A   1      -9.817  18.963  66.517  1.00  0.00    -0.368 C  
ATOM      8  OXT THR A   1     -10.046  19.699  65.563  1.00  0.00    -0.378 OA 
ATOM      9  O   THR A   1     -10.719  18.793  67.517  1.00  0.00    -0.438 OA 
ATOM     10  H1  THR A   1      -7.967  18.394  64.681  1.00  0.00     0.000 HD 
ATOM     11  H2  THR A   1      -6.744  17.804  65.682  1.00  0.00     0.000 HD 
ENDBRANCH   2   5
TORSDOF 1
ENDMDL
MODEL      102
REMARK 921   NORMALIZED FREE ENERGY PREDICTED BY IDOCK:   -2.37 KCAL/MOL
REMARK 922        TOTAL FREE ENERGY PREDICTED BY IDOCK:   -2.52 KCAL/MOL
REMARK 923 INTER-LIGAND FREE ENERGY PREDICTED BY IDOCK:   -2.46 KCAL/MOL
REMARK 924 INTRA-LIGAND FREE ENERGY PREDICTED BY IDOCK:   -0.06 KCAL/MOL
REMARK 927      BINDING AFFINITY PREDICTED BY RF-SCORE:    0.00 PKD
ROOT
ATOM      1  CG2 THR A   1      -9.369  12.550  67.424  1.00  0.00    -0.187 C  
ATOM      2  CB  THR A   1      -9.324  14.041  67.101  1.00  0.00    -0.242 C  
ATOM      3  HG1 THR A   1      -7.983  15.306  66.415  1.00  0.00     0.000 HD 
ATOM      4  OG1 THR A   1      -8.012  14.378  66.616  1.00  0.00     0.160 OA 
ENDROOT
BRANCH   2   5
ATOM      5  CA  THR A   1     -10.376  14.502  66.071  1.00  0.00    -0.309 C  
ATOM      6  N   THR A   1     -10.242  13.760  64.799  1.00  0.00    -0.588 NA 
ATOM      7  C   THR A   1     -10.331  16.025  65.822  1.00  0.00    -0.378 C  
ATOM      8  OXT THR A   1     -10.426  16.551  64.719  1.00  0.00    -0.617 OA 
ATOM      9  O   THR A   1     -10.297  16.763  66.961  1.00  0.00    -0.298 OA 
ATOM     10  H1  THR A   1     -10.937  14.065  64.118  1.00  0.00     0.000 HD 
ATOM     11  H2  THR A   1     -10.280  12.752  64.948  1.00  0.00     0.000 HD 
ENDBRANCH   2   5
TORSDOF 1
ENDMDL
MODEL      103
REMARK 921   NORMALIZED FREE ENERGY PREDICTED BY IDOCK:   -2.36 KCAL/MOL
REMARK 922        TOTAL FREE ENERGY PREDICTED BY IDOCK:   -2.51 KCAL/MOL
REMARK 923 INTER-LIGAND FREE ENERGY PREDICTED BY IDOCK:   -2.46 KCAL/MOL
REMARK 924 INTRA-LIGAND FREE ENERGY PREDICTED BY IDOCK:   -0.06 KCAL/MOL
REMARK 927      BINDING AFFINITY PREDICTED BY RF-SCORE:    0.00 PKD
ROOT
ATOM      1  CG2 THR A   1     -11.789  14.501  68.023  1.00  0.00    -0.350 C  
ATOM      2  CB  THR A   1     -11.153  13.119  68.154  1.00  0.00    -0.255 C  
ATOM      3  HG1 THR A   1      -9.388  12.409  68.654  1.00  0.00     0.000 HD 
ATOM      4  OG1 THR A   1      -9.784  13.269  68.573  1.00  0.00    -0.215 OA 
ENDROOT
BRANCH   2   5
ATOM      5  CA  THR A   1     -11.879  12.173  69.132  1.00  0.00    -0.305 C  
ATOM      6  N   THR A   1     -11.980  12.771  70.481  1.00  0.00    -0.532 NA 
ATOM      7  C   THR A   1     -11.222  10.778  69.201  1.00  0.00    -0.262 C  
ATOM      8  OXT THR A   1     -11.042  10.146  70.237  1.00  0.00    -0.273 OA 
ATOM      9  O   THR A   1     -10.962  10.236  67.983  1.00  0.00    -0.263 OA 
ATOM     10  H1  THR A   1     -12.461  12.146  71.127  1.00  0.00     0.000 HD 
ATOM     11  H2  THR A   1     -12.422  13.690  70.451  1.00  0.00     0.000 HD 
ENDBRANCH   2   5
TORSDOF 1
ENDMDL
MODEL      104
REMARK 921   NORMALIZED FREE ENERGY PREDICTED BY IDOCK:   -2.36 KCAL/MOL
REMARK 922        TOTAL FREE ENERGY PREDICTED BY IDOCK:   -2.51 KCAL/MOL
REMARK 923 INTER-LIGAND FREE ENERGY PREDICTED BY IDOCK:   -2.46 KCAL/MOL
REMARK 924 INTRA-LIGAND FREE ENERGY PREDICTED BY IDOCK:   -0.05 KCAL/MOL
REMARK 927      BINDING AFFINITY PREDICTED BY RF-SCORE:    0.00 PKD
ROOT
ATOM      1  CG2 THR A   1     -10.034  17.116  68.244  1.00  0.00    -0.300 C  
ATOM      2  CB  THR A   1      -9.785  18.605  68.018  1.00  0.00    -0.321 C  
ATOM      3  HG1 THR A   1     -10.125  20.268  69.010  1.00  0.00     0.000 HD 
ATOM      4  OG1 THR A   1     -10.280  19.342  69.150  1.00  0.00    -0.340 OA 
ENDROOT
BRANCH   2   5
ATOM      5  CA  THR A   1      -8.306  18.975  67.783  1.00  0.00    -0.288 C  
ATOM      6  N   THR A   1      -7.571  19.083  69.062  1.00  0.00    -0.312 NA 
ATOM      7  C   THR A   1      -8.145  20.264  66.950  1.00  0.00    -0.299 C  
ATOM      8  OXT THR A   1      -7.327  21.146  67.188  1.00  0.00    -0.400 OA 
ATOM      9  O   THR A   1      -8.916  20.292  65.832  1.00  0.00    -0.199 OA 
ATOM     10  H1  THR A   1      -6.593  19.328  68.907  1.00  0.00     0.000 HD 
ATOM     11  H2  THR A   1      -7.661  18.233  69.618  1.00  0.00     0.000 HD 
ENDBRANCH   2   5
TORSDOF 1
ENDMDL
MODEL      105
REMARK 921   NORMALIZED FREE ENERGY PREDICTED BY IDOCK:   -2.35 KCAL/MOL
REMARK 922        TOTAL FREE ENERGY PREDICTED BY IDOCK:   -2.50 KCAL/MOL
REMARK 923 INTER-LIGAND FREE ENERGY PREDICTED BY IDOCK:   -2.44 KCAL/MOL
REMARK 924 INTRA-LIGAND FREE ENERGY PREDICTED BY IDOCK:   -0.06 KCAL/MOL
REMARK 927      BINDING AFFINITY PREDICTED BY RF-SCORE:    0.00 PKD
ROOT
ATOM      1  CG2 THR A   1     -12.347  14.382  69.949  1.00  0.00    -0.365 C  
ATOM      2  CB  THR A   1     -11.542  15.169  68.918  1.00  0.00    -0.341 C  
ATOM      3  HG1 THR A   1     -10.186  16.593  68.961  1.00  0.00     0.000 HD 
ATOM      4  OG1 THR A   1     -10.687  16.103  69.602  1.00  0.00    -0.277 OA 
ENDROOT
BRANCH   2   5
ATOM      5  CA  THR A   1     -10.684  14.296  67.978  1.00  0.00    -0.238 C  
ATOM      6  N   THR A   1      -9.710  13.485  68.740  1.00  0.00    -0.411 NA 
ATOM      7  C   THR A   1      -9.971  15.126  66.890  1.00  0.00    -0.239 C  
ATOM      8  OXT THR A   1      -8.810  14.953  66.535  1.00  0.00    -0.266 OA 
ATOM      9  O   THR A   1     -10.785  16.007  66.253  1.00  0.00    -0.301 OA 
ATOM     10  H1  THR A   1      -9.143  12.908  68.119  1.00  0.00     0.000 HD 
ATOM     11  H2  THR A   1     -10.170  12.924  69.457  1.00  0.00     0.000 HD 
ENDBRANCH   2   5
TORSDOF 1
ENDMDL
MODEL      106
REMARK 921   NORMALIZED FREE ENERGY PREDICTED BY IDOCK:   -2.35 KCAL/MOL
REMARK 922        TOTAL FREE ENERGY PREDICTED BY IDOCK:   -2.49 KCAL/MOL
REMARK 923 INTER-LIGAND FREE ENERGY PREDICTED BY IDOCK:   -2.45 KCAL/MOL
REMARK 924 INTRA-LIGAND FREE ENERGY PREDICTED BY IDOCK:   -0.05 KCAL/MOL
REMARK 927      BINDING AFFINITY PREDICTED BY RF-SCORE:    0.00 PKD
ROOT
ATOM      1  CG2 THR A   1      -8.726   5.154  71.743  1.00  0.00    -0.136 C  
ATOM      2  CB  THR A   1     -10.174   5.289  72.205  1.00  0.00    -0.199 C  
ATOM      3  HG1 THR A   1     -11.178   4.929  73.857  1.00  0.00     0.000 HD 
ATOM      4  OG1 THR A   1     -10.277   4.845  73.570  1.00  0.00    -0.160 OA 
ENDROOT
BRANCH   2   5
ATOM      5  CA  THR A   1     -10.747   6.718  72.095  1.00  0.00    -0.220 C  
ATOM      6  N   THR A   1     -11.188   7.221  73.414  1.00  0.00    -0.571 NA 
ATOM      7  C   THR A   1     -11.890   6.818  71.063  1.00  0.00    -0.376 C  
ATOM      8  OXT THR A   1     -12.925   7.452  71.233  1.00  0.00    -0.351 OA 
ATOM      9  O   THR A   1     -11.601   6.234  69.871  1.00  0.00    -0.435 OA 
ATOM     10  H1  THR A   1     -11.566   8.165  73.342  1.00  0.00     0.000 HD 
ATOM     11  H2  THR A   1     -10.438   7.170  74.104  1.00  0.00     0.000 HD 
ENDBRANCH   2   5
TORSDOF 1
ENDMDL
MODEL      107
REMARK 921   NORMALIZED FREE ENERGY PREDICTED BY IDOCK:   -2.34 KCAL/MOL
REMARK 922        TOTAL FREE ENERGY PREDICTED BY IDOCK:   -2.49 KCAL/MOL
REMARK 923 INTER-LIGAND FREE ENERGY PREDICTED BY IDOCK:   -2.44 KCAL/MOL
REMARK 924 INTRA-LIGAND FREE ENERGY PREDICTED BY IDOCK:   -0.04 KCAL/MOL
REMARK 927      BINDING AFFINITY PREDICTED BY RF-SCORE:    0.00 PKD
ROOT
ATOM      1  CG2 THR A   1      -9.922  11.950  68.401  1.00  0.00    -0.203 C  
ATOM      2  CB  THR A   1      -9.915  12.719  67.082  1.00  0.00    -0.218 C  
ATOM      3  HG1 THR A   1      -8.664  13.905  66.136  1.00  0.00     0.000 HD 
ATOM      4  OG1 THR A   1      -8.668  13.427  66.957  1.00  0.00    -0.216 OA 
ENDROOT
BRANCH   2   5
ATOM      5  CA  THR A   1     -10.124  11.840  65.831  1.00  0.00    -0.234 C  
ATOM      6  N   THR A   1      -8.841  11.557  65.155  1.00  0.00    -0.393 NA 
ATOM      7  C   THR A   1     -11.140  12.452  64.843  1.00  0.00    -0.303 C  
ATOM      8  OXT THR A   1     -10.999  12.468  63.625  1.00  0.00    -0.421 OA 
ATOM      9  O   THR A   1     -12.288  12.875  65.432  1.00  0.00    -0.457 OA 
ATOM     10  H1  THR A   1      -8.979  10.976  64.328  1.00  0.00     0.000 HD 
ATOM     11  H2  THR A   1      -8.163  11.143  65.795  1.00  0.00     0.000 HD 
ENDBRANCH   2   5
TORSDOF 1
ENDMDL
MODEL      108
REMARK 921   NORMALIZED FREE ENERGY PREDICTED BY IDOCK:   -2.34 KCAL/MOL
REMARK 922        TOTAL FREE ENERGY PREDICTED BY IDOCK:   -2.49 KCAL/MOL
REMARK 923 INTER-LIGAND FREE ENERGY PREDICTED BY IDOCK:   -2.44 KCAL/MOL
REMARK 924 INTRA-LIGAND FREE ENERGY PREDICTED BY IDOCK:   -0.05 KCAL/MOL
REMARK 927      BINDING AFFINITY PREDICTED BY RF-SCORE:    0.00 PKD
ROOT
ATOM      1  CG2 THR A   1      -8.557  15.379  66.480  1.00  0.00    -0.294 C  
ATOM      2  CB  THR A   1      -9.885  15.059  67.161  1.00  0.00    -0.233 C  
ATOM      3  HG1 THR A   1     -11.154  13.556  67.164  1.00  0.00     0.000 HD 
ATOM      4  OG1 THR A   1     -10.327  13.756  66.740  1.00  0.00    -0.266 OA 
ENDROOT
BRANCH   2   5
ATOM      5  CA  THR A   1      -9.836  15.100  68.703  1.00  0.00    -0.218 C  
ATOM      6  N   THR A   1     -10.216  13.796  69.287  1.00  0.00    -0.426 NA 
ATOM      7  C   THR A   1     -10.703  16.234  69.290  1.00  0.00    -0.307 C  
ATOM      8  OXT THR A   1     -11.423  16.118  70.276  1.00  0.00    -0.346 OA 
ATOM      9  O   THR A   1     -10.510  17.436  68.688  1.00  0.00    -0.352 OA 
ATOM     10  H1  THR A   1     -10.184  13.823  70.305  1.00  0.00     0.000 HD 
ATOM     11  H2  THR A   1      -9.644  13.038  68.914  1.00  0.00     0.000 HD 
ENDBRANCH   2   5
TORSDOF 1
ENDMDL
MODEL      109
REMARK 921   NORMALIZED FREE ENERGY PREDICTED BY IDOCK:   -2.33 KCAL/MOL
REMARK 922        TOTAL FREE ENERGY PREDICTED BY IDOCK:   -2.48 KCAL/MOL
REMARK 923 INTER-LIGAND FREE ENERGY PREDICTED BY IDOCK:   -2.42 KCAL/MOL
REMARK 924 INTRA-LIGAND FREE ENERGY PREDICTED BY IDOCK:   -0.06 KCAL/MOL
REMARK 927      BINDING AFFINITY PREDICTED BY RF-SCORE:    0.00 PKD
ROOT
ATOM      1  CG2 THR A   1      -9.094   7.421  70.200  1.00  0.00    -0.148 C  
ATOM      2  CB  THR A   1     -10.522   7.960  70.250  1.00  0.00    -0.225 C  
ATOM      3  HG1 THR A   1     -12.332   7.197  70.171  1.00  0.00     0.000 HD 
ATOM      4  OG1 THR A   1     -11.444   6.861  70.140  1.00  0.00    -0.312 OA 
ENDROOT
BRANCH   2   5
ATOM      5  CA  THR A   1     -10.853   8.770  71.521  1.00  0.00    -0.304 C  
ATOM      6  N   THR A   1     -11.038   7.883  72.689  1.00  0.00    -0.359 NA 
ATOM      7  C   THR A   1     -12.078   9.689  71.333  1.00  0.00    -0.388 C  
ATOM      8  OXT THR A   1     -12.963   9.846  72.168  1.00  0.00    -0.411 OA 
ATOM      9  O   THR A   1     -12.040  10.424  70.192  1.00  0.00    -0.275 OA 
ATOM     10  H1  THR A   1     -11.256   8.418  73.529  1.00  0.00     0.000 HD 
ATOM     11  H2  THR A   1     -10.230   7.277  72.831  1.00  0.00     0.000 HD 
ENDBRANCH   2   5
TORSDOF 1
ENDMDL
MODEL      110
REMARK 921   NORMALIZED FREE ENERGY PREDICTED BY IDOCK:   -2.33 KCAL/MOL
REMARK 922        TOTAL FREE ENERGY PREDICTED BY IDOCK:   -2.48 KCAL/MOL
REMARK 923 INTER-LIGAND FREE ENERGY PREDICTED BY IDOCK:   -2.41 KCAL/MOL
REMARK 924 INTRA-LIGAND FREE ENERGY PREDICTED BY IDOCK:   -0.06 KCAL/MOL
REMARK 927      BINDING AFFINITY PREDICTED BY RF-SCORE:    0.00 PKD
ROOT
ATOM      1  CG2 THR A   1     -10.675   9.947  67.622  1.00  0.00    -0.339 C  
ATOM      2  CB  THR A   1     -10.696  11.239  68.435  1.00  0.00    -0.203 C  
ATOM      3  HG1 THR A   1      -9.411  12.659  68.882  1.00  0.00     0.000 HD 
ATOM      4  OG1 THR A   1      -9.397  11.855  68.375  1.00  0.00    -0.199 OA 
ENDROOT
BRANCH   2   5
ATOM      5  CA  THR A   1     -11.760  12.260  67.981  1.00  0.00    -0.356 C  
ATOM      6  N   THR A   1     -11.488  12.744  66.610  1.00  0.00    -0.330 NA 
ATOM      7  C   THR A   1     -11.898  13.445  68.961  1.00  0.00    -0.335 C  
ATOM      8  OXT THR A   1     -12.019  14.617  68.620  1.00  0.00    -0.315 OA 
ATOM      9  O   THR A   1     -11.999  13.069  70.262  1.00  0.00    -0.337 OA 
ATOM     10  H1  THR A   1     -12.190  13.419  66.310  1.00  0.00     0.000 HD 
ATOM     11  H2  THR A   1     -11.404  11.971  65.950  1.00  0.00     0.000 HD 
ENDBRANCH   2   5
TORSDOF 1
ENDMDL
MODEL      111
REMARK 921   NORMALIZED FREE ENERGY PREDICTED BY IDOCK:   -2.32 KCAL/MOL
REMARK 922        TOTAL FREE ENERGY PREDICTED BY IDOCK:   -2.47 KCAL/MOL
REMARK 923 INTER-LIGAND FREE ENERGY PREDICTED BY IDOCK:   -2.43 KCAL/MOL
REMARK 924 INTRA-LIGAND FREE ENERGY PREDICTED BY IDOCK:   -0.04 KCAL/MOL
REMARK 927      BINDING AFFINITY PREDICTED BY RF-SCORE:    0.00 PKD
ROOT
ATOM      1  CG2 THR A   1      -9.371  19.054  68.614  1.00  0.00    -0.428 C  
ATOM      2  CB  THR A   1     -10.223  17.810  68.380  1.00  0.00    -0.384 C  
ATOM      3  HG1 THR A   1     -10.745  16.716  66.831  1.00  0.00     0.000 HD 
ATOM      4  OG1 THR A   1     -10.214  17.490  66.977  1.00  0.00    -0.307 OA 
ENDROOT
BRANCH   2   5
ATOM      5  CA  THR A   1      -9.776  16.570  69.183  1.00  0.00    -0.241 C  
ATOM      6  N   THR A   1      -8.338  16.289  68.977  1.00  0.00    -0.242 NA 
ATOM      7  C   THR A   1     -10.627  15.323  68.866  1.00  0.00    -0.242 C  
ATOM      8  OXT THR A   1     -10.174  14.194  68.713  1.00  0.00    -0.233 OA 
ATOM      9  O   THR A   1     -11.965  15.554  68.889  1.00  0.00    -0.351 OA 
ATOM     10  H1  THR A   1      -8.042  15.471  69.507  1.00  0.00     0.000 HD 
ATOM     11  H2  THR A   1      -7.763  17.103  69.192  1.00  0.00     0.000 HD 
ENDBRANCH   2   5
TORSDOF 1
ENDMDL
MODEL      112
REMARK 921   NORMALIZED FREE ENERGY PREDICTED BY IDOCK:   -2.32 KCAL/MOL
REMARK 922        TOTAL FREE ENERGY PREDICTED BY IDOCK:   -2.47 KCAL/MOL
REMARK 923 INTER-LIGAND FREE ENERGY PREDICTED BY IDOCK:   -2.57 KCAL/MOL
REMARK 924 INTRA-LIGAND FREE ENERGY PREDICTED BY IDOCK:    0.10 KCAL/MOL
REMARK 927      BINDING AFFINITY PREDICTED BY RF-SCORE:    0.00 PKD
ROOT
ATOM      1  CG2 THR A   1      -7.614  16.945  66.478  1.00  0.00    -0.328 C  
ATOM      2  CB  THR A   1      -7.976  18.397  66.781  1.00  0.00    -0.244 C  
ATOM      3  HG1 THR A   1      -9.388  19.652  66.235  1.00  0.00     0.000 HD 
ATOM      4  OG1 THR A   1      -9.162  18.749  66.046  1.00  0.00    -0.476 OA 
ENDROOT
BRANCH   2   5
ATOM      5  CA  THR A   1      -8.203  18.698  68.278  1.00  0.00    -0.323 C  
ATOM      6  N   THR A   1      -9.289  19.683  68.468  1.00  0.00    -0.357 NA 
ATOM      7  C   THR A   1      -6.914  19.163  68.988  1.00  0.00    -0.335 C  
ATOM      8  OXT THR A   1      -6.861  20.080  69.800  1.00  0.00    -0.313 OA 
ATOM      9  O   THR A   1      -5.835  18.380  68.728  1.00  0.00    -0.194 OA 
ATOM     10  H1  THR A   1      -9.439  19.882  69.456  1.00  0.00     0.000 HD 
ATOM     11  H2  THR A   1     -10.151  19.383  68.011  1.00  0.00     0.000 HD 
ENDBRANCH   2   5
TORSDOF 1
ENDMDL
MODEL      113
REMARK 921   NORMALIZED FREE ENERGY PREDICTED BY IDOCK:   -2.31 KCAL/MOL
REMARK 922        TOTAL FREE ENERGY PREDICTED BY IDOCK:   -2.46 KCAL/MOL
REMARK 923 INTER-LIGAND FREE ENERGY PREDICTED BY IDOCK:   -2.41 KCAL/MOL
REMARK 924 INTRA-LIGAND FREE ENERGY PREDICTED BY IDOCK:   -0.05 KCAL/MOL
REMARK 927      BINDING AFFINITY PREDICTED BY RF-SCORE:    0.00 PKD
ROOT
ATOM      1  CG2 THR A   1     -10.596   9.223  69.630  1.00  0.00    -0.241 C  
ATOM      2  CB  THR A   1     -10.625   9.151  71.155  1.00  0.00    -0.309 C  
ATOM      3  HG1 THR A   1     -11.883   9.658  72.578  1.00  0.00     0.000 HD 
ATOM      4  OG1 THR A   1     -11.866   9.703  71.629  1.00  0.00    -0.379 OA 
ENDROOT
BRANCH   2   5
ATOM      5  CA  THR A   1     -10.454   7.729  71.728  1.00  0.00    -0.216 C  
ATOM      6  N   THR A   1     -11.709   6.954  71.624  1.00  0.00    -0.286 NA 
ATOM      7  C   THR A   1      -9.937   7.737  73.183  1.00  0.00    -0.311 C  
ATOM      8  OXT THR A   1     -10.356   7.004  74.072  1.00  0.00    -0.364 OA 
ATOM      9  O   THR A   1      -8.870   8.554  73.378  1.00  0.00    -0.301 OA 
ATOM     10  H1  THR A   1     -11.596   6.014  72.002  1.00  0.00     0.000 HD 
ATOM     11  H2  THR A   1     -12.056   6.932  70.665  1.00  0.00     0.000 HD 
ENDBRANCH   2   5
TORSDOF 1
ENDMDL
MODEL      114
REMARK 921   NORMALIZED FREE ENERGY PREDICTED BY IDOCK:   -2.31 KCAL/MOL
REMARK 922        TOTAL FREE ENERGY PREDICTED BY IDOCK:   -2.46 KCAL/MOL
REMARK 923 INTER-LIGAND FREE ENERGY PREDICTED BY IDOCK:   -2.79 KCAL/MOL
REMARK 924 INTRA-LIGAND FREE ENERGY PREDICTED BY IDOCK:    0.34 KCAL/MOL
REMARK 927      BINDING AFFINITY PREDICTED BY RF-SCORE:    0.00 PKD
ROOT
ATOM      1  CG2 THR A   1      -8.604  16.465  66.319  1.00  0.00    -0.375 C  
ATOM      2  CB  THR A   1      -9.945  17.194  66.323  1.00  0.00    -0.304 C  
ATOM      3  HG1 THR A   1     -11.556  17.214  65.194  1.00  0.00     0.000 HD 
ATOM      4  OG1 THR A   1     -10.721  16.760  65.192  1.00  0.00    -0.641 OA 
ENDROOT
BRANCH   2   5
ATOM      5  CA  THR A   1     -10.775  16.996  67.609  1.00  0.00    -0.295 C  
ATOM      6  N   THR A   1     -10.363  17.947  68.664  1.00  0.00    -0.364 NA 
ATOM      7  C   THR A   1     -10.719  15.545  68.130  1.00  0.00    -0.282 C  
ATOM      8  OXT THR A   1     -10.599  15.235  69.310  1.00  0.00    -0.232 OA 
ATOM      9  O   THR A   1     -10.939  14.611  67.169  1.00  0.00    -0.300 OA 
ATOM     10  H1  THR A   1     -10.911  17.817  69.514  1.00  0.00     0.000 HD 
ATOM     11  H2  THR A   1     -10.405  18.912  68.336  1.00  0.00     0.000 HD 
ENDBRANCH   2   5
TORSDOF 1
ENDMDL
MODEL      115
REMARK 921   NORMALIZED FREE ENERGY PREDICTED BY IDOCK:   -2.31 KCAL/MOL
REMARK 922        TOTAL FREE ENERGY PREDICTED BY IDOCK:   -2.45 KCAL/MOL
REMARK 923 INTER-LIGAND FREE ENERGY PREDICTED BY IDOCK:   -2.49 KCAL/MOL
REMARK 924 INTRA-LIGAND FREE ENERGY PREDICTED BY IDOCK:    0.04 KCAL/MOL
REMARK 927      BINDING AFFINITY PREDICTED BY RF-SCORE:    0.00 PKD
ROOT
ATOM      1  CG2 THR A   1     -11.081   9.314  71.389  1.00  0.00    -0.437 C  
ATOM      2  CB  THR A   1     -11.104   7.859  70.929  1.00  0.00    -0.255 C  
ATOM      3  HG1 THR A   1     -12.467   6.459  70.714  1.00  0.00     0.000 HD 
ATOM      4  OG1 THR A   1     -12.453   7.364  71.000  1.00  0.00    -0.314 OA 
ENDROOT
BRANCH   2   5
ATOM      5  CA  THR A   1     -10.558   7.633  69.504  1.00  0.00    -0.227 C  
ATOM      6  N   THR A   1     -11.043   8.673  68.572  1.00  0.00    -0.382 NA 
ATOM      7  C   THR A   1     -10.881   6.223  68.965  1.00  0.00    -0.337 C  
ATOM      8  OXT THR A   1     -11.254   5.986  67.821  1.00  0.00    -0.236 OA 
ATOM      9  O   THR A   1     -10.597   5.225  69.841  1.00  0.00    -0.306 OA 
ATOM     10  H1  THR A   1     -10.683   8.524  67.631  1.00  0.00     0.000 HD 
ATOM     11  H2  THR A   1     -10.827   9.610  68.912  1.00  0.00     0.000 HD 
ENDBRANCH   2   5
TORSDOF 1
ENDMDL
MODEL      116
REMARK 921   NORMALIZED FREE ENERGY PREDICTED BY IDOCK:   -2.30 KCAL/MOL
REMARK 922        TOTAL FREE ENERGY PREDICTED BY IDOCK:   -2.45 KCAL/MOL
REMARK 923 INTER-LIGAND FREE ENERGY PREDICTED BY IDOCK:   -2.40 KCAL/MOL
REMARK 924 INTRA-LIGAND FREE ENERGY PREDICTED BY IDOCK:   -0.05 KCAL/MOL
REMARK 927      BINDING AFFINITY PREDICTED BY RF-SCORE:    0.00 PKD
ROOT
ATOM      1  CG2 THR A   1     -11.621   6.590  69.930  1.00  0.00    -0.433 C  
ATOM      2  CB  THR A   1     -10.571   6.441  68.833  1.00  0.00    -0.252 C  
ATOM      3  HG1 THR A   1      -9.638   4.950  67.952  1.00  0.00     0.000 HD 
ATOM      4  OG1 THR A   1     -10.292   5.043  68.635  1.00  0.00    -0.129 OA 
ENDROOT
BRANCH   2   5
ATOM      5  CA  THR A   1     -10.967   7.071  67.481  1.00  0.00    -0.229 C  
ATOM      6  N   THR A   1     -10.970   6.063  66.399  1.00  0.00    -0.714 NA 
ATOM      7  C   THR A   1     -10.075   8.273  67.106  1.00  0.00    -0.264 C  
ATOM      8  OXT THR A   1      -9.635   8.486  65.981  1.00  0.00    -0.227 OA 
ATOM      9  O   THR A   1      -9.907   9.165  68.116  1.00  0.00    -0.154 OA 
ATOM     10  H1  THR A   1     -11.232   6.479  65.507  1.00  0.00     0.000 HD 
ATOM     11  H2  THR A   1     -11.564   5.267  66.631  1.00  0.00     0.000 HD 
ENDBRANCH   2   5
TORSDOF 1
ENDMDL
MODEL      117
REMARK 921   NORMALIZED FREE ENERGY PREDICTED BY IDOCK:   -2.30 KCAL/MOL
REMARK 922        TOTAL FREE ENERGY PREDICTED BY IDOCK:   -2.44 KCAL/MOL
REMARK 923 INTER-LIGAND FREE ENERGY PREDICTED BY IDOCK:   -2.47 KCAL/MOL
REMARK 924 INTRA-LIGAND FREE ENERGY PREDICTED BY IDOCK:    0.02 KCAL/MOL
REMARK 927      BINDING AFFINITY PREDICTED BY RF-SCORE:    0.00 PKD
ROOT
ATOM      1  CG2 THR A   1     -11.888  13.591  67.328  1.00  0.00    -0.427 C  
ATOM      2  CB  THR A   1     -11.938  12.364  66.422  1.00  0.00    -0.274 C  
ATOM      3  HG1 THR A   1     -12.209  12.025  64.504  1.00  0.00     0.000 HD 
ATOM      4  OG1 THR A   1     -12.177  12.789  65.067  1.00  0.00    -0.419 OA 
ENDROOT
BRANCH   2   5
ATOM      5  CA  THR A   1     -10.667  11.491  66.460  1.00  0.00    -0.273 C  
ATOM      6  N   THR A   1     -10.262  11.074  65.100  1.00  0.00    -0.275 NA 
ATOM      7  C   THR A   1     -10.820  10.265  67.384  1.00  0.00    -0.277 C  
ATOM      8  OXT THR A   1     -10.423   9.137  67.113  1.00  0.00    -0.260 OA 
ATOM      9  O   THR A   1     -11.335  10.562  68.605  1.00  0.00    -0.263 OA 
ATOM     10  H1  THR A   1      -9.422  10.497  65.125  1.00  0.00     0.000 HD 
ATOM     11  H2  THR A   1     -10.147  11.876  64.481  1.00  0.00     0.000 HD 
ENDBRANCH   2   5
TORSDOF 1
ENDMDL
MODEL      118
REMARK 921   NORMALIZED FREE ENERGY PREDICTED BY IDOCK:   -2.30 KCAL/MOL
REMARK 922        TOTAL FREE ENERGY PREDICTED BY IDOCK:   -2.44 KCAL/MOL
REMARK 923 INTER-LIGAND FREE ENERGY PREDICTED BY IDOCK:   -2.40 KCAL/MOL
REMARK 924 INTRA-LIGAND FREE ENERGY PREDICTED BY IDOCK:   -0.04 KCAL/MOL
REMARK 927      BINDING AFFINITY PREDICTED BY RF-SCORE:    0.00 PKD
ROOT
ATOM      1  CG2 THR A   1      -7.576  18.783  68.603  1.00  0.00    -0.357 C  
ATOM      2  CB  THR A   1      -6.695  19.323  67.479  1.00  0.00    -0.195 C  
ATOM      3  HG1 THR A   1      -4.846  19.049  66.868  1.00  0.00     0.000 HD 
ATOM      4  OG1 THR A   1      -5.394  18.713  67.567  1.00  0.00    -0.151 OA 
ENDROOT
BRANCH   2   5
ATOM      5  CA  THR A   1      -7.262  19.099  66.062  1.00  0.00    -0.274 C  
ATOM      6  N   THR A   1      -7.625  17.682  65.847  1.00  0.00    -0.527 NA 
ATOM      7  C   THR A   1      -6.301  19.590  64.958  1.00  0.00    -0.274 C  
ATOM      8  OXT THR A   1      -6.071  18.983  63.918  1.00  0.00    -0.416 OA 
ATOM      9  O   THR A   1      -5.809  20.837  65.177  1.00  0.00    -0.211 OA 
ATOM     10  H1  THR A   1      -8.000  17.534  64.911  1.00  0.00     0.000 HD 
ATOM     11  H2  THR A   1      -8.268  17.347  66.565  1.00  0.00     0.000 HD 
ENDBRANCH   2   5
TORSDOF 1
ENDMDL
MODEL      119
REMARK 921   NORMALIZED FREE ENERGY PREDICTED BY IDOCK:   -2.29 KCAL/MOL
REMARK 922        TOTAL FREE ENERGY PREDICTED BY IDOCK:   -2.44 KCAL/MOL
REMARK 923 INTER-LIGAND FREE ENERGY PREDICTED BY IDOCK:   -2.38 KCAL/MOL
REMARK 924 INTRA-LIGAND FREE ENERGY PREDICTED BY IDOCK:   -0.06 KCAL/MOL
REMARK 927      BINDING AFFINITY PREDICTED BY RF-SCORE:    0.00 PKD
ROOT
ATOM      1  CG2 THR A   1      -9.950   6.302  70.086  1.00  0.00    -0.209 C  
ATOM      2  CB  THR A   1     -11.081   6.526  71.086  1.00  0.00    -0.282 C  
ATOM      3  HG1 THR A   1     -11.313   6.354  73.031  1.00  0.00     0.000 HD 
ATOM      4  OG1 THR A   1     -10.609   6.215  72.409  1.00  0.00    -0.197 OA 
ENDROOT
BRANCH   2   5
ATOM      5  CA  THR A   1     -11.662   7.956  71.081  1.00  0.00    -0.285 C  
ATOM      6  N   THR A   1     -10.730   8.915  71.713  1.00  0.00    -0.341 NA 
ATOM      7  C   THR A   1     -13.054   8.030  71.744  1.00  0.00    -0.336 C  
ATOM      8  OXT THR A   1     -13.414   8.921  72.505  1.00  0.00    -0.438 OA 
ATOM      9  O   THR A   1     -13.915   7.071  71.314  1.00  0.00    -0.292 OA 
ATOM     10  H1  THR A   1     -11.114   9.859  71.710  1.00  0.00     0.000 HD 
ATOM     11  H2  THR A   1      -9.808   8.883  71.278  1.00  0.00     0.000 HD 
ENDBRANCH   2   5
TORSDOF 1
ENDMDL
MODEL      120
REMARK 921   NORMALIZED FREE ENERGY PREDICTED BY IDOCK:   -2.28 KCAL/MOL
REMARK 922        TOTAL FREE ENERGY PREDICTED BY IDOCK:   -2.43 KCAL/MOL
REMARK 923 INTER-LIGAND FREE ENERGY PREDICTED BY IDOCK:   -2.37 KCAL/MOL
REMARK 924 INTRA-LIGAND FREE ENERGY PREDICTED BY IDOCK:   -0.06 KCAL/MOL
REMARK 927      BINDING AFFINITY PREDICTED BY RF-SCORE:    0.00 PKD
ROOT
ATOM      1  CG2 THR A   1     -10.826  15.913  65.092  1.00  0.00    -0.438 C  
ATOM      2  CB  THR A   1     -10.705  15.700  66.599  1.00  0.00    -0.296 C  
ATOM      3  HG1 THR A   1     -10.865  14.180  67.836  1.00  0.00     0.000 HD 
ATOM      4  OG1 THR A   1     -10.940  14.312  66.899  1.00  0.00    -0.294 OA 
ENDROOT
BRANCH   2   5
ATOM      5  CA  THR A   1      -9.346  16.122  67.195  1.00  0.00    -0.215 C  
ATOM      6  N   THR A   1      -8.274  15.181  66.803  1.00  0.00    -0.338 NA 
ATOM      7  C   THR A   1      -9.398  16.281  68.729  1.00  0.00    -0.235 C  
ATOM      8  OXT THR A   1      -8.525  15.891  69.497  1.00  0.00    -0.234 OA 
ATOM      9  O   THR A   1     -10.455  17.013  69.166  1.00  0.00    -0.320 OA 
ATOM     10  H1  THR A   1      -7.376  15.460  67.197  1.00  0.00     0.000 HD 
ATOM     11  H2  THR A   1      -8.222  15.074  65.790  1.00  0.00     0.000 HD 
ENDBRANCH   2   5
TORSDOF 1
ENDMDL
MODEL      121
REMARK 921   NORMALIZED FREE ENERGY PREDICTED BY IDOCK:   -2.28 KCAL/MOL
REMARK 922        TOTAL FREE ENERGY PREDICTED BY IDOCK:   -2.42 KCAL/MOL
REMARK 923 INTER-LIGAND FREE ENERGY PREDICTED BY IDOCK:   -2.80 KCAL/MOL
REMARK 924 INTRA-LIGAND FREE ENERGY PREDICTED BY IDOCK:    0.38 KCAL/MOL
REMARK 927      BINDING AFFINITY PREDICTED BY RF-SCORE:    0.00 PKD
ROOT
ATOM      1  CG2 THR A   1      -8.567  14.765  67.103  1.00  0.00    -0.248 C  
ATOM      2  CB  THR A   1      -9.743  15.450  67.794  1.00  0.00    -0.211 C  
ATOM      3  HG1 THR A   1     -10.020  17.107  68.818  1.00  0.00     0.000 HD 
ATOM      4  OG1 THR A   1      -9.288  16.680  68.388  1.00  0.00    -0.211 OA 
ENDROOT
BRANCH   2   5
ATOM      5  CA  THR A   1     -10.939  15.750  66.868  1.00  0.00    -0.207 C  
ATOM      6  N   THR A   1     -11.675  14.514  66.525  1.00  0.00    -0.380 NA 
ATOM      7  C   THR A   1     -10.521  16.509  65.590  1.00  0.00    -0.324 C  
ATOM      8  OXT THR A   1     -10.949  16.266  64.467  1.00  0.00    -0.687 OA 
ATOM      9  O   THR A   1      -9.713  17.574  65.828  1.00  0.00    -0.534 OA 
ATOM     10  H1  THR A   1     -12.466  14.712  65.913  1.00  0.00     0.000 HD 
ATOM     11  H2  THR A   1     -11.966  14.008  67.361  1.00  0.00     0.000 HD 
ENDBRANCH   2   5
TORSDOF 1
ENDMDL
MODEL      122
REMARK 921   NORMALIZED FREE ENERGY PREDICTED BY IDOCK:   -2.27 KCAL/MOL
REMARK 922        TOTAL FREE ENERGY PREDICTED BY IDOCK:   -2.41 KCAL/MOL
REMARK 923 INTER-LIGAND FREE ENERGY PREDICTED BY IDOCK:   -2.77 KCAL/MOL
REMARK 924 INTRA-LIGAND FREE ENERGY PREDICTED BY IDOCK:    0.35 KCAL/MOL
REMARK 927      BINDING AFFINITY PREDICTED BY RF-SCORE:    0.00 PKD
ROOT
ATOM      1  CG2 THR A   1      -8.299  16.110  66.904  1.00  0.00    -0.271 C  
ATOM      2  CB  THR A   1      -9.643  16.372  66.229  1.00  0.00    -0.311 C  
ATOM      3  HG1 THR A   1     -11.315  15.374  65.957  1.00  0.00     0.000 HD 
ATOM      4  OG1 THR A   1     -10.479  15.210  66.377  1.00  0.00    -0.281 OA 
ENDROOT
BRANCH   2   5
ATOM      5  CA  THR A   1     -10.396  17.607  66.767  1.00  0.00    -0.331 C  
ATOM      6  N   THR A   1     -10.036  18.826  66.012  1.00  0.00    -0.523 NA 
ATOM      7  C   THR A   1     -10.179  17.817  68.281  1.00  0.00    -0.382 C  
ATOM      8  OXT THR A   1      -9.982  18.906  68.809  1.00  0.00    -0.391 OA 
ATOM      9  O   THR A   1     -10.347  16.689  69.019  1.00  0.00    -0.276 OA 
ATOM     10  H1  THR A   1     -10.533  19.642  66.368  1.00  0.00     0.000 HD 
ATOM     11  H2  THR A   1     -10.184  18.704  65.011  1.00  0.00     0.000 HD 
ENDBRANCH   2   5
TORSDOF 1
ENDMDL
MODEL      123
REMARK 921   NORMALIZED FREE ENERGY PREDICTED BY IDOCK:   -2.25 KCAL/MOL
REMARK 922        TOTAL FREE ENERGY PREDICTED BY IDOCK:   -2.40 KCAL/MOL
REMARK 923 INTER-LIGAND FREE ENERGY PREDICTED BY IDOCK:   -2.35 KCAL/MOL
REMARK 924 INTRA-LIGAND FREE ENERGY PREDICTED BY IDOCK:   -0.04 KCAL/MOL
REMARK 927      BINDING AFFINITY PREDICTED BY RF-SCORE:    0.00 PKD
ROOT
ATOM      1  CG2 THR A   1     -10.188  14.423  68.399  1.00  0.00    -0.243 C  
ATOM      2  CB  THR A   1     -10.556  15.769  67.780  1.00  0.00    -0.292 C  
ATOM      3  HG1 THR A   1     -12.092  16.994  67.854  1.00  0.00     0.000 HD 
ATOM      4  OG1 THR A   1     -11.864  16.157  68.240  1.00  0.00    -0.209 OA 
ENDROOT
BRANCH   2   5
ATOM      5  CA  THR A   1      -9.557  16.905  68.085  1.00  0.00    -0.255 C  
ATOM      6  N   THR A   1     -10.040  17.761  69.190  1.00  0.00    -0.284 NA 
ATOM      7  C   THR A   1      -9.230  17.754  66.839  1.00  0.00    -0.258 C  
ATOM      8  OXT THR A   1      -9.139  18.977  66.837  1.00  0.00    -0.286 OA 
ATOM      9  O   THR A   1      -8.925  17.016  65.740  1.00  0.00    -0.526 OA 
ATOM     10  H1  THR A   1      -9.381  18.512  69.392  1.00  0.00     0.000 HD 
ATOM     11  H2  THR A   1     -10.251  17.213  70.024  1.00  0.00     0.000 HD 
ENDBRANCH   2   5
TORSDOF 1
ENDMDL
MODEL      124
REMARK 921   NORMALIZED FREE ENERGY PREDICTED BY IDOCK:   -2.25 KCAL/MOL
REMARK 922        TOTAL FREE ENERGY PREDICTED BY IDOCK:   -2.39 KCAL/MOL
REMARK 923 INTER-LIGAND FREE ENERGY PREDICTED BY IDOCK:   -2.33 KCAL/MOL
REMARK 924 INTRA-LIGAND FREE ENERGY PREDICTED BY IDOCK:   -0.06 KCAL/MOL
REMARK 927      BINDING AFFINITY PREDICTED BY RF-SCORE:    0.00 PKD
ROOT
ATOM      1  CG2 THR A   1      -8.571  15.638  66.341  1.00  0.00    -0.319 C  
ATOM      2  CB  THR A   1      -9.808  14.756  66.494  1.00  0.00    -0.272 C  
ATOM      3  HG1 THR A   1     -10.308  12.916  66.013  1.00  0.00     0.000 HD 
ATOM      4  OG1 THR A   1      -9.539  13.465  65.918  1.00  0.00    -0.221 OA 
ENDROOT
BRANCH   2   5
ATOM      5  CA  THR A   1     -10.281  14.569  67.951  1.00  0.00    -0.231 C  
ATOM      6  N   THR A   1      -9.203  14.014  68.798  1.00  0.00    -0.372 NA 
ATOM      7  C   THR A   1     -11.555  13.704  68.052  1.00  0.00    -0.333 C  
ATOM      8  OXT THR A   1     -11.738  12.834  68.897  1.00  0.00    -0.290 OA 
ATOM      9  O   THR A   1     -12.534  14.070  67.185  1.00  0.00    -0.293 OA 
ATOM     10  H1  THR A   1      -9.515  13.891  69.760  1.00  0.00     0.000 HD 
ATOM     11  H2  THR A   1      -8.357  14.583  68.748  1.00  0.00     0.000 HD 
ENDBRANCH   2   5
TORSDOF 1
ENDMDL
MODEL      125
REMARK 921   NORMALIZED FREE ENERGY PREDICTED BY IDOCK:   -2.25 KCAL/MOL
REMARK 922        TOTAL FREE ENERGY PREDICTED BY IDOCK:   -2.39 KCAL/MOL
REMARK 923 INTER-LIGAND FREE ENERGY PREDICTED BY IDOCK:   -2.33 KCAL/MOL
REMARK 924 INTRA-LIGAND FREE ENERGY PREDICTED BY IDOCK:   -0.06 KCAL/MOL
REMARK 927      BINDING AFFINITY PREDICTED BY RF-SCORE:    0.00 PKD
ROOT
ATOM      1  CG2 THR A   1     -10.914  10.269  68.795  1.00  0.00    -0.285 C  
ATOM      2  CB  THR A   1     -11.146   9.069  69.709  1.00  0.00    -0.104 C  
ATOM      3  HG1 THR A   1     -10.435   7.242  69.863  1.00  0.00     0.000 HD 
ATOM      4  OG1 THR A   1     -10.290   7.989  69.295  1.00  0.00    -0.214 OA 
ENDROOT
BRANCH   2   5
ATOM      5  CA  THR A   1     -10.908   9.353  71.207  1.00  0.00    -0.361 C  
ATOM      6  N   THR A   1      -9.464   9.439  71.514  1.00  0.00    -0.276 NA 
ATOM      7  C   THR A   1     -11.601   8.320  72.121  1.00  0.00    -0.364 C  
ATOM      8  OXT THR A   1     -11.091   7.828  73.122  1.00  0.00    -0.409 OA 
ATOM      9  O   THR A   1     -12.896   8.082  71.792  1.00  0.00    -0.318 OA 
ATOM     10  H1  THR A   1      -9.307   9.628  72.503  1.00  0.00     0.000 HD 
ATOM     11  H2  THR A   1      -8.996  10.127  70.923  1.00  0.00     0.000 HD 
ENDBRANCH   2   5
TORSDOF 1
ENDMDL
MODEL      126
REMARK 921   NORMALIZED FREE ENERGY PREDICTED BY IDOCK:   -2.24 KCAL/MOL
REMARK 922        TOTAL FREE ENERGY PREDICTED BY IDOCK:   -2.38 KCAL/MOL
REMARK 923 INTER-LIGAND FREE ENERGY PREDICTED BY IDOCK:   -2.34 KCAL/MOL
REMARK 924 INTRA-LIGAND FREE ENERGY PREDICTED BY IDOCK:   -0.04 KCAL/MOL
REMARK 927      BINDING AFFINITY PREDICTED BY RF-SCORE:    0.00 PKD
ROOT
ATOM      1  CG2 THR A   1      -6.920  17.413  69.065  1.00  0.00    -0.238 C  
ATOM      2  CB  THR A   1      -8.015  16.762  68.223  1.00  0.00    -0.200 C  
ATOM      3  HG1 THR A   1      -8.149  15.213  67.020  1.00  0.00     0.000 HD 
ATOM      4  OG1 THR A   1      -7.468  15.617  67.544  1.00  0.00    -0.144 OA 
ENDROOT
BRANCH   2   5
ATOM      5  CA  THR A   1      -9.259  16.327  69.024  1.00  0.00    -0.253 C  
ATOM      6  N   THR A   1      -9.187  14.896  69.391  1.00  0.00    -0.410 NA 
ATOM      7  C   THR A   1     -10.577  16.634  68.281  1.00  0.00    -0.338 C  
ATOM      8  OXT THR A   1     -11.535  15.871  68.224  1.00  0.00    -0.363 OA 
ATOM      9  O   THR A   1     -10.641  17.896  67.783  1.00  0.00    -0.392 OA 
ATOM     10  H1  THR A   1     -10.009  14.608  69.920  1.00  0.00     0.000 HD 
ATOM     11  H2  THR A   1      -8.325  14.681  69.892  1.00  0.00     0.000 HD 
ENDBRANCH   2   5
TORSDOF 1
ENDMDL
MODEL      127
REMARK 921   NORMALIZED FREE ENERGY PREDICTED BY IDOCK:   -2.22 KCAL/MOL
REMARK 922        TOTAL FREE ENERGY PREDICTED BY IDOCK:   -2.37 KCAL/MOL
REMARK 923 INTER-LIGAND FREE ENERGY PREDICTED BY IDOCK:   -2.32 KCAL/MOL
REMARK 924 INTRA-LIGAND FREE ENERGY PREDICTED BY IDOCK:   -0.04 KCAL/MOL
REMARK 927      BINDING AFFINITY PREDICTED BY RF-SCORE:    0.00 PKD
ROOT
ATOM      1  CG2 THR A   1     -10.377   9.083  69.230  1.00  0.00    -0.227 C  
ATOM      2  CB  THR A   1     -10.438   8.499  70.639  1.00  0.00    -0.201 C  
ATOM      3  HG1 THR A   1     -11.381   8.921  72.312  1.00  0.00     0.000 HD 
ATOM      4  OG1 THR A   1     -11.344   9.284  71.435  1.00  0.00    -0.307 OA 
ENDROOT
BRANCH   2   5
ATOM      5  CA  THR A   1     -10.870   7.018  70.697  1.00  0.00    -0.246 C  
ATOM      6  N   THR A   1     -12.136   6.800  69.964  1.00  0.00    -0.638 NA 
ATOM      7  C   THR A   1     -10.980   6.492  72.144  1.00  0.00    -0.249 C  
ATOM      8  OXT THR A   1     -11.883   5.772  72.553  1.00  0.00    -0.297 OA 
ATOM      9  O   THR A   1      -9.906   6.796  72.918  1.00  0.00    -0.160 OA 
ATOM     10  H1  THR A   1     -12.421   5.822  70.002  1.00  0.00     0.000 HD 
ATOM     11  H2  THR A   1     -12.074   7.135  69.002  1.00  0.00     0.000 HD 
ENDBRANCH   2   5
TORSDOF 1
ENDMDL
MODEL      128
REMARK 921   NORMALIZED FREE ENERGY PREDICTED BY IDOCK:   -2.21 KCAL/MOL
REMARK 922        TOTAL FREE ENERGY PREDICTED BY IDOCK:   -2.35 KCAL/MOL
REMARK 923 INTER-LIGAND FREE ENERGY PREDICTED BY IDOCK:   -2.69 KCAL/MOL
REMARK 924 INTRA-LIGAND FREE ENERGY PREDICTED BY IDOCK:    0.34 KCAL/MOL
REMARK 927      BINDING AFFINITY PREDICTED BY RF-SCORE:    0.00 PKD
ROOT
ATOM      1  CG2 THR A   1     -11.958  14.132  67.832  1.00  0.00    -0.378 C  
ATOM      2  CB  THR A   1     -11.797  14.305  66.324  1.00  0.00    -0.406 C  
ATOM      3  HG1 THR A   1     -10.589  15.293  65.127  1.00  0.00     0.000 HD 
ATOM      4  OG1 THR A   1     -10.689  15.185  66.066  1.00  0.00    -0.310 OA 
ENDROOT
BRANCH   2   5
ATOM      5  CA  THR A   1     -11.584  12.986  65.551  1.00  0.00    -0.347 C  
ATOM      6  N   THR A   1     -12.875  12.363  65.187  1.00  0.00    -0.563 NA 
ATOM      7  C   THR A   1     -10.693  11.988  66.320  1.00  0.00    -0.267 C  
ATOM      8  OXT THR A   1     -10.909  10.784  66.400  1.00  0.00    -0.204 OA 
ATOM      9  O   THR A   1      -9.556  12.541  66.815  1.00  0.00    -0.218 OA 
ATOM     10  H1  THR A   1     -12.734  11.492  64.677  1.00  0.00     0.000 HD 
ATOM     11  H2  THR A   1     -13.470  13.010  64.669  1.00  0.00     0.000 HD 
ENDBRANCH   2   5
TORSDOF 1
ENDMDL
MODEL      129
REMARK 921   NORMALIZED FREE ENERGY PREDICTED BY IDOCK:   -2.20 KCAL/MOL
REMARK 922        TOTAL FREE ENERGY PREDICTED BY IDOCK:   -2.34 KCAL/MOL
REMARK 923 INTER-LIGAND FREE ENERGY PREDICTED BY IDOCK:   -2.33 KCAL/MOL
REMARK 924 INTRA-LIGAND FREE ENERGY PREDICTED BY IDOCK:   -0.02 KCAL/MOL
REMARK 927      BINDING AFFINITY PREDICTED BY RF-SCORE:    0.00 PKD
ROOT
ATOM      1  CG2 THR A   1     -11.050   5.760  69.861  1.00  0.00    -0.327 C  
ATOM      2  CB  THR A   1     -10.551   6.588  71.042  1.00  0.00    -0.231 C  
ATOM      3  HG1 THR A   1     -10.337   8.501  71.446  1.00  0.00     0.000 HD 
ATOM      4  OG1 THR A   1     -10.648   7.985  70.711  1.00  0.00    -0.209 OA 
ENDROOT
BRANCH   2   5
ATOM      5  CA  THR A   1     -11.302   6.329  72.364  1.00  0.00    -0.292 C  
ATOM      6  N   THR A   1     -11.721   7.597  73.000  1.00  0.00    -0.616 NA 
ATOM      7  C   THR A   1     -10.483   5.468  73.350  1.00  0.00    -0.237 C  
ATOM      8  OXT THR A   1     -10.404   5.679  74.555  1.00  0.00    -0.269 OA 
ATOM      9  O   THR A   1      -9.940   4.359  72.785  1.00  0.00    -0.147 OA 
ATOM     10  H1  THR A   1     -12.217   7.426  73.874  1.00  0.00     0.000 HD 
ATOM     11  H2  THR A   1     -12.272   8.172  72.362  1.00  0.00     0.000 HD 
ENDBRANCH   2   5
TORSDOF 1
ENDMDL
MODEL      130
REMARK 921   NORMALIZED FREE ENERGY PREDICTED BY IDOCK:   -2.19 KCAL/MOL
REMARK 922        TOTAL FREE ENERGY PREDICTED BY IDOCK:   -2.33 KCAL/MOL
REMARK 923 INTER-LIGAND FREE ENERGY PREDICTED BY IDOCK:   -2.28 KCAL/MOL
REMARK 924 INTRA-LIGAND FREE ENERGY PREDICTED BY IDOCK:   -0.04 KCAL/MOL
REMARK 927      BINDING AFFINITY PREDICTED BY RF-SCORE:    0.00 PKD
ROOT
ATOM      1  CG2 THR A   1      -9.614  12.515  66.170  1.00  0.00    -0.230 C  
ATOM      2  CB  THR A   1     -10.378  11.299  65.654  1.00  0.00    -0.256 C  
ATOM      3  HG1 THR A   1     -11.099  10.702  63.924  1.00  0.00     0.000 HD 
ATOM      4  OG1 THR A   1     -10.623  11.459  64.245  1.00  0.00    -0.309 OA 
ENDROOT
BRANCH   2   5
ATOM      5  CA  THR A   1      -9.666   9.951  65.891  1.00  0.00    -0.262 C  
ATOM      6  N   THR A   1      -9.455   9.224  64.620  1.00  0.00    -0.409 NA 
ATOM      7  C   THR A   1     -10.408   9.062  66.912  1.00  0.00    -0.254 C  
ATOM      8  OXT THR A   1     -10.575   7.854  66.787  1.00  0.00    -0.326 OA 
ATOM      9  O   THR A   1     -10.767   9.716  68.046  1.00  0.00    -0.240 OA 
ATOM     10  H1  THR A   1      -8.984   8.334  64.777  1.00  0.00     0.000 HD 
ATOM     11  H2  THR A   1      -8.956   9.798  63.940  1.00  0.00     0.000 HD 
ENDBRANCH   2   5
TORSDOF 1
ENDMDL
MODEL      131
REMARK 921   NORMALIZED FREE ENERGY PREDICTED BY IDOCK:   -2.18 KCAL/MOL
REMARK 922        TOTAL FREE ENERGY PREDICTED BY IDOCK:   -2.32 KCAL/MOL
REMARK 923 INTER-LIGAND FREE ENERGY PREDICTED BY IDOCK:   -2.28 KCAL/MOL
REMARK 924 INTRA-LIGAND FREE ENERGY PREDICTED BY IDOCK:   -0.04 KCAL/MOL
REMARK 927      BINDING AFFINITY PREDICTED BY RF-SCORE:    0.00 PKD
ROOT
ATOM      1  CG2 THR A   1      -8.882   6.965  67.699  1.00  0.00    -0.118 C  
ATOM      2  CB  THR A   1     -10.296   7.452  68.009  1.00  0.00    -0.199 C  
ATOM      3  HG1 THR A   1     -12.122   6.928  67.503  1.00  0.00     0.000 HD 
ATOM      4  OG1 THR A   1     -11.243   6.624  67.310  1.00  0.00    -0.366 OA 
ENDROOT
BRANCH   2   5
ATOM      5  CA  THR A   1     -10.650   7.466  69.511  1.00  0.00    -0.237 C  
ATOM      6  N   THR A   1     -11.870   6.675  69.781  1.00  0.00    -0.654 NA 
ATOM      7  C   THR A   1     -10.791   8.897  70.071  1.00  0.00    -0.227 C  
ATOM      8  OXT THR A   1     -11.672   9.255  70.845  1.00  0.00    -0.279 OA 
ATOM      9  O   THR A   1      -9.769   9.722  69.726  1.00  0.00    -0.202 OA 
ATOM     10  H1  THR A   1     -12.104   6.684  70.773  1.00  0.00     0.000 HD 
ATOM     11  H2  THR A   1     -11.786   5.723  69.425  1.00  0.00     0.000 HD 
ENDBRANCH   2   5
TORSDOF 1
ENDMDL
MODEL      132
REMARK 921   NORMALIZED FREE ENERGY PREDICTED BY IDOCK:   -2.18 KCAL/MOL
REMARK 922        TOTAL FREE ENERGY PREDICTED BY IDOCK:   -2.32 KCAL/MOL
REMARK 923 INTER-LIGAND FREE ENERGY PREDICTED BY IDOCK:   -2.47 KCAL/MOL
REMARK 924 INTRA-LIGAND FREE ENERGY PREDICTED BY IDOCK:    0.15 KCAL/MOL
REMARK 927      BINDING AFFINITY PREDICTED BY RF-SCORE:    0.00 PKD
ROOT
ATOM      1  CG2 THR A   1     -10.818  15.839  64.969  1.00  0.00    -0.461 C  
ATOM      2  CB  THR A   1     -10.734  15.943  66.490  1.00  0.00    -0.258 C  
ATOM      3  HG1 THR A   1     -10.854  14.698  68.007  1.00  0.00     0.000 HD 
ATOM      4  OG1 THR A   1     -10.906  14.633  67.061  1.00  0.00    -0.292 OA 
ENDROOT
BRANCH   2   5
ATOM      5  CA  THR A   1      -9.417  16.552  67.015  1.00  0.00    -0.239 C  
ATOM      6  N   THR A   1      -9.039  15.968  68.320  1.00  0.00    -0.188 NA 
ATOM      7  C   THR A   1      -9.473  18.092  67.103  1.00  0.00    -0.264 C  
ATOM      8  OXT THR A   1      -9.026  18.751  68.035  1.00  0.00    -0.286 OA 
ATOM      9  O   THR A   1      -9.960  18.685  65.982  1.00  0.00    -0.485 OA 
ATOM     10  H1  THR A   1      -8.169  16.370  68.667  1.00  0.00     0.000 HD 
ATOM     11  H2  THR A   1      -8.989  14.950  68.274  1.00  0.00     0.000 HD 
ENDBRANCH   2   5
TORSDOF 1
ENDMDL
MODEL      133
REMARK 921   NORMALIZED FREE ENERGY PREDICTED BY IDOCK:   -2.18 KCAL/MOL
REMARK 922        TOTAL FREE ENERGY PREDICTED BY IDOCK:   -2.31 KCAL/MOL
REMARK 923 INTER-LIGAND FREE ENERGY PREDICTED BY IDOCK:   -2.27 KCAL/MOL
REMARK 924 INTRA-LIGAND FREE ENERGY PREDICTED BY IDOCK:   -0.05 KCAL/MOL
REMARK 927      BINDING AFFINITY PREDICTED BY RF-SCORE:    0.00 PKD
ROOT
ATOM      1  CG2 THR A   1      -7.393  17.449  68.075  1.00  0.00    -0.195 C  
ATOM      2  CB  THR A   1      -8.817  17.476  68.623  1.00  0.00    -0.255 C  
ATOM      3  HG1 THR A   1     -10.292  18.776  68.681  1.00  0.00     0.000 HD 
ATOM      4  OG1 THR A   1      -9.406  18.759  68.340  1.00  0.00    -0.316 OA 
ENDROOT
BRANCH   2   5
ATOM      5  CA  THR A   1      -9.735  16.367  68.068  1.00  0.00    -0.235 C  
ATOM      6  N   THR A   1     -10.298  16.745  66.754  1.00  0.00    -0.300 NA 
ATOM      7  C   THR A   1     -10.859  15.982  69.054  1.00  0.00    -0.283 C  
ATOM      8  OXT THR A   1     -12.023  15.773  68.731  1.00  0.00    -0.374 OA 
ATOM      9  O   THR A   1     -10.423  15.770  70.322  1.00  0.00    -0.308 OA 
ATOM     10  H1  THR A   1     -10.904  16.012  66.387  1.00  0.00     0.000 HD 
ATOM     11  H2  THR A   1      -9.565  16.992  66.089  1.00  0.00     0.000 HD 
ENDBRANCH   2   5
TORSDOF 1
ENDMDL
MODEL      134
REMARK 921   NORMALIZED FREE ENERGY PREDICTED BY IDOCK:   -2.16 KCAL/MOL
REMARK 922        TOTAL FREE ENERGY PREDICTED BY IDOCK:   -2.30 KCAL/MOL
REMARK 923 INTER-LIGAND FREE ENERGY PREDICTED BY IDOCK:   -2.34 KCAL/MOL
REMARK 924 INTRA-LIGAND FREE ENERGY PREDICTED BY IDOCK:    0.03 KCAL/MOL
REMARK 927      BINDING AFFINITY PREDICTED BY RF-SCORE:    0.00 PKD
ROOT
ATOM      1  CG2 THR A   1      -9.069   3.254  63.817  1.00  0.00    -0.097 C  
ATOM      2  CB  THR A   1      -9.002   4.291  64.934  1.00  0.00    -0.143 C  
ATOM      3  HG1 THR A   1      -8.608   6.213  65.067  1.00  0.00     0.000 HD 
ATOM      4  OG1 THR A   1      -8.650   5.568  64.371  1.00  0.00    -0.119 OA 
ENDROOT
BRANCH   2   5
ATOM      5  CA  THR A   1     -10.308   4.441  65.743  1.00  0.00    -0.217 C  
ATOM      6  N   THR A   1     -11.491   4.447  64.856  1.00  0.00    -1.068 NA 
ATOM      7  C   THR A   1     -10.300   5.688  66.652  1.00  0.00    -0.256 C  
ATOM      8  OXT THR A   1     -11.254   6.443  66.802  1.00  0.00    -0.327 OA 
ATOM      9  O   THR A   1      -9.165   5.822  67.385  1.00  0.00    -0.111 OA 
ATOM     10  H1  THR A   1     -12.353   4.545  65.391  1.00  0.00     0.000 HD 
ATOM     11  H2  THR A   1     -11.513   3.622  64.257  1.00  0.00     0.000 HD 
ENDBRANCH   2   5
TORSDOF 1
ENDMDL
MODEL      135
REMARK 921   NORMALIZED FREE ENERGY PREDICTED BY IDOCK:   -2.16 KCAL/MOL
REMARK 922        TOTAL FREE ENERGY PREDICTED BY IDOCK:   -2.30 KCAL/MOL
REMARK 923 INTER-LIGAND FREE ENERGY PREDICTED BY IDOCK:   -2.42 KCAL/MOL
REMARK 924 INTRA-LIGAND FREE ENERGY PREDICTED BY IDOCK:    0.12 KCAL/MOL
REMARK 927      BINDING AFFINITY PREDICTED BY RF-SCORE:    0.00 PKD
ROOT
ATOM      1  CG2 THR A   1     -11.273  14.436  68.045  1.00  0.00    -0.298 C  
ATOM      2  CB  THR A   1     -10.543  13.531  67.056  1.00  0.00    -0.269 C  
ATOM      3  HG1 THR A   1      -8.778  12.669  66.955  1.00  0.00     0.000 HD 
ATOM      4  OG1 THR A   1      -9.232  13.232  67.571  1.00  0.00    -0.195 OA 
ENDROOT
BRANCH   2   5
ATOM      5  CA  THR A   1     -11.274  12.209  66.743  1.00  0.00    -0.322 C  
ATOM      6  N   THR A   1     -11.964  11.681  67.939  1.00  0.00    -0.623 NA 
ATOM      7  C   THR A   1     -10.335  11.143  66.139  1.00  0.00    -0.250 C  
ATOM      8  OXT THR A   1     -10.345   9.956  66.446  1.00  0.00    -0.227 OA 
ATOM      9  O   THR A   1      -9.558  11.610  65.128  1.00  0.00    -0.233 OA 
ATOM     10  H1  THR A   1     -12.448  10.808  67.732  1.00  0.00     0.000 HD 
ATOM     11  H2  THR A   1     -12.596  12.373  68.343  1.00  0.00     0.000 HD 
ENDBRANCH   2   5
TORSDOF 1
ENDMDL
MODEL      136
REMARK 921   NORMALIZED FREE ENERGY PREDICTED BY IDOCK:   -2.15 KCAL/MOL
REMARK 922        TOTAL FREE ENERGY PREDICTED BY IDOCK:   -2.29 KCAL/MOL
REMARK 923 INTER-LIGAND FREE ENERGY PREDICTED BY IDOCK:   -2.24 KCAL/MOL
REMARK 924 INTRA-LIGAND FREE ENERGY PREDICTED BY IDOCK:   -0.05 KCAL/MOL
REMARK 927      BINDING AFFINITY PREDICTED BY RF-SCORE:    0.00 PKD
ROOT
ATOM      1  CG2 THR A   1     -10.564   7.159  69.352  1.00  0.00    -0.246 C  
ATOM      2  CB  THR A   1     -10.165   8.274  68.389  1.00  0.00    -0.209 C  
ATOM      3  HG1 THR A   1     -10.484   8.698  66.495  1.00  0.00     0.000 HD 
ATOM      4  OG1 THR A   1     -10.732   8.004  67.094  1.00  0.00    -0.322 OA 
ENDROOT
BRANCH   2   5
ATOM      5  CA  THR A   1     -10.588   9.687  68.840  1.00  0.00    -0.217 C  
ATOM      6  N   THR A   1     -11.645  10.236  67.963  1.00  0.00    -0.698 NA 
ATOM      7  C   THR A   1      -9.394  10.661  68.931  1.00  0.00    -0.184 C  
ATOM      8  OXT THR A   1      -9.417  11.824  68.545  1.00  0.00    -0.200 OA 
ATOM      9  O   THR A   1      -8.326  10.154  69.599  1.00  0.00    -0.168 OA 
ATOM     10  H1  THR A   1     -11.925  11.170  68.261  1.00  0.00     0.000 HD 
ATOM     11  H2  THR A   1     -12.445   9.606  67.902  1.00  0.00     0.000 HD 
ENDBRANCH   2   5
TORSDOF 1
ENDMDL
MODEL      137
REMARK 921   NORMALIZED FREE ENERGY PREDICTED BY IDOCK:   -2.15 KCAL/MOL
REMARK 922        TOTAL FREE ENERGY PREDICTED BY IDOCK:   -2.28 KCAL/MOL
REMARK 923 INTER-LIGAND FREE ENERGY PREDICTED BY IDOCK:   -2.31 KCAL/MOL
REMARK 924 INTRA-LIGAND FREE ENERGY PREDICTED BY IDOCK:    0.03 KCAL/MOL
REMARK 927      BINDING AFFINITY PREDICTED BY RF-SCORE:    0.00 PKD
ROOT
ATOM      1  CG2 THR A   1     -10.566  19.630  66.860  1.00  0.00    -0.603 C  
ATOM      2  CB  THR A   1      -9.248  19.135  67.452  1.00  0.00    -0.298 C  
ATOM      3  HG1 THR A   1      -8.453  19.014  69.246  1.00  0.00     0.000 HD 
ATOM      4  OG1 THR A   1      -9.273  19.321  68.879  1.00  0.00    -0.367 OA 
ENDROOT
BRANCH   2   5
ATOM      5  CA  THR A   1      -8.924  17.659  67.141  1.00  0.00    -0.244 C  
ATOM      6  N   THR A   1     -10.116  16.801  67.317  1.00  0.00    -0.274 NA 
ATOM      7  C   THR A   1      -7.740  17.126  67.975  1.00  0.00    -0.189 C  
ATOM      8  OXT THR A   1      -7.706  16.020  68.504  1.00  0.00    -0.144 OA 
ATOM      9  O   THR A   1      -6.660  17.950  67.979  1.00  0.00    -0.187 OA 
ATOM     10  H1  THR A   1      -9.902  15.825  67.111  1.00  0.00     0.000 HD 
ATOM     11  H2  THR A   1     -10.904  17.136  66.763  1.00  0.00     0.000 HD 
ENDBRANCH   2   5
TORSDOF 1
ENDMDL
MODEL      138
REMARK 921   NORMALIZED FREE ENERGY PREDICTED BY IDOCK:   -2.14 KCAL/MOL
REMARK 922        TOTAL FREE ENERGY PREDICTED BY IDOCK:   -2.28 KCAL/MOL
REMARK 923 INTER-LIGAND FREE ENERGY PREDICTED BY IDOCK:   -2.23 KCAL/MOL
REMARK 924 INTRA-LIGAND FREE ENERGY PREDICTED BY IDOCK:   -0.05 KCAL/MOL
REMARK 927      BINDING AFFINITY PREDICTED BY RF-SCORE:    0.00 PKD
ROOT
ATOM      1  CG2 THR A   1      -9.184   6.623  69.220  1.00  0.00    -0.140 C  
ATOM      2  CB  THR A   1     -10.516   7.283  68.875  1.00  0.00    -0.206 C  
ATOM      3  HG1 THR A   1     -12.400   7.027  69.376  1.00  0.00     0.000 HD 
ATOM      4  OG1 THR A   1     -11.572   6.616  69.591  1.00  0.00    -0.324 OA 
ENDROOT
BRANCH   2   5
ATOM      5  CA  THR A   1     -10.576   8.794  69.180  1.00  0.00    -0.184 C  
ATOM      6  N   THR A   1     -11.555   9.087  70.249  1.00  0.00    -0.455 NA 
ATOM      7  C   THR A   1     -10.871   9.640  67.923  1.00  0.00    -0.215 C  
ATOM      8  OXT THR A   1     -11.640  10.594  67.894  1.00  0.00    -0.491 OA 
ATOM      9  O   THR A   1     -10.103   9.312  66.852  1.00  0.00    -0.216 OA 
ATOM     10  H1  THR A   1     -11.595  10.085  70.452  1.00  0.00     0.000 HD 
ATOM     11  H2  THR A   1     -11.365   8.541  71.090  1.00  0.00     0.000 HD 
ENDBRANCH   2   5
TORSDOF 1
ENDMDL
MODEL      139
REMARK 921   NORMALIZED FREE ENERGY PREDICTED BY IDOCK:   -2.14 KCAL/MOL
REMARK 922        TOTAL FREE ENERGY PREDICTED BY IDOCK:   -2.28 KCAL/MOL
REMARK 923 INTER-LIGAND FREE ENERGY PREDICTED BY IDOCK:   -2.70 KCAL/MOL
REMARK 924 INTRA-LIGAND FREE ENERGY PREDICTED BY IDOCK:    0.43 KCAL/MOL
REMARK 927      BINDING AFFINITY PREDICTED BY RF-SCORE:    0.00 PKD
ROOT
ATOM      1  CG2 THR A   1      -7.191  17.677  67.759  1.00  0.00    -0.196 C  
ATOM      2  CB  THR A   1      -8.064  18.681  67.012  1.00  0.00    -0.252 C  
ATOM      3  HG1 THR A   1      -8.245  19.301  65.154  1.00  0.00     0.000 HD 
ATOM      4  OG1 THR A   1      -7.702  18.675  65.619  1.00  0.00    -0.495 OA 
ENDROOT
BRANCH   2   5
ATOM      5  CA  THR A   1      -9.580  18.427  67.140  1.00  0.00    -0.295 C  
ATOM      6  N   THR A   1     -10.050  18.665  68.522  1.00  0.00    -0.381 NA 
ATOM      7  C   THR A   1      -9.984  17.016  66.662  1.00  0.00    -0.302 C  
ATOM      8  OXT THR A   1     -10.790  16.293  67.237  1.00  0.00    -0.302 OA 
ATOM      9  O   THR A   1      -9.456  16.675  65.458  1.00  0.00    -0.482 OA 
ATOM     10  H1  THR A   1     -11.051  18.497  68.606  1.00  0.00     0.000 HD 
ATOM     11  H2  THR A   1      -9.798  19.599  68.846  1.00  0.00     0.000 HD 
ENDBRANCH   2   5
TORSDOF 1
ENDMDL
MODEL      140
REMARK 921   NORMALIZED FREE ENERGY PREDICTED BY IDOCK:   -2.13 KCAL/MOL
REMARK 922        TOTAL FREE ENERGY PREDICTED BY IDOCK:   -2.26 KCAL/MOL
REMARK 923 INTER-LIGAND FREE ENERGY PREDICTED BY IDOCK:   -2.22 KCAL/MOL
REMARK 924 INTRA-LIGAND FREE ENERGY PREDICTED BY IDOCK:   -0.04 KCAL/MOL
REMARK 927      BINDING AFFINITY PREDICTED BY RF-SCORE:    0.00 PKD
ROOT
ATOM      1  CG2 THR A   1     -10.758   6.057  67.800  1.00  0.00    -0.369 C  
ATOM      2  CB  THR A   1      -9.802   5.083  67.116  1.00  0.00    -0.182 C  
ATOM      3  HG1 THR A   1      -9.302   3.194  67.334  1.00  0.00     0.000 HD 
ATOM      4  OG1 THR A   1      -9.897   3.800  67.759  1.00  0.00    -0.120 OA 
ENDROOT
BRANCH   2   5
ATOM      5  CA  THR A   1     -10.047   4.908  65.603  1.00  0.00    -0.127 C  
ATOM      6  N   THR A   1     -11.458   4.563  65.324  1.00  0.00    -1.068 NA 
ATOM      7  C   THR A   1      -9.096   3.871  64.967  1.00  0.00    -0.142 C  
ATOM      8  OXT THR A   1      -9.437   3.031  64.142  1.00  0.00    -0.127 OA 
ATOM      9  O   THR A   1      -7.794   4.043  65.310  1.00  0.00    -0.087 OA 
ATOM     10  H1  THR A   1     -11.620   4.447  64.325  1.00  0.00     0.000 HD 
ATOM     11  H2  THR A   1     -12.097   5.246  65.731  1.00  0.00     0.000 HD 
ENDBRANCH   2   5
TORSDOF 1
ENDMDL
MODEL      141
REMARK 921   NORMALIZED FREE ENERGY PREDICTED BY IDOCK:   -2.12 KCAL/MOL
REMARK 922        TOTAL FREE ENERGY PREDICTED BY IDOCK:   -2.26 KCAL/MOL
REMARK 923 INTER-LIGAND FREE ENERGY PREDICTED BY IDOCK:   -2.19 KCAL/MOL
REMARK 924 INTRA-LIGAND FREE ENERGY PREDICTED BY IDOCK:   -0.06 KCAL/MOL
REMARK 927      BINDING AFFINITY PREDICTED BY RF-SCORE:    0.00 PKD
ROOT
ATOM      1  CG2 THR A   1     -10.803   6.222  67.160  1.00  0.00    -0.460 C  
ATOM      2  CB  THR A   1     -10.648   7.644  67.693  1.00  0.00    -0.224 C  
ATOM      3  HG1 THR A   1      -9.405   8.584  68.892  1.00  0.00     0.000 HD 
ATOM      4  OG1 THR A   1      -9.500   7.699  68.560  1.00  0.00    -0.146 OA 
ENDROOT
BRANCH   2   5
ATOM      5  CA  THR A   1     -10.505   8.723  66.599  1.00  0.00    -0.170 C  
ATOM      6  N   THR A   1      -9.311   8.482  65.761  1.00  0.00    -0.405 NA 
ATOM      7  C   THR A   1     -10.486  10.153  67.179  1.00  0.00    -0.246 C  
ATOM      8  OXT THR A   1      -9.733  11.044  66.804  1.00  0.00    -0.187 OA 
ATOM      9  O   THR A   1     -11.476  10.391  68.079  1.00  0.00    -0.356 OA 
ATOM     10  H1  THR A   1      -9.217   9.195  65.038  1.00  0.00     0.000 HD 
ATOM     11  H2  THR A   1      -9.316   7.543  65.363  1.00  0.00     0.000 HD 
ENDBRANCH   2   5
TORSDOF 1
ENDMDL
MODEL      142
REMARK 921   NORMALIZED FREE ENERGY PREDICTED BY IDOCK:   -2.11 KCAL/MOL
REMARK 922        TOTAL FREE ENERGY PREDICTED BY IDOCK:   -2.24 KCAL/MOL
REMARK 923 INTER-LIGAND FREE ENERGY PREDICTED BY IDOCK:   -2.19 KCAL/MOL
REMARK 924 INTRA-LIGAND FREE ENERGY PREDICTED BY IDOCK:   -0.05 KCAL/MOL
REMARK 927      BINDING AFFINITY PREDICTED BY RF-SCORE:    0.00 PKD
ROOT
ATOM      1  CG2 THR A   1     -10.935  10.216  67.340  1.00  0.00    -0.295 C  
ATOM      2  CB  THR A   1     -10.447  10.401  68.775  1.00  0.00    -0.199 C  
ATOM      3  HG1 THR A   1     -10.495  11.835  70.119  1.00  0.00     0.000 HD 
ATOM      4  OG1 THR A   1     -10.800  11.721  69.226  1.00  0.00    -0.215 OA 
ENDROOT
BRANCH   2   5
ATOM      5  CA  THR A   1     -10.998   9.362  69.774  1.00  0.00    -0.215 C  
ATOM      6  N   THR A   1     -12.355   9.728  70.234  1.00  0.00    -0.486 NA 
ATOM      7  C   THR A   1     -10.056   9.140  70.975  1.00  0.00    -0.303 C  
ATOM      8  OXT THR A   1     -10.428   9.032  72.138  1.00  0.00    -0.321 OA 
ATOM      9  O   THR A   1      -8.758   8.949  70.623  1.00  0.00    -0.158 OA 
ATOM     10  H1  THR A   1     -12.720   9.042  70.893  1.00  0.00     0.000 HD 
ATOM     11  H2  THR A   1     -12.991   9.868  69.449  1.00  0.00     0.000 HD 
ENDBRANCH   2   5
TORSDOF 1
ENDMDL
MODEL      143
REMARK 921   NORMALIZED FREE ENERGY PREDICTED BY IDOCK:   -2.11 KCAL/MOL
REMARK 922        TOTAL FREE ENERGY PREDICTED BY IDOCK:   -2.24 KCAL/MOL
REMARK 923 INTER-LIGAND FREE ENERGY PREDICTED BY IDOCK:   -2.18 KCAL/MOL
REMARK 924 INTRA-LIGAND FREE ENERGY PREDICTED BY IDOCK:   -0.06 KCAL/MOL
REMARK 927      BINDING AFFINITY PREDICTED BY RF-SCORE:    0.00 PKD
ROOT
ATOM      1  CG2 THR A   1      -9.733  14.202  66.303  1.00  0.00    -0.315 C  
ATOM      2  CB  THR A   1      -9.525  12.809  66.893  1.00  0.00    -0.235 C  
ATOM      3  HG1 THR A   1      -9.436  12.029  68.696  1.00  0.00     0.000 HD 
ATOM      4  OG1 THR A   1      -9.566  12.896  68.329  1.00  0.00    -0.218 OA 
ENDROOT
BRANCH   2   5
ATOM      5  CA  THR A   1     -10.550  11.757  66.422  1.00  0.00    -0.255 C  
ATOM      6  N   THR A   1     -11.934  12.190  66.712  1.00  0.00    -0.615 NA 
ATOM      7  C   THR A   1     -10.279  10.360  67.018  1.00  0.00    -0.225 C  
ATOM      8  OXT THR A   1     -11.147   9.608  67.447  1.00  0.00    -0.183 OA 
ATOM      9  O   THR A   1      -8.983   9.966  66.919  1.00  0.00    -0.137 OA 
ATOM     10  H1  THR A   1     -12.612  11.496  66.401  1.00  0.00     0.000 HD 
ATOM     11  H2  THR A   1     -12.130  13.109  66.315  1.00  0.00     0.000 HD 
ENDBRANCH   2   5
TORSDOF 1
ENDMDL
MODEL      144
REMARK 921   NORMALIZED FREE ENERGY PREDICTED BY IDOCK:   -2.11 KCAL/MOL
REMARK 922        TOTAL FREE ENERGY PREDICTED BY IDOCK:   -2.24 KCAL/MOL
REMARK 923 INTER-LIGAND FREE ENERGY PREDICTED BY IDOCK:   -2.18 KCAL/MOL
REMARK 924 INTRA-LIGAND FREE ENERGY PREDICTED BY IDOCK:   -0.06 KCAL/MOL
REMARK 927      BINDING AFFINITY PREDICTED BY RF-SCORE:    0.00 PKD
ROOT
ATOM      1  CG2 THR A   1      -8.423  11.298  67.398  1.00  0.00    -0.137 C  
ATOM      2  CB  THR A   1      -9.425  12.286  66.807  1.00  0.00    -0.222 C  
ATOM      3  HG1 THR A   1     -11.221  12.183  66.012  1.00  0.00     0.000 HD 
ATOM      4  OG1 THR A   1     -10.598  11.568  66.380  1.00  0.00    -0.241 OA 
ENDROOT
BRANCH   2   5
ATOM      5  CA  THR A   1      -9.848  13.416  67.768  1.00  0.00    -0.234 C  
ATOM      6  N   THR A   1     -10.515  12.875  68.972  1.00  0.00    -0.437 NA 
ATOM      7  C   THR A   1     -10.738  14.474  67.081  1.00  0.00    -0.286 C  
ATOM      8  OXT THR A   1     -11.733  14.979  67.588  1.00  0.00    -0.342 OA 
ATOM      9  O   THR A   1     -10.252  14.903  65.887  1.00  0.00    -0.278 OA 
ATOM     10  H1  THR A   1     -10.794  13.622  69.607  1.00  0.00     0.000 HD 
ATOM     11  H2  THR A   1      -9.933  12.181  69.442  1.00  0.00     0.000 HD 
ENDBRANCH   2   5
TORSDOF 1
ENDMDL
MODEL      145
REMARK 921   NORMALIZED FREE ENERGY PREDICTED BY IDOCK:   -2.10 KCAL/MOL
REMARK 922        TOTAL FREE ENERGY PREDICTED BY IDOCK:   -2.23 KCAL/MOL
REMARK 923 INTER-LIGAND FREE ENERGY PREDICTED BY IDOCK:   -2.18 KCAL/MOL
REMARK 924 INTRA-LIGAND FREE ENERGY PREDICTED BY IDOCK:   -0.05 KCAL/MOL
REMARK 927      BINDING AFFINITY PREDICTED BY RF-SCORE:    0.00 PKD
ROOT
ATOM      1  CG2 THR A   1      -7.649   8.355  63.321  1.00  0.00    -0.128 C  
ATOM      2  CB  THR A   1      -8.092   9.601  64.084  1.00  0.00    -0.151 C  
ATOM      3  HG1 THR A   1      -7.206  11.145  64.919  1.00  0.00     0.000 HD 
ATOM      4  OG1 THR A   1      -6.930  10.370  64.444  1.00  0.00    -0.099 OA 
ENDROOT
BRANCH   2   5
ATOM      5  CA  THR A   1      -9.075  10.505  63.311  1.00  0.00    -0.254 C  
ATOM      6  N   THR A   1      -8.363  11.370  62.346  1.00  0.00    -0.611 NA 
ATOM      7  C   THR A   1      -9.963  11.349  64.250  1.00  0.00    -0.283 C  
ATOM      8  OXT THR A   1     -10.240  12.530  64.068  1.00  0.00    -0.385 OA 
ATOM      9  O   THR A   1     -10.528  10.634  65.257  1.00  0.00    -0.269 OA 
ATOM     10  H1  THR A   1      -9.013  11.967  61.836  1.00  0.00     0.000 HD 
ATOM     11  H2  THR A   1      -7.780  10.824  61.713  1.00  0.00     0.000 HD 
ENDBRANCH   2   5
TORSDOF 1
ENDMDL
MODEL      146
REMARK 921   NORMALIZED FREE ENERGY PREDICTED BY IDOCK:   -2.09 KCAL/MOL
REMARK 922        TOTAL FREE ENERGY PREDICTED BY IDOCK:   -2.22 KCAL/MOL
REMARK 923 INTER-LIGAND FREE ENERGY PREDICTED BY IDOCK:   -2.61 KCAL/MOL
REMARK 924 INTRA-LIGAND FREE ENERGY PREDICTED BY IDOCK:    0.39 KCAL/MOL
REMARK 927      BINDING AFFINITY PREDICTED BY RF-SCORE:    0.00 PKD
ROOT
ATOM      1  CG2 THR A   1     -10.045  15.888  68.679  1.00  0.00    -0.216 C  
ATOM      2  CB  THR A   1      -8.838  16.812  68.820  1.00  0.00    -0.258 C  
ATOM      3  HG1 THR A   1      -6.902  16.677  68.507  1.00  0.00     0.000 HD 
ATOM      4  OG1 THR A   1      -7.653  16.102  68.418  1.00  0.00    -0.147 OA 
ENDROOT
BRANCH   2   5
ATOM      5  CA  THR A   1      -8.941  18.122  68.011  1.00  0.00    -0.283 C  
ATOM      6  N   THR A   1      -9.936  19.041  68.603  1.00  0.00    -0.403 NA 
ATOM      7  C   THR A   1      -9.247  17.872  66.519  1.00  0.00    -0.273 C  
ATOM      8  OXT THR A   1     -10.040  18.529  65.854  1.00  0.00    -0.532 OA 
ATOM      9  O   THR A   1      -8.461  16.920  65.953  1.00  0.00    -0.501 OA 
ATOM     10  H1  THR A   1     -10.004  19.906  68.069  1.00  0.00     0.000 HD 
ATOM     11  H2  THR A   1      -9.740  19.223  69.587  1.00  0.00     0.000 HD 
ENDBRANCH   2   5
TORSDOF 1
ENDMDL
MODEL      147
REMARK 921   NORMALIZED FREE ENERGY PREDICTED BY IDOCK:   -2.09 KCAL/MOL
REMARK 922        TOTAL FREE ENERGY PREDICTED BY IDOCK:   -2.22 KCAL/MOL
REMARK 923 INTER-LIGAND FREE ENERGY PREDICTED BY IDOCK:   -2.18 KCAL/MOL
REMARK 924 INTRA-LIGAND FREE ENERGY PREDICTED BY IDOCK:   -0.04 KCAL/MOL
REMARK 927      BINDING AFFINITY PREDICTED BY RF-SCORE:    0.00 PKD
ROOT
ATOM      1  CG2 THR A   1      -8.781  11.156  66.750  1.00  0.00    -0.157 C  
ATOM      2  CB  THR A   1      -9.724  10.280  67.571  1.00  0.00    -0.169 C  
ATOM      3  HG1 THR A   1      -9.758   8.410  68.178  1.00  0.00     0.000 HD 
ATOM      4  OG1 THR A   1      -9.171   8.955  67.668  1.00  0.00    -0.136 OA 
ENDROOT
BRANCH   2   5
ATOM      5  CA  THR A   1     -10.013  10.810  68.991  1.00  0.00    -0.199 C  
ATOM      6  N   THR A   1      -9.170  10.132  69.998  1.00  0.00    -0.392 NA 
ATOM      7  C   THR A   1     -11.506  10.705  69.368  1.00  0.00    -0.286 C  
ATOM      8  OXT THR A   1     -11.921  10.339  70.462  1.00  0.00    -0.280 OA 
ATOM      9  O   THR A   1     -12.346  11.175  68.410  1.00  0.00    -0.556 OA 
ATOM     10  H1  THR A   1      -9.360  10.482  70.936  1.00  0.00     0.000 HD 
ATOM     11  H2  THR A   1      -8.179  10.202  69.766  1.00  0.00     0.000 HD 
ENDBRANCH   2   5
TORSDOF 1
ENDMDL
MODEL      148
REMARK 921   NORMALIZED FREE ENERGY PREDICTED BY IDOCK:   -2.08 KCAL/MOL
REMARK 922        TOTAL FREE ENERGY PREDICTED BY IDOCK:   -2.21 KCAL/MOL
REMARK 923 INTER-LIGAND FREE ENERGY PREDICTED BY IDOCK:   -2.15 KCAL/MOL
REMARK 924 INTRA-LIGAND FREE ENERGY PREDICTED BY IDOCK:   -0.06 KCAL/MOL
REMARK 927      BINDING AFFINITY PREDICTED BY RF-SCORE:    0.00 PKD
ROOT
ATOM      1  CG2 THR A   1     -10.054   6.885  68.535  1.00  0.00    -0.165 C  
ATOM      2  CB  THR A   1     -10.805   7.376  69.770  1.00  0.00    -0.234 C  
ATOM      3  HG1 THR A   1     -12.442   6.866  70.734  1.00  0.00     0.000 HD 
ATOM      4  OG1 THR A   1     -11.974   6.560  69.965  1.00  0.00    -0.358 OA 
ENDROOT
BRANCH   2   5
ATOM      5  CA  THR A   1      -9.968   7.376  71.067  1.00  0.00    -0.183 C  
ATOM      6  N   THR A   1      -9.511   6.012  71.409  1.00  0.00    -0.156 NA 
ATOM      7  C   THR A   1     -10.719   8.015  72.254  1.00  0.00    -0.296 C  
ATOM      8  OXT THR A   1     -10.720   7.568  73.396  1.00  0.00    -0.387 OA 
ATOM      9  O   THR A   1     -11.297   9.208  71.957  1.00  0.00    -0.366 OA 
ATOM     10  H1  THR A   1      -8.958   6.012  72.266  1.00  0.00     0.000 HD 
ATOM     11  H2  THR A   1      -9.004   5.582  70.636  1.00  0.00     0.000 HD 
ENDBRANCH   2   5
TORSDOF 1
ENDMDL
MODEL      149
REMARK 921   NORMALIZED FREE ENERGY PREDICTED BY IDOCK:   -2.07 KCAL/MOL
REMARK 922        TOTAL FREE ENERGY PREDICTED BY IDOCK:   -2.20 KCAL/MOL
REMARK 923 INTER-LIGAND FREE ENERGY PREDICTED BY IDOCK:   -2.15 KCAL/MOL
REMARK 924 INTRA-LIGAND FREE ENERGY PREDICTED BY IDOCK:   -0.05 KCAL/MOL
REMARK 927      BINDING AFFINITY PREDICTED BY RF-SCORE:    0.00 PKD
ROOT
ATOM      1  CG2 THR A   1      -9.712   8.574  66.511  1.00  0.00    -0.330 C  
ATOM      2  CB  THR A   1     -10.376   9.639  67.380  1.00  0.00    -0.247 C  
ATOM      3  HG1 THR A   1     -10.771   9.869  69.292  1.00  0.00     0.000 HD 
ATOM      4  OG1 THR A   1     -10.357   9.206  68.752  1.00  0.00    -0.205 OA 
ENDROOT
BRANCH   2   5
ATOM      5  CA  THR A   1      -9.727  11.036  67.283  1.00  0.00    -0.166 C  
ATOM      6  N   THR A   1      -8.484  11.106  68.081  1.00  0.00    -0.132 NA 
ATOM      7  C   THR A   1     -10.698  12.167  67.684  1.00  0.00    -0.220 C  
ATOM      8  OXT THR A   1     -10.391  13.132  68.375  1.00  0.00    -0.245 OA 
ATOM      9  O   THR A   1     -11.919  12.072  67.098  1.00  0.00    -0.601 OA 
ATOM     10  H1  THR A   1      -8.055  12.028  68.017  1.00  0.00     0.000 HD 
ATOM     11  H2  THR A   1      -7.829  10.369  67.819  1.00  0.00     0.000 HD 
ENDBRANCH   2   5
TORSDOF 1
ENDMDL
MODEL      150
REMARK 921   NORMALIZED FREE ENERGY PREDICTED BY IDOCK:   -2.05 KCAL/MOL
REMARK 922        TOTAL FREE ENERGY PREDICTED BY IDOCK:   -2.18 KCAL/MOL
REMARK 923 INTER-LIGAND FREE ENERGY PREDICTED BY IDOCK:   -2.12 KCAL/MOL
REMARK 924 INTRA-LIGAND FREE ENERGY PREDICTED BY IDOCK:   -0.06 KCAL/MOL
REMARK 927      BINDING AFFINITY PREDICTED BY RF-SCORE:    0.00 PKD
ROOT
ATOM      1  CG2 THR A   1     -10.528   9.159  71.453  1.00  0.00    -0.414 C  
ATOM      2  CB  THR A   1     -10.198   8.457  70.139  1.00  0.00    -0.195 C  
ATOM      3  HG1 THR A   1     -10.942   6.960  69.102  1.00  0.00     0.000 HD 
ATOM      4  OG1 THR A   1     -11.147   7.398  69.920  1.00  0.00    -0.251 OA 
ENDROOT
BRANCH   2   5
ATOM      5  CA  THR A   1     -10.185   9.385  68.906  1.00  0.00    -0.200 C  
ATOM      6  N   THR A   1     -11.523   9.965  68.658  1.00  0.00    -0.505 NA 
ATOM      7  C   THR A   1      -9.653   8.679  67.641  1.00  0.00    -0.155 C  
ATOM      8  OXT THR A   1     -10.143   8.795  66.523  1.00  0.00    -0.274 OA 
ATOM      9  O   THR A   1      -8.497   7.995  67.843  1.00  0.00    -0.124 OA 
ATOM     10  H1  THR A   1     -11.515  10.578  67.843  1.00  0.00     0.000 HD 
ATOM     11  H2  THR A   1     -11.883  10.443  69.483  1.00  0.00     0.000 HD 
ENDBRANCH   2   5
TORSDOF 1
ENDMDL
MODEL      151
REMARK 921   NORMALIZED FREE ENERGY PREDICTED BY IDOCK:   -2.04 KCAL/MOL
REMARK 922        TOTAL FREE ENERGY PREDICTED BY IDOCK:   -2.17 KCAL/MOL
REMARK 923 INTER-LIGAND FREE ENERGY PREDICTED BY IDOCK:   -2.12 KCAL/MOL
REMARK 924 INTRA-LIGAND FREE ENERGY PREDICTED BY IDOCK:   -0.06 KCAL/MOL
REMARK 927      BINDING AFFINITY PREDICTED BY RF-SCORE:    0.00 PKD
ROOT
ATOM      1  CG2 THR A   1     -11.465  11.118  67.627  1.00  0.00    -0.328 C  
ATOM      2  CB  THR A   1     -10.743  11.557  66.356  1.00  0.00    -0.273 C  
ATOM      3  HG1 THR A   1      -9.216  12.716  65.917  1.00  0.00     0.000 HD 
ATOM      4  OG1 THR A   1      -9.665  12.443  66.709  1.00  0.00    -0.212 OA 
ENDROOT
BRANCH   2   5
ATOM      5  CA  THR A   1     -10.185  10.396  65.507  1.00  0.00    -0.246 C  
ATOM      6  N   THR A   1      -8.980   9.807  66.131  1.00  0.00    -0.147 NA 
ATOM      7  C   THR A   1      -9.896  10.815  64.050  1.00  0.00    -0.332 C  
ATOM      8  OXT THR A   1      -8.901  10.483  63.417  1.00  0.00    -0.178 OA 
ATOM      9  O   THR A   1     -10.914  11.500  63.467  1.00  0.00    -0.399 OA 
ATOM     10  H1  THR A   1      -8.611   9.040  65.570  1.00  0.00     0.000 HD 
ATOM     11  H2  THR A   1      -9.160   9.517  67.092  1.00  0.00     0.000 HD 
ENDBRANCH   2   5
TORSDOF 1
ENDMDL
MODEL      152
REMARK 921   NORMALIZED FREE ENERGY PREDICTED BY IDOCK:   -2.04 KCAL/MOL
REMARK 922        TOTAL FREE ENERGY PREDICTED BY IDOCK:   -2.16 KCAL/MOL
REMARK 923 INTER-LIGAND FREE ENERGY PREDICTED BY IDOCK:   -2.53 KCAL/MOL
REMARK 924 INTRA-LIGAND FREE ENERGY PREDICTED BY IDOCK:    0.37 KCAL/MOL
REMARK 927      BINDING AFFINITY PREDICTED BY RF-SCORE:    0.00 PKD
ROOT
ATOM      1  CG2 THR A   1      -9.980   9.519  65.762  1.00  0.00    -0.316 C  
ATOM      2  CB  THR A   1      -9.646  10.741  64.911  1.00  0.00    -0.256 C  
ATOM      3  HG1 THR A   1     -10.336  11.552  63.258  1.00  0.00     0.000 HD 
ATOM      4  OG1 THR A   1     -10.544  10.792  63.787  1.00  0.00    -0.287 OA 
ENDROOT
BRANCH   2   5
ATOM      5  CA  THR A   1      -9.713  12.084  65.669  1.00  0.00    -0.223 C  
ATOM      6  N   THR A   1      -8.549  12.250  66.567  1.00  0.00    -0.386 NA 
ATOM      7  C   THR A   1     -11.033  12.256  66.450  1.00  0.00    -0.287 C  
ATOM      8  OXT THR A   1     -11.114  12.714  67.584  1.00  0.00    -0.241 OA 
ATOM      9  O   THR A   1     -12.141  11.967  65.719  1.00  0.00    -0.536 OA 
ATOM     10  H1  THR A   1      -8.593  13.137  67.068  1.00  0.00     0.000 HD 
ATOM     11  H2  THR A   1      -7.669  12.148  66.061  1.00  0.00     0.000 HD 
ENDBRANCH   2   5
TORSDOF 1
ENDMDL
MODEL      153
REMARK 921   NORMALIZED FREE ENERGY PREDICTED BY IDOCK:   -2.03 KCAL/MOL
REMARK 922        TOTAL FREE ENERGY PREDICTED BY IDOCK:   -2.16 KCAL/MOL
REMARK 923 INTER-LIGAND FREE ENERGY PREDICTED BY IDOCK:   -2.11 KCAL/MOL
REMARK 924 INTRA-LIGAND FREE ENERGY PREDICTED BY IDOCK:   -0.05 KCAL/MOL
REMARK 927      BINDING AFFINITY PREDICTED BY RF-SCORE:    0.00 PKD
ROOT
ATOM      1  CG2 THR A   1      -8.235  16.973  66.686  1.00  0.00    -0.295 C  
ATOM      2  CB  THR A   1      -7.012  17.877  66.821  1.00  0.00    -0.191 C  
ATOM      3  HG1 THR A   1      -5.145  17.843  66.204  1.00  0.00     0.000 HD 
ATOM      4  OG1 THR A   1      -5.906  17.280  66.120  1.00  0.00    -0.234 OA 
ENDROOT
BRANCH   2   5
ATOM      5  CA  THR A   1      -7.222  19.315  66.300  1.00  0.00    -0.250 C  
ATOM      6  N   THR A   1      -6.880  19.421  64.865  1.00  0.00    -0.381 NA 
ATOM      7  C   THR A   1      -6.443  20.361  67.126  1.00  0.00    -0.220 C  
ATOM      8  OXT THR A   1      -5.828  21.306  66.645  1.00  0.00    -0.249 OA 
ATOM      9  O   THR A   1      -6.595  20.221  68.468  1.00  0.00    -0.292 OA 
ATOM     10  H1  THR A   1      -7.019  20.370  64.521  1.00  0.00     0.000 HD 
ATOM     11  H2  THR A   1      -7.396  18.740  64.307  1.00  0.00     0.000 HD 
ENDBRANCH   2   5
TORSDOF 1
ENDMDL
MODEL      154
REMARK 921   NORMALIZED FREE ENERGY PREDICTED BY IDOCK:   -2.02 KCAL/MOL
REMARK 922        TOTAL FREE ENERGY PREDICTED BY IDOCK:   -2.15 KCAL/MOL
REMARK 923 INTER-LIGAND FREE ENERGY PREDICTED BY IDOCK:   -2.09 KCAL/MOL
REMARK 924 INTRA-LIGAND FREE ENERGY PREDICTED BY IDOCK:   -0.06 KCAL/MOL
REMARK 927      BINDING AFFINITY PREDICTED BY RF-SCORE:    0.00 PKD
ROOT
ATOM      1  CG2 THR A   1      -7.141  14.865  69.355  1.00  0.00    -0.175 C  
ATOM      2  CB  THR A   1      -8.324  15.317  68.503  1.00  0.00    -0.152 C  
ATOM      3  HG1 THR A   1     -10.125  16.033  68.837  1.00  0.00     0.000 HD 
ATOM      4  OG1 THR A   1      -9.389  15.752  69.368  1.00  0.00    -0.254 OA 
ENDROOT
BRANCH   2   5
ATOM      5  CA  THR A   1      -7.995  16.446  67.503  1.00  0.00    -0.152 C  
ATOM      6  N   THR A   1      -7.745  17.725  68.202  1.00  0.00    -0.244 NA 
ATOM      7  C   THR A   1      -9.086  16.617  66.425  1.00  0.00    -0.292 C  
ATOM      8  OXT THR A   1      -9.505  17.698  66.027  1.00  0.00    -0.490 OA 
ATOM      9  O   THR A   1      -9.471  15.449  65.848  1.00  0.00    -0.327 OA 
ATOM     10  H1  THR A   1      -7.527  18.470  67.542  1.00  0.00     0.000 HD 
ATOM     11  H2  THR A   1      -7.018  17.628  68.911  1.00  0.00     0.000 HD 
ENDBRANCH   2   5
TORSDOF 1
ENDMDL
MODEL      155
REMARK 921   NORMALIZED FREE ENERGY PREDICTED BY IDOCK:   -2.01 KCAL/MOL
REMARK 922        TOTAL FREE ENERGY PREDICTED BY IDOCK:   -2.14 KCAL/MOL
REMARK 923 INTER-LIGAND FREE ENERGY PREDICTED BY IDOCK:   -2.48 KCAL/MOL
REMARK 924 INTRA-LIGAND FREE ENERGY PREDICTED BY IDOCK:    0.34 KCAL/MOL
REMARK 927      BINDING AFFINITY PREDICTED BY RF-SCORE:    0.00 PKD
ROOT
ATOM      1  CG2 THR A   1     -11.409  11.209  67.722  1.00  0.00    -0.364 C  
ATOM      2  CB  THR A   1     -10.357  11.738  66.750  1.00  0.00    -0.219 C  
ATOM      3  HG1 THR A   1      -9.964  11.536  64.834  1.00  0.00     0.000 HD 
ATOM      4  OG1 THR A   1     -10.619  11.207  65.438  1.00  0.00    -0.265 OA 
ENDROOT
BRANCH   2   5
ATOM      5  CA  THR A   1     -10.285  13.277  66.665  1.00  0.00    -0.265 C  
ATOM      6  N   THR A   1      -9.437  13.834  67.741  1.00  0.00    -0.209 NA 
ATOM      7  C   THR A   1     -11.681  13.935  66.674  1.00  0.00    -0.395 C  
ATOM      8  OXT THR A   1     -11.968  14.945  67.307  1.00  0.00    -0.316 OA 
ATOM      9  O   THR A   1     -12.559  13.364  65.810  1.00  0.00    -0.446 OA 
ATOM     10  H1  THR A   1      -9.389  14.851  67.685  1.00  0.00     0.000 HD 
ATOM     11  H2  THR A   1      -8.507  13.415  67.740  1.00  0.00     0.000 HD 
ENDBRANCH   2   5
TORSDOF 1
ENDMDL
MODEL      156
REMARK 921   NORMALIZED FREE ENERGY PREDICTED BY IDOCK:   -2.01 KCAL/MOL
REMARK 922        TOTAL FREE ENERGY PREDICTED BY IDOCK:   -2.14 KCAL/MOL
REMARK 923 INTER-LIGAND FREE ENERGY PREDICTED BY IDOCK:   -2.09 KCAL/MOL
REMARK 924 INTRA-LIGAND FREE ENERGY PREDICTED BY IDOCK:   -0.05 KCAL/MOL
REMARK 927      BINDING AFFINITY PREDICTED BY RF-SCORE:    0.00 PKD
ROOT
ATOM      1  CG2 THR A   1     -11.679  14.433  67.414  1.00  0.00    -0.424 C  
ATOM      2  CB  THR A   1     -10.596  13.596  66.739  1.00  0.00    -0.273 C  
ATOM      3  HG1 THR A   1      -8.822  13.930  65.957  1.00  0.00     0.000 HD 
ATOM      4  OG1 THR A   1      -9.496  14.451  66.378  1.00  0.00    -0.280 OA 
ENDROOT
BRANCH   2   5
ATOM      5  CA  THR A   1     -10.065  12.428  67.597  1.00  0.00    -0.198 C  
ATOM      6  N   THR A   1      -8.943  12.861  68.456  1.00  0.00    -0.368 NA 
ATOM      7  C   THR A   1      -9.661  11.206  66.745  1.00  0.00    -0.193 C  
ATOM      8  OXT THR A   1      -8.653  10.533  66.931  1.00  0.00    -0.124 OA 
ATOM      9  O   THR A   1     -10.594  10.850  65.824  1.00  0.00    -0.232 OA 
ATOM     10  H1  THR A   1      -8.592  12.090  69.023  1.00  0.00     0.000 HD 
ATOM     11  H2  THR A   1      -9.200  13.663  69.032  1.00  0.00     0.000 HD 
ENDBRANCH   2   5
TORSDOF 1
ENDMDL
MODEL      157
REMARK 921   NORMALIZED FREE ENERGY PREDICTED BY IDOCK:   -2.00 KCAL/MOL
REMARK 922        TOTAL FREE ENERGY PREDICTED BY IDOCK:   -2.13 KCAL/MOL
REMARK 923 INTER-LIGAND FREE ENERGY PREDICTED BY IDOCK:   -2.07 KCAL/MOL
REMARK 924 INTRA-LIGAND FREE ENERGY PREDICTED BY IDOCK:   -0.06 KCAL/MOL
REMARK 927      BINDING AFFINITY PREDICTED BY RF-SCORE:    0.00 PKD
ROOT
ATOM      1  CG2 THR A   1     -12.765   8.624  71.466  1.00  0.00    -0.351 C  
ATOM      2  CB  THR A   1     -11.496   7.844  71.798  1.00  0.00    -0.269 C  
ATOM      3  HG1 THR A   1     -10.278   6.636  70.837  1.00  0.00     0.000 HD 
ATOM      4  OG1 THR A   1     -11.067   7.121  70.629  1.00  0.00    -0.249 OA 
ENDROOT
BRANCH   2   5
ATOM      5  CA  THR A   1     -10.328   8.713  72.309  1.00  0.00    -0.306 C  
ATOM      6  N   THR A   1      -9.773   9.555  71.228  1.00  0.00    -0.276 NA 
ATOM      7  C   THR A   1      -9.216   7.876  72.975  1.00  0.00    -0.254 C  
ATOM      8  OXT THR A   1      -8.015   8.062  72.811  1.00  0.00    -0.125 OA 
ATOM      9  O   THR A   1      -9.678   6.970  73.874  1.00  0.00    -0.237 OA 
ATOM     10  H1  THR A   1      -9.002  10.130  71.565  1.00  0.00     0.000 HD 
ATOM     11  H2  THR A   1     -10.497  10.122  70.786  1.00  0.00     0.000 HD 
ENDBRANCH   2   5
TORSDOF 1
ENDMDL
MODEL      158
REMARK 921   NORMALIZED FREE ENERGY PREDICTED BY IDOCK:   -1.99 KCAL/MOL
REMARK 922        TOTAL FREE ENERGY PREDICTED BY IDOCK:   -2.12 KCAL/MOL
REMARK 923 INTER-LIGAND FREE ENERGY PREDICTED BY IDOCK:   -2.07 KCAL/MOL
REMARK 924 INTRA-LIGAND FREE ENERGY PREDICTED BY IDOCK:   -0.05 KCAL/MOL
REMARK 927      BINDING AFFINITY PREDICTED BY RF-SCORE:    0.00 PKD
ROOT
ATOM      1  CG2 THR A   1      -8.166   9.028  66.956  1.00  0.00    -0.109 C  
ATOM      2  CB  THR A   1      -8.916  10.231  66.389  1.00  0.00    -0.148 C  
ATOM      3  HG1 THR A   1      -8.432  11.988  65.651  1.00  0.00     0.000 HD 
ATOM      4  OG1 THR A   1      -7.965  11.239  66.003  1.00  0.00    -0.102 OA 
ENDROOT
BRANCH   2   5
ATOM      5  CA  THR A   1      -9.824   9.906  65.184  1.00  0.00    -0.278 C  
ATOM      6  N   THR A   1      -9.063   9.242  64.104  1.00  0.00    -0.429 NA 
ATOM      7  C   THR A   1     -10.561  11.151  64.648  1.00  0.00    -0.318 C  
ATOM      8  OXT THR A   1     -10.707  11.413  63.459  1.00  0.00    -0.380 OA 
ATOM      9  O   THR A   1     -11.157  11.893  65.617  1.00  0.00    -0.304 OA 
ATOM     10  H1  THR A   1      -9.663   9.028  63.308  1.00  0.00     0.000 HD 
ATOM     11  H2  THR A   1      -8.579   8.411  64.443  1.00  0.00     0.000 HD 
ENDBRANCH   2   5
TORSDOF 1
ENDMDL
MODEL      159
REMARK 921   NORMALIZED FREE ENERGY PREDICTED BY IDOCK:   -1.99 KCAL/MOL
REMARK 922        TOTAL FREE ENERGY PREDICTED BY IDOCK:   -2.12 KCAL/MOL
REMARK 923 INTER-LIGAND FREE ENERGY PREDICTED BY IDOCK:   -2.07 KCAL/MOL
REMARK 924 INTRA-LIGAND FREE ENERGY PREDICTED BY IDOCK:   -0.04 KCAL/MOL
REMARK 927      BINDING AFFINITY PREDICTED BY RF-SCORE:    0.00 PKD
ROOT
ATOM      1  CG2 THR A   1      -8.840  12.356  68.509  1.00  0.00    -0.056 C  
ATOM      2  CB  THR A   1     -10.003  12.818  67.635  1.00  0.00    -0.217 C  
ATOM      3  HG1 THR A   1     -11.844  13.442  67.932  1.00  0.00     0.000 HD 
ATOM      4  OG1 THR A   1     -11.121  13.155  68.477  1.00  0.00    -0.241 OA 
ENDROOT
BRANCH   2   5
ATOM      5  CA  THR A   1      -9.677  14.021  66.725  1.00  0.00    -0.278 C  
ATOM      6  N   THR A   1     -10.063  15.297  67.364  1.00  0.00    -0.231 NA 
ATOM      7  C   THR A   1     -10.318  13.895  65.327  1.00  0.00    -0.378 C  
ATOM      8  OXT THR A   1     -10.858  14.817  64.725  1.00  0.00    -0.399 OA 
ATOM      9  O   THR A   1     -10.127  12.682  64.746  1.00  0.00    -0.275 OA 
ATOM     10  H1  THR A   1      -9.847  16.092  66.764  1.00  0.00     0.000 HD 
ATOM     11  H2  THR A   1      -9.638  15.398  68.286  1.00  0.00     0.000 HD 
ENDBRANCH   2   5
TORSDOF 1
ENDMDL
MODEL      160
REMARK 921   NORMALIZED FREE ENERGY PREDICTED BY IDOCK:   -1.98 KCAL/MOL
REMARK 922        TOTAL FREE ENERGY PREDICTED BY IDOCK:   -2.11 KCAL/MOL
REMARK 923 INTER-LIGAND FREE ENERGY PREDICTED BY IDOCK:   -2.06 KCAL/MOL
REMARK 924 INTRA-LIGAND FREE ENERGY PREDICTED BY IDOCK:   -0.05 KCAL/MOL
REMARK 927      BINDING AFFINITY PREDICTED BY RF-SCORE:    0.00 PKD
ROOT
ATOM      1  CG2 THR A   1      -8.832  16.516  66.246  1.00  0.00    -0.364 C  
ATOM      2  CB  THR A   1      -8.854  17.010  67.690  1.00  0.00    -0.220 C  
ATOM      3  HG1 THR A   1      -8.835  16.184  69.475  1.00  0.00     0.000 HD 
ATOM      4  OG1 THR A   1      -8.821  15.877  68.576  1.00  0.00    -0.180 OA 
ENDROOT
BRANCH   2   5
ATOM      5  CA  THR A   1      -7.699  17.967  68.054  1.00  0.00    -0.250 C  
ATOM      6  N   THR A   1      -6.764  17.340  69.012  1.00  0.00    -0.228 NA 
ATOM      7  C   THR A   1      -8.204  19.323  68.592  1.00  0.00    -0.373 C  
ATOM      8  OXT THR A   1      -7.714  19.916  69.546  1.00  0.00    -0.119 OA 
ATOM      9  O   THR A   1      -9.181  19.883  67.832  1.00  0.00    -0.328 OA 
ATOM     10  H1  THR A   1      -6.001  17.972  69.252  1.00  0.00     0.000 HD 
ATOM     11  H2  THR A   1      -6.415  16.447  68.664  1.00  0.00     0.000 HD 
ENDBRANCH   2   5
TORSDOF 1
ENDMDL
MODEL      161
REMARK 921   NORMALIZED FREE ENERGY PREDICTED BY IDOCK:   -1.95 KCAL/MOL
REMARK 922        TOTAL FREE ENERGY PREDICTED BY IDOCK:   -2.08 KCAL/MOL
REMARK 923 INTER-LIGAND FREE ENERGY PREDICTED BY IDOCK:   -2.02 KCAL/MOL
REMARK 924 INTRA-LIGAND FREE ENERGY PREDICTED BY IDOCK:   -0.06 KCAL/MOL
REMARK 927      BINDING AFFINITY PREDICTED BY RF-SCORE:    0.00 PKD
ROOT
ATOM      1  CG2 THR A   1     -11.912  11.312  69.197  1.00  0.00    -0.405 C  
ATOM      2  CB  THR A   1     -10.983  11.321  67.985  1.00  0.00    -0.247 C  
ATOM      3  HG1 THR A   1      -9.091  11.737  67.649  1.00  0.00     0.000 HD 
ATOM      4  OG1 THR A   1      -9.669  11.731  68.403  1.00  0.00    -0.194 OA 
ENDROOT
BRANCH   2   5
ATOM      5  CA  THR A   1     -10.880   9.967  67.252  1.00  0.00    -0.217 C  
ATOM      6  N   THR A   1     -10.383   8.906  68.154  1.00  0.00    -0.209 NA 
ATOM      7  C   THR A   1     -10.013  10.051  65.977  1.00  0.00    -0.267 C  
ATOM      8  OXT THR A   1      -9.194   9.204  65.639  1.00  0.00    -0.210 OA 
ATOM      9  O   THR A   1     -10.321  11.103  65.176  1.00  0.00    -0.269 OA 
ATOM     10  H1  THR A   1     -10.314   8.011  67.670  1.00  0.00     0.000 HD 
ATOM     11  H2  THR A   1     -10.953   8.833  68.996  1.00  0.00     0.000 HD 
ENDBRANCH   2   5
TORSDOF 1
ENDMDL
MODEL      162
REMARK 921   NORMALIZED FREE ENERGY PREDICTED BY IDOCK:   -1.93 KCAL/MOL
REMARK 922        TOTAL FREE ENERGY PREDICTED BY IDOCK:   -2.05 KCAL/MOL
REMARK 923 INTER-LIGAND FREE ENERGY PREDICTED BY IDOCK:   -2.01 KCAL/MOL
REMARK 924 INTRA-LIGAND FREE ENERGY PREDICTED BY IDOCK:   -0.04 KCAL/MOL
REMARK 927      BINDING AFFINITY PREDICTED BY RF-SCORE:    0.00 PKD
ROOT
ATOM      1  CG2 THR A   1     -11.460   6.778  70.178  1.00  0.00    -0.404 C  
ATOM      2  CB  THR A   1     -10.051   6.865  70.760  1.00  0.00    -0.194 C  
ATOM      3  HG1 THR A   1      -8.217   6.706  70.071  1.00  0.00     0.000 HD 
ATOM      4  OG1 THR A   1      -9.093   6.652  69.708  1.00  0.00    -0.142 OA 
ENDROOT
BRANCH   2   5
ATOM      5  CA  THR A   1      -9.736   8.199  71.468  1.00  0.00    -0.176 C  
ATOM      6  N   THR A   1      -8.850   9.048  70.641  1.00  0.00    -0.199 NA 
ATOM      7  C   THR A   1      -9.137   7.994  72.876  1.00  0.00    -0.248 C  
ATOM      8  OXT THR A   1      -8.200   8.640  73.332  1.00  0.00    -0.408 OA 
ATOM      9  O   THR A   1      -9.824   7.103  73.636  1.00  0.00    -0.238 OA 
ATOM     10  H1  THR A   1      -8.642   9.929  71.108  1.00  0.00     0.000 HD 
ATOM     11  H2  THR A   1      -9.239   9.199  69.710  1.00  0.00     0.000 HD 
ENDBRANCH   2   5
TORSDOF 1
ENDMDL
MODEL      163
REMARK 921   NORMALIZED FREE ENERGY PREDICTED BY IDOCK:   -1.92 KCAL/MOL
REMARK 922        TOTAL FREE ENERGY PREDICTED BY IDOCK:   -2.04 KCAL/MOL
REMARK 923 INTER-LIGAND FREE ENERGY PREDICTED BY IDOCK:   -1.98 KCAL/MOL
REMARK 924 INTRA-LIGAND FREE ENERGY PREDICTED BY IDOCK:   -0.06 KCAL/MOL
REMARK 927      BINDING AFFINITY PREDICTED BY RF-SCORE:    0.00 PKD
ROOT
ATOM      1  CG2 THR A   1      -9.303  17.716  67.853  1.00  0.00    -0.268 C  
ATOM      2  CB  THR A   1      -9.521  16.210  67.735  1.00  0.00    -0.217 C  
ATOM      3  HG1 THR A   1      -8.428  14.593  67.969  1.00  0.00     0.000 HD 
ATOM      4  OG1 THR A   1      -8.291  15.530  68.043  1.00  0.00    -0.139 OA 
ENDROOT
BRANCH   2   5
ATOM      5  CA  THR A   1     -10.644  15.657  68.637  1.00  0.00    -0.243 C  
ATOM      6  N   THR A   1     -10.299  15.797  70.069  1.00  0.00    -0.303 NA 
ATOM      7  C   THR A   1     -11.002  14.193  68.303  1.00  0.00    -0.251 C  
ATOM      8  OXT THR A   1     -11.219  13.324  69.140  1.00  0.00    -0.262 OA 
ATOM      9  O   THR A   1     -11.183  13.965  66.977  1.00  0.00    -0.298 OA 
ATOM     10  H1  THR A   1     -11.040  15.432  70.665  1.00  0.00     0.000 HD 
ATOM     11  H2  THR A   1     -10.069  16.762  70.305  1.00  0.00     0.000 HD 
ENDBRANCH   2   5
TORSDOF 1
ENDMDL
MODEL      164
REMARK 921   NORMALIZED FREE ENERGY PREDICTED BY IDOCK:   -1.91 KCAL/MOL
REMARK 922        TOTAL FREE ENERGY PREDICTED BY IDOCK:   -2.04 KCAL/MOL
REMARK 923 INTER-LIGAND FREE ENERGY PREDICTED BY IDOCK:   -2.37 KCAL/MOL
REMARK 924 INTRA-LIGAND FREE ENERGY PREDICTED BY IDOCK:    0.34 KCAL/MOL
REMARK 927      BINDING AFFINITY PREDICTED BY RF-SCORE:    0.00 PKD
ROOT
ATOM      1  CG2 THR A   1     -11.669  12.408  69.698  1.00  0.00    -0.377 C  
ATOM      2  CB  THR A   1     -12.070  11.215  68.834  1.00  0.00    -0.207 C  
ATOM      3  HG1 THR A   1     -12.214  10.840  66.909  1.00  0.00     0.000 HD 
ATOM      4  OG1 THR A   1     -11.964  11.582  67.446  1.00  0.00    -0.623 OA 
ENDROOT
BRANCH   2   5
ATOM      5  CA  THR A   1     -11.237   9.940  69.082  1.00  0.00    -0.107 C  
ATOM      6  N   THR A   1     -11.733   9.197  70.261  1.00  0.00    -0.466 NA 
ATOM      7  C   THR A   1      -9.729  10.237  69.220  1.00  0.00    -0.225 C  
ATOM      8  OXT THR A   1      -8.992   9.720  70.052  1.00  0.00    -0.217 OA 
ATOM      9  O   THR A   1      -9.241  11.047  68.244  1.00  0.00    -0.152 OA 
ATOM     10  H1  THR A   1     -11.183   8.354  70.425  1.00  0.00     0.000 HD 
ATOM     11  H2  THR A   1     -12.727   8.985  70.178  1.00  0.00     0.000 HD 
ENDBRANCH   2   5
TORSDOF 1
ENDMDL
MODEL      165
REMARK 921   NORMALIZED FREE ENERGY PREDICTED BY IDOCK:   -1.89 KCAL/MOL
REMARK 922        TOTAL FREE ENERGY PREDICTED BY IDOCK:   -2.01 KCAL/MOL
REMARK 923 INTER-LIGAND FREE ENERGY PREDICTED BY IDOCK:   -2.00 KCAL/MOL
REMARK 924 INTRA-LIGAND FREE ENERGY PREDICTED BY IDOCK:   -0.01 KCAL/MOL
REMARK 927      BINDING AFFINITY PREDICTED BY RF-SCORE:    0.00 PKD
ROOT
ATOM      1  CG2 THR A   1     -10.579   9.084  71.685  1.00  0.00    -0.434 C  
ATOM      2  CB  THR A   1     -10.291   8.837  70.206  1.00  0.00    -0.203 C  
ATOM      3  HG1 THR A   1      -9.250   9.726  68.794  1.00  0.00     0.000 HD 
ATOM      4  OG1 THR A   1      -9.429   9.879  69.714  1.00  0.00    -0.210 OA 
ENDROOT
BRANCH   2   5
ATOM      5  CA  THR A   1      -9.651   7.467  69.901  1.00  0.00    -0.160 C  
ATOM      6  N   THR A   1      -8.473   7.610  69.018  1.00  0.00    -0.132 NA 
ATOM      7  C   THR A   1     -10.660   6.462  69.307  1.00  0.00    -0.259 C  
ATOM      8  OXT THR A   1     -10.417   5.703  68.375  1.00  0.00    -0.199 OA 
ATOM      9  O   THR A   1     -11.832   6.396  69.991  1.00  0.00    -0.404 OA 
ATOM     10  H1  THR A   1      -8.050   6.705  68.817  1.00  0.00     0.000 HD 
ATOM     11  H2  THR A   1      -7.793   8.265  69.405  1.00  0.00     0.000 HD 
ENDBRANCH   2   5
TORSDOF 1
ENDMDL
MODEL      166
REMARK 921   NORMALIZED FREE ENERGY PREDICTED BY IDOCK:   -1.86 KCAL/MOL
REMARK 922        TOTAL FREE ENERGY PREDICTED BY IDOCK:   -1.98 KCAL/MOL
REMARK 923 INTER-LIGAND FREE ENERGY PREDICTED BY IDOCK:   -2.34 KCAL/MOL
REMARK 924 INTRA-LIGAND FREE ENERGY PREDICTED BY IDOCK:    0.35 KCAL/MOL
REMARK 927      BINDING AFFINITY PREDICTED BY RF-SCORE:    0.00 PKD
ROOT
ATOM      1  CG2 THR A   1      -7.661  15.198  69.017  1.00  0.00    -0.177 C  
ATOM      2  CB  THR A   1      -9.154  15.073  68.721  1.00  0.00    -0.197 C  
ATOM      3  HG1 THR A   1     -10.821  15.749  69.515  1.00  0.00     0.000 HD 
ATOM      4  OG1 THR A   1      -9.893  15.827  69.699  1.00  0.00    -0.276 OA 
ENDROOT
BRANCH   2   5
ATOM      5  CA  THR A   1      -9.565  15.540  67.309  1.00  0.00    -0.213 C  
ATOM      6  N   THR A   1      -9.214  14.530  66.287  1.00  0.00    -0.468 NA 
ATOM      7  C   THR A   1      -8.967  16.916  66.945  1.00  0.00    -0.224 C  
ATOM      8  OXT THR A   1      -8.490  17.198  65.851  1.00  0.00    -0.529 OA 
ATOM      9  O   THR A   1      -9.124  17.853  67.915  1.00  0.00    -0.251 OA 
ATOM     10  H1  THR A   1      -9.485  14.839  65.354  1.00  0.00     0.000 HD 
ATOM     11  H2  THR A   1      -9.611  13.618  66.511  1.00  0.00     0.000 HD 
ENDBRANCH   2   5
TORSDOF 1
ENDMDL
MODEL      167
REMARK 921   NORMALIZED FREE ENERGY PREDICTED BY IDOCK:   -1.86 KCAL/MOL
REMARK 922        TOTAL FREE ENERGY PREDICTED BY IDOCK:   -1.98 KCAL/MOL
REMARK 923 INTER-LIGAND FREE ENERGY PREDICTED BY IDOCK:   -1.94 KCAL/MOL
REMARK 924 INTRA-LIGAND FREE ENERGY PREDICTED BY IDOCK:   -0.05 KCAL/MOL
REMARK 927      BINDING AFFINITY PREDICTED BY RF-SCORE:    0.00 PKD
ROOT
ATOM      1  CG2 THR A   1      -8.104   9.078  71.120  1.00  0.00    -0.185 C  
ATOM      2  CB  THR A   1      -9.125   8.077  71.655  1.00  0.00    -0.150 C  
ATOM      3  HG1 THR A   1      -9.819   7.562  73.422  1.00  0.00     0.000 HD 
ATOM      4  OG1 THR A   1      -9.184   8.185  73.089  1.00  0.00    -0.261 OA 
ENDROOT
BRANCH   2   5
ATOM      5  CA  THR A   1     -10.546   8.245  71.078  1.00  0.00    -0.204 C  
ATOM      6  N   THR A   1     -11.532   8.505  72.149  1.00  0.00    -0.356 NA 
ATOM      7  C   THR A   1     -10.979   7.040  70.216  1.00  0.00    -0.271 C  
ATOM      8  OXT THR A   1     -12.094   6.531  70.247  1.00  0.00    -0.348 OA 
ATOM      9  O   THR A   1     -10.046   6.654  69.309  1.00  0.00    -0.161 OA 
ATOM     10  H1  THR A   1     -12.471   8.617  71.767  1.00  0.00     0.000 HD 
ATOM     11  H2  THR A   1     -11.262   9.306  72.720  1.00  0.00     0.000 HD 
ENDBRANCH   2   5
TORSDOF 1
ENDMDL
MODEL      168
REMARK 921   NORMALIZED FREE ENERGY PREDICTED BY IDOCK:   -1.86 KCAL/MOL
REMARK 922        TOTAL FREE ENERGY PREDICTED BY IDOCK:   -1.98 KCAL/MOL
REMARK 923 INTER-LIGAND FREE ENERGY PREDICTED BY IDOCK:   -2.65 KCAL/MOL
REMARK 924 INTRA-LIGAND FREE ENERGY PREDICTED BY IDOCK:    0.67 KCAL/MOL
REMARK 927      BINDING AFFINITY PREDICTED BY RF-SCORE:    0.00 PKD
ROOT
ATOM      1  CG2 THR A   1     -12.054  10.914  71.022  1.00  0.00    -0.425 C  
ATOM      2  CB  THR A   1     -10.966   9.893  70.696  1.00  0.00    -0.337 C  
ATOM      3  HG1 THR A   1     -10.874   7.943  70.458  1.00  0.00     0.000 HD 
ATOM      4  OG1 THR A   1     -11.551   8.579  70.660  1.00  0.00    -0.270 OA 
ENDROOT
BRANCH   2   5
ATOM      5  CA  THR A   1     -10.226  10.152  69.368  1.00  0.00    -0.227 C  
ATOM      6  N   THR A   1      -8.811  10.511  69.603  1.00  0.00    -0.388 NA 
ATOM      7  C   THR A   1     -10.924  11.223  68.502  1.00  0.00    -0.220 C  
ATOM      8  OXT THR A   1     -10.338  12.108  67.887  1.00  0.00    -0.197 OA 
ATOM      9  O   THR A   1     -12.262  11.034  68.373  1.00  0.00    -0.586 OA 
ATOM     10  H1  THR A   1      -8.322  10.682  68.726  1.00  0.00     0.000 HD 
ATOM     11  H2  THR A   1      -8.335   9.806  70.166  1.00  0.00     0.000 HD 
ENDBRANCH   2   5
TORSDOF 1
ENDMDL
MODEL      169
REMARK 921   NORMALIZED FREE ENERGY PREDICTED BY IDOCK:   -1.86 KCAL/MOL
REMARK 922        TOTAL FREE ENERGY PREDICTED BY IDOCK:   -1.98 KCAL/MOL
REMARK 923 INTER-LIGAND FREE ENERGY PREDICTED BY IDOCK:   -1.91 KCAL/MOL
REMARK 924 INTRA-LIGAND FREE ENERGY PREDICTED BY IDOCK:   -0.06 KCAL/MOL
REMARK 927      BINDING AFFINITY PREDICTED BY RF-SCORE:    0.00 PKD
ROOT
ATOM      1  CG2 THR A   1     -10.548   8.513  69.470  1.00  0.00    -0.215 C  
ATOM      2  CB  THR A   1     -11.076   7.254  70.152  1.00  0.00    -0.258 C  
ATOM      3  HG1 THR A   1     -11.792   5.517  69.571  1.00  0.00     0.000 HD 
ATOM      4  OG1 THR A   1     -11.463   6.300  69.146  1.00  0.00    -0.394 OA 
ENDROOT
BRANCH   2   5
ATOM      5  CA  THR A   1     -10.077   6.588  71.121  1.00  0.00    -0.183 C  
ATOM      6  N   THR A   1      -8.889   6.081  70.402  1.00  0.00    -0.146 NA 
ATOM      7  C   THR A   1     -10.727   5.468  71.961  1.00  0.00    -0.234 C  
ATOM      8  OXT THR A   1     -10.200   4.387  72.202  1.00  0.00    -0.186 OA 
ATOM      9  O   THR A   1     -11.908   5.825  72.528  1.00  0.00    -0.297 OA 
ATOM     10  H1  THR A   1      -8.229   5.641  71.042  1.00  0.00     0.000 HD 
ATOM     11  H2  THR A   1      -8.444   6.815  69.850  1.00  0.00     0.000 HD 
ENDBRANCH   2   5
TORSDOF 1
ENDMDL
MODEL      170
REMARK 921   NORMALIZED FREE ENERGY PREDICTED BY IDOCK:   -1.86 KCAL/MOL
REMARK 922        TOTAL FREE ENERGY PREDICTED BY IDOCK:   -1.98 KCAL/MOL
REMARK 923 INTER-LIGAND FREE ENERGY PREDICTED BY IDOCK:   -1.93 KCAL/MOL
REMARK 924 INTRA-LIGAND FREE ENERGY PREDICTED BY IDOCK:   -0.05 KCAL/MOL
REMARK 927      BINDING AFFINITY PREDICTED BY RF-SCORE:    0.00 PKD
ROOT
ATOM      1  CG2 THR A   1      -7.835  16.882  67.287  1.00  0.00    -0.204 C  
ATOM      2  CB  THR A   1      -7.795  15.364  67.134  1.00  0.00    -0.214 C  
ATOM      3  HG1 THR A   1      -6.413  13.966  67.189  1.00  0.00     0.000 HD 
ATOM      4  OG1 THR A   1      -6.437  14.911  67.285  1.00  0.00    -0.304 OA 
ENDROOT
BRANCH   2   5
ATOM      5  CA  THR A   1      -8.694  14.600  68.128  1.00  0.00    -0.168 C  
ATOM      6  N   THR A   1      -7.887  13.844  69.110  1.00  0.00    -0.337 NA 
ATOM      7  C   THR A   1      -9.702  13.671  67.419  1.00  0.00    -0.228 C  
ATOM      8  OXT THR A   1      -9.975  12.534  67.786  1.00  0.00    -0.200 OA 
ATOM      9  O   THR A   1     -10.372  14.269  66.399  1.00  0.00    -0.275 OA 
ATOM     10  H1  THR A   1      -8.481  13.339  69.767  1.00  0.00     0.000 HD 
ATOM     11  H2  THR A   1      -7.223  14.448  69.593  1.00  0.00     0.000 HD 
ENDBRANCH   2   5
TORSDOF 1
ENDMDL
MODEL      171
REMARK 921   NORMALIZED FREE ENERGY PREDICTED BY IDOCK:   -1.86 KCAL/MOL
REMARK 922        TOTAL FREE ENERGY PREDICTED BY IDOCK:   -1.98 KCAL/MOL
REMARK 923 INTER-LIGAND FREE ENERGY PREDICTED BY IDOCK:   -2.02 KCAL/MOL
REMARK 924 INTRA-LIGAND FREE ENERGY PREDICTED BY IDOCK:    0.05 KCAL/MOL
REMARK 927      BINDING AFFINITY PREDICTED BY RF-SCORE:    0.00 PKD
ROOT
ATOM      1  CG2 THR A   1     -10.574   5.875  69.822  1.00  0.00    -0.374 C  
ATOM      2  CB  THR A   1     -10.173   6.900  68.764  1.00  0.00    -0.174 C  
ATOM      3  HG1 THR A   1     -10.662   7.283  66.898  1.00  0.00     0.000 HD 
ATOM      4  OG1 THR A   1     -10.913   6.645  67.556  1.00  0.00    -0.309 OA 
ENDROOT
BRANCH   2   5
ATOM      5  CA  THR A   1     -10.387   8.369  69.186  1.00  0.00    -0.220 C  
ATOM      6  N   THR A   1     -10.938   9.171  68.072  1.00  0.00    -0.493 NA 
ATOM      7  C   THR A   1      -9.102   9.017  69.742  1.00  0.00    -0.159 C  
ATOM      8  OXT THR A   1      -8.729  10.155  69.479  1.00  0.00    -0.174 OA 
ATOM      9  O   THR A   1      -8.462   8.254  70.666  1.00  0.00    -0.120 OA 
ATOM     10  H1  THR A   1     -11.080  10.142  68.351  1.00  0.00     0.000 HD 
ATOM     11  H2  THR A   1     -11.794   8.759  67.701  1.00  0.00     0.000 HD 
ENDBRANCH   2   5
TORSDOF 1
ENDMDL
MODEL      172
REMARK 921   NORMALIZED FREE ENERGY PREDICTED BY IDOCK:   -1.84 KCAL/MOL
REMARK 922        TOTAL FREE ENERGY PREDICTED BY IDOCK:   -1.95 KCAL/MOL
REMARK 923 INTER-LIGAND FREE ENERGY PREDICTED BY IDOCK:   -2.30 KCAL/MOL
REMARK 924 INTRA-LIGAND FREE ENERGY PREDICTED BY IDOCK:    0.35 KCAL/MOL
REMARK 927      BINDING AFFINITY PREDICTED BY RF-SCORE:    0.00 PKD
ROOT
ATOM      1  CG2 THR A   1      -7.501  18.632  68.737  1.00  0.00    -0.322 C  
ATOM      2  CB  THR A   1      -6.417  18.732  67.667  1.00  0.00    -0.206 C  
ATOM      3  HG1 THR A   1      -4.584  18.057  67.434  1.00  0.00     0.000 HD 
ATOM      4  OG1 THR A   1      -5.259  17.995  68.100  1.00  0.00    -0.152 OA 
ENDROOT
BRANCH   2   5
ATOM      5  CA  THR A   1      -6.846  18.224  66.275  1.00  0.00    -0.240 C  
ATOM      6  N   THR A   1      -7.446  19.310  65.470  1.00  0.00    -0.437 NA 
ATOM      7  C   THR A   1      -7.801  17.014  66.357  1.00  0.00    -0.308 C  
ATOM      8  OXT THR A   1      -8.795  16.866  65.655  1.00  0.00    -0.472 OA 
ATOM      9  O   THR A   1      -7.378  16.041  67.205  1.00  0.00    -0.167 OA 
ATOM     10  H1  THR A   1      -7.730  18.974  64.550  1.00  0.00     0.000 HD 
ATOM     11  H2  THR A   1      -6.821  20.113  65.399  1.00  0.00     0.000 HD 
ENDBRANCH   2   5
TORSDOF 1
ENDMDL
MODEL      173
REMARK 921   NORMALIZED FREE ENERGY PREDICTED BY IDOCK:   -1.80 KCAL/MOL
REMARK 922        TOTAL FREE ENERGY PREDICTED BY IDOCK:   -1.92 KCAL/MOL
REMARK 923 INTER-LIGAND FREE ENERGY PREDICTED BY IDOCK:   -1.89 KCAL/MOL
REMARK 924 INTRA-LIGAND FREE ENERGY PREDICTED BY IDOCK:   -0.03 KCAL/MOL
REMARK 927      BINDING AFFINITY PREDICTED BY RF-SCORE:    0.00 PKD
ROOT
ATOM      1  CG2 THR A   1      -8.992   3.826  70.674  1.00  0.00    -0.159 C  
ATOM      2  CB  THR A   1      -9.320   5.307  70.501  1.00  0.00    -0.157 C  
ATOM      3  HG1 THR A   1      -9.283   6.607  69.026  1.00  0.00     0.000 HD 
ATOM      4  OG1 THR A   1      -9.079   5.686  69.133  1.00  0.00    -0.112 OA 
ENDROOT
BRANCH   2   5
ATOM      5  CA  THR A   1     -10.766   5.687  70.882  1.00  0.00    -0.243 C  
ATOM      6  N   THR A   1     -11.422   6.452  69.799  1.00  0.00    -0.523 NA 
ATOM      7  C   THR A   1     -10.842   6.457  72.217  1.00  0.00    -0.239 C  
ATOM      8  OXT THR A   1     -11.556   7.434  72.416  1.00  0.00    -0.283 OA 
ATOM      9  O   THR A   1     -10.129   5.882  73.220  1.00  0.00    -0.175 OA 
ATOM     10  H1  THR A   1     -12.378   6.704  70.050  1.00  0.00     0.000 HD 
ATOM     11  H2  THR A   1     -11.388   5.950  68.912  1.00  0.00     0.000 HD 
ENDBRANCH   2   5
TORSDOF 1
ENDMDL
MODEL      174
REMARK 921   NORMALIZED FREE ENERGY PREDICTED BY IDOCK:   -1.80 KCAL/MOL
REMARK 922        TOTAL FREE ENERGY PREDICTED BY IDOCK:   -1.91 KCAL/MOL
REMARK 923 INTER-LIGAND FREE ENERGY PREDICTED BY IDOCK:   -1.87 KCAL/MOL
REMARK 924 INTRA-LIGAND FREE ENERGY PREDICTED BY IDOCK:   -0.05 KCAL/MOL
REMARK 927      BINDING AFFINITY PREDICTED BY RF-SCORE:    0.00 PKD
ROOT
ATOM      1  CG2 THR A   1      -9.234  11.767  66.417  1.00  0.00    -0.223 C  
ATOM      2  CB  THR A   1      -9.870  11.596  67.794  1.00  0.00    -0.179 C  
ATOM      3  HG1 THR A   1     -11.634  11.935  68.597  1.00  0.00     0.000 HD 
ATOM      4  OG1 THR A   1     -11.238  12.041  67.740  1.00  0.00    -0.235 OA 
ENDROOT
BRANCH   2   5
ATOM      5  CA  THR A   1      -9.832  10.153  68.340  1.00  0.00    -0.151 C  
ATOM      6  N   THR A   1     -11.194   9.590  68.464  1.00  0.00    -0.486 NA 
ATOM      7  C   THR A   1      -9.073  10.048  69.680  1.00  0.00    -0.210 C  
ATOM      8  OXT THR A   1      -9.442   9.373  70.635  1.00  0.00    -0.251 OA 
ATOM      9  O   THR A   1      -7.872  10.681  69.678  1.00  0.00    -0.133 OA 
ATOM     10  H1  THR A   1     -11.168   8.637  68.824  1.00  0.00     0.000 HD 
ATOM     11  H2  THR A   1     -11.703   9.644  67.582  1.00  0.00     0.000 HD 
ENDBRANCH   2   5
TORSDOF 1
ENDMDL
MODEL      175
REMARK 921   NORMALIZED FREE ENERGY PREDICTED BY IDOCK:   -1.79 KCAL/MOL
REMARK 922        TOTAL FREE ENERGY PREDICTED BY IDOCK:   -1.90 KCAL/MOL
REMARK 923 INTER-LIGAND FREE ENERGY PREDICTED BY IDOCK:   -1.86 KCAL/MOL
REMARK 924 INTRA-LIGAND FREE ENERGY PREDICTED BY IDOCK:   -0.04 KCAL/MOL
REMARK 927      BINDING AFFINITY PREDICTED BY RF-SCORE:    0.00 PKD
ROOT
ATOM      1  CG2 THR A   1      -9.567   4.063  69.763  1.00  0.00    -0.280 C  
ATOM      2  CB  THR A   1      -9.366   5.159  68.720  1.00  0.00    -0.125 C  
ATOM      3  HG1 THR A   1      -8.976   5.232  66.794  1.00  0.00     0.000 HD 
ATOM      4  OG1 THR A   1      -9.101   4.550  67.443  1.00  0.00    -0.117 OA 
ENDROOT
BRANCH   2   5
ATOM      5  CA  THR A   1     -10.557   6.130  68.578  1.00  0.00    -0.271 C  
ATOM      6  N   THR A   1     -11.034   6.192  67.180  1.00  0.00    -0.506 NA 
ATOM      7  C   THR A   1     -10.234   7.543  69.108  1.00  0.00    -0.202 C  
ATOM      8  OXT THR A   1     -10.561   8.585  68.551  1.00  0.00    -0.193 OA 
ATOM      9  O   THR A   1      -9.649   7.545  70.334  1.00  0.00    -0.169 OA 
ATOM     10  H1  THR A   1     -11.821   6.833  67.086  1.00  0.00     0.000 HD 
ATOM     11  H2  THR A   1     -11.261   5.265  66.820  1.00  0.00     0.000 HD 
ENDBRANCH   2   5
TORSDOF 1
ENDMDL
MODEL      176
REMARK 921   NORMALIZED FREE ENERGY PREDICTED BY IDOCK:   -1.77 KCAL/MOL
REMARK 922        TOTAL FREE ENERGY PREDICTED BY IDOCK:   -1.89 KCAL/MOL
REMARK 923 INTER-LIGAND FREE ENERGY PREDICTED BY IDOCK:   -1.83 KCAL/MOL
REMARK 924 INTRA-LIGAND FREE ENERGY PREDICTED BY IDOCK:   -0.05 KCAL/MOL
REMARK 927      BINDING AFFINITY PREDICTED BY RF-SCORE:    0.00 PKD
ROOT
ATOM      1  CG2 THR A   1     -11.587  12.272  66.935  1.00  0.00    -0.427 C  
ATOM      2  CB  THR A   1     -10.612  11.303  67.599  1.00  0.00    -0.213 C  
ATOM      3  HG1 THR A   1     -10.009   9.458  67.286  1.00  0.00     0.000 HD 
ATOM      4  OG1 THR A   1     -10.615  10.061  66.872  1.00  0.00    -0.236 OA 
ENDROOT
BRANCH   2   5
ATOM      5  CA  THR A   1      -9.163  11.825  67.698  1.00  0.00    -0.180 C  
ATOM      6  N   THR A   1      -8.640  12.211  66.370  1.00  0.00    -0.390 NA 
ATOM      7  C   THR A   1      -8.218  10.816  68.385  1.00  0.00    -0.129 C  
ATOM      8  OXT THR A   1      -7.080  10.563  68.006  1.00  0.00    -0.083 OA 
ATOM      9  O   THR A   1      -8.712  10.305  69.542  1.00  0.00    -0.175 OA 
ATOM     10  H1  THR A   1      -7.683  12.556  66.435  1.00  0.00     0.000 HD 
ATOM     11  H2  THR A   1      -9.251  12.885  65.909  1.00  0.00     0.000 HD 
ENDBRANCH   2   5
TORSDOF 1
ENDMDL
MODEL      177
REMARK 921   NORMALIZED FREE ENERGY PREDICTED BY IDOCK:   -1.77 KCAL/MOL
REMARK 922        TOTAL FREE ENERGY PREDICTED BY IDOCK:   -1.88 KCAL/MOL
REMARK 923 INTER-LIGAND FREE ENERGY PREDICTED BY IDOCK:   -1.84 KCAL/MOL
REMARK 924 INTRA-LIGAND FREE ENERGY PREDICTED BY IDOCK:   -0.04 KCAL/MOL
REMARK 927      BINDING AFFINITY PREDICTED BY RF-SCORE:    0.00 PKD
ROOT
ATOM      1  CG2 THR A   1     -11.351   9.514  70.998  1.00  0.00    -0.423 C  
ATOM      2  CB  THR A   1     -10.356   9.495  69.841  1.00  0.00    -0.236 C  
ATOM      3  HG1 THR A   1      -9.630  10.809  68.570  1.00  0.00     0.000 HD 
ATOM      4  OG1 THR A   1     -10.249  10.821  69.290  1.00  0.00    -0.218 OA 
ENDROOT
BRANCH   2   5
ATOM      5  CA  THR A   1      -8.947   8.992  70.219  1.00  0.00    -0.198 C  
ATOM      6  N   THR A   1      -7.976  10.106  70.272  1.00  0.00    -0.405 NA 
ATOM      7  C   THR A   1      -8.447   7.875  69.279  1.00  0.00    -0.137 C  
ATOM      8  OXT THR A   1      -7.305   7.799  68.838  1.00  0.00    -0.082 OA 
ATOM      9  O   THR A   1      -9.358   6.891  69.067  1.00  0.00    -0.137 OA 
ATOM     10  H1  THR A   1      -7.046   9.773  70.522  1.00  0.00     0.000 HD 
ATOM     11  H2  THR A   1      -8.290  10.847  70.898  1.00  0.00     0.000 HD 
ENDBRANCH   2   5
TORSDOF 1
ENDMDL
MODEL      178
REMARK 921   NORMALIZED FREE ENERGY PREDICTED BY IDOCK:   -1.76 KCAL/MOL
REMARK 922        TOTAL FREE ENERGY PREDICTED BY IDOCK:   -1.88 KCAL/MOL
REMARK 923 INTER-LIGAND FREE ENERGY PREDICTED BY IDOCK:   -2.21 KCAL/MOL
REMARK 924 INTRA-LIGAND FREE ENERGY PREDICTED BY IDOCK:    0.34 KCAL/MOL
REMARK 927      BINDING AFFINITY PREDICTED BY RF-SCORE:    0.00 PKD
ROOT
ATOM      1  CG2 THR A   1      -8.924  16.242  66.172  1.00  0.00    -0.374 C  
ATOM      2  CB  THR A   1      -9.845  16.929  67.176  1.00  0.00    -0.270 C  
ATOM      3  HG1 THR A   1     -11.557  16.513  68.050  1.00  0.00     0.000 HD 
ATOM      4  OG1 THR A   1     -10.983  16.085  67.425  1.00  0.00    -0.315 OA 
ENDROOT
BRANCH   2   5
ATOM      5  CA  THR A   1      -9.174  17.280  68.521  1.00  0.00    -0.273 C  
ATOM      6  N   THR A   1      -8.426  18.553  68.431  1.00  0.00    -0.321 NA 
ATOM      7  C   THR A   1      -8.262  16.147  69.039  1.00  0.00    -0.244 C  
ATOM      8  OXT THR A   1      -7.158  16.320  69.543  1.00  0.00    -0.219 OA 
ATOM      9  O   THR A   1      -8.843  14.920  69.003  1.00  0.00    -0.196 OA 
ATOM     10  H1  THR A   1      -7.983  18.784  69.319  1.00  0.00     0.000 HD 
ATOM     11  H2  THR A   1      -9.020  19.313  68.099  1.00  0.00     0.000 HD 
ENDBRANCH   2   5
TORSDOF 1
ENDMDL
MODEL      179
REMARK 921   NORMALIZED FREE ENERGY PREDICTED BY IDOCK:   -1.74 KCAL/MOL
REMARK 922        TOTAL FREE ENERGY PREDICTED BY IDOCK:   -1.85 KCAL/MOL
REMARK 923 INTER-LIGAND FREE ENERGY PREDICTED BY IDOCK:   -1.96 KCAL/MOL
REMARK 924 INTRA-LIGAND FREE ENERGY PREDICTED BY IDOCK:    0.12 KCAL/MOL
REMARK 927      BINDING AFFINITY PREDICTED BY RF-SCORE:    0.00 PKD
ROOT
ATOM      1  CG2 THR A   1     -10.650  10.496  66.585  1.00  0.00    -0.263 C  
ATOM      2  CB  THR A   1     -10.354  11.874  67.172  1.00  0.00    -0.210 C  
ATOM      3  HG1 THR A   1     -10.904  13.725  66.801  1.00  0.00     0.000 HD 
ATOM      4  OG1 THR A   1     -11.088  12.868  66.435  1.00  0.00    -0.274 OA 
ENDROOT
BRANCH   2   5
ATOM      5  CA  THR A   1     -10.686  12.011  68.673  1.00  0.00    -0.236 C  
ATOM      6  N   THR A   1     -11.901  11.246  69.025  1.00  0.00    -0.335 NA 
ATOM      7  C   THR A   1     -10.820  13.484  69.115  1.00  0.00    -0.134 C  
ATOM      8  OXT THR A   1     -11.690  13.905  69.870  1.00  0.00    -0.280 OA 
ATOM      9  O   THR A   1      -9.804  14.277  68.689  1.00  0.00    -0.232 OA 
ATOM     10  H1  THR A   1     -12.120  11.336  70.017  1.00  0.00     0.000 HD 
ATOM     11  H2  THR A   1     -11.821  10.268  68.747  1.00  0.00     0.000 HD 
ENDBRANCH   2   5
TORSDOF 1
ENDMDL
MODEL      180
REMARK 921   NORMALIZED FREE ENERGY PREDICTED BY IDOCK:   -1.69 KCAL/MOL
REMARK 922        TOTAL FREE ENERGY PREDICTED BY IDOCK:   -1.80 KCAL/MOL
REMARK 923 INTER-LIGAND FREE ENERGY PREDICTED BY IDOCK:   -1.86 KCAL/MOL
REMARK 924 INTRA-LIGAND FREE ENERGY PREDICTED BY IDOCK:    0.06 KCAL/MOL
REMARK 927      BINDING AFFINITY PREDICTED BY RF-SCORE:    0.00 PKD
ROOT
ATOM      1  CG2 THR A   1      -9.562  14.874  68.576  1.00  0.00    -0.215 C  
ATOM      2  CB  THR A   1      -9.350  16.269  67.992  1.00  0.00    -0.214 C  
ATOM      3  HG1 THR A   1     -10.318  17.981  68.015  1.00  0.00     0.000 HD 
ATOM      4  OG1 THR A   1     -10.449  17.113  68.379  1.00  0.00    -0.334 OA 
ENDROOT
BRANCH   2   5
ATOM      5  CA  THR A   1      -8.026  16.941  68.411  1.00  0.00    -0.232 C  
ATOM      6  N   THR A   1      -8.220  18.381  68.688  1.00  0.00    -0.315 NA 
ATOM      7  C   THR A   1      -6.903  16.730  67.374  1.00  0.00    -0.157 C  
ATOM      8  OXT THR A   1      -6.114  17.599  67.020  1.00  0.00    -0.130 OA 
ATOM      9  O   THR A   1      -6.774  15.442  66.963  1.00  0.00    -0.261 OA 
ATOM     10  H1  THR A   1      -7.345  18.825  68.965  1.00  0.00     0.000 HD 
ATOM     11  H2  THR A   1      -8.954  18.534  69.380  1.00  0.00     0.000 HD 
ENDBRANCH   2   5
TORSDOF 1
ENDMDL
MODEL      181
REMARK 921   NORMALIZED FREE ENERGY PREDICTED BY IDOCK:   -1.68 KCAL/MOL
REMARK 922        TOTAL FREE ENERGY PREDICTED BY IDOCK:   -1.79 KCAL/MOL
REMARK 923 INTER-LIGAND FREE ENERGY PREDICTED BY IDOCK:   -2.24 KCAL/MOL
REMARK 924 INTRA-LIGAND FREE ENERGY PREDICTED BY IDOCK:    0.44 KCAL/MOL
REMARK 927      BINDING AFFINITY PREDICTED BY RF-SCORE:    0.00 PKD
ROOT
ATOM      1  CG2 THR A   1     -11.631  11.672  69.821  1.00  0.00    -0.389 C  
ATOM      2  CB  THR A   1     -11.779  11.619  68.302  1.00  0.00    -0.304 C  
ATOM      3  HG1 THR A   1     -11.930  12.928  66.843  1.00  0.00     0.000 HD 
ATOM      4  OG1 THR A   1     -11.838  12.961  67.788  1.00  0.00    -0.349 OA 
ENDROOT
BRANCH   2   5
ATOM      5  CA  THR A   1     -10.652  10.851  67.579  1.00  0.00    -0.230 C  
ATOM      6  N   THR A   1     -10.649  11.145  66.130  1.00  0.00    -0.260 NA 
ATOM      7  C   THR A   1     -10.721   9.329  67.828  1.00  0.00    -0.207 C  
ATOM      8  OXT THR A   1     -10.542   8.477  66.965  1.00  0.00    -0.306 OA 
ATOM      9  O   THR A   1     -10.879   8.997  69.135  1.00  0.00    -0.193 OA 
ATOM     10  H1  THR A   1      -9.905  10.638  65.652  1.00  0.00     0.000 HD 
ATOM     11  H2  THR A   1     -10.594  12.147  65.951  1.00  0.00     0.000 HD 
ENDBRANCH   2   5
TORSDOF 1
ENDMDL
MODEL      182
REMARK 921   NORMALIZED FREE ENERGY PREDICTED BY IDOCK:   -1.68 KCAL/MOL
REMARK 922        TOTAL FREE ENERGY PREDICTED BY IDOCK:   -1.79 KCAL/MOL
REMARK 923 INTER-LIGAND FREE ENERGY PREDICTED BY IDOCK:   -1.74 KCAL/MOL
REMARK 924 INTRA-LIGAND FREE ENERGY PREDICTED BY IDOCK:   -0.05 KCAL/MOL
REMARK 927      BINDING AFFINITY PREDICTED BY RF-SCORE:    0.00 PKD
ROOT
ATOM      1  CG2 THR A   1     -10.685   7.451  67.168  1.00  0.00    -0.400 C  
ATOM      2  CB  THR A   1      -9.298   7.704  66.583  1.00  0.00    -0.190 C  
ATOM      3  HG1 THR A   1      -8.079   6.763  65.359  1.00  0.00     0.000 HD 
ATOM      4  OG1 THR A   1      -8.943   6.606  65.723  1.00  0.00    -0.127 OA 
ENDROOT
BRANCH   2   5
ATOM      5  CA  THR A   1      -9.170   9.024  65.794  1.00  0.00    -0.232 C  
ATOM      6  N   THR A   1      -8.863   8.770  64.370  1.00  0.00    -0.415 NA 
ATOM      7  C   THR A   1      -8.131   9.984  66.413  1.00  0.00    -0.120 C  
ATOM      8  OXT THR A   1      -7.322  10.640  65.767  1.00  0.00    -0.148 OA 
ATOM      9  O   THR A   1      -8.266  10.141  67.755  1.00  0.00    -0.109 OA 
ATOM     10  H1  THR A   1      -8.779   9.642  63.848  1.00  0.00     0.000 HD 
ATOM     11  H2  THR A   1      -9.548   8.144  63.945  1.00  0.00     0.000 HD 
ENDBRANCH   2   5
TORSDOF 1
ENDMDL
MODEL      183
REMARK 921   NORMALIZED FREE ENERGY PREDICTED BY IDOCK:   -1.68 KCAL/MOL
REMARK 922        TOTAL FREE ENERGY PREDICTED BY IDOCK:   -1.79 KCAL/MOL
REMARK 923 INTER-LIGAND FREE ENERGY PREDICTED BY IDOCK:   -1.74 KCAL/MOL
REMARK 924 INTRA-LIGAND FREE ENERGY PREDICTED BY IDOCK:   -0.04 KCAL/MOL
REMARK 927      BINDING AFFINITY PREDICTED BY RF-SCORE:    0.00 PKD
ROOT
ATOM      1  CG2 THR A   1     -10.641   5.507  70.206  1.00  0.00    -0.357 C  
ATOM      2  CB  THR A   1     -10.289   5.417  71.689  1.00  0.00    -0.218 C  
ATOM      3  HG1 THR A   1      -9.679   4.010  72.920  1.00  0.00     0.000 HD 
ATOM      4  OG1 THR A   1      -9.897   4.067  71.998  1.00  0.00    -0.157 OA 
ENDROOT
BRANCH   2   5
ATOM      5  CA  THR A   1      -9.172   6.381  72.139  1.00  0.00    -0.140 C  
ATOM      6  N   THR A   1      -7.877   5.680  72.265  1.00  0.00    -0.102 NA 
ATOM      7  C   THR A   1      -9.523   7.121  73.447  1.00  0.00    -0.193 C  
ATOM      8  OXT THR A   1      -8.735   7.315  74.367  1.00  0.00    -0.197 OA 
ATOM      9  O   THR A   1     -10.769   7.662  73.452  1.00  0.00    -0.379 OA 
ATOM     10  H1  THR A   1      -7.139   6.317  72.562  1.00  0.00     0.000 HD 
ATOM     11  H2  THR A   1      -7.628   5.194  71.403  1.00  0.00     0.000 HD 
ENDBRANCH   2   5
TORSDOF 1
ENDMDL
MODEL      184
REMARK 921   NORMALIZED FREE ENERGY PREDICTED BY IDOCK:   -1.68 KCAL/MOL
REMARK 922        TOTAL FREE ENERGY PREDICTED BY IDOCK:   -1.78 KCAL/MOL
REMARK 923 INTER-LIGAND FREE ENERGY PREDICTED BY IDOCK:   -1.74 KCAL/MOL
REMARK 924 INTRA-LIGAND FREE ENERGY PREDICTED BY IDOCK:   -0.05 KCAL/MOL
REMARK 927      BINDING AFFINITY PREDICTED BY RF-SCORE:    0.00 PKD
ROOT
ATOM      1  CG2 THR A   1      -9.133   8.481  66.840  1.00  0.00    -0.177 C  
ATOM      2  CB  THR A   1     -10.200   7.708  67.612  1.00  0.00    -0.214 C  
ATOM      3  HG1 THR A   1     -11.555   6.349  67.187  1.00  0.00     0.000 HD 
ATOM      4  OG1 THR A   1     -10.892   6.830  66.707  1.00  0.00    -0.320 OA 
ENDROOT
BRANCH   2   5
ATOM      5  CA  THR A   1      -9.655   6.883  68.797  1.00  0.00    -0.134 C  
ATOM      6  N   THR A   1      -9.136   5.574  68.346  1.00  0.00    -0.110 NA 
ATOM      7  C   THR A   1     -10.701   6.698  69.917  1.00  0.00    -0.250 C  
ATOM      8  OXT THR A   1     -10.891   5.649  70.523  1.00  0.00    -0.283 OA 
ATOM      9  O   THR A   1     -11.329   7.848  70.274  1.00  0.00    -0.247 OA 
ATOM     10  H1  THR A   1      -8.776   5.029  69.128  1.00  0.00     0.000 HD 
ATOM     11  H2  THR A   1      -8.436   5.683  67.612  1.00  0.00     0.000 HD 
ENDBRANCH   2   5
TORSDOF 1
ENDMDL
MODEL      185
REMARK 921   NORMALIZED FREE ENERGY PREDICTED BY IDOCK:   -1.67 KCAL/MOL
REMARK 922        TOTAL FREE ENERGY PREDICTED BY IDOCK:   -1.78 KCAL/MOL
REMARK 923 INTER-LIGAND FREE ENERGY PREDICTED BY IDOCK:   -1.72 KCAL/MOL
REMARK 924 INTRA-LIGAND FREE ENERGY PREDICTED BY IDOCK:   -0.06 KCAL/MOL
REMARK 927      BINDING AFFINITY PREDICTED BY RF-SCORE:    0.00 PKD
ROOT
ATOM      1  CG2 THR A   1     -10.700   6.203  69.495  1.00  0.00    -0.386 C  
ATOM      2  CB  THR A   1     -11.004   7.699  69.496  1.00  0.00    -0.097 C  
ATOM      3  HG1 THR A   1     -11.673   9.011  70.799  1.00  0.00     0.000 HD 
ATOM      4  OG1 THR A   1     -11.484   8.081  70.798  1.00  0.00    -0.279 OA 
ENDROOT
BRANCH   2   5
ATOM      5  CA  THR A   1      -9.804   8.593  69.120  1.00  0.00    -0.185 C  
ATOM      6  N   THR A   1      -8.814   8.653  70.217  1.00  0.00    -0.144 NA 
ATOM      7  C   THR A   1     -10.236  10.013  68.696  1.00  0.00    -0.180 C  
ATOM      8  OXT THR A   1      -9.663  11.043  69.036  1.00  0.00    -0.196 OA 
ATOM      9  O   THR A   1     -11.253  10.029  67.797  1.00  0.00    -0.256 OA 
ATOM     10  H1  THR A   1      -8.022   9.243  69.969  1.00  0.00     0.000 HD 
ATOM     11  H2  THR A   1      -8.513   7.720  70.501  1.00  0.00     0.000 HD 
ENDBRANCH   2   5
TORSDOF 1
ENDMDL
MODEL      186
REMARK 921   NORMALIZED FREE ENERGY PREDICTED BY IDOCK:   -1.66 KCAL/MOL
REMARK 922        TOTAL FREE ENERGY PREDICTED BY IDOCK:   -1.77 KCAL/MOL
REMARK 923 INTER-LIGAND FREE ENERGY PREDICTED BY IDOCK:   -1.87 KCAL/MOL
REMARK 924 INTRA-LIGAND FREE ENERGY PREDICTED BY IDOCK:    0.10 KCAL/MOL
REMARK 927      BINDING AFFINITY PREDICTED BY RF-SCORE:    0.00 PKD
ROOT
ATOM      1  CG2 THR A   1      -7.922   9.165  62.730  1.00  0.00    -0.136 C  
ATOM      2  CB  THR A   1      -8.557  10.076  63.777  1.00  0.00    -0.198 C  
ATOM      3  HG1 THR A   1     -10.267  11.023  63.987  1.00  0.00     0.000 HD 
ATOM      4  OG1 THR A   1      -9.873  10.456  63.335  1.00  0.00    -0.307 OA 
ENDROOT
BRANCH   2   5
ATOM      5  CA  THR A   1      -8.658   9.455  65.186  1.00  0.00    -0.167 C  
ATOM      6  N   THR A   1      -8.979   8.013  65.114  1.00  0.00    -0.385 NA 
ATOM      7  C   THR A   1      -9.668  10.196  66.087  1.00  0.00    -0.218 C  
ATOM      8  OXT THR A   1     -10.465   9.642  66.836  1.00  0.00    -0.242 OA 
ATOM      9  O   THR A   1      -9.522  11.546  66.076  1.00  0.00    -0.218 OA 
ATOM     10  H1  THR A   1      -9.046   7.603  66.044  1.00  0.00     0.000 HD 
ATOM     11  H2  THR A   1      -8.312   7.510  64.529  1.00  0.00     0.000 HD 
ENDBRANCH   2   5
TORSDOF 1
ENDMDL
MODEL      187
REMARK 921   NORMALIZED FREE ENERGY PREDICTED BY IDOCK:   -1.66 KCAL/MOL
REMARK 922        TOTAL FREE ENERGY PREDICTED BY IDOCK:   -1.77 KCAL/MOL
REMARK 923 INTER-LIGAND FREE ENERGY PREDICTED BY IDOCK:   -2.14 KCAL/MOL
REMARK 924 INTRA-LIGAND FREE ENERGY PREDICTED BY IDOCK:    0.38 KCAL/MOL
REMARK 927      BINDING AFFINITY PREDICTED BY RF-SCORE:    0.00 PKD
ROOT
ATOM      1  CG2 THR A   1      -9.293  17.010  68.543  1.00  0.00    -0.265 C  
ATOM      2  CB  THR A   1      -8.955  18.290  67.783  1.00  0.00    -0.267 C  
ATOM      3  HG1 THR A   1      -8.819  20.204  68.215  1.00  0.00     0.000 HD 
ATOM      4  OG1 THR A   1      -9.029  19.407  68.688  1.00  0.00    -0.365 OA 
ENDROOT
BRANCH   2   5
ATOM      5  CA  THR A   1      -7.569  18.281  67.105  1.00  0.00    -0.215 C  
ATOM      6  N   THR A   1      -7.561  17.406  65.913  1.00  0.00    -0.483 NA 
ATOM      7  C   THR A   1      -6.438  17.889  68.078  1.00  0.00    -0.186 C  
ATOM      8  OXT THR A   1      -5.512  17.136  67.798  1.00  0.00    -0.109 OA 
ATOM      9  O   THR A   1      -6.481  18.554  69.262  1.00  0.00    -0.254 OA 
ATOM     10  H1  THR A   1      -6.646  17.400  65.465  1.00  0.00     0.000 HD 
ATOM     11  H2  THR A   1      -8.299  17.661  65.256  1.00  0.00     0.000 HD 
ENDBRANCH   2   5
TORSDOF 1
ENDMDL
MODEL      188
REMARK 921   NORMALIZED FREE ENERGY PREDICTED BY IDOCK:   -1.63 KCAL/MOL
REMARK 922        TOTAL FREE ENERGY PREDICTED BY IDOCK:   -1.74 KCAL/MOL
REMARK 923 INTER-LIGAND FREE ENERGY PREDICTED BY IDOCK:   -1.68 KCAL/MOL
REMARK 924 INTRA-LIGAND FREE ENERGY PREDICTED BY IDOCK:   -0.06 KCAL/MOL
REMARK 927      BINDING AFFINITY PREDICTED BY RF-SCORE:    0.00 PKD
ROOT
ATOM      1  CG2 THR A   1     -10.731  10.240  70.013  1.00  0.00    -0.345 C  
ATOM      2  CB  THR A   1     -10.698   9.574  68.640  1.00  0.00    -0.184 C  
ATOM      3  HG1 THR A   1     -10.485  10.167  66.777  1.00  0.00     0.000 HD 
ATOM      4  OG1 THR A   1     -10.505  10.582  67.631  1.00  0.00    -0.202 OA 
ENDROOT
BRANCH   2   5
ATOM      5  CA  THR A   1      -9.611   8.490  68.484  1.00  0.00    -0.151 C  
ATOM      6  N   THR A   1      -8.255   9.073  68.575  1.00  0.00    -0.111 NA 
ATOM      7  C   THR A   1      -9.769   7.678  67.180  1.00  0.00    -0.183 C  
ATOM      8  OXT THR A   1      -8.840   7.350  66.450  1.00  0.00    -0.143 OA 
ATOM      9  O   THR A   1     -11.035   7.241  66.960  1.00  0.00    -0.358 OA 
ATOM     10  H1  THR A   1      -7.537   8.358  68.472  1.00  0.00     0.000 HD 
ATOM     11  H2  THR A   1      -8.134   9.605  69.438  1.00  0.00     0.000 HD 
ENDBRANCH   2   5
TORSDOF 1
ENDMDL
MODEL      189
REMARK 921   NORMALIZED FREE ENERGY PREDICTED BY IDOCK:   -1.62 KCAL/MOL
REMARK 922        TOTAL FREE ENERGY PREDICTED BY IDOCK:   -1.72 KCAL/MOL
REMARK 923 INTER-LIGAND FREE ENERGY PREDICTED BY IDOCK:   -2.68 KCAL/MOL
REMARK 924 INTRA-LIGAND FREE ENERGY PREDICTED BY IDOCK:    0.96 KCAL/MOL
REMARK 927      BINDING AFFINITY PREDICTED BY RF-SCORE:    0.00 PKD
ROOT
ATOM      1  CG2 THR A   1     -10.979  10.310  67.571  1.00  0.00    -0.344 C  
ATOM      2  CB  THR A   1     -10.541  11.003  68.859  1.00  0.00    -0.207 C  
ATOM      3  HG1 THR A   1     -10.714  12.803  69.633  1.00  0.00     0.000 HD 
ATOM      4  OG1 THR A   1     -10.986  12.371  68.832  1.00  0.00    -0.229 OA 
ENDROOT
BRANCH   2   5
ATOM      5  CA  THR A   1     -11.054  10.332  70.150  1.00  0.00    -0.319 C  
ATOM      6  N   THR A   1     -11.298   8.888  69.943  1.00  0.00    -0.443 NA 
ATOM      7  C   THR A   1     -12.312  11.023  70.716  1.00  0.00    -0.398 C  
ATOM      8  OXT THR A   1     -13.286  10.431  71.167  1.00  0.00    -0.373 OA 
ATOM      9  O   THR A   1     -12.207  12.375  70.788  1.00  0.00    -0.369 OA 
ATOM     10  H1  THR A   1     -11.636   8.445  70.796  1.00  0.00     0.000 HD 
ATOM     11  H2  THR A   1     -10.470   8.417  69.579  1.00  0.00     0.000 HD 
ENDBRANCH   2   5
TORSDOF 1
ENDMDL
MODEL      190
REMARK 921   NORMALIZED FREE ENERGY PREDICTED BY IDOCK:   -1.60 KCAL/MOL
REMARK 922        TOTAL FREE ENERGY PREDICTED BY IDOCK:   -1.70 KCAL/MOL
REMARK 923 INTER-LIGAND FREE ENERGY PREDICTED BY IDOCK:   -1.66 KCAL/MOL
REMARK 924 INTRA-LIGAND FREE ENERGY PREDICTED BY IDOCK:   -0.05 KCAL/MOL
REMARK 927      BINDING AFFINITY PREDICTED BY RF-SCORE:    0.00 PKD
ROOT
ATOM      1  CG2 THR A   1     -10.987   6.776  67.070  1.00  0.00    -0.439 C  
ATOM      2  CB  THR A   1     -10.140   5.582  66.639  1.00  0.00    -0.209 C  
ATOM      3  HG1 THR A   1     -10.379   4.018  65.470  1.00  0.00     0.000 HD 
ATOM      4  OG1 THR A   1     -10.906   4.762  65.738  1.00  0.00    -0.295 OA 
ENDROOT
BRANCH   2   5
ATOM      5  CA  THR A   1      -8.804   5.958  65.966  1.00  0.00    -0.149 C  
ATOM      6  N   THR A   1      -8.802   5.588  64.534  1.00  0.00    -0.353 NA 
ATOM      7  C   THR A   1      -7.585   5.346  66.689  1.00  0.00    -0.088 C  
ATOM      8  OXT THR A   1      -6.622   4.843  66.121  1.00  0.00    -0.046 OA 
ATOM      9  O   THR A   1      -7.606   5.521  68.036  1.00  0.00    -0.080 OA 
ATOM     10  H1  THR A   1      -7.919   5.837  64.089  1.00  0.00     0.000 HD 
ATOM     11  H2  THR A   1      -9.598   5.995  64.041  1.00  0.00     0.000 HD 
ENDBRANCH   2   5
TORSDOF 1
ENDMDL
MODEL      191
REMARK 921   NORMALIZED FREE ENERGY PREDICTED BY IDOCK:   -1.59 KCAL/MOL
REMARK 922        TOTAL FREE ENERGY PREDICTED BY IDOCK:   -1.69 KCAL/MOL
REMARK 923 INTER-LIGAND FREE ENERGY PREDICTED BY IDOCK:   -2.08 KCAL/MOL
REMARK 924 INTRA-LIGAND FREE ENERGY PREDICTED BY IDOCK:    0.38 KCAL/MOL
REMARK 927      BINDING AFFINITY PREDICTED BY RF-SCORE:    0.00 PKD
ROOT
ATOM      1  CG2 THR A   1      -8.041  11.389  67.114  1.00  0.00    -0.155 C  
ATOM      2  CB  THR A   1      -9.242  11.441  66.172  1.00  0.00    -0.210 C  
ATOM      3  HG1 THR A   1     -10.826  10.328  65.828  1.00  0.00     0.000 HD 
ATOM      4  OG1 THR A   1     -10.079  10.296  66.414  1.00  0.00    -0.217 OA 
ENDROOT
BRANCH   2   5
ATOM      5  CA  THR A   1     -10.093  12.722  66.295  1.00  0.00    -0.259 C  
ATOM      6  N   THR A   1      -9.679  13.737  65.302  1.00  0.00    -0.565 NA 
ATOM      7  C   THR A   1     -10.071  13.312  67.721  1.00  0.00    -0.229 C  
ATOM      8  OXT THR A   1      -9.973  14.507  67.976  1.00  0.00    -0.215 OA 
ATOM      9  O   THR A   1     -10.294  12.393  68.695  1.00  0.00    -0.225 OA 
ATOM     10  H1  THR A   1     -10.242  14.584  65.383  1.00  0.00     0.000 HD 
ATOM     11  H2  THR A   1      -9.699  13.363  64.353  1.00  0.00     0.000 HD 
ENDBRANCH   2   5
TORSDOF 1
ENDMDL
MODEL      192
REMARK 921   NORMALIZED FREE ENERGY PREDICTED BY IDOCK:   -1.58 KCAL/MOL
REMARK 922        TOTAL FREE ENERGY PREDICTED BY IDOCK:   -1.69 KCAL/MOL
REMARK 923 INTER-LIGAND FREE ENERGY PREDICTED BY IDOCK:   -2.02 KCAL/MOL
REMARK 924 INTRA-LIGAND FREE ENERGY PREDICTED BY IDOCK:    0.34 KCAL/MOL
REMARK 927      BINDING AFFINITY PREDICTED BY RF-SCORE:    0.00 PKD
ROOT
ATOM      1  CG2 THR A   1     -11.247   6.241  69.804  1.00  0.00    -0.499 C  
ATOM      2  CB  THR A   1      -9.860   5.899  69.265  1.00  0.00    -0.160 C  
ATOM      3  HG1 THR A   1      -9.032   4.372  68.343  1.00  0.00     0.000 HD 
ATOM      4  OG1 THR A   1      -9.894   4.586  68.678  1.00  0.00    -0.156 OA 
ENDROOT
BRANCH   2   5
ATOM      5  CA  THR A   1      -9.314   6.901  68.227  1.00  0.00    -0.125 C  
ATOM      6  N   THR A   1      -8.652   8.048  68.885  1.00  0.00    -0.131 NA 
ATOM      7  C   THR A   1     -10.404   7.389  67.248  1.00  0.00    -0.286 C  
ATOM      8  OXT THR A   1     -10.533   8.550  66.876  1.00  0.00    -0.308 OA 
ATOM      9  O   THR A   1     -11.153   6.386  66.722  1.00  0.00    -0.358 OA 
ATOM     10  H1  THR A   1      -8.291   8.710  68.199  1.00  0.00     0.000 HD 
ATOM     11  H2  THR A   1      -7.922   7.740  69.528  1.00  0.00     0.000 HD 
ENDBRANCH   2   5
TORSDOF 1
ENDMDL
MODEL      193
REMARK 921   NORMALIZED FREE ENERGY PREDICTED BY IDOCK:   -1.58 KCAL/MOL
REMARK 922        TOTAL FREE ENERGY PREDICTED BY IDOCK:   -1.68 KCAL/MOL
REMARK 923 INTER-LIGAND FREE ENERGY PREDICTED BY IDOCK:   -1.64 KCAL/MOL
REMARK 924 INTRA-LIGAND FREE ENERGY PREDICTED BY IDOCK:   -0.05 KCAL/MOL
REMARK 927      BINDING AFFINITY PREDICTED BY RF-SCORE:    0.00 PKD
ROOT
ATOM      1  CG2 THR A   1     -10.282   8.516  68.985  1.00  0.00    -0.218 C  
ATOM      2  CB  THR A   1      -9.881   7.592  70.133  1.00  0.00    -0.184 C  
ATOM      3  HG1 THR A   1      -9.629   7.766  72.075  1.00  0.00     0.000 HD 
ATOM      4  OG1 THR A   1      -9.879   8.341  71.362  1.00  0.00    -0.166 OA 
ENDROOT
BRANCH   2   5
ATOM      5  CA  THR A   1     -10.785   6.353  70.298  1.00  0.00    -0.266 C  
ATOM      6  N   THR A   1     -11.414   6.323  71.636  1.00  0.00    -0.293 NA 
ATOM      7  C   THR A   1     -10.035   5.033  70.018  1.00  0.00    -0.254 C  
ATOM      8  OXT THR A   1     -10.151   4.014  70.688  1.00  0.00    -0.143 OA 
ATOM      9  O   THR A   1      -9.309   5.051  68.870  1.00  0.00    -0.113 OA 
ATOM     10  H1  THR A   1     -12.011   5.505  71.746  1.00  0.00     0.000 HD 
ATOM     11  H2  THR A   1     -11.921   7.186  71.831  1.00  0.00     0.000 HD 
ENDBRANCH   2   5
TORSDOF 1
ENDMDL
MODEL      194
REMARK 921   NORMALIZED FREE ENERGY PREDICTED BY IDOCK:   -1.57 KCAL/MOL
REMARK 922        TOTAL FREE ENERGY PREDICTED BY IDOCK:   -1.67 KCAL/MOL
REMARK 923 INTER-LIGAND FREE ENERGY PREDICTED BY IDOCK:   -1.62 KCAL/MOL
REMARK 924 INTRA-LIGAND FREE ENERGY PREDICTED BY IDOCK:   -0.04 KCAL/MOL
REMARK 927      BINDING AFFINITY PREDICTED BY RF-SCORE:    0.00 PKD
ROOT
ATOM      1  CG2 THR A   1      -9.068  10.727  68.319  1.00  0.00    -0.157 C  
ATOM      2  CB  THR A   1      -8.092  11.562  67.495  1.00  0.00    -0.137 C  
ATOM      3  HG1 THR A   1      -7.506  11.622  65.619  1.00  0.00     0.000 HD 
ATOM      4  OG1 THR A   1      -8.113  11.102  66.131  1.00  0.00    -0.165 OA 
ENDROOT
BRANCH   2   5
ATOM      5  CA  THR A   1      -8.374  13.079  67.519  1.00  0.00    -0.184 C  
ATOM      6  N   THR A   1      -9.063  13.516  66.286  1.00  0.00    -0.476 NA 
ATOM      7  C   THR A   1      -7.097  13.913  67.756  1.00  0.00    -0.172 C  
ATOM      8  OXT THR A   1      -6.824  14.949  67.160  1.00  0.00    -0.252 OA 
ATOM      9  O   THR A   1      -6.336  13.465  68.788  1.00  0.00    -0.082 OA 
ATOM     10  H1  THR A   1      -9.250  14.518  66.302  1.00  0.00     0.000 HD 
ATOM     11  H2  THR A   1      -9.915  12.979  66.123  1.00  0.00     0.000 HD 
ENDBRANCH   2   5
TORSDOF 1
ENDMDL
MODEL      195
REMARK 921   NORMALIZED FREE ENERGY PREDICTED BY IDOCK:   -1.56 KCAL/MOL
REMARK 922        TOTAL FREE ENERGY PREDICTED BY IDOCK:   -1.66 KCAL/MOL
REMARK 923 INTER-LIGAND FREE ENERGY PREDICTED BY IDOCK:   -1.62 KCAL/MOL
REMARK 924 INTRA-LIGAND FREE ENERGY PREDICTED BY IDOCK:   -0.04 KCAL/MOL
REMARK 927      BINDING AFFINITY PREDICTED BY RF-SCORE:    0.00 PKD
ROOT
ATOM      1  CG2 THR A   1      -8.616  12.060  68.568  1.00  0.00    -0.093 C  
ATOM      2  CB  THR A   1      -9.308  11.040  67.668  1.00  0.00    -0.157 C  
ATOM      3  HG1 THR A   1     -10.842  11.040  66.438  1.00  0.00     0.000 HD 
ATOM      4  OG1 THR A   1     -10.412  11.675  66.997  1.00  0.00    -0.211 OA 
ENDROOT
BRANCH   2   5
ATOM      5  CA  THR A   1      -8.386  10.388  66.617  1.00  0.00    -0.127 C  
ATOM      6  N   THR A   1      -7.666  11.412  65.828  1.00  0.00    -0.353 NA 
ATOM      7  C   THR A   1      -9.144   9.416  65.688  1.00  0.00    -0.207 C  
ATOM      8  OXT THR A   1      -8.975   9.341  64.476  1.00  0.00    -0.203 OA 
ATOM      9  O   THR A   1      -9.947   8.543  66.349  1.00  0.00    -0.269 OA 
ATOM     10  H1  THR A   1      -7.057  10.982  65.133  1.00  0.00     0.000 HD 
ATOM     11  H2  THR A   1      -7.153  12.055  66.430  1.00  0.00     0.000 HD 
ENDBRANCH   2   5
TORSDOF 1
ENDMDL
MODEL      196
REMARK 921   NORMALIZED FREE ENERGY PREDICTED BY IDOCK:   -1.55 KCAL/MOL
REMARK 922        TOTAL FREE ENERGY PREDICTED BY IDOCK:   -1.65 KCAL/MOL
REMARK 923 INTER-LIGAND FREE ENERGY PREDICTED BY IDOCK:   -2.03 KCAL/MOL
REMARK 924 INTRA-LIGAND FREE ENERGY PREDICTED BY IDOCK:    0.38 KCAL/MOL
REMARK 927      BINDING AFFINITY PREDICTED BY RF-SCORE:    0.00 PKD
ROOT
ATOM      1  CG2 THR A   1      -8.770   8.211  73.168  1.00  0.00    -0.307 C  
ATOM      2  CB  THR A   1      -9.808   7.260  72.577  1.00  0.00    -0.159 C  
ATOM      3  HG1 THR A   1     -11.623   6.668  73.046  1.00  0.00     0.000 HD 
ATOM      4  OG1 THR A   1     -10.978   7.261  73.414  1.00  0.00    -0.358 OA 
ENDROOT
BRANCH   2   5
ATOM      5  CA  THR A   1     -10.224   7.592  71.129  1.00  0.00    -0.193 C  
ATOM      6  N   THR A   1      -9.149   7.253  70.171  1.00  0.00    -0.149 NA 
ATOM      7  C   THR A   1     -10.660   9.063  70.962  1.00  0.00    -0.271 C  
ATOM      8  OXT THR A   1     -10.349   9.776  70.014  1.00  0.00    -0.227 OA 
ATOM      9  O   THR A   1     -11.538   9.483  71.910  1.00  0.00    -0.371 OA 
ATOM     10  H1  THR A   1      -9.424   7.472  69.214  1.00  0.00     0.000 HD 
ATOM     11  H2  THR A   1      -8.858   6.280  70.264  1.00  0.00     0.000 HD 
ENDBRANCH   2   5
TORSDOF 1
ENDMDL
MODEL      197
REMARK 921   NORMALIZED FREE ENERGY PREDICTED BY IDOCK:   -1.51 KCAL/MOL
REMARK 922        TOTAL FREE ENERGY PREDICTED BY IDOCK:   -1.61 KCAL/MOL
REMARK 923 INTER-LIGAND FREE ENERGY PREDICTED BY IDOCK:   -1.95 KCAL/MOL
REMARK 924 INTRA-LIGAND FREE ENERGY PREDICTED BY IDOCK:    0.34 KCAL/MOL
REMARK 927      BINDING AFFINITY PREDICTED BY RF-SCORE:    0.00 PKD
ROOT
ATOM      1  CG2 THR A   1      -8.362   7.467  68.043  1.00  0.00    -0.124 C  
ATOM      2  CB  THR A   1      -9.592   7.967  67.289  1.00  0.00    -0.159 C  
ATOM      3  HG1 THR A   1      -9.930   9.010  65.656  1.00  0.00     0.000 HD 
ATOM      4  OG1 THR A   1      -9.165   8.699  66.125  1.00  0.00    -0.184 OA 
ENDROOT
BRANCH   2   5
ATOM      5  CA  THR A   1     -10.568   6.855  66.854  1.00  0.00    -0.302 C  
ATOM      6  N   THR A   1     -11.519   6.522  67.936  1.00  0.00    -0.641 NA 
ATOM      7  C   THR A   1      -9.838   5.587  66.360  1.00  0.00    -0.167 C  
ATOM      8  OXT THR A   1     -10.172   4.441  66.639  1.00  0.00    -0.219 OA 
ATOM      9  O   THR A   1      -8.843   5.842  65.472  1.00  0.00    -0.154 OA 
ATOM     10  H1  THR A   1     -12.165   5.788  67.649  1.00  0.00     0.000 HD 
ATOM     11  H2  THR A   1     -12.016   7.350  68.265  1.00  0.00     0.000 HD 
ENDBRANCH   2   5
TORSDOF 1
ENDMDL
MODEL      198
REMARK 921   NORMALIZED FREE ENERGY PREDICTED BY IDOCK:   -1.51 KCAL/MOL
REMARK 922        TOTAL FREE ENERGY PREDICTED BY IDOCK:   -1.61 KCAL/MOL
REMARK 923 INTER-LIGAND FREE ENERGY PREDICTED BY IDOCK:   -1.55 KCAL/MOL
REMARK 924 INTRA-LIGAND FREE ENERGY PREDICTED BY IDOCK:   -0.06 KCAL/MOL
REMARK 927      BINDING AFFINITY PREDICTED BY RF-SCORE:    0.00 PKD
ROOT
ATOM      1  CG2 THR A   1      -9.199   4.678  69.105  1.00  0.00    -0.184 C  
ATOM      2  CB  THR A   1      -9.753   5.518  70.254  1.00  0.00    -0.183 C  
ATOM      3  HG1 THR A   1      -9.395   5.706  72.178  1.00  0.00     0.000 HD 
ATOM      4  OG1 THR A   1      -9.050   5.183  71.464  1.00  0.00    -0.140 OA 
ENDROOT
BRANCH   2   5
ATOM      5  CA  THR A   1      -9.670   7.042  70.027  1.00  0.00    -0.170 C  
ATOM      6  N   THR A   1      -8.270   7.480  69.837  1.00  0.00    -0.129 NA 
ATOM      7  C   THR A   1     -10.345   7.845  71.158  1.00  0.00    -0.200 C  
ATOM      8  OXT THR A   1      -9.882   8.865  71.657  1.00  0.00    -0.281 OA 
ATOM      9  O   THR A   1     -11.583   7.392  71.486  1.00  0.00    -0.259 OA 
ATOM     10  H1  THR A   1      -8.215   8.486  69.687  1.00  0.00     0.000 HD 
ATOM     11  H2  THR A   1      -7.815   6.963  69.085  1.00  0.00     0.000 HD 
ENDBRANCH   2   5
TORSDOF 1
ENDMDL
MODEL      199
REMARK 921   NORMALIZED FREE ENERGY PREDICTED BY IDOCK:   -1.47 KCAL/MOL
REMARK 922        TOTAL FREE ENERGY PREDICTED BY IDOCK:   -1.57 KCAL/MOL
REMARK 923 INTER-LIGAND FREE ENERGY PREDICTED BY IDOCK:   -1.50 KCAL/MOL
REMARK 924 INTRA-LIGAND FREE ENERGY PREDICTED BY IDOCK:   -0.06 KCAL/MOL
REMARK 927      BINDING AFFINITY PREDICTED BY RF-SCORE:    0.00 PKD
ROOT
ATOM      1  CG2 THR A   1     -10.337  10.261  67.803  1.00  0.00    -0.246 C  
ATOM      2  CB  THR A   1      -9.307   9.623  66.874  1.00  0.00    -0.146 C  
ATOM      3  HG1 THR A   1      -9.351   8.575  65.211  1.00  0.00     0.000 HD 
ATOM      4  OG1 THR A   1      -9.992   8.972  65.789  1.00  0.00    -0.241 OA 
ENDROOT
BRANCH   2   5
ATOM      5  CA  THR A   1      -8.272  10.611  66.297  1.00  0.00    -0.153 C  
ATOM      6  N   THR A   1      -8.916  11.607  65.413  1.00  0.00    -0.405 NA 
ATOM      7  C   THR A   1      -7.118   9.895  65.563  1.00  0.00    -0.118 C  
ATOM      8  OXT THR A   1      -6.637  10.266  64.498  1.00  0.00    -0.130 OA 
ATOM      9  O   THR A   1      -6.581   8.864  66.264  1.00  0.00    -0.064 OA 
ATOM     10  H1  THR A   1      -8.232  12.259  65.032  1.00  0.00     0.000 HD 
ATOM     11  H2  THR A   1      -9.674  12.095  65.890  1.00  0.00     0.000 HD 
ENDBRANCH   2   5
TORSDOF 1
ENDMDL
MODEL      200
REMARK 921   NORMALIZED FREE ENERGY PREDICTED BY IDOCK:   -1.47 KCAL/MOL
REMARK 922        TOTAL FREE ENERGY PREDICTED BY IDOCK:   -1.57 KCAL/MOL
REMARK 923 INTER-LIGAND FREE ENERGY PREDICTED BY IDOCK:   -1.52 KCAL/MOL
REMARK 924 INTRA-LIGAND FREE ENERGY PREDICTED BY IDOCK:   -0.05 KCAL/MOL
REMARK 927      BINDING AFFINITY PREDICTED BY RF-SCORE:    0.00 PKD
ROOT
ATOM      1  CG2 THR A   1      -8.080   7.404  67.934  1.00  0.00    -0.119 C  
ATOM      2  CB  THR A   1      -9.106   7.229  66.818  1.00  0.00    -0.148 C  
ATOM      3  HG1 THR A   1      -9.622   8.213  65.195  1.00  0.00     0.000 HD 
ATOM      4  OG1 THR A   1      -8.983   8.321  65.890  1.00  0.00    -0.170 OA 
ENDROOT
BRANCH   2   5
ATOM      5  CA  THR A   1      -8.989   5.897  66.048  1.00  0.00    -0.151 C  
ATOM      6  N   THR A   1      -8.744   6.130  64.608  1.00  0.00    -0.348 NA 
ATOM      7  C   THR A   1     -10.219   4.987  66.252  1.00  0.00    -0.273 C  
ATOM      8  OXT THR A   1     -10.762   4.344  65.360  1.00  0.00    -0.264 OA 
ATOM      9  O   THR A   1     -10.590   4.854  67.551  1.00  0.00    -0.048 OA 
ATOM     10  H1  THR A   1      -8.667   5.250  64.099  1.00  0.00     0.000 HD 
ATOM     11  H2  THR A   1      -7.928   6.723  64.459  1.00  0.00     0.000 HD 
ENDBRANCH   2   5
TORSDOF 1
ENDMDL
MODEL      201
REMARK 921   NORMALIZED FREE ENERGY PREDICTED BY IDOCK:   -1.47 KCAL/MOL
REMARK 922        TOTAL FREE ENERGY PREDICTED BY IDOCK:   -1.56 KCAL/MOL
REMARK 923 INTER-LIGAND FREE ENERGY PREDICTED BY IDOCK:   -1.52 KCAL/MOL
REMARK 924 INTRA-LIGAND FREE ENERGY PREDICTED BY IDOCK:   -0.04 KCAL/MOL
REMARK 927      BINDING AFFINITY PREDICTED BY RF-SCORE:    0.00 PKD
ROOT
ATOM      1  CG2 THR A   1      -9.312   8.408  66.206  1.00  0.00    -0.283 C  
ATOM      2  CB  THR A   1      -8.164   8.295  65.206  1.00  0.00    -0.148 C  
ATOM      3  HG1 THR A   1      -7.424   6.892  64.044  1.00  0.00     0.000 HD 
ATOM      4  OG1 THR A   1      -8.139   6.962  64.665  1.00  0.00    -0.127 OA 
ENDROOT
BRANCH   2   5
ATOM      5  CA  THR A   1      -8.228   9.310  64.045  1.00  0.00    -0.164 C  
ATOM      6  N   THR A   1      -8.785   8.691  62.823  1.00  0.00    -0.428 NA 
ATOM      7  C   THR A   1      -6.858   9.959  63.753  1.00  0.00    -0.125 C  
ATOM      8  OXT THR A   1      -6.412  10.160  62.629  1.00  0.00    -0.117 OA 
ATOM      9  O   THR A   1      -6.222  10.414  64.863  1.00  0.00    -0.128 OA 
ATOM     10  H1  THR A   1      -8.828   9.361  62.056  1.00  0.00     0.000 HD 
ATOM     11  H2  THR A   1      -9.696   8.266  63.000  1.00  0.00     0.000 HD 
ENDBRANCH   2   5
TORSDOF 1
ENDMDL
MODEL      202
REMARK 921   NORMALIZED FREE ENERGY PREDICTED BY IDOCK:   -1.47 KCAL/MOL
REMARK 922        TOTAL FREE ENERGY PREDICTED BY IDOCK:   -1.56 KCAL/MOL
REMARK 923 INTER-LIGAND FREE ENERGY PREDICTED BY IDOCK:   -1.50 KCAL/MOL
REMARK 924 INTRA-LIGAND FREE ENERGY PREDICTED BY IDOCK:   -0.06 KCAL/MOL
REMARK 927      BINDING AFFINITY PREDICTED BY RF-SCORE:    0.00 PKD
ROOT
ATOM      1  CG2 THR A   1      -9.693   8.172  69.591  1.00  0.00    -0.170 C  
ATOM      2  CB  THR A   1     -10.046   9.210  68.528  1.00  0.00    -0.191 C  
ATOM      3  HG1 THR A   1     -11.508  10.490  68.224  1.00  0.00     0.000 HD 
ATOM      4  OG1 THR A   1     -11.288   9.844  68.885  1.00  0.00    -0.136 OA 
ENDROOT
BRANCH   2   5
ATOM      5  CA  THR A   1      -8.970  10.293  68.313  1.00  0.00    -0.132 C  
ATOM      6  N   THR A   1      -8.677  11.016  69.569  1.00  0.00    -0.341 NA 
ATOM      7  C   THR A   1      -9.345  11.283  67.188  1.00  0.00    -0.163 C  
ATOM      8  OXT THR A   1      -9.180  12.496  67.249  1.00  0.00    -0.177 OA 
ATOM      9  O   THR A   1      -9.771  10.678  66.049  1.00  0.00    -0.191 OA 
ATOM     10  H1  THR A   1      -7.965  11.732  69.427  1.00  0.00     0.000 HD 
ATOM     11  H2  THR A   1      -8.418  10.374  70.318  1.00  0.00     0.000 HD 
ENDBRANCH   2   5
TORSDOF 1
ENDMDL
MODEL      203
REMARK 921   NORMALIZED FREE ENERGY PREDICTED BY IDOCK:   -1.45 KCAL/MOL
REMARK 922        TOTAL FREE ENERGY PREDICTED BY IDOCK:   -1.55 KCAL/MOL
REMARK 923 INTER-LIGAND FREE ENERGY PREDICTED BY IDOCK:   -1.50 KCAL/MOL
REMARK 924 INTRA-LIGAND FREE ENERGY PREDICTED BY IDOCK:   -0.05 KCAL/MOL
REMARK 927      BINDING AFFINITY PREDICTED BY RF-SCORE:    0.00 PKD
ROOT
ATOM      1  CG2 THR A   1     -10.390  17.140  69.829  1.00  0.00     0.099 C  
ATOM      2  CB  THR A   1     -10.627  15.870  69.016  1.00  0.00    -0.247 C  
ATOM      3  HG1 THR A   1     -12.166  15.004  68.150  1.00  0.00     0.000 HD 
ATOM      4  OG1 THR A   1     -12.018  15.794  68.656  1.00  0.00    -0.344 OA 
ENDROOT
BRANCH   2   5
ATOM      5  CA  THR A   1      -9.770  15.764  67.737  1.00  0.00    -0.216 C  
ATOM      6  N   THR A   1     -10.615  15.761  66.523  1.00  0.00    -0.309 NA 
ATOM      7  C   THR A   1      -8.834  14.536  67.753  1.00  0.00    -0.183 C  
ATOM      8  OXT THR A   1      -8.634  13.804  66.791  1.00  0.00    -0.160 OA 
ATOM      9  O   THR A   1      -8.138  14.396  68.911  1.00  0.00    -0.142 OA 
ATOM     10  H1  THR A   1     -10.049  15.691  65.679  1.00  0.00     0.000 HD 
ATOM     11  H2  THR A   1     -11.232  16.573  66.495  1.00  0.00     0.000 HD 
ENDBRANCH   2   5
TORSDOF 1
ENDMDL
MODEL      204
REMARK 921   NORMALIZED FREE ENERGY PREDICTED BY IDOCK:   -1.45 KCAL/MOL
REMARK 922        TOTAL FREE ENERGY PREDICTED BY IDOCK:   -1.55 KCAL/MOL
REMARK 923 INTER-LIGAND FREE ENERGY PREDICTED BY IDOCK:   -1.51 KCAL/MOL
REMARK 924 INTRA-LIGAND FREE ENERGY PREDICTED BY IDOCK:   -0.03 KCAL/MOL
REMARK 927      BINDING AFFINITY PREDICTED BY RF-SCORE:    0.00 PKD
ROOT
ATOM      1  CG2 THR A   1     -10.212   3.931  63.550  1.00  0.00    -0.185 C  
ATOM      2  CB  THR A   1      -9.622   3.460  64.877  1.00  0.00    -0.152 C  
ATOM      3  HG1 THR A   1      -7.823   3.097  65.583  1.00  0.00     0.000 HD 
ATOM      4  OG1 THR A   1      -8.190   3.390  64.757  1.00  0.00    -0.089 OA 
ENDROOT
BRANCH   2   5
ATOM      5  CA  THR A   1      -9.984   4.347  66.086  1.00  0.00    -0.238 C  
ATOM      6  N   THR A   1      -9.689   5.770  65.815  1.00  0.00    -0.370 NA 
ATOM      7  C   THR A   1      -9.293   3.884  67.386  1.00  0.00    -0.191 C  
ATOM      8  OXT THR A   1      -8.785   4.639  68.208  1.00  0.00    -0.100 OA 
ATOM      9  O   THR A   1      -9.398   2.550  67.616  1.00  0.00    -0.187 OA 
ATOM     10  H1  THR A   1      -9.928   6.357  66.613  1.00  0.00     0.000 HD 
ATOM     11  H2  THR A   1     -10.148   6.092  64.963  1.00  0.00     0.000 HD 
ENDBRANCH   2   5
TORSDOF 1
ENDMDL
MODEL      205
REMARK 921   NORMALIZED FREE ENERGY PREDICTED BY IDOCK:   -1.45 KCAL/MOL
REMARK 922        TOTAL FREE ENERGY PREDICTED BY IDOCK:   -1.55 KCAL/MOL
REMARK 923 INTER-LIGAND FREE ENERGY PREDICTED BY IDOCK:   -1.49 KCAL/MOL
REMARK 924 INTRA-LIGAND FREE ENERGY PREDICTED BY IDOCK:   -0.06 KCAL/MOL
REMARK 927      BINDING AFFINITY PREDICTED BY RF-SCORE:    0.00 PKD
ROOT
ATOM      1  CG2 THR A   1      -9.902   3.712  67.787  1.00  0.00     0.019 C  
ATOM      2  CB  THR A   1      -9.721   5.027  67.033  1.00  0.00    -0.165 C  
ATOM      3  HG1 THR A   1     -10.539   5.892  65.468  1.00  0.00     0.000 HD 
ATOM      4  OG1 THR A   1     -10.652   5.074  65.937  1.00  0.00    -0.256 OA 
ENDROOT
BRANCH   2   5
ATOM      5  CA  THR A   1      -9.902   6.290  67.902  1.00  0.00    -0.124 C  
ATOM      6  N   THR A   1     -11.311   6.455  68.320  1.00  0.00    -0.520 NA 
ATOM      7  C   THR A   1      -9.387   7.566  67.203  1.00  0.00    -0.142 C  
ATOM      8  OXT THR A   1      -9.967   8.646  67.216  1.00  0.00    -0.181 OA 
ATOM      9  O   THR A   1      -8.150   7.429  66.660  1.00  0.00    -0.117 OA 
ATOM     10  H1  THR A   1     -11.430   7.289  68.894  1.00  0.00     0.000 HD 
ATOM     11  H2  THR A   1     -11.661   5.622  68.793  1.00  0.00     0.000 HD 
ENDBRANCH   2   5
TORSDOF 1
ENDMDL
MODEL      206
REMARK 921   NORMALIZED FREE ENERGY PREDICTED BY IDOCK:   -1.44 KCAL/MOL
REMARK 922        TOTAL FREE ENERGY PREDICTED BY IDOCK:   -1.53 KCAL/MOL
REMARK 923 INTER-LIGAND FREE ENERGY PREDICTED BY IDOCK:   -1.49 KCAL/MOL
REMARK 924 INTRA-LIGAND FREE ENERGY PREDICTED BY IDOCK:   -0.04 KCAL/MOL
REMARK 927      BINDING AFFINITY PREDICTED BY RF-SCORE:    0.00 PKD
ROOT
ATOM      1  CG2 THR A   1     -11.636   6.497  70.199  1.00  0.00    -0.466 C  
ATOM      2  CB  THR A   1     -10.172   6.066  70.166  1.00  0.00    -0.208 C  
ATOM      3  HG1 THR A   1      -9.130   4.524  70.800  1.00  0.00     0.000 HD 
ATOM      4  OG1 THR A   1     -10.041   4.791  70.820  1.00  0.00    -0.225 OA 
ENDROOT
BRANCH   2   5
ATOM      5  CA  THR A   1      -9.567   5.970  68.749  1.00  0.00    -0.129 C  
ATOM      6  N   THR A   1      -9.630   4.586  68.232  1.00  0.00    -0.148 NA 
ATOM      7  C   THR A   1      -8.124   6.512  68.686  1.00  0.00    -0.118 C  
ATOM      8  OXT THR A   1      -7.209   5.979  68.067  1.00  0.00    -0.076 OA 
ATOM      9  O   THR A   1      -7.968   7.722  69.283  1.00  0.00    -0.120 OA 
ATOM     10  H1  THR A   1      -9.231   4.523  67.297  1.00  0.00     0.000 HD 
ATOM     11  H2  THR A   1     -10.581   4.219  68.260  1.00  0.00     0.000 HD 
ENDBRANCH   2   5
TORSDOF 1
ENDMDL
MODEL      207
REMARK 921   NORMALIZED FREE ENERGY PREDICTED BY IDOCK:   -1.43 KCAL/MOL
REMARK 922        TOTAL FREE ENERGY PREDICTED BY IDOCK:   -1.53 KCAL/MOL
REMARK 923 INTER-LIGAND FREE ENERGY PREDICTED BY IDOCK:   -1.87 KCAL/MOL
REMARK 924 INTRA-LIGAND FREE ENERGY PREDICTED BY IDOCK:    0.34 KCAL/MOL
REMARK 927      BINDING AFFINITY PREDICTED BY RF-SCORE:    0.00 PKD
ROOT
ATOM      1  CG2 THR A   1      -7.805   8.738  71.425  1.00  0.00    -0.166 C  
ATOM      2  CB  THR A   1      -8.579   7.550  70.860  1.00  0.00    -0.130 C  
ATOM      3  HG1 THR A   1      -8.903   5.684  71.390  1.00  0.00     0.000 HD 
ATOM      4  OG1 THR A   1      -8.422   6.423  71.742  1.00  0.00    -0.124 OA 
ENDROOT
BRANCH   2   5
ATOM      5  CA  THR A   1     -10.084   7.814  70.643  1.00  0.00    -0.191 C  
ATOM      6  N   THR A   1     -10.322   8.554  69.385  1.00  0.00    -0.213 NA 
ATOM      7  C   THR A   1     -10.733   8.543  71.838  1.00  0.00    -0.324 C  
ATOM      8  OXT THR A   1     -11.541   9.460  71.735  1.00  0.00    -0.377 OA 
ATOM      9  O   THR A   1     -10.426   7.998  73.043  1.00  0.00    -0.342 OA 
ATOM     10  H1  THR A   1     -11.316   8.728  69.242  1.00  0.00     0.000 HD 
ATOM     11  H2  THR A   1      -9.906   8.077  68.586  1.00  0.00     0.000 HD 
ENDBRANCH   2   5
TORSDOF 1
ENDMDL
MODEL      208
REMARK 921   NORMALIZED FREE ENERGY PREDICTED BY IDOCK:   -1.41 KCAL/MOL
REMARK 922        TOTAL FREE ENERGY PREDICTED BY IDOCK:   -1.50 KCAL/MOL
REMARK 923 INTER-LIGAND FREE ENERGY PREDICTED BY IDOCK:   -1.46 KCAL/MOL
REMARK 924 INTRA-LIGAND FREE ENERGY PREDICTED BY IDOCK:   -0.04 KCAL/MOL
REMARK 927      BINDING AFFINITY PREDICTED BY RF-SCORE:    0.00 PKD
ROOT
ATOM      1  CG2 THR A   1      -9.686   9.313  65.744  1.00  0.00    -0.339 C  
ATOM      2  CB  THR A   1      -8.675  10.420  65.457  1.00  0.00    -0.177 C  
ATOM      3  HG1 THR A   1      -8.723  12.214  64.653  1.00  0.00     0.000 HD 
ATOM      4  OG1 THR A   1      -9.352  11.526  64.832  1.00  0.00    -0.180 OA 
ENDROOT
BRANCH   2   5
ATOM      5  CA  THR A   1      -7.918  10.930  66.701  1.00  0.00    -0.148 C  
ATOM      6  N   THR A   1      -8.630  12.062  67.335  1.00  0.00    -0.163 NA 
ATOM      7  C   THR A   1      -6.456  11.312  66.388  1.00  0.00    -0.080 C  
ATOM      8  OXT THR A   1      -5.890  12.308  66.824  1.00  0.00    -0.283 OA 
ATOM      9  O   THR A   1      -5.788  10.372  65.670  1.00  0.00    -0.088 OA 
ATOM     10  H1  THR A   1      -8.130  12.399  68.157  1.00  0.00     0.000 HD 
ATOM     11  H2  THR A   1      -9.595  11.819  67.556  1.00  0.00     0.000 HD 
ENDBRANCH   2   5
TORSDOF 1
ENDMDL
MODEL      209
REMARK 921   NORMALIZED FREE ENERGY PREDICTED BY IDOCK:   -1.35 KCAL/MOL
REMARK 922        TOTAL FREE ENERGY PREDICTED BY IDOCK:   -1.44 KCAL/MOL
REMARK 923 INTER-LIGAND FREE ENERGY PREDICTED BY IDOCK:   -1.96 KCAL/MOL
REMARK 924 INTRA-LIGAND FREE ENERGY PREDICTED BY IDOCK:    0.51 KCAL/MOL
REMARK 927      BINDING AFFINITY PREDICTED BY RF-SCORE:    0.00 PKD
ROOT
ATOM      1  CG2 THR A   1     -11.184  10.203  70.977  1.00  0.00    -0.322 C  
ATOM      2  CB  THR A   1     -10.798   9.175  72.039  1.00  0.00    -0.182 C  
ATOM      3  HG1 THR A   1     -11.708   7.732  73.015  1.00  0.00     0.000 HD 
ATOM      4  OG1 THR A   1     -11.948   8.370  72.355  1.00  0.00    -0.372 OA 
ENDROOT
BRANCH   2   5
ATOM      5  CA  THR A   1      -9.631   8.250  71.635  1.00  0.00    -0.198 C  
ATOM      6  N   THR A   1      -8.382   8.630  72.330  1.00  0.00    -0.368 NA 
ATOM      7  C   THR A   1      -9.414   8.204  70.108  1.00  0.00    -0.167 C  
ATOM      8  OXT THR A   1      -8.317   8.227  69.562  1.00  0.00    -0.118 OA 
ATOM      9  O   THR A   1     -10.557   8.010  69.400  1.00  0.00    -0.229 OA 
ATOM     10  H1  THR A   1      -7.611   8.018  72.064  1.00  0.00     0.000 HD 
ATOM     11  H2  THR A   1      -8.508   8.654  73.342  1.00  0.00     0.000 HD 
ENDBRANCH   2   5
TORSDOF 1
ENDMDL
MODEL      210
REMARK 921   NORMALIZED FREE ENERGY PREDICTED BY IDOCK:   -1.34 KCAL/MOL
REMARK 922        TOTAL FREE ENERGY PREDICTED BY IDOCK:   -1.43 KCAL/MOL
REMARK 923 INTER-LIGAND FREE ENERGY PREDICTED BY IDOCK:   -1.78 KCAL/MOL
REMARK 924 INTRA-LIGAND FREE ENERGY PREDICTED BY IDOCK:    0.34 KCAL/MOL
REMARK 927      BINDING AFFINITY PREDICTED BY RF-SCORE:    0.00 PKD
ROOT
ATOM      1  CG2 THR A   1      -9.943   8.855  69.731  1.00  0.00    -0.196 C  
ATOM      2  CB  THR A   1     -10.682   8.995  68.402  1.00  0.00    -0.096 C  
ATOM      3  HG1 THR A   1     -10.754  10.318  66.949  1.00  0.00     0.000 HD 
ATOM      4  OG1 THR A   1     -10.294  10.231  67.776  1.00  0.00    -0.179 OA 
ENDROOT
BRANCH   2   5
ATOM      5  CA  THR A   1     -10.442   7.833  67.415  1.00  0.00    -0.292 C  
ATOM      6  N   THR A   1     -11.407   6.734  67.637  1.00  0.00    -0.667 NA 
ATOM      7  C   THR A   1      -8.993   7.306  67.464  1.00  0.00    -0.122 C  
ATOM      8  OXT THR A   1      -8.684   6.120  67.436  1.00  0.00    -0.107 OA 
ATOM      9  O   THR A   1      -8.053   8.286  67.418  1.00  0.00    -0.118 OA 
ATOM     10  H1  THR A   1     -11.249   5.967  66.985  1.00  0.00     0.000 HD 
ATOM     11  H2  THR A   1     -12.370   7.067  67.597  1.00  0.00     0.000 HD 
ENDBRANCH   2   5
TORSDOF 1
ENDMDL
MODEL      211
REMARK 921   NORMALIZED FREE ENERGY PREDICTED BY IDOCK:   -1.34 KCAL/MOL
REMARK 922        TOTAL FREE ENERGY PREDICTED BY IDOCK:   -1.43 KCAL/MOL
REMARK 923 INTER-LIGAND FREE ENERGY PREDICTED BY IDOCK:   -1.68 KCAL/MOL
REMARK 924 INTRA-LIGAND FREE ENERGY PREDICTED BY IDOCK:    0.25 KCAL/MOL
REMARK 927      BINDING AFFINITY PREDICTED BY RF-SCORE:    0.00 PKD
ROOT
ATOM      1  CG2 THR A   1      -9.214   6.540  68.136  1.00  0.00    -0.112 C  
ATOM      2  CB  THR A   1      -9.020   7.944  67.568  1.00  0.00    -0.127 C  
ATOM      3  HG1 THR A   1      -9.269   8.818  65.824  1.00  0.00     0.000 HD 
ATOM      4  OG1 THR A   1      -9.390   7.945  66.177  1.00  0.00    -0.183 OA 
ENDROOT
BRANCH   2   5
ATOM      5  CA  THR A   1      -9.817   9.043  68.302  1.00  0.00    -0.166 C  
ATOM      6  N   THR A   1     -11.043   8.494  68.921  1.00  0.00    -0.415 NA 
ATOM      7  C   THR A   1     -10.155  10.238  67.386  1.00  0.00    -0.202 C  
ATOM      8  OXT THR A   1     -11.238  10.812  67.366  1.00  0.00    -0.321 OA 
ATOM      9  O   THR A   1      -9.096  10.694  66.669  1.00  0.00    -0.157 OA 
ATOM     10  H1  THR A   1     -11.569   9.220  69.406  1.00  0.00     0.000 HD 
ATOM     11  H2  THR A   1     -10.832   7.709  69.537  1.00  0.00     0.000 HD 
ENDBRANCH   2   5
TORSDOF 1
ENDMDL
MODEL      212
REMARK 921   NORMALIZED FREE ENERGY PREDICTED BY IDOCK:   -1.34 KCAL/MOL
REMARK 922        TOTAL FREE ENERGY PREDICTED BY IDOCK:   -1.43 KCAL/MOL
REMARK 923 INTER-LIGAND FREE ENERGY PREDICTED BY IDOCK:   -1.82 KCAL/MOL
REMARK 924 INTRA-LIGAND FREE ENERGY PREDICTED BY IDOCK:    0.39 KCAL/MOL
REMARK 927      BINDING AFFINITY PREDICTED BY RF-SCORE:    0.00 PKD
ROOT
ATOM      1  CG2 THR A   1      -9.718   3.714  70.892  1.00  0.00    -0.229 C  
ATOM      2  CB  THR A   1      -9.770   5.200  70.547  1.00  0.00    -0.193 C  
ATOM      3  HG1 THR A   1     -10.346   6.282  69.009  1.00  0.00     0.000 HD 
ATOM      4  OG1 THR A   1     -10.314   5.357  69.224  1.00  0.00    -0.235 OA 
ENDROOT
BRANCH   2   5
ATOM      5  CA  THR A   1     -10.591   6.055  71.535  1.00  0.00    -0.243 C  
ATOM      6  N   THR A   1     -11.523   5.218  72.322  1.00  0.00    -0.083 NA 
ATOM      7  C   THR A   1     -11.348   7.203  70.834  1.00  0.00    -0.286 C  
ATOM      8  OXT THR A   1     -12.501   7.532  71.089  1.00  0.00    -0.319 OA 
ATOM      9  O   THR A   1     -10.578   7.920  69.975  1.00  0.00    -0.233 OA 
ATOM     10  H1  THR A   1     -12.065   5.783  72.974  1.00  0.00     0.000 HD 
ATOM     11  H2  THR A   1     -11.034   4.461  72.798  1.00  0.00     0.000 HD 
ENDBRANCH   2   5
TORSDOF 1
ENDMDL
MODEL      213
REMARK 921   NORMALIZED FREE ENERGY PREDICTED BY IDOCK:   -1.30 KCAL/MOL
REMARK 922        TOTAL FREE ENERGY PREDICTED BY IDOCK:   -1.38 KCAL/MOL
REMARK 923 INTER-LIGAND FREE ENERGY PREDICTED BY IDOCK:   -1.33 KCAL/MOL
REMARK 924 INTRA-LIGAND FREE ENERGY PREDICTED BY IDOCK:   -0.05 KCAL/MOL
REMARK 927      BINDING AFFINITY PREDICTED BY RF-SCORE:    0.00 PKD
ROOT
ATOM      1  CG2 THR A   1     -11.528   6.291  69.715  1.00  0.00    -0.449 C  
ATOM      2  CB  THR A   1     -10.197   6.702  69.090  1.00  0.00    -0.179 C  
ATOM      3  HG1 THR A   1      -9.508   8.263  68.113  1.00  0.00     0.000 HD 
ATOM      4  OG1 THR A   1     -10.336   8.008  68.502  1.00  0.00    -0.204 OA 
ENDROOT
BRANCH   2   5
ATOM      5  CA  THR A   1      -9.009   6.715  70.073  1.00  0.00    -0.144 C  
ATOM      6  N   THR A   1      -8.956   7.982  70.834  1.00  0.00    -0.138 NA 
ATOM      7  C   THR A   1      -7.660   6.441  69.374  1.00  0.00    -0.095 C  
ATOM      8  OXT THR A   1      -6.620   7.043  69.613  1.00  0.00    -0.042 OA 
ATOM      9  O   THR A   1      -7.687   5.372  68.537  1.00  0.00    -0.082 OA 
ATOM     10  H1  THR A   1      -8.171   7.990  71.484  1.00  0.00     0.000 HD 
ATOM     11  H2  THR A   1      -9.838   8.170  71.309  1.00  0.00     0.000 HD 
ENDBRANCH   2   5
TORSDOF 1
ENDMDL
MODEL      214
REMARK 921   NORMALIZED FREE ENERGY PREDICTED BY IDOCK:   -1.29 KCAL/MOL
REMARK 922        TOTAL FREE ENERGY PREDICTED BY IDOCK:   -1.38 KCAL/MOL
REMARK 923 INTER-LIGAND FREE ENERGY PREDICTED BY IDOCK:   -1.31 KCAL/MOL
REMARK 924 INTRA-LIGAND FREE ENERGY PREDICTED BY IDOCK:   -0.06 KCAL/MOL
REMARK 927      BINDING AFFINITY PREDICTED BY RF-SCORE:    0.00 PKD
ROOT
ATOM      1  CG2 THR A   1     -10.104   7.870  69.425  1.00  0.00    -0.196 C  
ATOM      2  CB  THR A   1      -9.422   9.202  69.125  1.00  0.00    -0.156 C  
ATOM      3  HG1 THR A   1      -9.887  11.105  69.292  1.00  0.00     0.000 HD 
ATOM      4  OG1 THR A   1     -10.311  10.277  69.479  1.00  0.00    -0.217 OA 
ENDROOT
BRANCH   2   5
ATOM      5  CA  THR A   1      -8.073   9.405  69.848  1.00  0.00    -0.138 C  
ATOM      6  N   THR A   1      -8.254   9.457  71.314  1.00  0.00    -0.280 NA 
ATOM      7  C   THR A   1      -7.316  10.653  69.346  1.00  0.00    -0.133 C  
ATOM      8  OXT THR A   1      -6.727  11.445  70.072  1.00  0.00    -0.109 OA 
ATOM      9  O   THR A   1      -7.248  10.742  67.992  1.00  0.00    -0.084 OA 
ATOM     10  H1  THR A   1      -7.363   9.591  71.792  1.00  0.00     0.000 HD 
ATOM     11  H2  THR A   1      -8.745   8.632  71.661  1.00  0.00     0.000 HD 
ENDBRANCH   2   5
TORSDOF 1
ENDMDL
MODEL      215
REMARK 921   NORMALIZED FREE ENERGY PREDICTED BY IDOCK:   -1.28 KCAL/MOL
REMARK 922        TOTAL FREE ENERGY PREDICTED BY IDOCK:   -1.36 KCAL/MOL
REMARK 923 INTER-LIGAND FREE ENERGY PREDICTED BY IDOCK:   -1.32 KCAL/MOL
REMARK 924 INTRA-LIGAND FREE ENERGY PREDICTED BY IDOCK:   -0.05 KCAL/MOL
REMARK 927      BINDING AFFINITY PREDICTED BY RF-SCORE:    0.00 PKD
ROOT
ATOM      1  CG2 THR A   1     -10.947   5.826  69.252  1.00  0.00    -0.330 C  
ATOM      2  CB  THR A   1     -10.257   6.570  70.393  1.00  0.00    -0.193 C  
ATOM      3  HG1 THR A   1     -10.248   6.468  72.356  1.00  0.00     0.000 HD 
ATOM      4  OG1 THR A   1     -10.677   6.004  71.647  1.00  0.00    -0.234 OA 
ENDROOT
BRANCH   2   5
ATOM      5  CA  THR A   1      -8.715   6.553  70.324  1.00  0.00    -0.151 C  
ATOM      6  N   THR A   1      -8.139   5.734  71.412  1.00  0.00    -0.113 NA 
ATOM      7  C   THR A   1      -8.108   7.972  70.328  1.00  0.00    -0.113 C  
ATOM      8  OXT THR A   1      -7.116   8.300  70.969  1.00  0.00    -0.048 OA 
ATOM      9  O   THR A   1      -8.701   8.823  69.451  1.00  0.00    -0.137 OA 
ATOM     10  H1  THR A   1      -7.121   5.723  71.366  1.00  0.00     0.000 HD 
ATOM     11  H2  THR A   1      -8.525   4.790  71.414  1.00  0.00     0.000 HD 
ENDBRANCH   2   5
TORSDOF 1
ENDMDL
MODEL      216
REMARK 921   NORMALIZED FREE ENERGY PREDICTED BY IDOCK:   -1.26 KCAL/MOL
REMARK 922        TOTAL FREE ENERGY PREDICTED BY IDOCK:   -1.34 KCAL/MOL
REMARK 923 INTER-LIGAND FREE ENERGY PREDICTED BY IDOCK:   -1.30 KCAL/MOL
REMARK 924 INTRA-LIGAND FREE ENERGY PREDICTED BY IDOCK:   -0.04 KCAL/MOL
REMARK 927      BINDING AFFINITY PREDICTED BY RF-SCORE:    0.00 PKD
ROOT
ATOM      1  CG2 THR A   1      -5.733  10.682  70.935  1.00  0.00    -0.074 C  
ATOM      2  CB  THR A   1      -6.701   9.509  70.806  1.00  0.00    -0.105 C  
ATOM      3  HG1 THR A   1      -7.853   8.478  72.021  1.00  0.00     0.000 HD 
ATOM      4  OG1 THR A   1      -7.251   9.208  72.101  1.00  0.00    -0.328 OA 
ENDROOT
BRANCH   2   5
ATOM      5  CA  THR A   1      -7.856   9.743  69.809  1.00  0.00    -0.156 C  
ATOM      6  N   THR A   1      -9.122  10.035  70.515  1.00  0.00    -0.315 NA 
ATOM      7  C   THR A   1      -8.036   8.565  68.828  1.00  0.00    -0.120 C  
ATOM      8  OXT THR A   1      -9.121   8.102  68.492  1.00  0.00    -0.137 OA 
ATOM      9  O   THR A   1      -6.877   8.147  68.258  1.00  0.00    -0.065 OA 
ATOM     10  H1  THR A   1      -9.885  10.189  69.857  1.00  0.00     0.000 HD 
ATOM     11  H2  THR A   1      -9.019  10.818  71.160  1.00  0.00     0.000 HD 
ENDBRANCH   2   5
TORSDOF 1
ENDMDL
MODEL      217
REMARK 921   NORMALIZED FREE ENERGY PREDICTED BY IDOCK:   -1.25 KCAL/MOL
REMARK 922        TOTAL FREE ENERGY PREDICTED BY IDOCK:   -1.34 KCAL/MOL
REMARK 923 INTER-LIGAND FREE ENERGY PREDICTED BY IDOCK:   -1.71 KCAL/MOL
REMARK 924 INTRA-LIGAND FREE ENERGY PREDICTED BY IDOCK:    0.37 KCAL/MOL
REMARK 927      BINDING AFFINITY PREDICTED BY RF-SCORE:    0.00 PKD
ROOT
ATOM      1  CG2 THR A   1      -7.836  16.881  67.261  1.00  0.00    -0.204 C  
ATOM      2  CB  THR A   1      -7.806  15.369  67.050  1.00  0.00    -0.209 C  
ATOM      3  HG1 THR A   1      -6.436  13.959  67.074  1.00  0.00     0.000 HD 
ATOM      4  OG1 THR A   1      -6.454  14.899  67.206  1.00  0.00    -0.304 OA 
ENDROOT
BRANCH   2   5
ATOM      5  CA  THR A   1      -8.728  14.575  67.998  1.00  0.00    -0.167 C  
ATOM      6  N   THR A   1     -10.056  14.347  67.389  1.00  0.00    -0.241 NA 
ATOM      7  C   THR A   1      -8.870  15.244  69.382  1.00  0.00    -0.220 C  
ATOM      8  OXT THR A   1      -9.924  15.342  70.000  1.00  0.00    -0.271 OA 
ATOM      9  O   THR A   1      -7.685  15.618  69.931  1.00  0.00    -0.092 OA 
ATOM     10  H1  THR A   1     -10.665  13.822  68.015  1.00  0.00     0.000 HD 
ATOM     11  H2  THR A   1      -9.977  13.896  66.477  1.00  0.00     0.000 HD 
ENDBRANCH   2   5
TORSDOF 1
ENDMDL
MODEL      218
REMARK 921   NORMALIZED FREE ENERGY PREDICTED BY IDOCK:   -1.25 KCAL/MOL
REMARK 922        TOTAL FREE ENERGY PREDICTED BY IDOCK:   -1.34 KCAL/MOL
REMARK 923 INTER-LIGAND FREE ENERGY PREDICTED BY IDOCK:   -1.30 KCAL/MOL
REMARK 924 INTRA-LIGAND FREE ENERGY PREDICTED BY IDOCK:   -0.04 KCAL/MOL
REMARK 927      BINDING AFFINITY PREDICTED BY RF-SCORE:    0.00 PKD
ROOT
ATOM      1  CG2 THR A   1     -10.963   6.214  67.124  1.00  0.00    -0.420 C  
ATOM      2  CB  THR A   1      -9.444   6.325  67.024  1.00  0.00    -0.131 C  
ATOM      3  HG1 THR A   1      -8.042   5.609  65.845  1.00  0.00     0.000 HD 
ATOM      4  OG1 THR A   1      -8.987   5.540  65.907  1.00  0.00    -0.149 OA 
ENDROOT
BRANCH   2   5
ATOM      5  CA  THR A   1      -8.920   7.768  66.873  1.00  0.00    -0.134 C  
ATOM      6  N   THR A   1      -8.039   7.899  65.692  1.00  0.00    -0.122 NA 
ATOM      7  C   THR A   1      -8.205   8.272  68.145  1.00  0.00    -0.128 C  
ATOM      8  OXT THR A   1      -7.163   8.919  68.146  1.00  0.00    -0.077 OA 
ATOM      9  O   THR A   1      -8.900   8.042  69.289  1.00  0.00    -0.140 OA 
ATOM     10  H1  THR A   1      -7.693   8.852  65.593  1.00  0.00     0.000 HD 
ATOM     11  H2  THR A   1      -8.503   7.578  64.842  1.00  0.00     0.000 HD 
ENDBRANCH   2   5
TORSDOF 1
ENDMDL
MODEL      219
REMARK 921   NORMALIZED FREE ENERGY PREDICTED BY IDOCK:   -1.24 KCAL/MOL
REMARK 922        TOTAL FREE ENERGY PREDICTED BY IDOCK:   -1.32 KCAL/MOL
REMARK 923 INTER-LIGAND FREE ENERGY PREDICTED BY IDOCK:   -1.30 KCAL/MOL
REMARK 924 INTRA-LIGAND FREE ENERGY PREDICTED BY IDOCK:   -0.02 KCAL/MOL
REMARK 927      BINDING AFFINITY PREDICTED BY RF-SCORE:    0.00 PKD
ROOT
ATOM      1  CG2 THR A   1      -8.600  16.597  67.835  1.00  0.00    -0.196 C  
ATOM      2  CB  THR A   1      -9.651  15.574  67.412  1.00  0.00    -0.213 C  
ATOM      3  HG1 THR A   1     -11.019  15.442  66.005  1.00  0.00     0.000 HD 
ATOM      4  OG1 THR A   1     -10.364  16.078  66.268  1.00  0.00    -0.296 OA 
ENDROOT
BRANCH   2   5
ATOM      5  CA  THR A   1      -9.084  14.178  67.077  1.00  0.00    -0.243 C  
ATOM      6  N   THR A   1      -9.591  13.692  65.776  1.00  0.00    -0.503 NA 
ATOM      7  C   THR A   1      -9.360  13.146  68.191  1.00  0.00    -0.217 C  
ATOM      8  OXT THR A   1      -9.715  11.990  67.992  1.00  0.00    -0.185 OA 
ATOM      9  O   THR A   1      -9.057  13.593  69.437  1.00  0.00     0.551 OA 
ATOM     10  H1  THR A   1      -9.216  12.770  65.554  1.00  0.00     0.000 HD 
ATOM     11  H2  THR A   1      -9.405  14.361  65.028  1.00  0.00     0.000 HD 
ENDBRANCH   2   5
TORSDOF 1
ENDMDL
MODEL      220
REMARK 921   NORMALIZED FREE ENERGY PREDICTED BY IDOCK:   -1.21 KCAL/MOL
REMARK 922        TOTAL FREE ENERGY PREDICTED BY IDOCK:   -1.29 KCAL/MOL
REMARK 923 INTER-LIGAND FREE ENERGY PREDICTED BY IDOCK:   -1.63 KCAL/MOL
REMARK 924 INTRA-LIGAND FREE ENERGY PREDICTED BY IDOCK:    0.34 KCAL/MOL
REMARK 927      BINDING AFFINITY PREDICTED BY RF-SCORE:    0.00 PKD
ROOT
ATOM      1  CG2 THR A   1     -10.428   7.951  72.724  1.00  0.00    -0.412 C  
ATOM      2  CB  THR A   1      -9.525   6.860  72.153  1.00  0.00    -0.138 C  
ATOM      3  HG1 THR A   1      -8.936   6.295  70.364  1.00  0.00     0.000 HD 
ATOM      4  OG1 THR A   1      -9.497   6.974  70.719  1.00  0.00    -0.161 OA 
ENDROOT
BRANCH   2   5
ATOM      5  CA  THR A   1      -8.078   6.885  72.689  1.00  0.00    -0.105 C  
ATOM      6  N   THR A   1      -7.990   6.257  74.025  1.00  0.00    -0.099 NA 
ATOM      7  C   THR A   1      -7.483   8.309  72.716  1.00  0.00    -0.108 C  
ATOM      8  OXT THR A   1      -6.808   8.762  73.634  1.00  0.00    -0.322 OA 
ATOM      9  O   THR A   1      -7.668   9.000  71.561  1.00  0.00    -0.284 OA 
ATOM     10  H1  THR A   1      -7.034   6.273  74.379  1.00  0.00     0.000 HD 
ATOM     11  H2  THR A   1      -8.371   5.311  74.019  1.00  0.00     0.000 HD 
ENDBRANCH   2   5
TORSDOF 1
ENDMDL
MODEL      221
REMARK 921   NORMALIZED FREE ENERGY PREDICTED BY IDOCK:   -1.19 KCAL/MOL
REMARK 922        TOTAL FREE ENERGY PREDICTED BY IDOCK:   -1.27 KCAL/MOL
REMARK 923 INTER-LIGAND FREE ENERGY PREDICTED BY IDOCK:   -1.29 KCAL/MOL
REMARK 924 INTRA-LIGAND FREE ENERGY PREDICTED BY IDOCK:    0.03 KCAL/MOL
REMARK 927      BINDING AFFINITY PREDICTED BY RF-SCORE:    0.00 PKD
ROOT
ATOM      1  CG2 THR A   1      -9.030   6.416  67.287  1.00  0.00    -0.107 C  
ATOM      2  CB  THR A   1      -8.259   6.897  66.060  1.00  0.00    -0.125 C  
ATOM      3  HG1 THR A   1      -8.143   6.386  64.164  1.00  0.00     0.000 HD 
ATOM      4  OG1 THR A   1      -8.623   6.087  64.928  1.00  0.00    -0.111 OA 
ENDROOT
BRANCH   2   5
ATOM      5  CA  THR A   1      -8.482   8.383  65.709  1.00  0.00    -0.156 C  
ATOM      6  N   THR A   1      -9.912   8.747  65.804  1.00  0.00    -0.411 NA 
ATOM      7  C   THR A   1      -7.915   8.754  64.323  1.00  0.00    -0.146 C  
ATOM      8  OXT THR A   1      -8.486   9.472  63.509  1.00  0.00    -0.169 OA 
ATOM      9  O   THR A   1      -6.648   8.311  64.115  1.00  0.00    -0.066 OA 
ATOM     10  H1  THR A   1     -10.060   9.728  65.572  1.00  0.00     0.000 HD 
ATOM     11  H2  THR A   1     -10.298   8.515  66.720  1.00  0.00     0.000 HD 
ENDBRANCH   2   5
TORSDOF 1
ENDMDL
MODEL      222
REMARK 921   NORMALIZED FREE ENERGY PREDICTED BY IDOCK:   -1.18 KCAL/MOL
REMARK 922        TOTAL FREE ENERGY PREDICTED BY IDOCK:   -1.26 KCAL/MOL
REMARK 923 INTER-LIGAND FREE ENERGY PREDICTED BY IDOCK:   -1.21 KCAL/MOL
REMARK 924 INTRA-LIGAND FREE ENERGY PREDICTED BY IDOCK:   -0.05 KCAL/MOL
REMARK 927      BINDING AFFINITY PREDICTED BY RF-SCORE:    0.00 PKD
ROOT
ATOM      1  CG2 THR A   1      -7.914   4.526  67.558  1.00  0.00    -0.100 C  
ATOM      2  CB  THR A   1      -8.366   3.999  66.199  1.00  0.00    -0.108 C  
ATOM      3  HG1 THR A   1      -9.576   2.589  65.553  1.00  0.00     0.000 HD 
ATOM      4  OG1 THR A   1      -9.294   2.917  66.399  1.00  0.00    -0.131 OA 
ENDROOT
BRANCH   2   5
ATOM      5  CA  THR A   1      -9.018   5.060  65.288  1.00  0.00    -0.151 C  
ATOM      6  N   THR A   1     -10.412   4.697  64.954  1.00  0.00    -0.456 NA 
ATOM      7  C   THR A   1      -8.200   5.321  64.006  1.00  0.00    -0.131 C  
ATOM      8  OXT THR A   1      -8.685   5.458  62.888  1.00  0.00    -0.092 OA 
ATOM      9  O   THR A   1      -6.874   5.512  64.233  1.00  0.00    -0.045 OA 
ATOM     10  H1  THR A   1     -10.843   5.398  64.353  1.00  0.00     0.000 HD 
ATOM     11  H2  THR A   1     -10.967   4.532  65.794  1.00  0.00     0.000 HD 
ENDBRANCH   2   5
TORSDOF 1
ENDMDL
MODEL      223
REMARK 921   NORMALIZED FREE ENERGY PREDICTED BY IDOCK:   -1.15 KCAL/MOL
REMARK 922        TOTAL FREE ENERGY PREDICTED BY IDOCK:   -1.23 KCAL/MOL
REMARK 923 INTER-LIGAND FREE ENERGY PREDICTED BY IDOCK:   -1.18 KCAL/MOL
REMARK 924 INTRA-LIGAND FREE ENERGY PREDICTED BY IDOCK:   -0.04 KCAL/MOL
REMARK 927      BINDING AFFINITY PREDICTED BY RF-SCORE:    0.00 PKD
ROOT
ATOM      1  CG2 THR A   1      -8.336  10.204  67.639  1.00  0.00    -0.114 C  
ATOM      2  CB  THR A   1      -7.874   9.209  68.700  1.00  0.00    -0.097 C  
ATOM      3  HG1 THR A   1      -6.414   9.109  70.014  1.00  0.00     0.000 HD 
ATOM      4  OG1 THR A   1      -6.702   9.729  69.354  1.00  0.00    -0.050 OA 
ENDROOT
BRANCH   2   5
ATOM      5  CA  THR A   1      -8.938   8.875  69.766  1.00  0.00    -0.149 C  
ATOM      6  N   THR A   1      -8.627   9.525  71.057  1.00  0.00    -0.347 NA 
ATOM      7  C   THR A   1      -9.130   7.354  69.952  1.00  0.00    -0.141 C  
ATOM      8  OXT THR A   1      -9.259   6.799  71.038  1.00  0.00    -0.156 OA 
ATOM      9  O   THR A   1      -9.270   6.675  68.785  1.00  0.00    -0.131 OA 
ATOM     10  H1  THR A   1      -9.330   9.304  71.762  1.00  0.00     0.000 HD 
ATOM     11  H2  THR A   1      -8.507  10.532  70.950  1.00  0.00     0.000 HD 
ENDBRANCH   2   5
TORSDOF 1
ENDMDL
MODEL      224
REMARK 921   NORMALIZED FREE ENERGY PREDICTED BY IDOCK:   -1.13 KCAL/MOL
REMARK 922        TOTAL FREE ENERGY PREDICTED BY IDOCK:   -1.21 KCAL/MOL
REMARK 923 INTER-LIGAND FREE ENERGY PREDICTED BY IDOCK:   -1.16 KCAL/MOL
REMARK 924 INTRA-LIGAND FREE ENERGY PREDICTED BY IDOCK:   -0.05 KCAL/MOL
REMARK 927      BINDING AFFINITY PREDICTED BY RF-SCORE:    0.00 PKD
ROOT
ATOM      1  CG2 THR A   1      -7.139   6.876  67.597  1.00  0.00    -0.085 C  
ATOM      2  CB  THR A   1      -7.730   8.283  67.562  1.00  0.00    -0.099 C  
ATOM      3  HG1 THR A   1      -7.040  10.117  67.719  1.00  0.00     0.000 HD 
ATOM      4  OG1 THR A   1      -6.672   9.242  67.741  1.00  0.00    -0.066 OA 
ENDROOT
BRANCH   2   5
ATOM      5  CA  THR A   1      -8.501   8.618  66.268  1.00  0.00    -0.125 C  
ATOM      6  N   THR A   1      -7.594   9.140  65.224  1.00  0.00    -0.096 NA 
ATOM      7  C   THR A   1      -9.671   9.594  66.514  1.00  0.00    -0.212 C  
ATOM      8  OXT THR A   1      -9.953  10.537  65.782  1.00  0.00    -0.231 OA 
ATOM      9  O   THR A   1     -10.458   9.249  67.565  1.00  0.00    -0.245 OA 
ATOM     10  H1  THR A   1      -8.103   9.362  64.369  1.00  0.00     0.000 HD 
ATOM     11  H2  THR A   1      -6.821   8.499  65.044  1.00  0.00     0.000 HD 
ENDBRANCH   2   5
TORSDOF 1
ENDMDL
MODEL      225
REMARK 921   NORMALIZED FREE ENERGY PREDICTED BY IDOCK:   -1.11 KCAL/MOL
REMARK 922        TOTAL FREE ENERGY PREDICTED BY IDOCK:   -1.18 KCAL/MOL
REMARK 923 INTER-LIGAND FREE ENERGY PREDICTED BY IDOCK:   -1.66 KCAL/MOL
REMARK 924 INTRA-LIGAND FREE ENERGY PREDICTED BY IDOCK:    0.48 KCAL/MOL
REMARK 927      BINDING AFFINITY PREDICTED BY RF-SCORE:    0.00 PKD
ROOT
ATOM      1  CG2 THR A   1     -10.014   6.338  67.625  1.00  0.00    -0.151 C  
ATOM      2  CB  THR A   1     -10.880   6.278  68.881  1.00  0.00    -0.333 C  
ATOM      3  HG1 THR A   1     -11.027   5.102  70.450  1.00  0.00     0.000 HD 
ATOM      4  OG1 THR A   1     -10.488   5.139  69.669  1.00  0.00    -0.280 OA 
ENDROOT
BRANCH   2   5
ATOM      5  CA  THR A   1     -10.816   7.545  69.760  1.00  0.00    -0.225 C  
ATOM      6  N   THR A   1     -11.353   8.722  69.043  1.00  0.00    -0.225 NA 
ATOM      7  C   THR A   1      -9.392   7.828  70.285  1.00  0.00    -0.156 C  
ATOM      8  OXT THR A   1      -8.878   8.940  70.328  1.00  0.00    -0.147 OA 
ATOM      9  O   THR A   1      -8.782   6.740  70.821  1.00  0.00    -0.143 OA 
ATOM     10  H1  THR A   1     -11.311   9.559  69.624  1.00  0.00     0.000 HD 
ATOM     11  H2  THR A   1     -12.298   8.552  68.699  1.00  0.00     0.000 HD 
ENDBRANCH   2   5
TORSDOF 1
ENDMDL
MODEL      226
REMARK 921   NORMALIZED FREE ENERGY PREDICTED BY IDOCK:   -1.06 KCAL/MOL
REMARK 922        TOTAL FREE ENERGY PREDICTED BY IDOCK:   -1.13 KCAL/MOL
REMARK 923 INTER-LIGAND FREE ENERGY PREDICTED BY IDOCK:   -1.53 KCAL/MOL
REMARK 924 INTRA-LIGAND FREE ENERGY PREDICTED BY IDOCK:    0.40 KCAL/MOL
REMARK 927      BINDING AFFINITY PREDICTED BY RF-SCORE:    0.00 PKD
ROOT
ATOM      1  CG2 THR A   1      -9.909  14.264  66.003  1.00  0.00    -0.336 C  
ATOM      2  CB  THR A   1      -9.649  14.677  67.449  1.00  0.00    -0.215 C  
ATOM      3  HG1 THR A   1     -10.538  14.413  69.183  1.00  0.00     0.000 HD 
ATOM      4  OG1 THR A   1     -10.700  14.156  68.283  1.00  0.00    -0.238 OA 
ENDROOT
BRANCH   2   5
ATOM      5  CA  THR A   1      -8.287  14.216  68.008  1.00  0.00    -0.160 C  
ATOM      6  N   THR A   1      -7.273  15.287  67.899  1.00  0.00    -0.128 NA 
ATOM      7  C   THR A   1      -7.783  12.918  67.342  1.00  0.00    -0.159 C  
ATOM      8  OXT THR A   1      -6.623  12.719  66.998  1.00  0.00    -0.140 OA 
ATOM      9  O   THR A   1      -8.723  11.940  67.273  1.00  0.00    -0.158 OA 
ATOM     10  H1  THR A   1      -6.373  14.983  68.269  1.00  0.00     0.000 HD 
ATOM     11  H2  THR A   1      -7.589  16.149  68.345  1.00  0.00     0.000 HD 
ENDBRANCH   2   5
TORSDOF 1
ENDMDL
MODEL      227
REMARK 921   NORMALIZED FREE ENERGY PREDICTED BY IDOCK:   -1.06 KCAL/MOL
REMARK 922        TOTAL FREE ENERGY PREDICTED BY IDOCK:   -1.13 KCAL/MOL
REMARK 923 INTER-LIGAND FREE ENERGY PREDICTED BY IDOCK:   -1.11 KCAL/MOL
REMARK 924 INTRA-LIGAND FREE ENERGY PREDICTED BY IDOCK:   -0.02 KCAL/MOL
REMARK 927      BINDING AFFINITY PREDICTED BY RF-SCORE:    0.00 PKD
ROOT
ATOM      1  CG2 THR A   1     -10.397   8.046  72.736  1.00  0.00    -0.408 C  
ATOM      2  CB  THR A   1      -9.242   7.286  72.089  1.00  0.00    -0.132 C  
ATOM      3  HG1 THR A   1      -8.505   7.098  70.276  1.00  0.00     0.000 HD 
ATOM      4  OG1 THR A   1      -9.223   7.571  70.678  1.00  0.00    -0.158 OA 
ENDROOT
BRANCH   2   5
ATOM      5  CA  THR A   1      -7.856   7.604  72.686  1.00  0.00    -0.101 C  
ATOM      6  N   THR A   1      -6.878   7.931  71.627  1.00  0.00    -0.054 NA 
ATOM      7  C   THR A   1      -7.326   6.467  73.586  1.00  0.00    -0.084 C  
ATOM      8  OXT THR A   1      -6.168   6.066  73.588  1.00  0.00    -0.061 OA 
ATOM      9  O   THR A   1      -8.236   6.014  74.487  1.00  0.00    -0.111 OA 
ATOM     10  H1  THR A   1      -5.962   8.141  72.021  1.00  0.00     0.000 HD 
ATOM     11  H2  THR A   1      -7.211   8.688  71.030  1.00  0.00     0.000 HD 
ENDBRANCH   2   5
TORSDOF 1
ENDMDL
MODEL      228
REMARK 921   NORMALIZED FREE ENERGY PREDICTED BY IDOCK:   -1.05 KCAL/MOL
REMARK 922        TOTAL FREE ENERGY PREDICTED BY IDOCK:   -1.13 KCAL/MOL
REMARK 923 INTER-LIGAND FREE ENERGY PREDICTED BY IDOCK:   -1.46 KCAL/MOL
REMARK 924 INTRA-LIGAND FREE ENERGY PREDICTED BY IDOCK:    0.34 KCAL/MOL
REMARK 927      BINDING AFFINITY PREDICTED BY RF-SCORE:    0.00 PKD
ROOT
ATOM      1  CG2 THR A   1      -8.485   7.958  66.876  1.00  0.00    -0.128 C  
ATOM      2  CB  THR A   1      -8.505   9.262  67.668  1.00  0.00    -0.116 C  
ATOM      3  HG1 THR A   1      -7.178  10.595  68.245  1.00  0.00     0.000 HD 
ATOM      4  OG1 THR A   1      -7.166   9.783  67.751  1.00  0.00    -0.086 OA 
ENDROOT
BRANCH   2   5
ATOM      5  CA  THR A   1      -9.432  10.349  67.084  1.00  0.00    -0.159 C  
ATOM      6  N   THR A   1     -10.818  10.192  67.577  1.00  0.00    -0.296 NA 
ATOM      7  C   THR A   1      -9.402  10.384  65.542  1.00  0.00    -0.197 C  
ATOM      8  OXT THR A   1     -10.392  10.519  64.831  1.00  0.00    -0.328 OA 
ATOM      9  O   THR A   1      -8.148  10.374  65.020  1.00  0.00    -0.153 OA 
ATOM     10  H1  THR A   1     -11.431  10.910  67.191  1.00  0.00     0.000 HD 
ATOM     11  H2  THR A   1     -10.853  10.178  68.596  1.00  0.00     0.000 HD 
ENDBRANCH   2   5
TORSDOF 1
ENDMDL
MODEL      229
REMARK 921   NORMALIZED FREE ENERGY PREDICTED BY IDOCK:   -1.05 KCAL/MOL
REMARK 922        TOTAL FREE ENERGY PREDICTED BY IDOCK:   -1.12 KCAL/MOL
REMARK 923 INTER-LIGAND FREE ENERGY PREDICTED BY IDOCK:   -1.08 KCAL/MOL
REMARK 924 INTRA-LIGAND FREE ENERGY PREDICTED BY IDOCK:   -0.05 KCAL/MOL
REMARK 927      BINDING AFFINITY PREDICTED BY RF-SCORE:    0.00 PKD
ROOT
ATOM      1  CG2 THR A   1      -8.782   3.425  70.551  1.00  0.00    -0.128 C  
ATOM      2  CB  THR A   1      -8.746   4.931  70.799  1.00  0.00    -0.121 C  
ATOM      3  HG1 THR A   1      -9.310   6.545  69.827  1.00  0.00     0.000 HD 
ATOM      4  OG1 THR A   1      -9.333   5.608  69.673  1.00  0.00    -0.133 OA 
ENDROOT
BRANCH   2   5
ATOM      5  CA  THR A   1      -9.463   5.382  72.088  1.00  0.00    -0.143 C  
ATOM      6  N   THR A   1     -10.537   6.355  71.792  1.00  0.00    -0.215 NA 
ATOM      7  C   THR A   1      -8.486   5.949  73.140  1.00  0.00    -0.116 C  
ATOM      8  OXT THR A   1      -8.701   6.947  73.819  1.00  0.00    -0.133 OA 
ATOM      9  O   THR A   1      -7.394   5.169  73.347  1.00  0.00    -0.088 OA 
ATOM     10  H1  THR A   1     -11.011   6.653  72.644  1.00  0.00     0.000 HD 
ATOM     11  H2  THR A   1     -11.195   5.989  71.105  1.00  0.00     0.000 HD 
ENDBRANCH   2   5
TORSDOF 1
ENDMDL
MODEL      230
REMARK 921   NORMALIZED FREE ENERGY PREDICTED BY IDOCK:   -1.04 KCAL/MOL
REMARK 922        TOTAL FREE ENERGY PREDICTED BY IDOCK:   -1.11 KCAL/MOL
REMARK 923 INTER-LIGAND FREE ENERGY PREDICTED BY IDOCK:   -1.45 KCAL/MOL
REMARK 924 INTRA-LIGAND FREE ENERGY PREDICTED BY IDOCK:    0.34 KCAL/MOL
REMARK 927      BINDING AFFINITY PREDICTED BY RF-SCORE:    0.00 PKD
ROOT
ATOM      1  CG2 THR A   1      -9.584  12.962  67.604  1.00  0.00    -0.196 C  
ATOM      2  CB  THR A   1     -10.120  11.533  67.654  1.00  0.00    -0.184 C  
ATOM      3  HG1 THR A   1     -10.763  10.211  66.348  1.00  0.00     0.000 HD 
ATOM      4  OG1 THR A   1     -10.429  11.100  66.317  1.00  0.00    -0.246 OA 
ENDROOT
BRANCH   2   5
ATOM      5  CA  THR A   1      -9.161  10.515  68.305  1.00  0.00    -0.146 C  
ATOM      6  N   THR A   1      -9.256  10.556  69.780  1.00  0.00    -0.399 NA 
ATOM      7  C   THR A   1      -7.699  10.704  67.847  1.00  0.00    -0.100 C  
ATOM      8  OXT THR A   1      -6.726  10.643  68.589  1.00  0.00    -0.055 OA 
ATOM      9  O   THR A   1      -7.560  10.828  66.501  1.00  0.00    -0.126 OA 
ATOM     10  H1  THR A   1      -8.622   9.883  70.210  1.00  0.00     0.000 HD 
ATOM     11  H2  THR A   1     -10.216  10.422  70.097  1.00  0.00     0.000 HD 
ENDBRANCH   2   5
TORSDOF 1
ENDMDL
MODEL      231
REMARK 921   NORMALIZED FREE ENERGY PREDICTED BY IDOCK:   -1.01 KCAL/MOL
REMARK 922        TOTAL FREE ENERGY PREDICTED BY IDOCK:   -1.08 KCAL/MOL
REMARK 923 INTER-LIGAND FREE ENERGY PREDICTED BY IDOCK:   -1.42 KCAL/MOL
REMARK 924 INTRA-LIGAND FREE ENERGY PREDICTED BY IDOCK:    0.34 KCAL/MOL
REMARK 927      BINDING AFFINITY PREDICTED BY RF-SCORE:    0.00 PKD
ROOT
ATOM      1  CG2 THR A   1      -8.307   6.536  65.439  1.00  0.00    -0.140 C  
ATOM      2  CB  THR A   1      -8.939   6.765  66.809  1.00  0.00    -0.134 C  
ATOM      3  HG1 THR A   1     -10.555   7.649  67.499  1.00  0.00     0.000 HD 
ATOM      4  OG1 THR A   1     -10.162   7.506  66.646  1.00  0.00    -0.250 OA 
ENDROOT
BRANCH   2   5
ATOM      5  CA  THR A   1      -9.235   5.473  67.598  1.00  0.00    -0.110 C  
ATOM      6  N   THR A   1      -8.047   5.023  68.355  1.00  0.00    -0.086 NA 
ATOM      7  C   THR A   1      -9.769   4.340  66.697  1.00  0.00    -0.219 C  
ATOM      8  OXT THR A   1      -9.424   3.166  66.779  1.00  0.00    -0.158 OA 
ATOM      9  O   THR A   1     -10.767   4.730  65.863  1.00  0.00    -0.318 OA 
ATOM     10  H1  THR A   1      -8.242   4.169  68.877  1.00  0.00     0.000 HD 
ATOM     11  H2  THR A   1      -7.689   5.760  68.963  1.00  0.00     0.000 HD 
ENDBRANCH   2   5
TORSDOF 1
ENDMDL
MODEL      232
REMARK 921   NORMALIZED FREE ENERGY PREDICTED BY IDOCK:   -0.98 KCAL/MOL
REMARK 922        TOTAL FREE ENERGY PREDICTED BY IDOCK:   -1.05 KCAL/MOL
REMARK 923 INTER-LIGAND FREE ENERGY PREDICTED BY IDOCK:   -1.39 KCAL/MOL
REMARK 924 INTRA-LIGAND FREE ENERGY PREDICTED BY IDOCK:    0.34 KCAL/MOL
REMARK 927      BINDING AFFINITY PREDICTED BY RF-SCORE:    0.00 PKD
ROOT
ATOM      1  CG2 THR A   1      -9.323   3.763  64.081  1.00  0.00    -0.146 C  
ATOM      2  CB  THR A   1      -8.319   3.593  65.218  1.00  0.00    -0.101 C  
ATOM      3  HG1 THR A   1      -6.508   4.244  65.624  1.00  0.00     0.000 HD 
ATOM      4  OG1 THR A   1      -7.133   4.351  64.916  1.00  0.00    -0.060 OA 
ENDROOT
BRANCH   2   5
ATOM      5  CA  THR A   1      -8.848   4.017  66.604  1.00  0.00    -0.122 C  
ATOM      6  N   THR A   1      -9.613   2.924  67.243  1.00  0.00    -0.391 NA 
ATOM      7  C   THR A   1      -9.690   5.309  66.545  1.00  0.00    -0.167 C  
ATOM      8  OXT THR A   1     -10.736   5.484  67.159  1.00  0.00    -0.255 OA 
ATOM      9  O   THR A   1      -9.105   6.309  65.836  1.00  0.00    -0.145 OA 
ATOM     10  H1  THR A   1      -9.962   3.203  68.159  1.00  0.00     0.000 HD 
ATOM     11  H2  THR A   1      -9.064   2.065  67.297  1.00  0.00     0.000 HD 
ENDBRANCH   2   5
TORSDOF 1
ENDMDL
MODEL      233
REMARK 921   NORMALIZED FREE ENERGY PREDICTED BY IDOCK:   -0.98 KCAL/MOL
REMARK 922        TOTAL FREE ENERGY PREDICTED BY IDOCK:   -1.04 KCAL/MOL
REMARK 923 INTER-LIGAND FREE ENERGY PREDICTED BY IDOCK:   -0.98 KCAL/MOL
REMARK 924 INTRA-LIGAND FREE ENERGY PREDICTED BY IDOCK:   -0.06 KCAL/MOL
REMARK 927      BINDING AFFINITY PREDICTED BY RF-SCORE:    0.00 PKD
ROOT
ATOM      1  CG2 THR A   1      -6.111   3.291  70.565  1.00  0.00    -0.019 C  
ATOM      2  CB  THR A   1      -7.336   4.108  70.968  1.00  0.00    -0.044 C  
ATOM      3  HG1 THR A   1      -7.740   6.009  71.270  1.00  0.00     0.000 HD 
ATOM      4  OG1 THR A   1      -6.977   5.501  71.020  1.00  0.00    -0.057 OA 
ENDROOT
BRANCH   2   5
ATOM      5  CA  THR A   1      -8.552   3.935  70.033  1.00  0.00    -0.065 C  
ATOM      6  N   THR A   1      -8.247   4.405  68.664  1.00  0.00    -0.080 NA 
ATOM      7  C   THR A   1      -9.819   4.628  70.578  1.00  0.00    -0.231 C  
ATOM      8  OXT THR A   1     -10.603   5.277  69.895  1.00  0.00    -0.306 OA 
ATOM      9  O   THR A   1     -10.070   4.357  71.885  1.00  0.00    -0.179 OA 
ATOM     10  H1  THR A   1      -9.050   4.290  68.047  1.00  0.00     0.000 HD 
ATOM     11  H2  THR A   1      -7.417   3.947  68.288  1.00  0.00     0.000 HD 
ENDBRANCH   2   5
TORSDOF 1
ENDMDL
MODEL      234
REMARK 921   NORMALIZED FREE ENERGY PREDICTED BY IDOCK:   -0.98 KCAL/MOL
REMARK 922        TOTAL FREE ENERGY PREDICTED BY IDOCK:   -1.04 KCAL/MOL
REMARK 923 INTER-LIGAND FREE ENERGY PREDICTED BY IDOCK:   -1.00 KCAL/MOL
REMARK 924 INTRA-LIGAND FREE ENERGY PREDICTED BY IDOCK:   -0.04 KCAL/MOL
REMARK 927      BINDING AFFINITY PREDICTED BY RF-SCORE:    0.00 PKD
ROOT
ATOM      1  CG2 THR A   1      -7.333  12.069  67.196  1.00  0.00    -0.134 C  
ATOM      2  CB  THR A   1      -7.336  10.542  67.226  1.00  0.00    -0.091 C  
ATOM      3  HG1 THR A   1      -6.382   9.139  68.220  1.00  0.00     0.000 HD 
ATOM      4  OG1 THR A   1      -6.380  10.089  68.201  1.00  0.00    -0.053 OA 
ENDROOT
BRANCH   2   5
ATOM      5  CA  THR A   1      -8.710   9.913  67.536  1.00  0.00    -0.121 C  
ATOM      6  N   THR A   1      -8.830   9.565  68.968  1.00  0.00    -0.138 NA 
ATOM      7  C   THR A   1      -9.012   8.687  66.649  1.00  0.00    -0.145 C  
ATOM      8  OXT THR A   1      -9.522   7.648  67.052  1.00  0.00    -0.146 OA 
ATOM      9  O   THR A   1      -8.774   8.896  65.328  1.00  0.00    -0.174 OA 
ATOM     10  H1  THR A   1      -9.737   9.150  69.173  1.00  0.00     0.000 HD 
ATOM     11  H2  THR A   1      -8.642  10.371  69.566  1.00  0.00     0.000 HD 
ENDBRANCH   2   5
TORSDOF 1
ENDMDL
MODEL      235
REMARK 921   NORMALIZED FREE ENERGY PREDICTED BY IDOCK:   -0.97 KCAL/MOL
REMARK 922        TOTAL FREE ENERGY PREDICTED BY IDOCK:   -1.04 KCAL/MOL
REMARK 923 INTER-LIGAND FREE ENERGY PREDICTED BY IDOCK:   -1.27 KCAL/MOL
REMARK 924 INTRA-LIGAND FREE ENERGY PREDICTED BY IDOCK:    0.23 KCAL/MOL
REMARK 927      BINDING AFFINITY PREDICTED BY RF-SCORE:    0.00 PKD
ROOT
ATOM      1  CG2 THR A   1      -8.551   4.734  63.582  1.00  0.00    -0.136 C  
ATOM      2  CB  THR A   1      -7.947   5.964  64.256  1.00  0.00    -0.122 C  
ATOM      3  HG1 THR A   1      -7.756   7.872  63.821  1.00  0.00     0.000 HD 
ATOM      4  OG1 THR A   1      -8.132   7.107  63.402  1.00  0.00    -0.103 OA 
ENDROOT
BRANCH   2   5
ATOM      5  CA  THR A   1      -8.530   6.277  65.650  1.00  0.00    -0.148 C  
ATOM      6  N   THR A   1      -9.929   5.811  65.764  1.00  0.00    -0.375 NA 
ATOM      7  C   THR A   1      -8.421   7.773  66.013  1.00  0.00    -0.139 C  
ATOM      8  OXT THR A   1      -9.308   8.421  66.558  1.00  0.00    -0.172 OA 
ATOM      9  O   THR A   1      -7.191   8.302  65.785  1.00  0.00    -0.070 OA 
ATOM     10  H1  THR A   1     -10.314   6.018  66.685  1.00  0.00     0.000 HD 
ATOM     11  H2  THR A   1     -10.013   4.821  65.536  1.00  0.00     0.000 HD 
ENDBRANCH   2   5
TORSDOF 1
ENDMDL
MODEL      236
REMARK 921   NORMALIZED FREE ENERGY PREDICTED BY IDOCK:   -0.93 KCAL/MOL
REMARK 922        TOTAL FREE ENERGY PREDICTED BY IDOCK:   -1.00 KCAL/MOL
REMARK 923 INTER-LIGAND FREE ENERGY PREDICTED BY IDOCK:   -1.33 KCAL/MOL
REMARK 924 INTRA-LIGAND FREE ENERGY PREDICTED BY IDOCK:    0.34 KCAL/MOL
REMARK 927      BINDING AFFINITY PREDICTED BY RF-SCORE:    0.00 PKD
ROOT
ATOM      1  CG2 THR A   1     -10.115   8.958  70.695  1.00  0.00    -0.262 C  
ATOM      2  CB  THR A   1      -9.627   7.541  70.987  1.00  0.00    -0.160 C  
ATOM      3  HG1 THR A   1     -10.442   5.850  71.574  1.00  0.00     0.000 HD 
ATOM      4  OG1 THR A   1     -10.746   6.732  71.391  1.00  0.00    -0.220 OA 
ENDROOT
BRANCH   2   5
ATOM      5  CA  THR A   1      -8.911   6.857  69.804  1.00  0.00    -0.141 C  
ATOM      6  N   THR A   1      -7.498   7.283  69.713  1.00  0.00    -0.091 NA 
ATOM      7  C   THR A   1      -9.638   7.085  68.462  1.00  0.00    -0.137 C  
ATOM      8  OXT THR A   1      -9.076   7.342  67.403  1.00  0.00    -0.121 OA 
ATOM      9  O   THR A   1     -10.976   6.855  68.520  1.00  0.00    -0.200 OA 
ATOM     10  H1  THR A   1      -7.025   6.831  68.931  1.00  0.00     0.000 HD 
ATOM     11  H2  THR A   1      -7.003   7.129  70.591  1.00  0.00     0.000 HD 
ENDBRANCH   2   5
TORSDOF 1
ENDMDL
MODEL      237
REMARK 921   NORMALIZED FREE ENERGY PREDICTED BY IDOCK:   -0.90 KCAL/MOL
REMARK 922        TOTAL FREE ENERGY PREDICTED BY IDOCK:   -0.96 KCAL/MOL
REMARK 923 INTER-LIGAND FREE ENERGY PREDICTED BY IDOCK:   -0.99 KCAL/MOL
REMARK 924 INTRA-LIGAND FREE ENERGY PREDICTED BY IDOCK:    0.03 KCAL/MOL
REMARK 927      BINDING AFFINITY PREDICTED BY RF-SCORE:    0.00 PKD
ROOT
ATOM      1  CG2 THR A   1     -10.385   6.545  69.501  1.00  0.00    -0.237 C  
ATOM      2  CB  THR A   1      -9.437   6.539  70.698  1.00  0.00    -0.166 C  
ATOM      3  HG1 THR A   1      -9.575   6.921  72.622  1.00  0.00     0.000 HD 
ATOM      4  OG1 THR A   1     -10.165   6.925  71.878  1.00  0.00    -0.189 OA 
ENDROOT
BRANCH   2   5
ATOM      5  CA  THR A   1      -8.743   5.185  70.954  1.00  0.00    -0.130 C  
ATOM      6  N   THR A   1      -8.732   4.852  72.395  1.00  0.00    -0.123 NA 
ATOM      7  C   THR A   1      -7.315   5.133  70.371  1.00  0.00    -0.062 C  
ATOM      8  OXT THR A   1      -6.348   4.644  70.945  1.00  0.00    -0.018 OA 
ATOM      9  O   THR A   1      -7.233   5.574  69.089  1.00  0.00    -0.065 OA 
ATOM     10  H1  THR A   1      -8.274   3.958  72.564  1.00  0.00     0.000 HD 
ATOM     11  H2  THR A   1      -9.672   4.873  72.791  1.00  0.00     0.000 HD 
ENDBRANCH   2   5
TORSDOF 1
ENDMDL
MODEL      238
REMARK 921   NORMALIZED FREE ENERGY PREDICTED BY IDOCK:   -0.86 KCAL/MOL
REMARK 922        TOTAL FREE ENERGY PREDICTED BY IDOCK:   -0.92 KCAL/MOL
REMARK 923 INTER-LIGAND FREE ENERGY PREDICTED BY IDOCK:   -0.88 KCAL/MOL
REMARK 924 INTRA-LIGAND FREE ENERGY PREDICTED BY IDOCK:   -0.05 KCAL/MOL
REMARK 927      BINDING AFFINITY PREDICTED BY RF-SCORE:    0.00 PKD
ROOT
ATOM      1  CG2 THR A   1     -10.133   6.914  68.794  1.00  0.00    -0.168 C  
ATOM      2  CB  THR A   1      -9.159   6.608  67.659  1.00  0.00    -0.112 C  
ATOM      3  HG1 THR A   1      -7.953   7.645  66.503  1.00  0.00     0.000 HD 
ATOM      4  OG1 THR A   1      -8.559   7.836  67.209  1.00  0.00    -0.126 OA 
ENDROOT
BRANCH   2   5
ATOM      5  CA  THR A   1      -8.044   5.608  68.029  1.00  0.00    -0.097 C  
ATOM      6  N   THR A   1      -6.717   6.261  68.032  1.00  0.00    -0.062 NA 
ATOM      7  C   THR A   1      -8.037   4.365  67.113  1.00  0.00    -0.101 C  
ATOM      8  OXT THR A   1      -7.026   3.845  66.656  1.00  0.00    -0.057 OA 
ATOM      9  O   THR A   1      -9.263   3.804  66.946  1.00  0.00    -0.152 OA 
ATOM     10  H1  THR A   1      -5.980   5.601  68.277  1.00  0.00     0.000 HD 
ATOM     11  H2  THR A   1      -6.705   7.079  68.642  1.00  0.00     0.000 HD 
ENDBRANCH   2   5
TORSDOF 1
ENDMDL
MODEL      239
REMARK 921   NORMALIZED FREE ENERGY PREDICTED BY IDOCK:   -0.85 KCAL/MOL
REMARK 922        TOTAL FREE ENERGY PREDICTED BY IDOCK:   -0.91 KCAL/MOL
REMARK 923 INTER-LIGAND FREE ENERGY PREDICTED BY IDOCK:   -1.25 KCAL/MOL
REMARK 924 INTRA-LIGAND FREE ENERGY PREDICTED BY IDOCK:    0.34 KCAL/MOL
REMARK 927      BINDING AFFINITY PREDICTED BY RF-SCORE:    0.00 PKD
ROOT
ATOM      1  CG2 THR A   1      -8.152   8.127  65.282  1.00  0.00    -0.136 C  
ATOM      2  CB  THR A   1      -8.314   9.354  66.175  1.00  0.00    -0.115 C  
ATOM      3  HG1 THR A   1      -9.430  10.974  66.176  1.00  0.00     0.000 HD 
ATOM      4  OG1 THR A   1      -9.330  10.210  65.621  1.00  0.00    -0.172 OA 
ENDROOT
BRANCH   2   5
ATOM      5  CA  THR A   1      -8.670   9.033  67.641  1.00  0.00    -0.124 C  
ATOM      6  N   THR A   1      -7.454   8.800  68.450  1.00  0.00    -0.089 NA 
ATOM      7  C   THR A   1      -9.644   7.842  67.765  1.00  0.00    -0.146 C  
ATOM      8  OXT THR A   1      -9.548   6.951  68.602  1.00  0.00    -0.134 OA 
ATOM      9  O   THR A   1     -10.713   7.922  66.930  1.00  0.00    -0.333 OA 
ATOM     10  H1  THR A   1      -7.690   8.588  69.419  1.00  0.00     0.000 HD 
ATOM     11  H2  THR A   1      -6.806   9.585  68.385  1.00  0.00     0.000 HD 
ENDBRANCH   2   5
TORSDOF 1
ENDMDL
MODEL      240
REMARK 921   NORMALIZED FREE ENERGY PREDICTED BY IDOCK:   -0.85 KCAL/MOL
REMARK 922        TOTAL FREE ENERGY PREDICTED BY IDOCK:   -0.91 KCAL/MOL
REMARK 923 INTER-LIGAND FREE ENERGY PREDICTED BY IDOCK:   -1.51 KCAL/MOL
REMARK 924 INTRA-LIGAND FREE ENERGY PREDICTED BY IDOCK:    0.61 KCAL/MOL
REMARK 927      BINDING AFFINITY PREDICTED BY RF-SCORE:    0.00 PKD
ROOT
ATOM      1  CG2 THR A   1     -10.033   2.750  74.326  1.00  0.00    -0.162 C  
ATOM      2  CB  THR A   1      -9.461   4.147  74.558  1.00  0.00    -0.111 C  
ATOM      3  HG1 THR A   1      -7.890   5.158  73.945  1.00  0.00     0.000 HD 
ATOM      4  OG1 THR A   1      -8.245   4.289  73.801  1.00  0.00    -0.092 OA 
ENDROOT
BRANCH   2   5
ATOM      5  CA  THR A   1     -10.421   5.297  74.190  1.00  0.00    -0.283 C  
ATOM      6  N   THR A   1     -11.630   4.789  73.506  1.00  0.00    -0.392 NA 
ATOM      7  C   THR A   1      -9.735   6.392  73.345  1.00  0.00    -0.165 C  
ATOM      8  OXT THR A   1     -10.246   6.942  72.376  1.00  0.00    -0.184 OA 
ATOM      9  O   THR A   1      -8.538   6.796  73.843  1.00  0.00    -0.125 OA 
ATOM     10  H1  THR A   1     -12.265   5.549  73.263  1.00  0.00     0.000 HD 
ATOM     11  H2  THR A   1     -12.099   4.071  74.058  1.00  0.00     0.000 HD 
ENDBRANCH   2   5
TORSDOF 1
ENDMDL
MODEL      241
REMARK 921   NORMALIZED FREE ENERGY PREDICTED BY IDOCK:   -0.84 KCAL/MOL
REMARK 922        TOTAL FREE ENERGY PREDICTED BY IDOCK:   -0.90 KCAL/MOL
REMARK 923 INTER-LIGAND FREE ENERGY PREDICTED BY IDOCK:   -0.85 KCAL/MOL
REMARK 924 INTRA-LIGAND FREE ENERGY PREDICTED BY IDOCK:   -0.05 KCAL/MOL
REMARK 927      BINDING AFFINITY PREDICTED BY RF-SCORE:    0.00 PKD
ROOT
ATOM      1  CG2 THR A   1      -7.120   6.768  67.367  1.00  0.00    -0.084 C  
ATOM      2  CB  THR A   1      -7.159   8.193  66.821  1.00  0.00    -0.077 C  
ATOM      3  HG1 THR A   1      -5.836   9.547  66.289  1.00  0.00     0.000 HD 
ATOM      4  OG1 THR A   1      -5.812   8.661  66.629  1.00  0.00    -0.049 OA 
ENDROOT
BRANCH   2   5
ATOM      5  CA  THR A   1      -7.939   8.347  65.498  1.00  0.00    -0.115 C  
ATOM      6  N   THR A   1      -7.426   7.426  64.462  1.00  0.00    -0.087 NA 
ATOM      7  C   THR A   1      -7.944   9.802  64.982  1.00  0.00    -0.131 C  
ATOM      8  OXT THR A   1      -7.789  10.121  63.808  1.00  0.00    -0.152 OA 
ATOM      9  O   THR A   1      -8.262  10.718  65.932  1.00  0.00    -0.157 OA 
ATOM     10  H1  THR A   1      -7.941   7.527  63.589  1.00  0.00     0.000 HD 
ATOM     11  H2  THR A   1      -7.426   6.459  64.787  1.00  0.00     0.000 HD 
ENDBRANCH   2   5
TORSDOF 1
ENDMDL
MODEL      242
REMARK 921   NORMALIZED FREE ENERGY PREDICTED BY IDOCK:   -0.81 KCAL/MOL
REMARK 922        TOTAL FREE ENERGY PREDICTED BY IDOCK:   -0.87 KCAL/MOL
REMARK 923 INTER-LIGAND FREE ENERGY PREDICTED BY IDOCK:   -0.81 KCAL/MOL
REMARK 924 INTRA-LIGAND FREE ENERGY PREDICTED BY IDOCK:   -0.06 KCAL/MOL
REMARK 927      BINDING AFFINITY PREDICTED BY RF-SCORE:    0.00 PKD
ROOT
ATOM      1  CG2 THR A   1      -8.177   5.856  68.405  1.00  0.00    -0.109 C  
ATOM      2  CB  THR A   1      -8.168   5.411  66.945  1.00  0.00    -0.104 C  
ATOM      3  HG1 THR A   1      -6.810   5.160  65.545  1.00  0.00     0.000 HD 
ATOM      4  OG1 THR A   1      -6.816   5.436  66.453  1.00  0.00    -0.056 OA 
ENDROOT
BRANCH   2   5
ATOM      5  CA  THR A   1      -8.766   4.009  66.702  1.00  0.00    -0.116 C  
ATOM      6  N   THR A   1      -8.037   2.975  67.468  1.00  0.00    -0.076 NA 
ATOM      7  C   THR A   1      -8.820   3.642  65.204  1.00  0.00    -0.120 C  
ATOM      8  OXT THR A   1      -8.530   2.541  64.749  1.00  0.00    -0.087 OA 
ATOM      9  O   THR A   1      -9.343   4.620  64.421  1.00  0.00    -0.139 OA 
ATOM     10  H1  THR A   1      -8.432   2.049  67.308  1.00  0.00     0.000 HD 
ATOM     11  H2  THR A   1      -8.003   3.201  68.462  1.00  0.00     0.000 HD 
ENDBRANCH   2   5
TORSDOF 1
ENDMDL
MODEL      243
REMARK 921   NORMALIZED FREE ENERGY PREDICTED BY IDOCK:   -0.79 KCAL/MOL
REMARK 922        TOTAL FREE ENERGY PREDICTED BY IDOCK:   -0.85 KCAL/MOL
REMARK 923 INTER-LIGAND FREE ENERGY PREDICTED BY IDOCK:   -0.81 KCAL/MOL
REMARK 924 INTRA-LIGAND FREE ENERGY PREDICTED BY IDOCK:   -0.04 KCAL/MOL
REMARK 927      BINDING AFFINITY PREDICTED BY RF-SCORE:    0.00 PKD
ROOT
ATOM      1  CG2 THR A   1      -6.166   7.426  67.746  1.00  0.00    -0.044 C  
ATOM      2  CB  THR A   1      -7.178   7.069  66.660  1.00  0.00    -0.083 C  
ATOM      3  HG1 THR A   1      -7.159   6.895  64.702  1.00  0.00     0.000 HD 
ATOM      4  OG1 THR A   1      -6.529   7.116  65.377  1.00  0.00    -0.045 OA 
ENDROOT
BRANCH   2   5
ATOM      5  CA  THR A   1      -7.843   5.688  66.838  1.00  0.00    -0.101 C  
ATOM      6  N   THR A   1      -7.666   4.849  65.634  1.00  0.00    -0.086 NA 
ATOM      7  C   THR A   1      -9.337   5.796  67.214  1.00  0.00    -0.113 C  
ATOM      8  OXT THR A   1     -10.222   5.090  66.744  1.00  0.00    -0.211 OA 
ATOM      9  O   THR A   1      -9.584   6.673  68.220  1.00  0.00    -0.127 OA 
ATOM     10  H1  THR A   1      -8.105   3.936  65.751  1.00  0.00     0.000 HD 
ATOM     11  H2  THR A   1      -6.682   4.761  65.380  1.00  0.00     0.000 HD 
ENDBRANCH   2   5
TORSDOF 1
ENDMDL
MODEL      244
REMARK 921   NORMALIZED FREE ENERGY PREDICTED BY IDOCK:   -0.75 KCAL/MOL
REMARK 922        TOTAL FREE ENERGY PREDICTED BY IDOCK:   -0.81 KCAL/MOL
REMARK 923 INTER-LIGAND FREE ENERGY PREDICTED BY IDOCK:   -0.76 KCAL/MOL
REMARK 924 INTRA-LIGAND FREE ENERGY PREDICTED BY IDOCK:   -0.04 KCAL/MOL
REMARK 927      BINDING AFFINITY PREDICTED BY RF-SCORE:    0.00 PKD
ROOT
ATOM      1  CG2 THR A   1      -8.423   6.540  65.467  1.00  0.00    -0.139 C  
ATOM      2  CB  THR A   1      -8.168   7.721  66.400  1.00  0.00    -0.116 C  
ATOM      3  HG1 THR A   1      -9.270   8.976  67.437  1.00  0.00     0.000 HD 
ATOM      4  OG1 THR A   1      -9.429   8.241  66.857  1.00  0.00    -0.161 OA 
ENDROOT
BRANCH   2   5
ATOM      5  CA  THR A   1      -7.286   7.389  67.622  1.00  0.00    -0.092 C  
ATOM      6  N   THR A   1      -8.109   7.152  68.828  1.00  0.00    -0.120 NA 
ATOM      7  C   THR A   1      -6.220   8.471  67.892  1.00  0.00    -0.056 C  
ATOM      8  OXT THR A   1      -5.925   8.893  69.005  1.00  0.00    -0.042 OA 
ATOM      9  O   THR A   1      -5.528   8.845  66.784  1.00  0.00    -0.039 OA 
ATOM     10  H1  THR A   1      -7.527   6.933  69.635  1.00  0.00     0.000 HD 
ATOM     11  H2  THR A   1      -8.812   6.431  68.665  1.00  0.00     0.000 HD 
ENDBRANCH   2   5
TORSDOF 1
ENDMDL
MODEL      245
REMARK 921   NORMALIZED FREE ENERGY PREDICTED BY IDOCK:   -0.71 KCAL/MOL
REMARK 922        TOTAL FREE ENERGY PREDICTED BY IDOCK:   -0.76 KCAL/MOL
REMARK 923 INTER-LIGAND FREE ENERGY PREDICTED BY IDOCK:   -1.13 KCAL/MOL
REMARK 924 INTRA-LIGAND FREE ENERGY PREDICTED BY IDOCK:    0.37 KCAL/MOL
REMARK 927      BINDING AFFINITY PREDICTED BY RF-SCORE:    0.00 PKD
ROOT
ATOM      1  CG2 THR A   1      -7.382   4.328  63.862  1.00  0.00    -0.055 C  
ATOM      2  CB  THR A   1      -7.699   3.390  65.024  1.00  0.00    -0.081 C  
ATOM      3  HG1 THR A   1      -7.810   3.541  66.982  1.00  0.00     0.000 HD 
ATOM      4  OG1 THR A   1      -7.612   4.125  66.259  1.00  0.00    -0.087 OA 
ENDROOT
BRANCH   2   5
ATOM      5  CA  THR A   1      -9.083   2.713  64.937  1.00  0.00    -0.136 C  
ATOM      6  N   THR A   1      -9.097   1.652  63.907  1.00  0.00    -0.093 NA 
ATOM      7  C   THR A   1     -10.222   3.727  64.692  1.00  0.00    -0.180 C  
ATOM      8  OXT THR A   1     -11.155   3.548  63.917  1.00  0.00    -0.312 OA 
ATOM      9  O   THR A   1     -10.175   4.809  65.511  1.00  0.00    -0.189 OA 
ATOM     10  H1  THR A   1     -10.011   1.205  63.849  1.00  0.00     0.000 HD 
ATOM     11  H2  THR A   1      -8.355   0.970  64.063  1.00  0.00     0.000 HD 
ENDBRANCH   2   5
TORSDOF 1
ENDMDL
MODEL      246
REMARK 921   NORMALIZED FREE ENERGY PREDICTED BY IDOCK:   -0.70 KCAL/MOL
REMARK 922        TOTAL FREE ENERGY PREDICTED BY IDOCK:   -0.76 KCAL/MOL
REMARK 923 INTER-LIGAND FREE ENERGY PREDICTED BY IDOCK:   -1.10 KCAL/MOL
REMARK 924 INTRA-LIGAND FREE ENERGY PREDICTED BY IDOCK:    0.35 KCAL/MOL
REMARK 927      BINDING AFFINITY PREDICTED BY RF-SCORE:    0.00 PKD
ROOT
ATOM      1  CG2 THR A   1      -8.199   8.940  63.713  1.00  0.00    -0.172 C  
ATOM      2  CB  THR A   1      -8.380  10.179  64.586  1.00  0.00    -0.166 C  
ATOM      3  HG1 THR A   1      -9.503  11.792  64.548  1.00  0.00     0.000 HD 
ATOM      4  OG1 THR A   1      -9.391  11.022  64.004  1.00  0.00    -0.215 OA 
ENDROOT
BRANCH   2   5
ATOM      5  CA  THR A   1      -8.759   9.875  66.051  1.00  0.00    -0.137 C  
ATOM      6  N   THR A   1      -9.383  11.049  66.698  1.00  0.00    -0.174 NA 
ATOM      7  C   THR A   1      -7.558   9.369  66.879  1.00  0.00    -0.091 C  
ATOM      8  OXT THR A   1      -7.310   9.722  68.027  1.00  0.00    -0.080 OA 
ATOM      9  O   THR A   1      -6.848   8.388  66.267  1.00  0.00    -0.070 OA 
ATOM     10  H1  THR A   1      -9.634  10.849  67.665  1.00  0.00     0.000 HD 
ATOM     11  H2  THR A   1     -10.185  11.387  66.165  1.00  0.00     0.000 HD 
ENDBRANCH   2   5
TORSDOF 1
ENDMDL
MODEL      247
REMARK 921   NORMALIZED FREE ENERGY PREDICTED BY IDOCK:   -0.70 KCAL/MOL
REMARK 922        TOTAL FREE ENERGY PREDICTED BY IDOCK:   -0.76 KCAL/MOL
REMARK 923 INTER-LIGAND FREE ENERGY PREDICTED BY IDOCK:   -0.71 KCAL/MOL
REMARK 924 INTRA-LIGAND FREE ENERGY PREDICTED BY IDOCK:   -0.04 KCAL/MOL
REMARK 927      BINDING AFFINITY PREDICTED BY RF-SCORE:    0.00 PKD
ROOT
ATOM      1  CG2 THR A   1      -7.117   6.287  66.554  1.00  0.00    -0.068 C  
ATOM      2  CB  THR A   1      -8.202   5.217  66.647  1.00  0.00    -0.108 C  
ATOM      3  HG1 THR A   1      -9.293   4.185  65.377  1.00  0.00     0.000 HD 
ATOM      4  OG1 THR A   1      -8.618   4.851  65.319  1.00  0.00    -0.130 OA 
ENDROOT
BRANCH   2   5
ATOM      5  CA  THR A   1      -7.778   3.944  67.411  1.00  0.00    -0.079 C  
ATOM      6  N   THR A   1      -7.961   2.735  66.580  1.00  0.00    -0.076 NA 
ATOM      7  C   THR A   1      -8.509   3.795  68.762  1.00  0.00    -0.082 C  
ATOM      8  OXT THR A   1      -8.961   2.741  69.193  1.00  0.00    -0.088 OA 
ATOM      9  O   THR A   1      -8.508   4.928  69.511  1.00  0.00    -0.082 OA 
ATOM     10  H1  THR A   1      -7.681   1.894  67.085  1.00  0.00     0.000 HD 
ATOM     11  H2  THR A   1      -7.474   2.816  65.688  1.00  0.00     0.000 HD 
ENDBRANCH   2   5
TORSDOF 1
ENDMDL
MODEL      248
REMARK 921   NORMALIZED FREE ENERGY PREDICTED BY IDOCK:   -0.70 KCAL/MOL
REMARK 922        TOTAL FREE ENERGY PREDICTED BY IDOCK:   -0.75 KCAL/MOL
REMARK 923 INTER-LIGAND FREE ENERGY PREDICTED BY IDOCK:   -1.09 KCAL/MOL
REMARK 924 INTRA-LIGAND FREE ENERGY PREDICTED BY IDOCK:    0.34 KCAL/MOL
REMARK 927      BINDING AFFINITY PREDICTED BY RF-SCORE:    0.00 PKD
ROOT
ATOM      1  CG2 THR A   1      -9.002   6.606  68.529  1.00  0.00    -0.120 C  
ATOM      2  CB  THR A   1      -8.447   6.867  67.131  1.00  0.00    -0.121 C  
ATOM      3  HG1 THR A   1      -6.731   7.454  66.371  1.00  0.00     0.000 HD 
ATOM      4  OG1 THR A   1      -7.076   7.292  67.241  1.00  0.00    -0.085 OA 
ENDROOT
BRANCH   2   5
ATOM      5  CA  THR A   1      -8.525   5.656  66.179  1.00  0.00    -0.128 C  
ATOM      6  N   THR A   1      -9.850   5.570  65.528  1.00  0.00    -0.361 NA 
ATOM      7  C   THR A   1      -8.174   4.328  66.882  1.00  0.00    -0.101 C  
ATOM      8  OXT THR A   1      -8.780   3.274  66.717  1.00  0.00    -0.111 OA 
ATOM      9  O   THR A   1      -7.039   4.387  67.625  1.00  0.00    -0.062 OA 
ATOM     10  H1  THR A   1      -9.902   4.770  64.899  1.00  0.00     0.000 HD 
ATOM     11  H2  THR A   1     -10.090   6.438  65.051  1.00  0.00     0.000 HD 
ENDBRANCH   2   5
TORSDOF 1
ENDMDL
MODEL      249
REMARK 921   NORMALIZED FREE ENERGY PREDICTED BY IDOCK:   -0.64 KCAL/MOL
REMARK 922        TOTAL FREE ENERGY PREDICTED BY IDOCK:   -0.68 KCAL/MOL
REMARK 923 INTER-LIGAND FREE ENERGY PREDICTED BY IDOCK:   -0.69 KCAL/MOL
REMARK 924 INTRA-LIGAND FREE ENERGY PREDICTED BY IDOCK:    0.00 KCAL/MOL
REMARK 927      BINDING AFFINITY PREDICTED BY RF-SCORE:    0.00 PKD
ROOT
ATOM      1  CG2 THR A   1      -8.032   9.934  68.629  1.00  0.00    -0.087 C  
ATOM      2  CB  THR A   1      -8.263   8.870  67.559  1.00  0.00    -0.109 C  
ATOM      3  HG1 THR A   1      -8.841   8.849  65.679  1.00  0.00     0.000 HD 
ATOM      4  OG1 THR A   1      -8.696   9.510  66.345  1.00  0.00    -0.131 OA 
ENDROOT
BRANCH   2   5
ATOM      5  CA  THR A   1      -7.030   7.994  67.254  1.00  0.00    -0.075 C  
ATOM      6  N   THR A   1      -5.812   8.819  67.097  1.00  0.00    -0.042 NA 
ATOM      7  C   THR A   1      -7.238   7.090  66.021  1.00  0.00    -0.074 C  
ATOM      8  OXT THR A   1      -6.393   6.891  65.155  1.00  0.00    -0.038 OA 
ATOM      9  O   THR A   1      -8.418   6.416  66.031  1.00  0.00    -0.132 OA 
ATOM     10  H1  THR A   1      -4.997   8.241  66.896  1.00  0.00     0.000 HD 
ATOM     11  H2  THR A   1      -5.657   9.415  67.910  1.00  0.00     0.000 HD 
ENDBRANCH   2   5
TORSDOF 1
ENDMDL
MODEL      250
REMARK 921   NORMALIZED FREE ENERGY PREDICTED BY IDOCK:   -0.63 KCAL/MOL
REMARK 922        TOTAL FREE ENERGY PREDICTED BY IDOCK:   -0.67 KCAL/MOL
REMARK 923 INTER-LIGAND FREE ENERGY PREDICTED BY IDOCK:   -0.61 KCAL/MOL
REMARK 924 INTRA-LIGAND FREE ENERGY PREDICTED BY IDOCK:   -0.06 KCAL/MOL
REMARK 927      BINDING AFFINITY PREDICTED BY RF-SCORE:    0.00 PKD
ROOT
ATOM      1  CG2 THR A   1      -6.253  14.519  71.189  1.00  0.00     0.074 C  
ATOM      2  CB  THR A   1      -6.991  14.673  69.862  1.00  0.00    -0.099 C  
ATOM      3  HG1 THR A   1      -8.809  15.163  69.296  1.00  0.00     0.000 HD 
ATOM      4  OG1 THR A   1      -8.350  15.068  70.122  1.00  0.00     0.207 OA 
ENDROOT
BRANCH   2   5
ATOM      5  CA  THR A   1      -6.349  15.684  68.889  1.00  0.00    -0.114 C  
ATOM      6  N   THR A   1      -6.451  17.065  69.407  1.00  0.00    -0.233 NA 
ATOM      7  C   THR A   1      -6.939  15.589  67.466  1.00  0.00    -0.194 C  
ATOM      8  OXT THR A   1      -7.218  16.556  66.765  1.00  0.00    -0.199 OA 
ATOM      9  O   THR A   1      -7.015  14.320  66.989  1.00  0.00    -0.053 OA 
ATOM     10  H1  THR A   1      -6.026  17.733  68.764  1.00  0.00     0.000 HD 
ATOM     11  H2  THR A   1      -6.055  17.143  70.344  1.00  0.00     0.000 HD 
ENDBRANCH   2   5
TORSDOF 1
ENDMDL
MODEL      251
REMARK 921   NORMALIZED FREE ENERGY PREDICTED BY IDOCK:   -0.59 KCAL/MOL
REMARK 922        TOTAL FREE ENERGY PREDICTED BY IDOCK:   -0.63 KCAL/MOL
REMARK 923 INTER-LIGAND FREE ENERGY PREDICTED BY IDOCK:   -0.59 KCAL/MOL
REMARK 924 INTRA-LIGAND FREE ENERGY PREDICTED BY IDOCK:   -0.04 KCAL/MOL
REMARK 927      BINDING AFFINITY PREDICTED BY RF-SCORE:    0.00 PKD
ROOT
ATOM      1  CG2 THR A   1      -9.888   2.150  63.745  1.00  0.00    -0.137 C  
ATOM      2  CB  THR A   1      -8.553   2.862  63.541  1.00  0.00    -0.086 C  
ATOM      3  HG1 THR A   1      -7.848   4.237  62.325  1.00  0.00     0.000 HD 
ATOM      4  OG1 THR A   1      -8.679   3.794  62.452  1.00  0.00    -0.080 OA 
ENDROOT
BRANCH   2   5
ATOM      5  CA  THR A   1      -8.033   3.608  64.787  1.00  0.00    -0.090 C  
ATOM      6  N   THR A   1      -8.271   5.064  64.678  1.00  0.00    -0.122 NA 
ATOM      7  C   THR A   1      -6.543   3.318  65.069  1.00  0.00    -0.040 C  
ATOM      8  OXT THR A   1      -5.723   4.165  65.407  1.00  0.00    -0.020 OA 
ATOM      9  O   THR A   1      -6.227   1.998  65.031  1.00  0.00    -0.018 OA 
ATOM     10  H1  THR A   1      -7.927   5.557  65.501  1.00  0.00     0.000 HD 
ATOM     11  H2  THR A   1      -9.254   5.270  64.501  1.00  0.00     0.000 HD 
ENDBRANCH   2   5
TORSDOF 1
ENDMDL
MODEL      252
REMARK 921   NORMALIZED FREE ENERGY PREDICTED BY IDOCK:   -0.59 KCAL/MOL
REMARK 922        TOTAL FREE ENERGY PREDICTED BY IDOCK:   -0.63 KCAL/MOL
REMARK 923 INTER-LIGAND FREE ENERGY PREDICTED BY IDOCK:   -0.93 KCAL/MOL
REMARK 924 INTRA-LIGAND FREE ENERGY PREDICTED BY IDOCK:    0.29 KCAL/MOL
REMARK 927      BINDING AFFINITY PREDICTED BY RF-SCORE:    0.00 PKD
ROOT
ATOM      1  CG2 THR A   1      -9.358   2.997  62.515  1.00  0.00    -0.089 C  
ATOM      2  CB  THR A   1      -8.198   3.571  63.325  1.00  0.00    -0.088 C  
ATOM      3  HG1 THR A   1      -6.724   4.830  63.000  1.00  0.00     0.000 HD 
ATOM      4  OG1 THR A   1      -7.445   4.474  62.495  1.00  0.00    -0.042 OA 
ENDROOT
BRANCH   2   5
ATOM      5  CA  THR A   1      -8.624   4.306  64.613  1.00  0.00    -0.125 C  
ATOM      6  N   THR A   1     -10.008   4.815  64.508  1.00  0.00    -0.362 NA 
ATOM      7  C   THR A   1      -7.652   5.443  64.993  1.00  0.00    -0.080 C  
ATOM      8  OXT THR A   1      -7.999   6.547  65.396  1.00  0.00    -0.106 OA 
ATOM      9  O   THR A   1      -6.344   5.078  64.959  1.00  0.00    -0.033 OA 
ATOM     10  H1  THR A   1     -10.290   5.300  65.359  1.00  0.00     0.000 HD 
ATOM     11  H2  THR A   1     -10.663   4.071  64.267  1.00  0.00     0.000 HD 
ENDBRANCH   2   5
TORSDOF 1
ENDMDL
MODEL      253
REMARK 921   NORMALIZED FREE ENERGY PREDICTED BY IDOCK:   -0.46 KCAL/MOL
REMARK 922        TOTAL FREE ENERGY PREDICTED BY IDOCK:   -0.49 KCAL/MOL
REMARK 923 INTER-LIGAND FREE ENERGY PREDICTED BY IDOCK:   -0.51 KCAL/MOL
REMARK 924 INTRA-LIGAND FREE ENERGY PREDICTED BY IDOCK:    0.02 KCAL/MOL
REMARK 927      BINDING AFFINITY PREDICTED BY RF-SCORE:    0.00 PKD
ROOT
ATOM      1  CG2 THR A   1      -9.261   4.896  63.531  1.00  0.00     0.104 C  
ATOM      2  CB  THR A   1      -7.952   5.389  64.143  1.00  0.00    -0.118 C  
ATOM      3  HG1 THR A   1      -6.615   6.768  63.720  1.00  0.00     0.000 HD 
ATOM      4  OG1 THR A   1      -7.430   6.462  63.339  1.00  0.00    -0.060 OA 
ENDROOT
BRANCH   2   5
ATOM      5  CA  THR A   1      -8.073   5.867  65.605  1.00  0.00    -0.124 C  
ATOM      6  N   THR A   1      -7.347   7.138  65.815  1.00  0.00    -0.073 NA 
ATOM      7  C   THR A   1      -7.607   4.798  66.617  1.00  0.00    -0.087 C  
ATOM      8  OXT THR A   1      -6.926   5.032  67.609  1.00  0.00    -0.059 OA 
ATOM      9  O   THR A   1      -8.124   3.564  66.384  1.00  0.00    -0.094 OA 
ATOM     10  H1  THR A   1      -7.427   7.454  66.781  1.00  0.00     0.000 HD 
ATOM     11  H2  THR A   1      -7.652   7.857  65.159  1.00  0.00     0.000 HD 
ENDBRANCH   2   5
TORSDOF 1
ENDMDL
MODEL      254
REMARK 921   NORMALIZED FREE ENERGY PREDICTED BY IDOCK:   -0.43 KCAL/MOL
REMARK 922        TOTAL FREE ENERGY PREDICTED BY IDOCK:   -0.46 KCAL/MOL
REMARK 923 INTER-LIGAND FREE ENERGY PREDICTED BY IDOCK:   -0.42 KCAL/MOL
REMARK 924 INTRA-LIGAND FREE ENERGY PREDICTED BY IDOCK:   -0.05 KCAL/MOL
REMARK 927      BINDING AFFINITY PREDICTED BY RF-SCORE:    0.00 PKD
ROOT
ATOM      1  CG2 THR A   1      -6.335   5.297  63.141  1.00  0.00    -0.022 C  
ATOM      2  CB  THR A   1      -6.236   4.461  64.415  1.00  0.00    -0.030 C  
ATOM      3  HG1 THR A   1      -5.722   4.778  66.286  1.00  0.00     0.000 HD 
ATOM      4  OG1 THR A   1      -5.783   5.299  65.494  1.00  0.00    -0.013 OA 
ENDROOT
BRANCH   2   5
ATOM      5  CA  THR A   1      -7.553   3.773  64.829  1.00  0.00    -0.077 C  
ATOM      6  N   THR A   1      -8.369   4.652  65.694  1.00  0.00    -0.115 NA 
ATOM      7  C   THR A   1      -7.317   2.406  65.508  1.00  0.00    -0.066 C  
ATOM      8  OXT THR A   1      -7.922   2.010  66.498  1.00  0.00    -0.073 OA 
ATOM      9  O   THR A   1      -6.451   1.605  64.835  1.00  0.00    -0.021 OA 
ATOM     10  H1  THR A   1      -9.239   4.198  65.967  1.00  0.00     0.000 HD 
ATOM     11  H2  THR A   1      -8.541   5.556  65.252  1.00  0.00     0.000 HD 
ENDBRANCH   2   5
TORSDOF 1
ENDMDL
MODEL      255
REMARK 921   NORMALIZED FREE ENERGY PREDICTED BY IDOCK:   -0.40 KCAL/MOL
REMARK 922        TOTAL FREE ENERGY PREDICTED BY IDOCK:   -0.43 KCAL/MOL
REMARK 923 INTER-LIGAND FREE ENERGY PREDICTED BY IDOCK:   -0.37 KCAL/MOL
REMARK 924 INTRA-LIGAND FREE ENERGY PREDICTED BY IDOCK:   -0.06 KCAL/MOL
REMARK 927      BINDING AFFINITY PREDICTED BY RF-SCORE:    0.00 PKD
ROOT
ATOM      1  CG2 THR A   1      -7.174  19.854  71.366  1.00  0.00     1.125 C  
ATOM      2  CB  THR A   1      -6.612  19.804  69.948  1.00  0.00    -0.290 C  
ATOM      3  HG1 THR A   1      -5.576  18.522  68.875  1.00  0.00     0.000 HD 
ATOM      4  OG1 THR A   1      -5.925  18.553  69.757  1.00  0.00    -0.246 OA 
ENDROOT
BRANCH   2   5
ATOM      5  CA  THR A   1      -7.670  19.972  68.837  1.00  0.00    -0.031 C  
ATOM      6  N   THR A   1      -8.734  18.951  68.951  1.00  0.00    -0.279 NA 
ATOM      7  C   THR A   1      -7.049  19.959  67.424  1.00  0.00    -0.235 C  
ATOM      8  OXT THR A   1      -7.530  19.372  66.460  1.00  0.00    -0.225 OA 
ATOM      9  O   THR A   1      -5.965  20.767  67.296  1.00  0.00    -0.194 OA 
ATOM     10  H1  THR A   1      -9.433  19.062  68.217  1.00  0.00     0.000 HD 
ATOM     11  H2  THR A   1      -9.159  18.956  69.878  1.00  0.00     0.000 HD 
ENDBRANCH   2   5
TORSDOF 1
ENDMDL
MODEL      256
REMARK 921   NORMALIZED FREE ENERGY PREDICTED BY IDOCK:   -0.30 KCAL/MOL
REMARK 922        TOTAL FREE ENERGY PREDICTED BY IDOCK:   -0.32 KCAL/MOL
REMARK 923 INTER-LIGAND FREE ENERGY PREDICTED BY IDOCK:   -0.66 KCAL/MOL
REMARK 924 INTRA-LIGAND FREE ENERGY PREDICTED BY IDOCK:    0.34 KCAL/MOL
REMARK 927      BINDING AFFINITY PREDICTED BY RF-SCORE:    0.00 PKD
ROOT
ATOM      1  CG2 THR A   1      -8.562   5.331  68.068  1.00  0.00    -0.103 C  
ATOM      2  CB  THR A   1      -7.190   4.710  67.821  1.00  0.00    -0.066 C  
ATOM      3  HG1 THR A   1      -6.045   3.389  68.722  1.00  0.00     0.000 HD 
ATOM      4  OG1 THR A   1      -6.899   3.775  68.876  1.00  0.00    -0.044 OA 
ENDROOT
BRANCH   2   5
ATOM      5  CA  THR A   1      -7.050   3.994  66.461  1.00  0.00    -0.064 C  
ATOM      6  N   THR A   1      -6.689   4.947  65.389  1.00  0.00    -0.051 NA 
ATOM      7  C   THR A   1      -8.315   3.197  66.080  1.00  0.00    -0.101 C  
ATOM      8  OXT THR A   1      -8.805   3.168  64.957  1.00  0.00    -0.116 OA 
ATOM      9  O   THR A   1      -8.788   2.412  67.082  1.00  0.00    -0.116 OA 
ATOM     10  H1  THR A   1      -6.597   4.474  64.490  1.00  0.00     0.000 HD 
ATOM     11  H2  THR A   1      -5.848   5.474  65.623  1.00  0.00     0.000 HD 
ENDBRANCH   2   5
TORSDOF 1
ENDMDL
MODEL      257
REMARK 921   NORMALIZED FREE ENERGY PREDICTED BY IDOCK:    1.71 KCAL/MOL
REMARK 922        TOTAL FREE ENERGY PREDICTED BY IDOCK:    1.80 KCAL/MOL
REMARK 923 INTER-LIGAND FREE ENERGY PREDICTED BY IDOCK:    1.85 KCAL/MOL
REMARK 924 INTRA-LIGAND FREE ENERGY PREDICTED BY IDOCK:   -0.04 KCAL/MOL
REMARK 927      BINDING AFFINITY PREDICTED BY RF-SCORE:    0.00 PKD
ROOT
ATOM      1  CG2 THR A   1      -5.342  13.729  73.257  1.00  0.00    -0.138 C  
ATOM      2  CB  THR A   1      -6.088  13.785  71.927  1.00  0.00     0.570 C  
ATOM      3  HG1 THR A   1      -7.749  14.603  71.262  1.00  0.00     0.000 HD 
ATOM      4  OG1 THR A   1      -7.285  14.568  72.090  1.00  0.00     1.926 OA 
ENDROOT
BRANCH   2   5
ATOM      5  CA  THR A   1      -5.264  14.363  70.757  1.00  0.00    -0.125 C  
ATOM      6  N   THR A   1      -5.664  15.754  70.455  1.00  0.00    -0.145 NA 
ATOM      7  C   THR A   1      -5.340  13.485  69.491  1.00  0.00    -0.085 C  
ATOM      8  OXT THR A   1      -5.466  13.920  68.351  1.00  0.00    -0.086 OA 
ATOM      9  O   THR A   1      -5.130  12.164  69.728  1.00  0.00    -0.069 OA 
ATOM     10  H1  THR A   1      -5.120  16.136  69.682  1.00  0.00     0.000 HD 
ATOM     11  H2  THR A   1      -5.609  16.348  71.282  1.00  0.00     0.000 HD 
ENDBRANCH   2   5
TORSDOF 1
ENDMDL
