MODEL        1
REMARK 921   NORMALIZED FREE ENERGY PREDICTED BY IDOCK:   -6.68 KCAL/MOL
REMARK 922        TOTAL FREE ENERGY PREDICTED BY IDOCK:  -10.13 KCAL/MOL
REMARK 923 INTER-LIGAND FREE ENERGY PREDICTED BY IDOCK:   -8.63 KCAL/MOL
REMARK 924 INTRA-LIGAND FREE ENERGY PREDICTED BY IDOCK:   -1.50 KCAL/MOL
REMARK 927      BINDING AFFINITY PREDICTED BY RF-SCORE:    0.00 PKD
ROOT
HETATM    1  C   UNL     1      -9.711  11.376  68.438  1.00  0.00    -0.203 C  
HETATM    2  C   UNL     1     -10.641  12.270  67.682  1.00  0.00    -0.238 A  
HETATM    3  C   UNL     1     -11.227  13.473  68.110  1.00  0.00    -0.272 A  
HETATM    4  C   UNL     1     -11.965  12.798  65.821  1.00  0.00    -0.449 A  
HETATM    5  S   UNL     1     -12.277  14.097  66.877  1.00  0.00    -0.253 SA 
HETATM    6  C   UNL     1     -11.078  11.903  66.360  1.00  0.00    -0.359 A  
ENDROOT
BRANCH   3   7
HETATM    7  C   UNL     1     -11.161  14.203  69.368  1.00  0.00    -0.298 C  
HETATM    8  C   UNL     1     -10.183  15.127  69.547  1.00  0.00    -0.241 C  
BRANCH   7   9
HETATM    9  C   UNL     1     -12.167  14.042  70.422  1.00  0.00    -0.363 A  
HETATM   10  C   UNL     1     -12.691  12.914  71.081  1.00  0.00    -0.366 A  
HETATM   11  C   UNL     1     -13.821  14.625  72.221  1.00  0.00    -0.479 A  
HETATM   12  C   UNL     1     -13.648  13.273  72.098  1.00  0.00    -0.655 A  
HETATM   13  S   UNL     1     -12.873  15.485  71.108  1.00  0.00    -0.487 SA 
HETATM   14  C   UNL     1     -12.369  11.464  70.872  1.00  0.00    -0.483 C  
ENDBRANCH   7   9
BRANCH   8  15
HETATM   15  C   UNL     1      -9.176  15.611  68.520  1.00  0.00    -0.197 C  
BRANCH  15  16
HETATM   16  C   UNL     1      -7.811  16.096  69.105  1.00  0.00    -0.232 C  
BRANCH  16  17
HETATM   17  N   UNL     1      -7.461  17.449  68.639  1.00  0.00    -0.254 NA 
HETATM   18  C   UNL     1      -6.391  17.523  67.657  1.00  0.00    -0.150 C  
HETATM   19  C   UNL     1      -6.919  17.608  66.233  1.00  0.00    -0.326 C  
HETATM   20  C   UNL     1      -7.656  18.922  66.051  1.00  0.00    -0.259 C  
HETATM   21  C   UNL     1      -8.756  19.124  67.096  1.00  0.00    -0.306 C  
HETATM   22  C   UNL     1     -10.177  18.933  66.589  1.00  0.00    -0.405 C  
HETATM   23  C   UNL     1      -8.568  18.398  68.455  1.00  0.00    -0.319 C  
HETATM   24  O   UNL     1     -10.350  18.040  65.595  1.00  0.00    -0.611 OA 
HETATM   25  O   UNL     1     -11.132  19.532  67.072  1.00  0.00    -0.424 OA 
ENDBRANCH  16  17
ENDBRANCH  15  16
ENDBRANCH   8  15
ENDBRANCH   3   7
TORSDOF 5
ENDMDL
MODEL        2
REMARK 921   NORMALIZED FREE ENERGY PREDICTED BY IDOCK:   -6.54 KCAL/MOL
REMARK 922        TOTAL FREE ENERGY PREDICTED BY IDOCK:   -9.95 KCAL/MOL
REMARK 923 INTER-LIGAND FREE ENERGY PREDICTED BY IDOCK:   -8.76 KCAL/MOL
REMARK 924 INTRA-LIGAND FREE ENERGY PREDICTED BY IDOCK:   -1.19 KCAL/MOL
REMARK 927      BINDING AFFINITY PREDICTED BY RF-SCORE:    0.00 PKD
ROOT
HETATM    1  C   UNL     1      -9.181  11.187  65.295  1.00  0.00    -0.218 C  
HETATM    2  C   UNL     1     -10.450  11.931  65.022  1.00  0.00    -0.333 A  
HETATM    3  C   UNL     1     -11.072  12.906  65.819  1.00  0.00    -0.284 A  
HETATM    4  C   UNL     1     -12.375  12.366  63.758  1.00  0.00    -0.528 A  
HETATM    5  S   UNL     1     -12.556  13.420  65.083  1.00  0.00    -0.397 SA 
HETATM    6  C   UNL     1     -11.217  11.638  63.839  1.00  0.00    -0.479 A  
ENDROOT
BRANCH   3   7
HETATM    7  C   UNL     1     -10.735  13.473  67.118  1.00  0.00    -0.282 C  
HETATM    8  C   UNL     1      -9.942  14.573  67.174  1.00  0.00    -0.252 C  
BRANCH   7   9
HETATM    9  C   UNL     1     -11.293  12.952  68.369  1.00  0.00    -0.294 A  
HETATM   10  C   UNL     1     -11.407  11.653  68.898  1.00  0.00    -0.328 A  
HETATM   11  C   UNL     1     -12.301  12.906  70.669  1.00  0.00    -0.302 A  
HETATM   12  C   UNL     1     -12.001  11.651  70.212  1.00  0.00    -0.445 A  
HETATM   13  S   UNL     1     -11.910  14.100  69.531  1.00  0.00    -0.340 SA 
HETATM   14  C   UNL     1     -10.985  10.347  68.294  1.00  0.00    -0.321 C  
ENDBRANCH   7   9
BRANCH   8  15
HETATM   15  C   UNL     1      -9.434  15.402  66.009  1.00  0.00    -0.381 C  
BRANCH  15  16
HETATM   16  C   UNL     1      -8.393  16.506  66.382  1.00  0.00    -0.322 C  
BRANCH  16  17
HETATM   17  N   UNL     1      -8.876  17.856  66.045  1.00  0.00    -0.507 NA 
HETATM   18  C   UNL     1     -10.255  18.142  66.404  1.00  0.00    -0.399 C  
HETATM   19  C   UNL     1     -10.367  18.873  67.733  1.00  0.00    -0.490 C  
HETATM   20  C   UNL     1      -9.744  20.250  67.600  1.00  0.00    -0.555 C  
HETATM   21  C   UNL     1      -8.305  20.193  67.083  1.00  0.00    -0.391 C  
HETATM   22  C   UNL     1      -7.229  20.453  68.125  1.00  0.00    -0.196 C  
HETATM   23  C   UNL     1      -7.926  18.965  66.212  1.00  0.00    -0.273 C  
HETATM   24  O   UNL     1      -7.504  20.072  69.388  1.00  0.00    -0.167 OA 
HETATM   25  O   UNL     1      -6.147  20.955  67.840  1.00  0.00    -0.278 OA 
ENDBRANCH  16  17
ENDBRANCH  15  16
ENDBRANCH   8  15
ENDBRANCH   3   7
TORSDOF 5
ENDMDL
MODEL        3
REMARK 921   NORMALIZED FREE ENERGY PREDICTED BY IDOCK:   -6.51 KCAL/MOL
REMARK 922        TOTAL FREE ENERGY PREDICTED BY IDOCK:   -9.91 KCAL/MOL
REMARK 923 INTER-LIGAND FREE ENERGY PREDICTED BY IDOCK:   -8.23 KCAL/MOL
REMARK 924 INTRA-LIGAND FREE ENERGY PREDICTED BY IDOCK:   -1.68 KCAL/MOL
REMARK 927      BINDING AFFINITY PREDICTED BY RF-SCORE:    0.00 PKD
ROOT
HETATM    1  C   UNL     1      -9.149  11.974  66.349  1.00  0.00    -0.193 C  
HETATM    2  C   UNL     1     -10.450  12.522  65.854  1.00  0.00    -0.289 A  
HETATM    3  C   UNL     1     -11.187  13.602  66.368  1.00  0.00    -0.308 A  
HETATM    4  C   UNL     1     -12.322  12.482  64.445  1.00  0.00    -0.455 A  
HETATM    5  S   UNL     1     -12.659  13.800  65.469  1.00  0.00    -0.477 SA 
HETATM    6  C   UNL     1     -11.121  11.895  64.745  1.00  0.00    -0.367 A  
ENDROOT
BRANCH   3   7
HETATM    7  C   UNL     1     -10.971  14.485  67.505  1.00  0.00    -0.297 C  
HETATM    8  C   UNL     1     -10.278  15.638  67.324  1.00  0.00    -0.266 C  
BRANCH   7   9
HETATM    9  C   UNL     1     -11.551  14.220  68.825  1.00  0.00    -0.322 A  
HETATM   10  C   UNL     1     -11.871  13.033  69.508  1.00  0.00    -0.385 A  
HETATM   11  C   UNL     1     -12.434  14.621  71.142  1.00  0.00    -0.332 A  
HETATM   12  C   UNL     1     -12.389  13.289  70.830  1.00  0.00    -0.425 A  
HETATM   13  S   UNL     1     -11.891  15.587  69.858  1.00  0.00    -0.376 SA 
HETATM   14  C   UNL     1     -11.723  11.612  69.053  1.00  0.00    -0.388 C  
ENDBRANCH   7   9
BRANCH   8  15
HETATM   15  C   UNL     1      -9.778  16.216  66.014  1.00  0.00    -0.376 C  
BRANCH  15  16
HETATM   16  C   UNL     1     -10.497  17.522  65.545  1.00  0.00    -0.068 C  
BRANCH  16  17
HETATM   17  N   UNL     1      -9.810  18.733  66.026  1.00  0.00    -0.513 NA 
HETATM   18  C   UNL     1     -10.555  19.549  66.970  1.00  0.00    -0.492 C  
HETATM   19  C   UNL     1     -10.178  19.253  68.414  1.00  0.00    -0.503 C  
HETATM   20  C   UNL     1      -8.738  19.667  68.650  1.00  0.00    -0.317 C  
HETATM   21  C   UNL     1      -7.774  19.023  67.649  1.00  0.00    -0.263 C  
HETATM   22  C   UNL     1      -6.923  17.892  68.203  1.00  0.00    -0.218 C  
HETATM   23  C   UNL     1      -8.364  18.628  66.270  1.00  0.00    -0.230 C  
HETATM   24  O   UNL     1      -7.469  17.147  69.183  1.00  0.00    -0.232 OA 
HETATM   25  O   UNL     1      -5.805  17.639  67.768  1.00  0.00    -0.137 OA 
ENDBRANCH  16  17
ENDBRANCH  15  16
ENDBRANCH   8  15
ENDBRANCH   3   7
TORSDOF 5
ENDMDL
MODEL        4
REMARK 921   NORMALIZED FREE ENERGY PREDICTED BY IDOCK:   -6.37 KCAL/MOL
REMARK 922        TOTAL FREE ENERGY PREDICTED BY IDOCK:   -9.73 KCAL/MOL
REMARK 923 INTER-LIGAND FREE ENERGY PREDICTED BY IDOCK:   -8.56 KCAL/MOL
REMARK 924 INTRA-LIGAND FREE ENERGY PREDICTED BY IDOCK:   -1.17 KCAL/MOL
REMARK 927      BINDING AFFINITY PREDICTED BY RF-SCORE:    0.00 PKD
ROOT
HETATM    1  C   UNL     1      -9.772  11.144  68.652  1.00  0.00    -0.202 C  
HETATM    2  C   UNL     1     -10.649  12.066  67.866  1.00  0.00    -0.227 A  
HETATM    3  C   UNL     1     -11.178  13.306  68.262  1.00  0.00    -0.277 A  
HETATM    4  C   UNL     1     -11.928  12.617  65.981  1.00  0.00    -0.417 A  
HETATM    5  S   UNL     1     -12.184  13.953  67.005  1.00  0.00    -0.268 SA 
HETATM    6  C   UNL     1     -11.093  11.691  66.549  1.00  0.00    -0.357 A  
ENDROOT
BRANCH   3   7
HETATM    7  C   UNL     1     -11.087  14.061  69.504  1.00  0.00    -0.200 C  
HETATM    8  C   UNL     1     -10.057  14.928  69.677  1.00  0.00    -0.070 C  
BRANCH   7   9
HETATM    9  C   UNL     1     -12.117  13.986  70.545  1.00  0.00    -0.353 A  
HETATM   10  C   UNL     1     -12.770  12.907  71.168  1.00  0.00    -0.366 A  
HETATM   11  C   UNL     1     -13.715  14.703  72.344  1.00  0.00    -0.471 A  
HETATM   12  C   UNL     1     -13.692  13.344  72.187  1.00  0.00    -0.646 A  
HETATM   13  S   UNL     1     -12.664  15.480  71.263  1.00  0.00    -0.482 SA 
HETATM   14  C   UNL     1     -12.609  11.436  70.923  1.00  0.00    -0.453 C  
ENDBRANCH   7   9
BRANCH   8  15
HETATM   15  C   UNL     1      -9.008  15.326  68.657  1.00  0.00    -0.193 C  
BRANCH  15  16
HETATM   16  C   UNL     1      -8.629  16.842  68.646  1.00  0.00    -0.263 C  
BRANCH  16  17
HETATM   17  N   UNL     1      -9.356  17.585  67.602  1.00  0.00    -0.242 NA 
HETATM   18  C   UNL     1     -10.521  18.329  68.050  1.00  0.00    -0.367 C  
HETATM   19  C   UNL     1     -10.207  19.795  68.306  1.00  0.00    -0.569 C  
HETATM   20  C   UNL     1      -9.844  20.465  66.995  1.00  0.00    -0.594 C  
HETATM   21  C   UNL     1      -8.709  19.742  66.264  1.00  0.00    -0.403 C  
HETATM   22  C   UNL     1      -7.357  20.437  66.315  1.00  0.00    -0.204 C  
HETATM   23  C   UNL     1      -8.548  18.227  66.555  1.00  0.00    -0.266 C  
HETATM   24  O   UNL     1      -7.091  21.163  67.419  1.00  0.00    -0.434 OA 
HETATM   25  O   UNL     1      -6.529  20.326  65.419  1.00  0.00    -0.236 OA 
ENDBRANCH  16  17
ENDBRANCH  15  16
ENDBRANCH   8  15
ENDBRANCH   3   7
TORSDOF 5
ENDMDL
MODEL        5
REMARK 921   NORMALIZED FREE ENERGY PREDICTED BY IDOCK:   -6.34 KCAL/MOL
REMARK 922        TOTAL FREE ENERGY PREDICTED BY IDOCK:   -9.69 KCAL/MOL
REMARK 923 INTER-LIGAND FREE ENERGY PREDICTED BY IDOCK:   -8.59 KCAL/MOL
REMARK 924 INTRA-LIGAND FREE ENERGY PREDICTED BY IDOCK:   -1.10 KCAL/MOL
REMARK 927      BINDING AFFINITY PREDICTED BY RF-SCORE:    0.00 PKD
ROOT
HETATM    1  C   UNL     1     -12.533  12.715  65.201  1.00  0.00    -0.531 C  
HETATM    2  C   UNL     1     -11.187  12.410  65.777  1.00  0.00    -0.370 A  
HETATM    3  C   UNL     1     -10.591  12.957  66.926  1.00  0.00    -0.253 A  
HETATM    4  C   UNL     1      -9.096  11.351  65.731  1.00  0.00    -0.184 A  
HETATM    5  S   UNL     1      -8.993  12.313  67.133  1.00  0.00    -0.198 SA 
HETATM    6  C   UNL     1     -10.308  11.486  65.107  1.00  0.00    -0.329 A  
ENDROOT
BRANCH   3   7
HETATM    7  C   UNL     1     -11.035  13.967  67.875  1.00  0.00    -0.261 C  
HETATM    8  C   UNL     1     -10.928  15.279  67.544  1.00  0.00    -0.315 C  
BRANCH   7   9
HETATM    9  C   UNL     1     -11.678  13.621  69.146  1.00  0.00    -0.329 A  
HETATM   10  C   UNL     1     -12.070  12.396  69.717  1.00  0.00    -0.292 A  
HETATM   11  C   UNL     1     -12.640  13.868  71.453  1.00  0.00    -0.361 A  
HETATM   12  C   UNL     1     -12.632  12.565  71.035  1.00  0.00    -0.350 A  
HETATM   13  S   UNL     1     -12.009  14.912  70.275  1.00  0.00    -0.337 SA 
HETATM   14  C   UNL     1     -11.956  11.011  69.153  1.00  0.00    -0.394 C  
ENDBRANCH   7   9
BRANCH   8  15
HETATM   15  C   UNL     1     -10.500  15.859  66.209  1.00  0.00    -0.324 C  
BRANCH  15  16
HETATM   16  C   UNL     1      -9.076  16.501  66.187  1.00  0.00    -0.306 C  
BRANCH  16  17
HETATM   17  N   UNL     1      -9.122  17.937  65.862  1.00  0.00    -0.500 NA 
HETATM   18  C   UNL     1     -10.400  18.594  66.082  1.00  0.00    -0.443 C  
HETATM   19  C   UNL     1     -10.459  19.309  67.423  1.00  0.00    -0.564 C  
HETATM   20  C   UNL     1      -9.467  20.457  67.422  1.00  0.00    -0.561 C  
HETATM   21  C   UNL     1      -8.050  20.005  67.062  1.00  0.00    -0.357 C  
HETATM   22  C   UNL     1      -7.074  19.938  68.226  1.00  0.00    -0.301 C  
HETATM   23  C   UNL     1      -7.928  18.732  66.183  1.00  0.00    -0.217 C  
HETATM   24  O   UNL     1      -7.590  19.633  69.432  1.00  0.00    -0.295 OA 
HETATM   25  O   UNL     1      -5.870  20.119  68.083  1.00  0.00    -0.214 OA 
ENDBRANCH  16  17
ENDBRANCH  15  16
ENDBRANCH   8  15
ENDBRANCH   3   7
TORSDOF 5
ENDMDL
MODEL        6
REMARK 921   NORMALIZED FREE ENERGY PREDICTED BY IDOCK:   -6.33 KCAL/MOL
REMARK 922        TOTAL FREE ENERGY PREDICTED BY IDOCK:   -9.68 KCAL/MOL
REMARK 923 INTER-LIGAND FREE ENERGY PREDICTED BY IDOCK:   -8.67 KCAL/MOL
REMARK 924 INTRA-LIGAND FREE ENERGY PREDICTED BY IDOCK:   -1.01 KCAL/MOL
REMARK 927      BINDING AFFINITY PREDICTED BY RF-SCORE:    0.00 PKD
ROOT
HETATM    1  C   UNL     1     -13.159  13.884  65.132  1.00  0.00    -0.136 C  
HETATM    2  C   UNL     1     -12.051  12.898  64.933  1.00  0.00    -0.479 A  
HETATM    3  C   UNL     1     -10.999  12.588  65.811  1.00  0.00    -0.292 A  
HETATM    4  C   UNL     1     -10.856  11.343  63.650  1.00  0.00    -0.384 A  
HETATM    5  S   UNL     1      -9.943  11.417  65.086  1.00  0.00    -0.277 SA 
HETATM    6  C   UNL     1     -11.950  12.167  63.697  1.00  0.00    -0.628 A  
ENDROOT
BRANCH   3   7
HETATM    7  C   UNL     1     -10.628  13.106  67.120  1.00  0.00    -0.259 C  
HETATM    8  C   UNL     1      -9.861  14.223  67.196  1.00  0.00    -0.252 C  
BRANCH   7   9
HETATM    9  C   UNL     1     -11.125  12.516  68.367  1.00  0.00    -0.258 A  
HETATM   10  C   UNL     1     -11.790  13.056  69.482  1.00  0.00    -0.385 A  
HETATM   11  C   UNL     1     -11.742  10.789  70.083  1.00  0.00    -0.339 A  
HETATM   12  C   UNL     1     -12.122  12.049  70.459  1.00  0.00    -0.402 A  
HETATM   13  S   UNL     1     -10.960  10.790  68.578  1.00  0.00    -0.265 SA 
HETATM   14  C   UNL     1     -12.192  14.477  69.746  1.00  0.00    -0.360 C  
ENDBRANCH   7   9
BRANCH   8  15
HETATM   15  C   UNL     1      -9.418  15.115  66.052  1.00  0.00    -0.358 C  
BRANCH  15  16
HETATM   16  C   UNL     1      -8.384  16.223  66.433  1.00  0.00    -0.330 C  
BRANCH  16  17
HETATM   17  N   UNL     1      -8.873  17.572  66.100  1.00  0.00    -0.493 NA 
HETATM   18  C   UNL     1     -10.232  17.873  66.519  1.00  0.00    -0.379 C  
HETATM   19  C   UNL     1     -10.277  18.623  67.841  1.00  0.00    -0.433 C  
HETATM   20  C   UNL     1      -9.652  19.994  67.659  1.00  0.00    -0.516 C  
HETATM   21  C   UNL     1      -8.238  19.919  67.076  1.00  0.00    -0.356 C  
HETATM   22  C   UNL     1      -7.113  20.185  68.063  1.00  0.00    -0.284 C  
HETATM   23  C   UNL     1      -7.909  18.676  66.207  1.00  0.00    -0.262 C  
HETATM   24  O   UNL     1      -7.332  19.824  69.343  1.00  0.00    -0.318 OA 
HETATM   25  O   UNL     1      -6.043  20.675  67.721  1.00  0.00    -0.231 OA 
ENDBRANCH  16  17
ENDBRANCH  15  16
ENDBRANCH   8  15
ENDBRANCH   3   7
TORSDOF 5
ENDMDL
MODEL        7
REMARK 921   NORMALIZED FREE ENERGY PREDICTED BY IDOCK:   -6.33 KCAL/MOL
REMARK 922        TOTAL FREE ENERGY PREDICTED BY IDOCK:   -9.68 KCAL/MOL
REMARK 923 INTER-LIGAND FREE ENERGY PREDICTED BY IDOCK:   -8.38 KCAL/MOL
REMARK 924 INTRA-LIGAND FREE ENERGY PREDICTED BY IDOCK:   -1.30 KCAL/MOL
REMARK 927      BINDING AFFINITY PREDICTED BY RF-SCORE:    0.00 PKD
ROOT
HETATM    1  C   UNL     1     -12.437  13.598  66.071  1.00  0.00    -0.477 C  
HETATM    2  C   UNL     1     -11.178  13.005  66.617  1.00  0.00    -0.341 A  
HETATM    3  C   UNL     1     -10.499  13.349  67.798  1.00  0.00    -0.243 A  
HETATM    4  C   UNL     1      -9.323  11.577  66.486  1.00  0.00    -0.197 A  
HETATM    5  S   UNL     1      -9.053  12.402  67.952  1.00  0.00    -0.197 SA 
HETATM    6  C   UNL     1     -10.484  11.981  65.880  1.00  0.00    -0.290 A  
ENDROOT
BRANCH   3   7
HETATM    7  C   UNL     1     -10.752  14.357  68.818  1.00  0.00    -0.258 C  
HETATM    8  C   UNL     1     -10.135  15.562  68.725  1.00  0.00    -0.211 C  
BRANCH   7   9
HETATM    9  C   UNL     1     -11.720  14.151  69.900  1.00  0.00    -0.309 A  
HETATM   10  C   UNL     1     -12.228  12.997  70.523  1.00  0.00    -0.392 A  
HETATM   11  C   UNL     1     -13.302  14.659  71.784  1.00  0.00    -0.360 A  
HETATM   12  C   UNL     1     -13.144  13.314  71.591  1.00  0.00    -0.453 A  
HETATM   13  S   UNL     1     -12.389  15.565  70.678  1.00  0.00    -0.419 SA 
HETATM   14  C   UNL     1     -11.924  11.557  70.235  1.00  0.00    -0.455 C  
ENDBRANCH   7   9
BRANCH   8  15
HETATM   15  C   UNL     1      -9.271  16.068  67.585  1.00  0.00    -0.205 C  
BRANCH  15  16
HETATM   16  C   UNL     1     -10.052  16.545  66.319  1.00  0.00    -0.333 C  
BRANCH  16  17
HETATM   17  N   UNL     1      -9.624  17.884  65.879  1.00  0.00    -0.530 NA 
HETATM   18  C   UNL     1     -10.629  18.931  65.972  1.00  0.00    -0.403 C  
HETATM   19  C   UNL     1     -10.496  19.750  67.246  1.00  0.00    -0.579 C  
HETATM   20  C   UNL     1      -9.189  20.519  67.212  1.00  0.00    -0.500 C  
HETATM   21  C   UNL     1      -7.982  19.608  66.972  1.00  0.00    -0.311 C  
HETATM   22  C   UNL     1      -7.114  19.344  68.193  1.00  0.00    -0.275 C  
HETATM   23  C   UNL     1      -8.248  18.286  66.205  1.00  0.00    -0.212 C  
HETATM   24  O   UNL     1      -7.738  19.333  69.388  1.00  0.00    -0.213 OA 
HETATM   25  O   UNL     1      -5.912  19.120  68.107  1.00  0.00    -0.211 OA 
ENDBRANCH  16  17
ENDBRANCH  15  16
ENDBRANCH   8  15
ENDBRANCH   3   7
TORSDOF 5
ENDMDL
MODEL        8
REMARK 921   NORMALIZED FREE ENERGY PREDICTED BY IDOCK:   -6.24 KCAL/MOL
REMARK 922        TOTAL FREE ENERGY PREDICTED BY IDOCK:   -9.56 KCAL/MOL
REMARK 923 INTER-LIGAND FREE ENERGY PREDICTED BY IDOCK:   -7.85 KCAL/MOL
REMARK 924 INTRA-LIGAND FREE ENERGY PREDICTED BY IDOCK:   -1.71 KCAL/MOL
REMARK 927      BINDING AFFINITY PREDICTED BY RF-SCORE:    0.00 PKD
ROOT
HETATM    1  C   UNL     1      -8.008  11.816  68.104  1.00  0.00    -0.146 C  
HETATM    2  C   UNL     1      -8.780  10.646  67.584  1.00  0.00    -0.121 A  
HETATM    3  C   UNL     1      -9.914  10.036  68.147  1.00  0.00    -0.153 A  
HETATM    4  C   UNL     1      -9.128   8.891  66.069  1.00  0.00    -0.214 A  
HETATM    5  S   UNL     1     -10.397   8.675  67.184  1.00  0.00    -0.292 SA 
HETATM    6  C   UNL     1      -8.348   9.972  66.387  1.00  0.00    -0.126 A  
ENDROOT
BRANCH   3   7
HETATM    7  C   UNL     1     -10.663  10.295  69.368  1.00  0.00    -0.272 C  
HETATM    8  C   UNL     1     -11.532  11.337  69.402  1.00  0.00    -0.370 C  
BRANCH   7   9
HETATM    9  C   UNL     1     -10.581   9.417  70.539  1.00  0.00    -0.271 A  
HETATM   10  C   UNL     1      -9.498   8.877  71.256  1.00  0.00    -0.343 A  
HETATM   11  C   UNL     1     -11.291   8.063  72.532  1.00  0.00    -0.406 A  
HETATM   12  C   UNL     1      -9.931   8.092  72.386  1.00  0.00    -0.345 A  
HETATM   13  S   UNL     1     -12.074   8.942  71.311  1.00  0.00    -0.300 SA 
HETATM   14  C   UNL     1      -8.028   9.033  71.005  1.00  0.00    -0.186 C  
ENDBRANCH   7   9
BRANCH   8  15
HETATM   15  C   UNL     1     -11.936  12.236  68.249  1.00  0.00    -0.259 C  
BRANCH  15  16
HETATM   16  C   UNL     1     -11.889  13.768  68.552  1.00  0.00    -0.370 C  
BRANCH  16  17
HETATM   17  N   UNL     1     -11.872  14.574  67.319  1.00  0.00    -0.407 NA 
HETATM   18  C   UNL     1     -10.626  15.267  67.033  1.00  0.00    -0.306 C  
HETATM   19  C   UNL     1      -9.746  14.498  66.060  1.00  0.00    -0.331 C  
HETATM   20  C   UNL     1     -10.432  14.434  64.709  1.00  0.00    -0.394 C  
HETATM   21  C   UNL     1     -11.848  13.858  64.799  1.00  0.00    -0.414 C  
HETATM   22  C   UNL     1     -12.004  12.434  64.287  1.00  0.00    -0.410 C  
HETATM   23  C   UNL     1     -12.583  14.027  66.154  1.00  0.00    -0.367 C  
HETATM   24  O   UNL     1     -10.938  11.622  64.424  1.00  0.00    -0.319 OA 
HETATM   25  O   UNL     1     -13.051  12.024  63.801  1.00  0.00    -0.730 OA 
ENDBRANCH  16  17
ENDBRANCH  15  16
ENDBRANCH   8  15
ENDBRANCH   3   7
TORSDOF 5
ENDMDL
MODEL        9
REMARK 921   NORMALIZED FREE ENERGY PREDICTED BY IDOCK:   -6.19 KCAL/MOL
REMARK 922        TOTAL FREE ENERGY PREDICTED BY IDOCK:   -9.50 KCAL/MOL
REMARK 923 INTER-LIGAND FREE ENERGY PREDICTED BY IDOCK:   -7.92 KCAL/MOL
REMARK 924 INTRA-LIGAND FREE ENERGY PREDICTED BY IDOCK:   -1.58 KCAL/MOL
REMARK 927      BINDING AFFINITY PREDICTED BY RF-SCORE:    0.00 PKD
ROOT
HETATM    1  C   UNL     1     -10.896  11.538  68.900  1.00  0.00    -0.263 C  
HETATM    2  C   UNL     1     -11.330  12.965  69.008  1.00  0.00    -0.341 A  
HETATM    3  C   UNL     1     -11.068  14.020  68.117  1.00  0.00    -0.260 A  
HETATM    4  C   UNL     1     -12.351  14.750  70.132  1.00  0.00    -0.330 A  
HETATM    5  S   UNL     1     -11.746  15.497  68.727  1.00  0.00    -0.326 SA 
HETATM    6  C   UNL     1     -12.072  13.408  70.159  1.00  0.00    -0.415 A  
ENDROOT
BRANCH   3   7
HETATM    7  C   UNL     1     -10.307  14.092  66.878  1.00  0.00    -0.269 C  
HETATM    8  C   UNL     1      -9.061  14.631  66.897  1.00  0.00    -0.272 C  
BRANCH   7   9
HETATM    9  C   UNL     1     -10.801  13.524  65.620  1.00  0.00    -0.287 A  
HETATM   10  C   UNL     1     -10.577  12.296  64.971  1.00  0.00    -0.322 A  
HETATM   11  C   UNL     1     -12.129  13.266  63.504  1.00  0.00    -0.482 A  
HETATM   12  C   UNL     1     -11.339  12.177  63.753  1.00  0.00    -0.529 A  
HETATM   13  S   UNL     1     -11.954  14.458  64.698  1.00  0.00    -0.473 SA 
HETATM   14  C   UNL     1      -9.703  11.152  65.391  1.00  0.00    -0.275 C  
ENDBRANCH   7   9
BRANCH   8  15
HETATM   15  C   UNL     1      -8.271  15.078  68.111  1.00  0.00    -0.140 C  
BRANCH  15  16
HETATM   16  C   UNL     1      -6.815  15.564  67.817  1.00  0.00    -0.161 C  
BRANCH  16  17
HETATM   17  N   UNL     1      -6.694  17.029  67.905  1.00  0.00    -0.145 NA 
HETATM   18  C   UNL     1      -5.794  17.648  66.945  1.00  0.00    -0.155 C  
HETATM   19  C   UNL     1      -6.530  18.187  65.728  1.00  0.00    -0.311 C  
HETATM   20  C   UNL     1      -7.431  19.331  66.155  1.00  0.00    -0.294 C  
HETATM   21  C   UNL     1      -8.384  18.933  67.286  1.00  0.00    -0.288 C  
HETATM   22  C   UNL     1      -9.832  18.723  66.872  1.00  0.00    -0.334 C  
HETATM   23  C   UNL     1      -7.917  17.782  68.216  1.00  0.00    -0.282 C  
HETATM   24  O   UNL     1     -10.045  18.266  65.623  1.00  0.00    -0.532 OA 
HETATM   25  O   UNL     1     -10.768  18.927  67.637  1.00  0.00    -0.432 OA 
ENDBRANCH  16  17
ENDBRANCH  15  16
ENDBRANCH   8  15
ENDBRANCH   3   7
TORSDOF 5
ENDMDL
MODEL       10
REMARK 921   NORMALIZED FREE ENERGY PREDICTED BY IDOCK:   -6.18 KCAL/MOL
REMARK 922        TOTAL FREE ENERGY PREDICTED BY IDOCK:   -9.49 KCAL/MOL
REMARK 923 INTER-LIGAND FREE ENERGY PREDICTED BY IDOCK:   -8.25 KCAL/MOL
REMARK 924 INTRA-LIGAND FREE ENERGY PREDICTED BY IDOCK:   -1.24 KCAL/MOL
REMARK 927      BINDING AFFINITY PREDICTED BY RF-SCORE:    0.00 PKD
ROOT
HETATM    1  C   UNL     1      -8.019  11.667  68.348  1.00  0.00    -0.140 C  
HETATM    2  C   UNL     1      -8.786  10.493  67.827  1.00  0.00    -0.125 A  
HETATM    3  C   UNL     1      -9.983   9.949  68.326  1.00  0.00    -0.151 A  
HETATM    4  C   UNL     1      -9.071   8.670  66.383  1.00  0.00    -0.174 A  
HETATM    5  S   UNL     1     -10.433   8.553  67.399  1.00  0.00    -0.247 SA 
HETATM    6  C   UNL     1      -8.282   9.742  66.708  1.00  0.00    -0.120 A  
ENDROOT
BRANCH   3   7
HETATM    7  C   UNL     1     -10.819  10.297  69.465  1.00  0.00    -0.292 C  
HETATM    8  C   UNL     1     -11.635  11.379  69.381  1.00  0.00    -0.391 C  
BRANCH   7   9
HETATM    9  C   UNL     1     -10.882   9.470  70.674  1.00  0.00    -0.306 A  
HETATM   10  C   UNL     1     -11.927   9.145  71.558  1.00  0.00    -0.422 A  
HETATM   11  C   UNL     1     -10.185   7.875  72.485  1.00  0.00    -0.278 A  
HETATM   12  C   UNL     1     -11.500   8.240  72.596  1.00  0.00    -0.423 A  
HETATM   13  S   UNL     1      -9.433   8.627  71.164  1.00  0.00    -0.238 SA 
HETATM   14  C   UNL     1     -13.359   9.589  71.531  1.00  0.00    -0.470 C  
ENDBRANCH   7   9
BRANCH   8  15
HETATM   15  C   UNL     1     -11.893  12.244  68.162  1.00  0.00    -0.372 C  
BRANCH  15  16
HETATM   16  C   UNL     1     -12.018  13.776  68.447  1.00  0.00    -0.360 C  
BRANCH  16  17
HETATM   17  N   UNL     1     -11.905  14.577  67.216  1.00  0.00    -0.407 NA 
HETATM   18  C   UNL     1     -10.602  15.170  66.965  1.00  0.00    -0.300 C  
HETATM   19  C   UNL     1      -9.759  14.333  66.015  1.00  0.00    -0.312 C  
HETATM   20  C   UNL     1     -10.412  14.322  64.645  1.00  0.00    -0.325 C  
HETATM   21  C   UNL     1     -11.870  13.859  64.697  1.00  0.00    -0.428 C  
HETATM   22  C   UNL     1     -12.124  12.452  64.179  1.00  0.00    -0.453 C  
HETATM   23  C   UNL     1     -12.626  14.087  66.033  1.00  0.00    -0.414 C  
HETATM   24  O   UNL     1     -11.130  11.558  64.343  1.00  0.00    -0.330 OA 
HETATM   25  O   UNL     1     -13.187  12.125  63.664  1.00  0.00    -0.770 OA 
ENDBRANCH  16  17
ENDBRANCH  15  16
ENDBRANCH   8  15
ENDBRANCH   3   7
TORSDOF 5
ENDMDL
MODEL       11
REMARK 921   NORMALIZED FREE ENERGY PREDICTED BY IDOCK:   -6.17 KCAL/MOL
REMARK 922        TOTAL FREE ENERGY PREDICTED BY IDOCK:   -9.47 KCAL/MOL
REMARK 923 INTER-LIGAND FREE ENERGY PREDICTED BY IDOCK:   -8.34 KCAL/MOL
REMARK 924 INTRA-LIGAND FREE ENERGY PREDICTED BY IDOCK:   -1.14 KCAL/MOL
REMARK 927      BINDING AFFINITY PREDICTED BY RF-SCORE:    0.00 PKD
ROOT
HETATM    1  C   UNL     1     -11.809  15.290  68.870  1.00  0.00    -0.344 C  
HETATM    2  C   UNL     1     -10.451  14.720  68.611  1.00  0.00    -0.250 A  
HETATM    3  C   UNL     1     -10.124  13.523  67.952  1.00  0.00    -0.248 A  
HETATM    4  C   UNL     1      -8.117  14.722  68.832  1.00  0.00    -0.160 A  
HETATM    5  S   UNL     1      -8.406  13.284  67.965  1.00  0.00    -0.172 SA 
HETATM    6  C   UNL     1      -9.279  15.394  69.107  1.00  0.00    -0.242 A  
ENDROOT
BRANCH   3   7
HETATM    7  C   UNL     1     -10.942  12.475  67.357  1.00  0.00    -0.297 C  
HETATM    8  C   UNL     1     -11.473  11.516  68.157  1.00  0.00    -0.385 C  
BRANCH   7   9
HETATM    9  C   UNL     1     -11.289  12.464  65.933  1.00  0.00    -0.356 A  
HETATM   10  C   UNL     1     -10.937  11.615  64.868  1.00  0.00    -0.345 A  
HETATM   11  C   UNL     1     -12.409  13.074  63.768  1.00  0.00    -0.397 A  
HETATM   12  C   UNL     1     -11.580  11.993  63.634  1.00  0.00    -0.578 A  
HETATM   13  S   UNL     1     -12.410  13.673  65.355  1.00  0.00    -0.503 SA 
HETATM   14  C   UNL     1     -10.036  10.416  64.875  1.00  0.00    -0.409 C  
ENDBRANCH   7   9
BRANCH   8  15
HETATM   15  C   UNL     1     -11.427  11.452  69.672  1.00  0.00    -0.380 C  
BRANCH  15  16
HETATM   16  C   UNL     1     -12.661  10.771  70.348  1.00  0.00    -0.314 C  
BRANCH  16  17
HETATM   17  N   UNL     1     -12.263   9.875  71.447  1.00  0.00    -0.380 NA 
HETATM   18  C   UNL     1     -13.348   9.183  72.123  1.00  0.00    -0.463 C  
HETATM   19  C   UNL     1     -13.556   7.774  71.589  1.00  0.00    -0.416 C  
HETATM   20  C   UNL     1     -12.340   6.930  71.920  1.00  0.00    -0.364 C  
HETATM   21  C   UNL     1     -11.038   7.559  71.417  1.00  0.00    -0.262 C  
HETATM   22  C   UNL     1     -10.430   6.902  70.188  1.00  0.00    -0.209 C  
HETATM   23  C   UNL     1     -11.025   9.103  71.264  1.00  0.00    -0.330 C  
HETATM   24  O   UNL     1     -11.289   6.345  69.312  1.00  0.00    -0.379 OA 
HETATM   25  O   UNL     1      -9.223   6.897  69.977  1.00  0.00    -0.154 OA 
ENDBRANCH  16  17
ENDBRANCH  15  16
ENDBRANCH   8  15
ENDBRANCH   3   7
TORSDOF 5
ENDMDL
MODEL       12
REMARK 921   NORMALIZED FREE ENERGY PREDICTED BY IDOCK:   -6.12 KCAL/MOL
REMARK 922        TOTAL FREE ENERGY PREDICTED BY IDOCK:   -9.41 KCAL/MOL
REMARK 923 INTER-LIGAND FREE ENERGY PREDICTED BY IDOCK:   -7.99 KCAL/MOL
REMARK 924 INTRA-LIGAND FREE ENERGY PREDICTED BY IDOCK:   -1.42 KCAL/MOL
REMARK 927      BINDING AFFINITY PREDICTED BY RF-SCORE:    0.00 PKD
ROOT
HETATM    1  C   UNL     1     -10.347   8.129  66.832  1.00  0.00    -0.401 C  
HETATM    2  C   UNL     1      -9.427   9.200  67.326  1.00  0.00    -0.187 A  
HETATM    3  C   UNL     1      -9.745  10.523  67.677  1.00  0.00    -0.165 A  
HETATM    4  C   UNL     1      -7.302  10.034  67.856  1.00  0.00    -0.088 A  
HETATM    5  S   UNL     1      -8.307  11.380  68.133  1.00  0.00    -0.156 SA 
HETATM    6  C   UNL     1      -8.015   8.941  67.439  1.00  0.00    -0.101 A  
ENDROOT
BRANCH   3   7
HETATM    7  C   UNL     1     -10.994  11.270  67.655  1.00  0.00    -0.312 C  
HETATM    8  C   UNL     1     -11.824  11.205  68.727  1.00  0.00    -0.388 C  
BRANCH   7   9
HETATM    9  C   UNL     1     -11.353  12.166  66.551  1.00  0.00    -0.350 A  
HETATM   10  C   UNL     1     -11.229  12.060  65.154  1.00  0.00    -0.368 A  
HETATM   11  C   UNL     1     -12.322  14.129  65.320  1.00  0.00    -0.460 A  
HETATM   12  C   UNL     1     -11.779  13.204  64.470  1.00  0.00    -0.417 A  
HETATM   13  S   UNL     1     -12.158  13.665  66.943  1.00  0.00    -0.354 SA 
HETATM   14  C   UNL     1     -10.643  10.944  64.339  1.00  0.00    -0.343 C  
ENDBRANCH   7   9
BRANCH   8  15
HETATM   15  C   UNL     1     -11.558  10.522  70.055  1.00  0.00    -0.392 C  
BRANCH  15  16
HETATM   16  C   UNL     1     -12.687  10.681  71.124  1.00  0.00    -0.422 C  
BRANCH  16  17
HETATM   17  N   UNL     1     -12.705   9.560  72.079  1.00  0.00    -0.394 NA 
HETATM   18  C   UNL     1     -14.003   8.947  72.309  1.00  0.00    -0.466 C  
HETATM   19  C   UNL     1     -14.211   7.700  71.463  1.00  0.00    -0.564 C  
HETATM   20  C   UNL     1     -13.231   6.628  71.903  1.00  0.00    -0.085 C  
HETATM   21  C   UNL     1     -11.780   7.117  71.878  1.00  0.00    -0.328 C  
HETATM   22  C   UNL     1     -10.936   6.588  70.729  1.00  0.00    -0.276 C  
HETATM   23  C   UNL     1     -11.557   8.643  72.053  1.00  0.00    -0.370 C  
HETATM   24  O   UNL     1     -11.579   6.333  69.573  1.00  0.00    -0.423 OA 
HETATM   25  O   UNL     1      -9.725   6.427  70.826  1.00  0.00    -0.178 OA 
ENDBRANCH  16  17
ENDBRANCH  15  16
ENDBRANCH   8  15
ENDBRANCH   3   7
TORSDOF 5
ENDMDL
MODEL       13
REMARK 921   NORMALIZED FREE ENERGY PREDICTED BY IDOCK:   -6.11 KCAL/MOL
REMARK 922        TOTAL FREE ENERGY PREDICTED BY IDOCK:   -9.39 KCAL/MOL
REMARK 923 INTER-LIGAND FREE ENERGY PREDICTED BY IDOCK:   -8.06 KCAL/MOL
REMARK 924 INTRA-LIGAND FREE ENERGY PREDICTED BY IDOCK:   -1.33 KCAL/MOL
REMARK 927      BINDING AFFINITY PREDICTED BY RF-SCORE:    0.00 PKD
ROOT
HETATM    1  C   UNL     1      -9.273  11.063  65.338  1.00  0.00    -0.232 C  
HETATM    2  C   UNL     1     -10.407  11.934  64.899  1.00  0.00    -0.328 A  
HETATM    3  C   UNL     1     -10.900  13.094  65.521  1.00  0.00    -0.283 A  
HETATM    4  C   UNL     1     -12.205  12.454  63.488  1.00  0.00    -0.563 A  
HETATM    5  S   UNL     1     -12.268  13.704  64.644  1.00  0.00    -0.400 SA 
HETATM    6  C   UNL     1     -11.172  11.587  63.730  1.00  0.00    -0.456 A  
ENDROOT
BRANCH   3   7
HETATM    7  C   UNL     1     -10.524  13.788  66.744  1.00  0.00    -0.270 C  
HETATM    8  C   UNL     1     -11.040  13.369  67.928  1.00  0.00    -0.289 C  
BRANCH   7   9
HETATM    9  C   UNL     1      -9.536  14.870  66.760  1.00  0.00    -0.252 A  
HETATM   10  C   UNL     1      -8.172  14.916  67.100  1.00  0.00    -0.244 A  
HETATM   11  C   UNL     1      -8.505  17.134  66.412  1.00  0.00    -0.272 A  
HETATM   12  C   UNL     1      -7.606  16.228  66.906  1.00  0.00    -0.279 A  
HETATM   13  S   UNL     1     -10.041  16.446  66.202  1.00  0.00    -0.362 SA 
HETATM   14  C   UNL     1      -7.283  13.812  67.592  1.00  0.00    -0.183 C  
ENDBRANCH   7   9
BRANCH   8  15
HETATM   15  C   UNL     1     -11.902  12.145  68.174  1.00  0.00    -0.362 C  
BRANCH  15  16
HETATM   16  C   UNL     1     -11.125  10.860  68.608  1.00  0.00    -0.252 C  
BRANCH  16  17
HETATM   17  N   UNL     1     -11.033  10.739  70.073  1.00  0.00    -0.252 NA 
HETATM   18  C   UNL     1     -12.197  11.189  70.819  1.00  0.00    -0.385 C  
HETATM   19  C   UNL     1     -13.126  10.042  71.188  1.00  0.00    -0.472 C  
HETATM   20  C   UNL     1     -12.418   9.119  72.162  1.00  0.00    -0.436 C  
HETATM   21  C   UNL     1     -11.069   8.631  71.628  1.00  0.00    -0.375 C  
HETATM   22  C   UNL     1     -11.042   7.187  71.153  1.00  0.00    -0.254 C  
HETATM   23  C   UNL     1     -10.352   9.549  70.603  1.00  0.00    -0.302 C  
HETATM   24  O   UNL     1     -12.185   6.699  70.634  1.00  0.00    -0.377 OA 
HETATM   25  O   UNL     1     -10.029   6.499  71.204  1.00  0.00    -0.182 OA 
ENDBRANCH  16  17
ENDBRANCH  15  16
ENDBRANCH   8  15
ENDBRANCH   3   7
TORSDOF 5
ENDMDL
MODEL       14
REMARK 921   NORMALIZED FREE ENERGY PREDICTED BY IDOCK:   -6.07 KCAL/MOL
REMARK 922        TOTAL FREE ENERGY PREDICTED BY IDOCK:   -9.34 KCAL/MOL
REMARK 923 INTER-LIGAND FREE ENERGY PREDICTED BY IDOCK:   -8.10 KCAL/MOL
REMARK 924 INTRA-LIGAND FREE ENERGY PREDICTED BY IDOCK:   -1.24 KCAL/MOL
REMARK 927      BINDING AFFINITY PREDICTED BY RF-SCORE:    0.00 PKD
ROOT
HETATM    1  C   UNL     1     -10.201  10.487  65.895  1.00  0.00    -0.311 C  
HETATM    2  C   UNL     1     -11.003  11.742  65.758  1.00  0.00    -0.353 A  
HETATM    3  C   UNL     1     -11.130  12.794  66.680  1.00  0.00    -0.276 A  
HETATM    4  C   UNL     1     -12.523  13.127  64.633  1.00  0.00    -0.373 A  
HETATM    5  S   UNL     1     -12.225  13.994  66.068  1.00  0.00    -0.452 SA 
HETATM    6  C   UNL     1     -11.811  11.957  64.586  1.00  0.00    -0.282 A  
ENDROOT
BRANCH   3   7
HETATM    7  C   UNL     1     -10.587  13.001  68.015  1.00  0.00    -0.246 C  
HETATM    8  C   UNL     1      -9.314  13.455  68.148  1.00  0.00    -0.217 C  
BRANCH   7   9
HETATM    9  C   UNL     1     -11.392  12.820  69.227  1.00  0.00    -0.247 A  
HETATM   10  C   UNL     1     -12.035  13.724  70.091  1.00  0.00    -0.404 A  
HETATM   11  C   UNL     1     -12.683  11.688  71.059  1.00  0.00    -0.298 A  
HETATM   12  C   UNL     1     -12.758  13.051  71.143  1.00  0.00    -0.372 A  
HETATM   13  S   UNL     1     -11.728  11.188  69.750  1.00  0.00    -0.376 SA 
HETATM   14  C   UNL     1     -12.072  15.223  70.034  1.00  0.00    -0.386 C  
ENDBRANCH   7   9
BRANCH   8  15
HETATM   15  C   UNL     1      -8.380  13.912  67.044  1.00  0.00    -0.113 C  
BRANCH  15  16
HETATM   16  C   UNL     1      -8.563  15.395  66.588  1.00  0.00    -0.283 C  
BRANCH  16  17
HETATM   17  N   UNL     1      -9.438  16.150  67.502  1.00  0.00    -0.222 NA 
HETATM   18  C   UNL     1      -8.826  16.585  68.747  1.00  0.00    -0.255 C  
HETATM   19  C   UNL     1      -8.336  18.024  68.678  1.00  0.00    -0.282 C  
HETATM   20  C   UNL     1      -9.527  18.951  68.527  1.00  0.00    -0.416 C  
HETATM   21  C   UNL     1     -10.412  18.576  67.335  1.00  0.00    -0.455 C  
HETATM   22  C   UNL     1     -10.294  19.490  66.125  1.00  0.00    -0.520 C  
HETATM   23  C   UNL     1     -10.389  17.089  66.891  1.00  0.00    -0.303 C  
HETATM   24  O   UNL     1      -9.093  20.066  65.917  1.00  0.00    -0.325 OA 
HETATM   25  O   UNL     1     -11.226  19.679  65.353  1.00  0.00    -0.332 OA 
ENDBRANCH  16  17
ENDBRANCH  15  16
ENDBRANCH   8  15
ENDBRANCH   3   7
TORSDOF 5
ENDMDL
MODEL       15
REMARK 921   NORMALIZED FREE ENERGY PREDICTED BY IDOCK:   -6.03 KCAL/MOL
REMARK 922        TOTAL FREE ENERGY PREDICTED BY IDOCK:   -9.29 KCAL/MOL
REMARK 923 INTER-LIGAND FREE ENERGY PREDICTED BY IDOCK:   -8.22 KCAL/MOL
REMARK 924 INTRA-LIGAND FREE ENERGY PREDICTED BY IDOCK:   -1.07 KCAL/MOL
REMARK 927      BINDING AFFINITY PREDICTED BY RF-SCORE:    0.00 PKD
ROOT
HETATM    1  C   UNL     1     -12.270  14.922  69.672  1.00  0.00    -0.299 C  
HETATM    2  C   UNL     1     -11.825  13.503  69.508  1.00  0.00    -0.392 A  
HETATM    3  C   UNL     1     -11.063  12.948  68.466  1.00  0.00    -0.267 A  
HETATM    4  C   UNL     1     -11.780  11.251  70.154  1.00  0.00    -0.343 A  
HETATM    5  S   UNL     1     -10.868  11.242  68.716  1.00  0.00    -0.223 SA 
HETATM    6  C   UNL     1     -12.224  12.508  70.469  1.00  0.00    -0.382 A  
ENDROOT
BRANCH   3   7
HETATM    7  C   UNL     1     -10.504  13.517  67.248  1.00  0.00    -0.248 C  
HETATM    8  C   UNL     1      -9.512  14.438  67.343  1.00  0.00    -0.207 C  
BRANCH   7   9
HETATM    9  C   UNL     1     -10.912  13.067  65.914  1.00  0.00    -0.271 A  
HETATM   10  C   UNL     1     -10.414  12.080  65.044  1.00  0.00    -0.327 A  
HETATM   11  C   UNL     1     -12.259  12.835  63.807  1.00  0.00    -0.489 A  
HETATM   12  C   UNL     1     -11.195  11.975  63.836  1.00  0.00    -0.490 A  
HETATM   13  S   UNL     1     -12.327  13.800  65.200  1.00  0.00    -0.455 SA 
HETATM   14  C   UNL     1      -9.243  11.160  65.229  1.00  0.00    -0.218 C  
ENDBRANCH   7   9
BRANCH   8  15
HETATM   15  C   UNL     1      -8.791  14.888  68.600  1.00  0.00    -0.179 C  
BRANCH  15  16
HETATM   16  C   UNL     1      -8.493  16.420  68.685  1.00  0.00    -0.229 C  
BRANCH  16  17
HETATM   17  N   UNL     1      -9.306  17.194  67.730  1.00  0.00    -0.242 NA 
HETATM   18  C   UNL     1     -10.432  17.916  68.299  1.00  0.00    -0.354 C  
HETATM   19  C   UNL     1     -10.102  19.374  68.579  1.00  0.00    -0.527 C  
HETATM   20  C   UNL     1      -9.851  20.091  67.266  1.00  0.00    -0.563 C  
HETATM   21  C   UNL     1      -8.778  19.400  66.420  1.00  0.00    -0.376 C  
HETATM   22  C   UNL     1      -7.428  20.100  66.384  1.00  0.00    -0.279 C  
HETATM   23  C   UNL     1      -8.588  17.877  66.644  1.00  0.00    -0.262 C  
HETATM   24  O   UNL     1      -7.074  20.790  67.486  1.00  0.00    -0.329 OA 
HETATM   25  O   UNL     1      -6.676  20.025  65.419  1.00  0.00    -0.268 OA 
ENDBRANCH  16  17
ENDBRANCH  15  16
ENDBRANCH   8  15
ENDBRANCH   3   7
TORSDOF 5
ENDMDL
MODEL       16
REMARK 921   NORMALIZED FREE ENERGY PREDICTED BY IDOCK:   -6.03 KCAL/MOL
REMARK 922        TOTAL FREE ENERGY PREDICTED BY IDOCK:   -9.29 KCAL/MOL
REMARK 923 INTER-LIGAND FREE ENERGY PREDICTED BY IDOCK:   -7.35 KCAL/MOL
REMARK 924 INTRA-LIGAND FREE ENERGY PREDICTED BY IDOCK:   -1.95 KCAL/MOL
REMARK 927      BINDING AFFINITY PREDICTED BY RF-SCORE:    0.00 PKD
ROOT
HETATM    1  C   UNL     1     -10.048   9.527  68.056  1.00  0.00    -0.226 C  
HETATM    2  C   UNL     1     -10.792  10.682  68.648  1.00  0.00    -0.266 A  
HETATM    3  C   UNL     1     -10.913  11.987  68.140  1.00  0.00    -0.230 A  
HETATM    4  C   UNL     1     -12.048  11.697  70.346  1.00  0.00    -0.373 A  
HETATM    5  S   UNL     1     -11.835  12.969  69.234  1.00  0.00    -0.295 SA 
HETATM    6  C   UNL     1     -11.456  10.539  69.917  1.00  0.00    -0.384 A  
ENDROOT
BRANCH   3   7
HETATM    7  C   UNL     1     -10.367  12.634  66.955  1.00  0.00    -0.244 C  
HETATM    8  C   UNL     1      -9.218  13.348  67.062  1.00  0.00    -0.242 C  
BRANCH   7   9
HETATM    9  C   UNL     1     -10.965  12.470  65.626  1.00  0.00    -0.288 A  
HETATM   10  C   UNL     1     -10.763  11.536  64.595  1.00  0.00    -0.379 A  
HETATM   11  C   UNL     1     -12.490  12.821  63.662  1.00  0.00    -0.389 A  
HETATM   12  C   UNL     1     -11.639  11.766  63.473  1.00  0.00    -0.487 A  
HETATM   13  S   UNL     1     -12.238  13.572  65.161  1.00  0.00    -0.455 SA 
HETATM   14  C   UNL     1      -9.810  10.379  64.541  1.00  0.00    -0.405 C  
ENDBRANCH   7   9
BRANCH   8  15
HETATM   15  C   UNL     1      -8.320  13.470  68.278  1.00  0.00    -0.165 C  
BRANCH  15  16
HETATM   16  C   UNL     1      -6.969  14.217  68.036  1.00  0.00    -0.145 C  
BRANCH  16  17
HETATM   17  N   UNL     1      -7.109  15.675  68.190  1.00  0.00    -0.112 NA 
HETATM   18  C   UNL     1      -6.916  16.459  66.981  1.00  0.00    -0.219 C  
HETATM   19  C   UNL     1      -8.231  16.811  66.304  1.00  0.00    -0.359 C  
HETATM   20  C   UNL     1      -9.024  17.740  67.204  1.00  0.00    -0.249 C  
HETATM   21  C   UNL     1      -9.225  17.162  68.608  1.00  0.00    -0.263 C  
HETATM   22  C   UNL     1     -10.622  16.641  68.902  1.00  0.00    -0.337 C  
HETATM   23  C   UNL     1      -8.157  16.152  69.104  1.00  0.00    -0.230 C  
HETATM   24  O   UNL     1     -11.310  16.131  67.862  1.00  0.00    -0.294 OA 
HETATM   25  O   UNL     1     -11.101  16.648  70.031  1.00  0.00    -0.312 OA 
ENDBRANCH  16  17
ENDBRANCH  15  16
ENDBRANCH   8  15
ENDBRANCH   3   7
TORSDOF 5
ENDMDL
MODEL       17
REMARK 921   NORMALIZED FREE ENERGY PREDICTED BY IDOCK:   -6.03 KCAL/MOL
REMARK 922        TOTAL FREE ENERGY PREDICTED BY IDOCK:   -9.29 KCAL/MOL
REMARK 923 INTER-LIGAND FREE ENERGY PREDICTED BY IDOCK:   -8.17 KCAL/MOL
REMARK 924 INTRA-LIGAND FREE ENERGY PREDICTED BY IDOCK:   -1.12 KCAL/MOL
REMARK 927      BINDING AFFINITY PREDICTED BY RF-SCORE:    0.00 PKD
ROOT
HETATM    1  C   UNL     1     -12.902  13.864  65.349  1.00  0.00    -0.466 C  
HETATM    2  C   UNL     1     -11.873  12.853  64.951  1.00  0.00    -0.409 A  
HETATM    3  C   UNL     1     -10.684  12.517  65.620  1.00  0.00    -0.266 A  
HETATM    4  C   UNL     1     -10.973  11.274  63.472  1.00  0.00    -0.245 A  
HETATM    5  S   UNL     1      -9.809  11.323  64.714  1.00  0.00    -0.280 SA 
HETATM    6  C   UNL     1     -12.019  12.123  63.718  1.00  0.00    -0.607 A  
ENDROOT
BRANCH   3   7
HETATM    7  C   UNL     1     -10.066  13.023  66.836  1.00  0.00    -0.243 C  
HETATM    8  C   UNL     1     -10.309  12.393  68.014  1.00  0.00    -0.220 C  
BRANCH   7   9
HETATM    9  C   UNL     1      -9.115  14.139  66.827  1.00  0.00    -0.247 A  
HETATM   10  C   UNL     1      -9.190  15.455  66.336  1.00  0.00    -0.339 A  
HETATM   11  C   UNL     1      -7.053  15.491  67.304  1.00  0.00    -0.190 A  
HETATM   12  C   UNL     1      -7.990  16.207  66.609  1.00  0.00    -0.305 A  
HETATM   13  S   UNL     1      -7.574  13.907  67.614  1.00  0.00    -0.183 SA 
HETATM   14  C   UNL     1     -10.320  16.134  65.621  1.00  0.00    -0.405 C  
ENDBRANCH   7   9
BRANCH   8  15
HETATM   15  C   UNL     1     -11.078  11.103  68.226  1.00  0.00    -0.310 C  
BRANCH  15  16
HETATM   16  C   UNL     1     -12.277  11.197  69.223  1.00  0.00    -0.226 C  
BRANCH  16  17
HETATM   17  N   UNL     1     -11.882  10.842  70.597  1.00  0.00    -0.347 NA 
HETATM   18  C   UNL     1     -12.950  10.844  71.582  1.00  0.00    -0.464 C  
HETATM   19  C   UNL     1     -13.520   9.454  71.819  1.00  0.00    -0.485 C  
HETATM   20  C   UNL     1     -12.456   8.579  72.454  1.00  0.00    -0.416 C  
HETATM   21  C   UNL     1     -11.161   8.549  71.639  1.00  0.00    -0.361 C  
HETATM   22  C   UNL     1     -10.914   7.268  70.858  1.00  0.00    -0.253 C  
HETATM   23  C   UNL     1     -10.871   9.786  70.748  1.00  0.00    -0.333 C  
HETATM   24  O   UNL     1     -12.003   6.609  70.415  1.00  0.00    -0.396 OA 
HETATM   25  O   UNL     1      -9.786   6.858  70.611  1.00  0.00    -0.175 OA 
ENDBRANCH  16  17
ENDBRANCH  15  16
ENDBRANCH   8  15
ENDBRANCH   3   7
TORSDOF 5
ENDMDL
MODEL       18
REMARK 921   NORMALIZED FREE ENERGY PREDICTED BY IDOCK:   -6.02 KCAL/MOL
REMARK 922        TOTAL FREE ENERGY PREDICTED BY IDOCK:   -9.28 KCAL/MOL
REMARK 923 INTER-LIGAND FREE ENERGY PREDICTED BY IDOCK:   -8.31 KCAL/MOL
REMARK 924 INTRA-LIGAND FREE ENERGY PREDICTED BY IDOCK:   -0.97 KCAL/MOL
REMARK 927      BINDING AFFINITY PREDICTED BY RF-SCORE:    0.00 PKD
ROOT
HETATM    1  C   UNL     1     -10.489   8.086  67.017  1.00  0.00    -0.410 C  
HETATM    2  C   UNL     1      -9.478   9.065  67.523  1.00  0.00    -0.168 A  
HETATM    3  C   UNL     1      -9.572   9.906  68.645  1.00  0.00    -0.156 A  
HETATM    4  C   UNL     1      -7.449  10.228  67.367  1.00  0.00    -0.094 A  
HETATM    5  S   UNL     1      -8.151  10.895  68.768  1.00  0.00    -0.144 SA 
HETATM    6  C   UNL     1      -8.246   9.266  66.805  1.00  0.00    -0.115 A  
ENDROOT
BRANCH   3   7
HETATM    7  C   UNL     1     -10.629  10.126  69.621  1.00  0.00    -0.286 C  
HETATM    8  C   UNL     1     -11.517  11.132  69.420  1.00  0.00    -0.368 C  
BRANCH   7   9
HETATM    9  C   UNL     1     -10.827   9.243  70.775  1.00  0.00    -0.284 A  
HETATM   10  C   UNL     1     -11.940   8.969  71.590  1.00  0.00    -0.426 A  
HETATM   11  C   UNL     1     -10.370   7.491  72.516  1.00  0.00    -0.240 A  
HETATM   12  C   UNL     1     -11.649   7.972  72.591  1.00  0.00    -0.448 A  
HETATM   13  S   UNL     1      -9.488   8.241  71.277  1.00  0.00    -0.186 SA 
HETATM   14  C   UNL     1     -13.322   9.547  71.527  1.00  0.00    -0.470 C  
ENDBRANCH   7   9
BRANCH   8  15
HETATM   15  C   UNL     1     -11.635  12.025  68.199  1.00  0.00    -0.403 C  
BRANCH  15  16
HETATM   16  C   UNL     1     -11.026  13.455  68.358  1.00  0.00    -0.267 C  
BRANCH  16  17
HETATM   17  N   UNL     1     -11.660  14.429  67.453  1.00  0.00    -0.357 NA 
HETATM   18  C   UNL     1     -10.873  15.611  67.144  1.00  0.00    -0.297 C  
HETATM   19  C   UNL     1     -10.127  15.481  65.825  1.00  0.00    -0.388 C  
HETATM   20  C   UNL     1     -11.129  15.418  64.688  1.00  0.00    -0.361 C  
HETATM   21  C   UNL     1     -12.167  14.310  64.885  1.00  0.00    -0.449 C  
HETATM   22  C   UNL     1     -11.981  13.082  64.008  1.00  0.00    -0.456 C  
HETATM   23  C   UNL     1     -12.465  13.887  66.348  1.00  0.00    -0.370 C  
HETATM   24  O   UNL     1     -10.716  12.765  63.670  1.00  0.00    -0.407 OA 
HETATM   25  O   UNL     1     -12.924  12.388  63.643  1.00  0.00    -0.758 OA 
ENDBRANCH  16  17
ENDBRANCH  15  16
ENDBRANCH   8  15
ENDBRANCH   3   7
TORSDOF 5
ENDMDL
MODEL       19
REMARK 921   NORMALIZED FREE ENERGY PREDICTED BY IDOCK:   -6.02 KCAL/MOL
REMARK 922        TOTAL FREE ENERGY PREDICTED BY IDOCK:   -9.27 KCAL/MOL
REMARK 923 INTER-LIGAND FREE ENERGY PREDICTED BY IDOCK:   -8.03 KCAL/MOL
REMARK 924 INTRA-LIGAND FREE ENERGY PREDICTED BY IDOCK:   -1.24 KCAL/MOL
REMARK 927      BINDING AFFINITY PREDICTED BY RF-SCORE:    0.00 PKD
ROOT
HETATM    1  C   UNL     1     -10.662   7.598  67.063  1.00  0.00    -0.340 C  
HETATM    2  C   UNL     1      -9.623   7.715  68.133  1.00  0.00    -0.158 A  
HETATM    3  C   UNL     1      -9.650   8.520  69.284  1.00  0.00    -0.170 A  
HETATM    4  C   UNL     1      -7.523   7.230  69.054  1.00  0.00    -0.097 A  
HETATM    5  S   UNL     1      -8.173   8.335  70.176  1.00  0.00    -0.121 SA 
HETATM    6  C   UNL     1      -8.390   6.979  68.023  1.00  0.00    -0.119 A  
ENDROOT
BRANCH   3   7
HETATM    7  C   UNL     1     -10.621   9.481  69.786  1.00  0.00    -0.257 C  
HETATM    8  C   UNL     1     -10.538  10.776  69.387  1.00  0.00    -0.254 C  
BRANCH   7   9
HETATM    9  C   UNL     1     -11.744   9.087  70.642  1.00  0.00    -0.198 A  
HETATM   10  C   UNL     1     -12.210   7.839  71.095  1.00  0.00    -0.289 A  
HETATM   11  C   UNL     1     -13.710   9.269  72.194  1.00  0.00    -0.453 A  
HETATM   12  C   UNL     1     -13.347   7.969  71.973  1.00  0.00    -0.276 A  
HETATM   13  S   UNL     1     -12.726  10.353  71.338  1.00  0.00    -0.481 SA 
HETATM   14  C   UNL     1     -11.674   6.469  70.805  1.00  0.00    -0.427 C  
ENDBRANCH   7   9
BRANCH   8  15
HETATM   15  C   UNL     1      -9.601  11.360  68.348  1.00  0.00    -0.197 C  
BRANCH  15  16
HETATM   16  C   UNL     1     -10.226  12.459  67.430  1.00  0.00    -0.208 C  
BRANCH  16  17
HETATM   17  N   UNL     1      -9.648  12.442  66.075  1.00  0.00    -0.235 NA 
HETATM   18  C   UNL     1      -9.150  11.155  65.617  1.00  0.00    -0.205 C  
HETATM   19  C   UNL     1     -10.162  10.416  64.755  1.00  0.00    -0.319 C  
HETATM   20  C   UNL     1     -10.382  11.189  63.468  1.00  0.00    -0.446 C  
HETATM   21  C   UNL     1     -10.780  12.645  63.721  1.00  0.00    -0.454 C  
HETATM   22  C   UNL     1     -12.245  12.970  63.475  1.00  0.00    -0.501 C  
HETATM   23  C   UNL     1     -10.306  13.274  65.058  1.00  0.00    -0.340 C  
HETATM   24  O   UNL     1     -13.131  11.981  63.704  1.00  0.00    -0.756 OA 
HETATM   25  O   UNL     1     -12.619  14.081  63.115  1.00  0.00    -0.733 OA 
ENDBRANCH  16  17
ENDBRANCH  15  16
ENDBRANCH   8  15
ENDBRANCH   3   7
TORSDOF 5
ENDMDL
MODEL       20
REMARK 921   NORMALIZED FREE ENERGY PREDICTED BY IDOCK:   -6.00 KCAL/MOL
REMARK 922        TOTAL FREE ENERGY PREDICTED BY IDOCK:   -9.26 KCAL/MOL
REMARK 923 INTER-LIGAND FREE ENERGY PREDICTED BY IDOCK:   -8.19 KCAL/MOL
REMARK 924 INTRA-LIGAND FREE ENERGY PREDICTED BY IDOCK:   -1.07 KCAL/MOL
REMARK 927      BINDING AFFINITY PREDICTED BY RF-SCORE:    0.00 PKD
ROOT
HETATM    1  C   UNL     1     -10.639   7.808  66.944  1.00  0.00    -0.347 C  
HETATM    2  C   UNL     1      -9.639   8.489  67.824  1.00  0.00    -0.185 A  
HETATM    3  C   UNL     1      -9.882   9.355  68.903  1.00  0.00    -0.171 A  
HETATM    4  C   UNL     1      -7.447   9.054  68.431  1.00  0.00    -0.082 A  
HETATM    5  S   UNL     1      -8.380   9.925  69.559  1.00  0.00    -0.181 SA 
HETATM    6  C   UNL     1      -8.230   8.329  67.573  1.00  0.00    -0.122 A  
ENDROOT
BRANCH   3   7
HETATM    7  C   UNL     1     -11.109   9.880  69.483  1.00  0.00    -0.255 C  
HETATM    8  C   UNL     1     -11.764  10.886  68.848  1.00  0.00    -0.376 C  
BRANCH   7   9
HETATM    9  C   UNL     1     -11.717   9.304  70.687  1.00  0.00    -0.222 A  
HETATM   10  C   UNL     1     -12.545   9.839  71.690  1.00  0.00    -0.509 A  
HETATM   11  C   UNL     1     -12.432   7.603  72.391  1.00  0.00    -0.073 A  
HETATM   12  C   UNL     1     -12.930   8.848  72.664  1.00  0.00    -0.334 A  
HETATM   13  S   UNL     1     -11.474   7.602  70.991  1.00  0.00    -0.277 SA 
HETATM   14  C   UNL     1     -13.063  11.239  71.841  1.00  0.00    -0.510 C  
ENDBRANCH   7   9
BRANCH   8  15
HETATM   15  C   UNL     1     -11.440  11.482  67.492  1.00  0.00    -0.355 C  
BRANCH  15  16
HETATM   16  C   UNL     1     -10.182  12.407  67.454  1.00  0.00    -0.208 C  
BRANCH  16  17
HETATM   17  N   UNL     1      -9.621  12.521  66.097  1.00  0.00    -0.247 NA 
HETATM   18  C   UNL     1      -9.038  11.308  65.549  1.00  0.00    -0.170 C  
HETATM   19  C   UNL     1     -10.007  10.557  64.648  1.00  0.00    -0.415 C  
HETATM   20  C   UNL     1     -10.297  11.395  63.417  1.00  0.00    -0.458 C  
HETATM   21  C   UNL     1     -10.795  12.799  63.771  1.00  0.00    -0.416 C  
HETATM   22  C   UNL     1     -12.283  13.033  63.559  1.00  0.00    -0.501 C  
HETATM   23  C   UNL     1     -10.350  13.370  65.143  1.00  0.00    -0.336 C  
HETATM   24  O   UNL     1     -13.093  11.970  63.729  1.00  0.00    -0.730 OA 
HETATM   25  O   UNL     1     -12.739  14.136  63.278  1.00  0.00    -0.714 OA 
ENDBRANCH  16  17
ENDBRANCH  15  16
ENDBRANCH   8  15
ENDBRANCH   3   7
TORSDOF 5
ENDMDL
MODEL       21
REMARK 921   NORMALIZED FREE ENERGY PREDICTED BY IDOCK:   -6.00 KCAL/MOL
REMARK 922        TOTAL FREE ENERGY PREDICTED BY IDOCK:   -9.25 KCAL/MOL
REMARK 923 INTER-LIGAND FREE ENERGY PREDICTED BY IDOCK:   -7.99 KCAL/MOL
REMARK 924 INTRA-LIGAND FREE ENERGY PREDICTED BY IDOCK:   -1.26 KCAL/MOL
REMARK 927      BINDING AFFINITY PREDICTED BY RF-SCORE:    0.00 PKD
ROOT
HETATM    1  C   UNL     1      -9.455  10.515  64.832  1.00  0.00    -0.304 C  
HETATM    2  C   UNL     1     -10.610  11.463  64.770  1.00  0.00    -0.377 A  
HETATM    3  C   UNL     1     -11.049  12.360  65.758  1.00  0.00    -0.315 A  
HETATM    4  C   UNL     1     -12.500  12.373  63.723  1.00  0.00    -0.492 A  
HETATM    5  S   UNL     1     -12.471  13.194  65.215  1.00  0.00    -0.470 SA 
HETATM    6  C   UNL     1     -11.459  11.489  63.607  1.00  0.00    -0.374 A  
ENDROOT
BRANCH   3   7
HETATM    7  C   UNL     1     -10.582  12.640  67.108  1.00  0.00    -0.252 C  
HETATM    8  C   UNL     1      -9.629  13.588  67.295  1.00  0.00    -0.235 C  
BRANCH   7   9
HETATM    9  C   UNL     1     -11.165  11.996  68.289  1.00  0.00    -0.261 A  
HETATM   10  C   UNL     1     -11.236  10.656  68.711  1.00  0.00    -0.337 A  
HETATM   11  C   UNL     1     -12.264  11.721  70.530  1.00  0.00    -0.347 A  
HETATM   12  C   UNL     1     -11.883  10.522  69.992  1.00  0.00    -0.388 A  
HETATM   13  S   UNL     1     -11.886  13.019  69.506  1.00  0.00    -0.296 SA 
HETATM   14  C   UNL     1     -10.724   9.422  68.028  1.00  0.00    -0.246 C  
ENDBRANCH   7   9
BRANCH   8  15
HETATM   15  C   UNL     1      -9.045  14.523  66.254  1.00  0.00    -0.164 C  
BRANCH  15  16
HETATM   16  C   UNL     1      -8.311  15.780  66.823  1.00  0.00    -0.274 C  
BRANCH  16  17
HETATM   17  N   UNL     1      -9.196  16.600  67.669  1.00  0.00    -0.208 NA 
HETATM   18  C   UNL     1      -8.579  17.187  68.847  1.00  0.00    -0.190 C  
HETATM   19  C   UNL     1      -8.141  18.625  68.614  1.00  0.00    -0.352 C  
HETATM   20  C   UNL     1      -9.365  19.491  68.389  1.00  0.00    -0.431 C  
HETATM   21  C   UNL     1     -10.256  18.961  67.262  1.00  0.00    -0.454 C  
HETATM   22  C   UNL     1     -10.190  19.742  65.959  1.00  0.00    -0.501 C  
HETATM   23  C   UNL     1     -10.189  17.436  66.980  1.00  0.00    -0.323 C  
HETATM   24  O   UNL     1      -9.014  20.331  65.665  1.00  0.00    -0.050 OA 
HETATM   25  O   UNL     1     -11.142  19.815  65.190  1.00  0.00    -0.349 OA 
ENDBRANCH  16  17
ENDBRANCH  15  16
ENDBRANCH   8  15
ENDBRANCH   3   7
TORSDOF 5
ENDMDL
MODEL       22
REMARK 921   NORMALIZED FREE ENERGY PREDICTED BY IDOCK:   -6.00 KCAL/MOL
REMARK 922        TOTAL FREE ENERGY PREDICTED BY IDOCK:   -9.25 KCAL/MOL
REMARK 923 INTER-LIGAND FREE ENERGY PREDICTED BY IDOCK:   -7.81 KCAL/MOL
REMARK 924 INTRA-LIGAND FREE ENERGY PREDICTED BY IDOCK:   -1.44 KCAL/MOL
REMARK 927      BINDING AFFINITY PREDICTED BY RF-SCORE:    0.00 PKD
ROOT
HETATM    1  C   UNL     1      -9.344  11.341  65.443  1.00  0.00    -0.232 C  
HETATM    2  C   UNL     1     -10.531  12.238  65.290  1.00  0.00    -0.315 A  
HETATM    3  C   UNL     1     -11.070  13.131  66.232  1.00  0.00    -0.287 A  
HETATM    4  C   UNL     1     -12.384  13.053  64.108  1.00  0.00    -0.358 A  
HETATM    5  S   UNL     1     -12.486  13.897  65.584  1.00  0.00    -0.499 SA 
HETATM    6  C   UNL     1     -11.302  12.213  64.074  1.00  0.00    -0.468 A  
ENDROOT
BRANCH   3   7
HETATM    7  C   UNL     1     -10.703  13.449  67.605  1.00  0.00    -0.257 C  
HETATM    8  C   UNL     1      -9.765  14.403  67.835  1.00  0.00    -0.223 C  
BRANCH   7   9
HETATM    9  C   UNL     1     -11.374  12.839  68.757  1.00  0.00    -0.288 A  
HETATM   10  C   UNL     1     -11.595  11.503  69.139  1.00  0.00    -0.382 A  
HETATM   11  C   UNL     1     -12.538  12.623  70.972  1.00  0.00    -0.262 A  
HETATM   12  C   UNL     1     -12.277  11.405  70.405  1.00  0.00    -0.450 A  
HETATM   13  S   UNL     1     -12.005  13.900  69.992  1.00  0.00    -0.342 SA 
HETATM   14  C   UNL     1     -11.204  10.241  68.429  1.00  0.00    -0.284 C  
ENDBRANCH   7   9
BRANCH   8  15
HETATM   15  C   UNL     1      -9.104  15.308  66.813  1.00  0.00    -0.283 C  
BRANCH  15  16
HETATM   16  C   UNL     1      -7.586  15.589  67.056  1.00  0.00    -0.193 C  
BRANCH  16  17
HETATM   17  N   UNL     1      -7.341  16.984  67.462  1.00  0.00    -0.150 NA 
HETATM   18  C   UNL     1      -6.342  17.701  66.687  1.00  0.00    -0.200 C  
HETATM   19  C   UNL     1      -6.962  18.555  65.592  1.00  0.00    -0.244 C  
HETATM   20  C   UNL     1      -7.780  19.664  66.226  1.00  0.00    -0.326 C  
HETATM   21  C   UNL     1      -8.822  19.131  67.213  1.00  0.00    -0.317 C  
HETATM   22  C   UNL     1     -10.259  19.155  66.717  1.00  0.00    -0.400 C  
HETATM   23  C   UNL     1      -8.508  17.769  67.888  1.00  0.00    -0.245 C  
HETATM   24  O   UNL     1     -10.445  18.995  65.392  1.00  0.00    -0.475 OA 
HETATM   25  O   UNL     1     -11.213  19.282  67.477  1.00  0.00    -0.326 OA 
ENDBRANCH  16  17
ENDBRANCH  15  16
ENDBRANCH   8  15
ENDBRANCH   3   7
TORSDOF 5
ENDMDL
MODEL       23
REMARK 921   NORMALIZED FREE ENERGY PREDICTED BY IDOCK:   -5.98 KCAL/MOL
REMARK 922        TOTAL FREE ENERGY PREDICTED BY IDOCK:   -9.22 KCAL/MOL
REMARK 923 INTER-LIGAND FREE ENERGY PREDICTED BY IDOCK:   -7.78 KCAL/MOL
REMARK 924 INTRA-LIGAND FREE ENERGY PREDICTED BY IDOCK:   -1.44 KCAL/MOL
REMARK 927      BINDING AFFINITY PREDICTED BY RF-SCORE:    0.00 PKD
ROOT
HETATM    1  C   UNL     1      -9.547   8.498  66.189  1.00  0.00    -0.276 C  
HETATM    2  C   UNL     1      -8.748   9.109  67.295  1.00  0.00    -0.122 A  
HETATM    3  C   UNL     1      -9.200   9.548  68.551  1.00  0.00    -0.131 A  
HETATM    4  C   UNL     1      -6.762   9.966  68.200  1.00  0.00    -0.060 A  
HETATM    5  S   UNL     1      -7.885  10.236  69.451  1.00  0.00    -0.162 SA 
HETATM    6  C   UNL     1      -7.341   9.357  67.117  1.00  0.00    -0.087 A  
ENDROOT
BRANCH   3   7
HETATM    7  C   UNL     1     -10.522   9.586  69.160  1.00  0.00    -0.224 C  
HETATM    8  C   UNL     1     -11.392  10.562  68.793  1.00  0.00    -0.310 C  
BRANCH   7   9
HETATM    9  C   UNL     1     -10.985   8.556  70.094  1.00  0.00    -0.216 A  
HETATM   10  C   UNL     1     -11.165   7.166  69.974  1.00  0.00    -0.271 A  
HETATM   11  C   UNL     1     -11.731   7.466  72.231  1.00  0.00    -0.286 A  
HETATM   12  C   UNL     1     -11.607   6.565  71.208  1.00  0.00    -0.381 A  
HETATM   13  S   UNL     1     -11.355   9.042  71.730  1.00  0.00    -0.379 SA 
HETATM   14  C   UNL     1     -10.941   6.285  68.781  1.00  0.00    -0.424 C  
ENDBRANCH   7   9
BRANCH   8  15
HETATM   15  C   UNL     1     -11.208  11.593  67.696  1.00  0.00    -0.345 C  
BRANCH  15  16
HETATM   16  C   UNL     1     -10.939  13.051  68.190  1.00  0.00    -0.244 C  
BRANCH  16  17
HETATM   17  N   UNL     1     -11.626  14.052  67.356  1.00  0.00    -0.347 NA 
HETATM   18  C   UNL     1     -10.852  15.238  67.027  1.00  0.00    -0.321 C  
HETATM   19  C   UNL     1     -10.197  15.140  65.658  1.00  0.00    -0.387 C  
HETATM   20  C   UNL     1     -11.273  15.113  64.589  1.00  0.00    -0.352 C  
HETATM   21  C   UNL     1     -12.303  14.006  64.825  1.00  0.00    -0.437 C  
HETATM   22  C   UNL     1     -12.185  12.801  63.905  1.00  0.00    -0.463 C  
HETATM   23  C   UNL     1     -12.506  13.545  66.293  1.00  0.00    -0.326 C  
HETATM   24  O   UNL     1     -10.948  12.486  63.475  1.00  0.00    -0.445 OA 
HETATM   25  O   UNL     1     -13.155  12.122  63.586  1.00  0.00    -0.787 OA 
ENDBRANCH  16  17
ENDBRANCH  15  16
ENDBRANCH   8  15
ENDBRANCH   3   7
TORSDOF 5
ENDMDL
MODEL       24
REMARK 921   NORMALIZED FREE ENERGY PREDICTED BY IDOCK:   -5.95 KCAL/MOL
REMARK 922        TOTAL FREE ENERGY PREDICTED BY IDOCK:   -9.19 KCAL/MOL
REMARK 923 INTER-LIGAND FREE ENERGY PREDICTED BY IDOCK:   -8.34 KCAL/MOL
REMARK 924 INTRA-LIGAND FREE ENERGY PREDICTED BY IDOCK:   -0.85 KCAL/MOL
REMARK 927      BINDING AFFINITY PREDICTED BY RF-SCORE:    0.00 PKD
ROOT
HETATM    1  C   UNL     1      -8.481  14.961  69.505  1.00  0.00    -0.004 C  
HETATM    2  C   UNL     1      -9.557  15.409  68.567  1.00  0.00    -0.201 A  
HETATM    3  C   UNL     1     -10.918  15.060  68.579  1.00  0.00    -0.256 A  
HETATM    4  C   UNL     1     -10.315  16.548  66.664  1.00  0.00    -0.298 A  
HETATM    5  S   UNL     1     -11.734  15.803  67.239  1.00  0.00     0.441 SA 
HETATM    6  C   UNL     1      -9.234  16.268  67.458  1.00  0.00    -0.206 A  
ENDROOT
BRANCH   3   7
HETATM    7  C   UNL     1     -11.697  14.176  69.433  1.00  0.00    -0.361 C  
HETATM    8  C   UNL     1     -11.982  12.921  69.002  1.00  0.00    -0.297 C  
BRANCH   7   9
HETATM    9  C   UNL     1     -12.115  14.559  70.785  1.00  0.00    -0.329 A  
HETATM   10  C   UNL     1     -12.757  13.859  71.822  1.00  0.00    -0.393 A  
HETATM   11  C   UNL     1     -12.390  15.923  72.876  1.00  0.00    -0.488 A  
HETATM   12  C   UNL     1     -12.916  14.666  73.007  1.00  0.00    -0.610 A  
HETATM   13  S   UNL     1     -11.727  16.171  71.335  1.00  0.00    -0.372 SA 
HETATM   14  C   UNL     1     -13.247  12.441  71.844  1.00  0.00    -0.486 C  
ENDBRANCH   7   9
BRANCH   8  15
HETATM   15  C   UNL     1     -11.472  12.242  67.744  1.00  0.00    -0.392 C  
BRANCH  15  16
HETATM   16  C   UNL     1      -9.923  12.049  67.673  1.00  0.00    -0.191 C  
BRANCH  16  17
HETATM   17  N   UNL     1      -9.414  12.173  66.296  1.00  0.00    -0.232 NA 
HETATM   18  C   UNL     1      -8.961  10.939  65.677  1.00  0.00    -0.194 C  
HETATM   19  C   UNL     1     -10.027  10.309  64.794  1.00  0.00    -0.392 C  
HETATM   20  C   UNL     1     -10.298  11.219  63.611  1.00  0.00    -0.464 C  
HETATM   21  C   UNL     1     -10.660  12.643  64.040  1.00  0.00    -0.457 C  
HETATM   22  C   UNL     1     -12.130  13.009  63.907  1.00  0.00    -0.471 C  
HETATM   23  C   UNL     1     -10.109  13.118  65.411  1.00  0.00    -0.248 C  
HETATM   24  O   UNL     1     -13.020  12.011  64.073  1.00  0.00    -0.622 OA 
HETATM   25  O   UNL     1     -12.503  14.156  63.689  1.00  0.00    -0.819 OA 
ENDBRANCH  16  17
ENDBRANCH  15  16
ENDBRANCH   8  15
ENDBRANCH   3   7
TORSDOF 5
ENDMDL
MODEL       25
REMARK 921   NORMALIZED FREE ENERGY PREDICTED BY IDOCK:   -5.90 KCAL/MOL
REMARK 922        TOTAL FREE ENERGY PREDICTED BY IDOCK:   -9.12 KCAL/MOL
REMARK 923 INTER-LIGAND FREE ENERGY PREDICTED BY IDOCK:   -7.66 KCAL/MOL
REMARK 924 INTRA-LIGAND FREE ENERGY PREDICTED BY IDOCK:   -1.46 KCAL/MOL
REMARK 927      BINDING AFFINITY PREDICTED BY RF-SCORE:    0.00 PKD
ROOT
HETATM    1  C   UNL     1     -12.643  14.008  65.925  1.00  0.00    -0.484 C  
HETATM    2  C   UNL     1     -11.621  12.949  65.659  1.00  0.00    -0.401 A  
HETATM    3  C   UNL     1     -10.665  12.424  66.546  1.00  0.00    -0.236 A  
HETATM    4  C   UNL     1     -10.490  11.456  64.250  1.00  0.00    -0.342 A  
HETATM    5  S   UNL     1      -9.675  11.254  65.732  1.00  0.00    -0.237 SA 
HETATM    6  C   UNL     1     -11.503  12.374  64.344  1.00  0.00    -0.408 A  
ENDROOT
BRANCH   3   7
HETATM    7  C   UNL     1     -10.338  12.732  67.931  1.00  0.00    -0.228 C  
HETATM    8  C   UNL     1      -9.383  13.660  68.195  1.00  0.00    -0.212 C  
BRANCH   7   9
HETATM    9  C   UNL     1     -11.065  12.140  69.058  1.00  0.00    -0.237 A  
HETATM   10  C   UNL     1     -11.974  12.667  69.993  1.00  0.00    -0.377 A  
HETATM   11  C   UNL     1     -11.962  10.414  70.647  1.00  0.00    -0.351 A  
HETATM   12  C   UNL     1     -12.464  11.661  70.902  1.00  0.00    -0.440 A  
HETATM   13  S   UNL     1     -10.878  10.427  69.343  1.00  0.00    -0.265 SA 
HETATM   14  C   UNL     1     -12.481  14.072  70.129  1.00  0.00    -0.380 C  
ENDBRANCH   7   9
BRANCH   8  15
HETATM   15  C   UNL     1      -8.662  14.548  67.199  1.00  0.00    -0.237 C  
BRANCH  15  16
HETATM   16  C   UNL     1      -7.190  14.911  67.574  1.00  0.00    -0.201 C  
BRANCH  16  17
HETATM   17  N   UNL     1      -7.024  16.353  67.825  1.00  0.00    -0.130 NA 
HETATM   18  C   UNL     1      -6.073  17.039  66.967  1.00  0.00    -0.187 C  
HETATM   19  C   UNL     1      -6.748  17.733  65.793  1.00  0.00    -0.223 C  
HETATM   20  C   UNL     1      -7.625  18.855  66.314  1.00  0.00    -0.293 C  
HETATM   21  C   UNL     1      -8.629  18.373  67.365  1.00  0.00    -0.261 C  
HETATM   22  C   UNL     1     -10.068  18.261  66.886  1.00  0.00    -0.366 C  
HETATM   23  C   UNL     1      -8.232  17.112  68.179  1.00  0.00    -0.224 C  
HETATM   24  O   UNL     1     -10.252  17.949  65.589  1.00  0.00    -0.589 OA 
HETATM   25  O   UNL     1     -11.023  18.414  67.639  1.00  0.00    -0.346 OA 
ENDBRANCH  16  17
ENDBRANCH  15  16
ENDBRANCH   8  15
ENDBRANCH   3   7
TORSDOF 5
ENDMDL
MODEL       26
REMARK 921   NORMALIZED FREE ENERGY PREDICTED BY IDOCK:   -5.89 KCAL/MOL
REMARK 922        TOTAL FREE ENERGY PREDICTED BY IDOCK:   -9.11 KCAL/MOL
REMARK 923 INTER-LIGAND FREE ENERGY PREDICTED BY IDOCK:   -7.88 KCAL/MOL
REMARK 924 INTRA-LIGAND FREE ENERGY PREDICTED BY IDOCK:   -1.23 KCAL/MOL
REMARK 927      BINDING AFFINITY PREDICTED BY RF-SCORE:    0.00 PKD
ROOT
HETATM    1  C   UNL     1     -10.956   6.716  67.491  1.00  0.00    -0.416 C  
HETATM    2  C   UNL     1      -9.671   7.443  67.730  1.00  0.00    -0.171 A  
HETATM    3  C   UNL     1      -9.385   8.393  68.726  1.00  0.00    -0.143 A  
HETATM    4  C   UNL     1      -7.468   8.012  67.170  1.00  0.00    -0.092 A  
HETATM    5  S   UNL     1      -7.764   8.982  68.538  1.00  0.00    -0.098 SA 
HETATM    6  C   UNL     1      -8.552   7.238  66.848  1.00  0.00    -0.124 A  
ENDROOT
BRANCH   3   7
HETATM    7  C   UNL     1     -10.195   8.983  69.781  1.00  0.00    -0.214 C  
HETATM    8  C   UNL     1     -10.992  10.043  69.490  1.00  0.00    -0.289 C  
BRANCH   7   9
HETATM    9  C   UNL     1     -10.252   8.420  71.134  1.00  0.00    -0.202 A  
HETATM   10  C   UNL     1     -11.270   7.774  71.859  1.00  0.00    -0.310 A  
HETATM   11  C   UNL     1      -9.509   7.645  73.404  1.00  0.00    -0.273 A  
HETATM   12  C   UNL     1     -10.824   7.351  73.164  1.00  0.00    -0.435 A  
HETATM   13  S   UNL     1      -8.796   8.455  72.096  1.00  0.00    -0.217 SA 
HETATM   14  C   UNL     1     -12.679   7.472  71.445  1.00  0.00    -0.382 C  
ENDBRANCH   7   9
BRANCH   8  15
HETATM   15  C   UNL     1     -11.255  10.648  68.124  1.00  0.00    -0.366 C  
BRANCH  15  16
HETATM   16  C   UNL     1     -10.846  12.148  67.970  1.00  0.00    -0.222 C  
BRANCH  16  17
HETATM   17  N   UNL     1     -10.057  12.382  66.748  1.00  0.00    -0.212 NA 
HETATM   18  C   UNL     1      -9.441  11.206  66.158  1.00  0.00    -0.204 C  
HETATM   19  C   UNL     1     -10.271  10.624  65.025  1.00  0.00    -0.380 C  
HETATM   20  C   UNL     1     -10.312  11.614  63.876  1.00  0.00    -0.417 C  
HETATM   21  C   UNL     1     -10.805  12.996  64.313  1.00  0.00    -0.430 C  
HETATM   22  C   UNL     1     -12.223  13.344  63.890  1.00  0.00    -0.415 C  
HETATM   23  C   UNL     1     -10.577  13.378  65.800  1.00  0.00    -0.282 C  
HETATM   24  O   UNL     1     -13.094  12.321  63.791  1.00  0.00    -0.780 OA 
HETATM   25  O   UNL     1     -12.579  14.497  63.676  1.00  0.00    -0.798 OA 
ENDBRANCH  16  17
ENDBRANCH  15  16
ENDBRANCH   8  15
ENDBRANCH   3   7
TORSDOF 5
ENDMDL
MODEL       27
REMARK 921   NORMALIZED FREE ENERGY PREDICTED BY IDOCK:   -5.88 KCAL/MOL
REMARK 922        TOTAL FREE ENERGY PREDICTED BY IDOCK:   -9.09 KCAL/MOL
REMARK 923 INTER-LIGAND FREE ENERGY PREDICTED BY IDOCK:   -7.74 KCAL/MOL
REMARK 924 INTRA-LIGAND FREE ENERGY PREDICTED BY IDOCK:   -1.35 KCAL/MOL
REMARK 927      BINDING AFFINITY PREDICTED BY RF-SCORE:    0.00 PKD
ROOT
HETATM    1  C   UNL     1      -9.250   8.864  65.486  1.00  0.00    -0.242 C  
HETATM    2  C   UNL     1      -8.557   9.594  66.592  1.00  0.00    -0.137 A  
HETATM    3  C   UNL     1      -9.035   9.862  67.886  1.00  0.00    -0.128 A  
HETATM    4  C   UNL     1      -6.776  10.843  67.463  1.00  0.00    -0.074 A  
HETATM    5  S   UNL     1      -7.867  10.794  68.770  1.00  0.00    -0.137 SA 
HETATM    6  C   UNL     1      -7.254  10.166  66.372  1.00  0.00    -0.108 A  
ENDROOT
BRANCH   3   7
HETATM    7  C   UNL     1     -10.299   9.569  68.546  1.00  0.00    -0.234 C  
HETATM    8  C   UNL     1     -11.337  10.431  68.400  1.00  0.00    -0.292 C  
BRANCH   7   9
HETATM    9  C   UNL     1     -10.523   8.329  69.295  1.00  0.00    -0.210 A  
HETATM   10  C   UNL     1     -10.783   8.065  70.652  1.00  0.00    -0.235 A  
HETATM   11  C   UNL     1     -10.898   5.892  69.774  1.00  0.00    -0.377 A  
HETATM   12  C   UNL     1     -10.981   6.659  70.905  1.00  0.00    -0.315 A  
HETATM   13  S   UNL     1     -10.554   6.828  68.403  1.00  0.00    -0.233 SA 
HETATM   14  C   UNL     1     -10.895   9.027  71.798  1.00  0.00    -0.437 C  
ENDBRANCH   7   9
BRANCH   8  15
HETATM   15  C   UNL     1     -11.399  11.653  67.503  1.00  0.00    -0.364 C  
BRANCH  15  16
HETATM   16  C   UNL     1     -11.486  13.023  68.249  1.00  0.00    -0.312 C  
BRANCH  16  17
HETATM   17  N   UNL     1     -11.906  14.114  67.352  1.00  0.00    -0.396 NA 
HETATM   18  C   UNL     1     -10.955  15.200  67.190  1.00  0.00    -0.326 C  
HETATM   19  C   UNL     1     -10.105  15.044  65.938  1.00  0.00    -0.343 C  
HETATM   20  C   UNL     1     -10.991  15.165  64.714  1.00  0.00    -0.394 C  
HETATM   21  C   UNL     1     -12.171  14.190  64.747  1.00  0.00    -0.457 C  
HETATM   22  C   UNL     1     -12.051  12.994  63.815  1.00  0.00    -0.502 C  
HETATM   23  C   UNL     1     -12.659  13.735  66.148  1.00  0.00    -0.371 C  
HETATM   24  O   UNL     1     -10.807  12.536  63.574  1.00  0.00    -0.440 OA 
HETATM   25  O   UNL     1     -13.031  12.444  63.325  1.00  0.00    -0.675 OA 
ENDBRANCH  16  17
ENDBRANCH  15  16
ENDBRANCH   8  15
ENDBRANCH   3   7
TORSDOF 5
ENDMDL
MODEL       28
REMARK 921   NORMALIZED FREE ENERGY PREDICTED BY IDOCK:   -5.86 KCAL/MOL
REMARK 922        TOTAL FREE ENERGY PREDICTED BY IDOCK:   -9.08 KCAL/MOL
REMARK 923 INTER-LIGAND FREE ENERGY PREDICTED BY IDOCK:   -7.72 KCAL/MOL
REMARK 924 INTRA-LIGAND FREE ENERGY PREDICTED BY IDOCK:   -1.36 KCAL/MOL
REMARK 927      BINDING AFFINITY PREDICTED BY RF-SCORE:    0.00 PKD
ROOT
HETATM    1  C   UNL     1      -8.603  13.268  68.374  1.00  0.00    -0.130 C  
HETATM    2  C   UNL     1      -9.888  13.426  67.625  1.00  0.00    -0.226 A  
HETATM    3  C   UNL     1     -11.198  13.289  68.113  1.00  0.00    -0.270 A  
HETATM    4  C   UNL     1     -11.123  13.775  65.664  1.00  0.00    -0.295 A  
HETATM    5  S   UNL     1     -12.340  13.517  66.827  1.00  0.00    -0.181 SA 
HETATM    6  C   UNL     1      -9.869  13.709  66.213  1.00  0.00    -0.310 A  
ENDROOT
BRANCH   3   7
HETATM    7  C   UNL     1     -11.725  12.938  69.424  1.00  0.00    -0.382 C  
HETATM    8  C   UNL     1     -11.739  11.635  69.804  1.00  0.00    -0.425 C  
BRANCH   7   9
HETATM    9  C   UNL     1     -12.164  13.949  70.390  1.00  0.00    -0.368 A  
HETATM   10  C   UNL     1     -11.926  15.331  70.503  1.00  0.00    -0.384 A  
HETATM   11  C   UNL     1     -13.388  15.010  72.310  1.00  0.00    -0.398 A  
HETATM   12  C   UNL     1     -12.627  15.915  71.620  1.00  0.00    -0.475 A  
HETATM   13  S   UNL     1     -13.255  13.450  71.659  1.00  0.00    -0.328 SA 
HETATM   14  C   UNL     1     -11.091  16.220  69.630  1.00  0.00    -0.333 C  
ENDBRANCH   7   9
BRANCH   8  15
HETATM   15  C   UNL     1     -11.140  10.454  69.063  1.00  0.00    -0.297 C  
BRANCH  15  16
HETATM   16  C   UNL     1      -9.774   9.941  69.620  1.00  0.00    -0.229 C  
BRANCH  16  17
HETATM   17  N   UNL     1      -9.890   8.600  70.219  1.00  0.00    -0.174 NA 
HETATM   18  C   UNL     1      -9.020   8.337  71.353  1.00  0.00    -0.166 C  
HETATM   19  C   UNL     1      -9.724   8.550  72.685  1.00  0.00    -0.285 C  
HETATM   20  C   UNL     1     -10.825   7.518  72.838  1.00  0.00    -0.425 C  
HETATM   21  C   UNL     1     -11.797   7.520  71.655  1.00  0.00    -0.322 C  
HETATM   22  C   UNL     1     -13.154   8.148  71.930  1.00  0.00    -0.327 C  
HETATM   23  C   UNL     1     -11.238   8.019  70.296  1.00  0.00    -0.190 C  
HETATM   24  O   UNL     1     -13.186   9.153  72.827  1.00  0.00    -0.394 OA 
HETATM   25  O   UNL     1     -14.172   7.789  71.350  1.00  0.00    -0.405 OA 
ENDBRANCH  16  17
ENDBRANCH  15  16
ENDBRANCH   8  15
ENDBRANCH   3   7
TORSDOF 5
ENDMDL
MODEL       29
REMARK 921   NORMALIZED FREE ENERGY PREDICTED BY IDOCK:   -5.73 KCAL/MOL
REMARK 922        TOTAL FREE ENERGY PREDICTED BY IDOCK:   -8.91 KCAL/MOL
REMARK 923 INTER-LIGAND FREE ENERGY PREDICTED BY IDOCK:   -8.13 KCAL/MOL
REMARK 924 INTRA-LIGAND FREE ENERGY PREDICTED BY IDOCK:   -0.78 KCAL/MOL
REMARK 927      BINDING AFFINITY PREDICTED BY RF-SCORE:    0.00 PKD
ROOT
HETATM    1  C   UNL     1     -11.615   6.269  70.009  1.00  0.00    -0.378 C  
HETATM    2  C   UNL     1     -12.222   7.438  70.718  1.00  0.00    -0.204 A  
HETATM    3  C   UNL     1     -11.633   8.682  71.000  1.00  0.00    -0.281 A  
HETATM    4  C   UNL     1     -13.949   8.477  71.914  1.00  0.00    -0.437 A  
HETATM    5  S   UNL     1     -12.739   9.675  71.896  1.00  0.00    -0.410 SA 
HETATM    6  C   UNL     1     -13.556   7.344  71.251  1.00  0.00    -0.341 A  
ENDROOT
BRANCH   3   7
HETATM    7  C   UNL     1     -10.304   9.219  70.744  1.00  0.00    -0.348 C  
HETATM    8  C   UNL     1     -10.156  10.206  69.824  1.00  0.00    -0.269 C  
BRANCH   7   9
HETATM    9  C   UNL     1      -9.127   8.796  71.508  1.00  0.00    -0.252 A  
HETATM   10  C   UNL     1      -8.971   8.056  72.694  1.00  0.00    -0.280 A  
HETATM   11  C   UNL     1      -6.723   8.400  72.119  1.00  0.00    -0.085 A  
HETATM   12  C   UNL     1      -7.584   7.854  73.031  1.00  0.00    -0.154 A  
HETATM   13  S   UNL     1      -7.551   9.187  70.865  1.00  0.00    -0.099 SA 
HETATM   14  C   UNL     1     -10.024   7.467  73.585  1.00  0.00    -0.379 C  
ENDBRANCH   7   9
BRANCH   8  15
HETATM   15  C   UNL     1     -11.253  10.943  69.079  1.00  0.00    -0.327 C  
BRANCH  15  16
HETATM   16  C   UNL     1     -11.374  10.597  67.560  1.00  0.00    -0.162 C  
BRANCH  16  17
HETATM   17  N   UNL     1     -10.436  11.381  66.739  1.00  0.00    -0.234 NA 
HETATM   18  C   UNL     1      -9.525  10.610  65.909  1.00  0.00    -0.196 C  
HETATM   19  C   UNL     1     -10.025  10.468  64.480  1.00  0.00    -0.413 C  
HETATM   20  C   UNL     1     -10.036  11.833  63.817  1.00  0.00    -0.421 C  
HETATM   21  C   UNL     1     -10.836  12.864  64.617  1.00  0.00    -0.365 C  
HETATM   22  C   UNL     1     -12.196  13.223  64.039  1.00  0.00    -0.410 C  
HETATM   23  C   UNL     1     -10.947  12.625  66.146  1.00  0.00    -0.282 C  
HETATM   24  O   UNL     1     -12.840  12.254  63.359  1.00  0.00    -0.754 OA 
HETATM   25  O   UNL     1     -12.707  14.326  64.201  1.00  0.00    -0.652 OA 
ENDBRANCH  16  17
ENDBRANCH  15  16
ENDBRANCH   8  15
ENDBRANCH   3   7
TORSDOF 5
ENDMDL
MODEL       30
REMARK 921   NORMALIZED FREE ENERGY PREDICTED BY IDOCK:   -5.72 KCAL/MOL
REMARK 922        TOTAL FREE ENERGY PREDICTED BY IDOCK:   -8.89 KCAL/MOL
REMARK 923 INTER-LIGAND FREE ENERGY PREDICTED BY IDOCK:   -7.58 KCAL/MOL
REMARK 924 INTRA-LIGAND FREE ENERGY PREDICTED BY IDOCK:   -1.31 KCAL/MOL
REMARK 927      BINDING AFFINITY PREDICTED BY RF-SCORE:    0.00 PKD
ROOT
HETATM    1  C   UNL     1      -9.359   8.628  66.323  1.00  0.00    -0.282 C  
HETATM    2  C   UNL     1      -8.762   9.871  66.902  1.00  0.00    -0.135 A  
HETATM    3  C   UNL     1      -9.412  11.072  67.236  1.00  0.00    -0.164 A  
HETATM    4  C   UNL     1      -6.946  11.168  67.620  1.00  0.00    -0.084 A  
HETATM    5  S   UNL     1      -8.261  12.231  67.820  1.00  0.00    -0.174 SA 
HETATM    6  C   UNL     1      -7.343   9.949  67.134  1.00  0.00    -0.091 A  
ENDROOT
BRANCH   3   7
HETATM    7  C   UNL     1     -10.797  11.504  67.113  1.00  0.00    -0.314 C  
HETATM    8  C   UNL     1     -11.688  11.150  68.073  1.00  0.00    -0.288 C  
BRANCH   7   9
HETATM    9  C   UNL     1     -11.251  12.386  66.033  1.00  0.00    -0.335 A  
HETATM   10  C   UNL     1     -11.684  13.724  66.008  1.00  0.00    -0.383 A  
HETATM   11  C   UNL     1     -11.768  13.215  63.719  1.00  0.00    -0.461 A  
HETATM   12  C   UNL     1     -11.988  14.173  64.672  1.00  0.00    -0.459 A  
HETATM   13  S   UNL     1     -11.226  11.761  64.402  1.00  0.00    -0.294 SA 
HETATM   14  C   UNL     1     -11.836  14.689  67.147  1.00  0.00    -0.367 C  
ENDBRANCH   7   9
BRANCH   8  15
HETATM   15  C   UNL     1     -11.398  10.433  69.378  1.00  0.00    -0.310 C  
BRANCH  15  16
HETATM   16  C   UNL     1     -12.278  10.877  70.592  1.00  0.00    -0.376 C  
BRANCH  16  17
HETATM   17  N   UNL     1     -12.257   9.885  71.680  1.00  0.00    -0.401 NA 
HETATM   18  C   UNL     1     -13.556   9.397  72.116  1.00  0.00    -0.457 C  
HETATM   19  C   UNL     1     -13.926   8.075  71.463  1.00  0.00    -0.433 C  
HETATM   20  C   UNL     1     -12.968   6.998  71.937  1.00  0.00    -0.283 C  
HETATM   21  C   UNL     1     -11.503   7.376  71.704  1.00  0.00    -0.294 C  
HETATM   22  C   UNL     1     -10.819   6.652  70.554  1.00  0.00    -0.261 C  
HETATM   23  C   UNL     1     -11.174   8.892  71.658  1.00  0.00    -0.345 C  
HETATM   24  O   UNL     1     -11.597   6.303  69.511  1.00  0.00    -0.423 OA 
HETATM   25  O   UNL     1      -9.616   6.418  70.550  1.00  0.00    -0.164 OA 
ENDBRANCH  16  17
ENDBRANCH  15  16
ENDBRANCH   8  15
ENDBRANCH   3   7
TORSDOF 5
ENDMDL
MODEL       31
REMARK 921   NORMALIZED FREE ENERGY PREDICTED BY IDOCK:   -5.70 KCAL/MOL
REMARK 922        TOTAL FREE ENERGY PREDICTED BY IDOCK:   -8.87 KCAL/MOL
REMARK 923 INTER-LIGAND FREE ENERGY PREDICTED BY IDOCK:   -7.89 KCAL/MOL
REMARK 924 INTRA-LIGAND FREE ENERGY PREDICTED BY IDOCK:   -0.97 KCAL/MOL
REMARK 927      BINDING AFFINITY PREDICTED BY RF-SCORE:    0.00 PKD
ROOT
HETATM    1  C   UNL     1     -12.349  12.879  65.257  1.00  0.00    -0.544 C  
HETATM    2  C   UNL     1     -11.097  12.303  65.840  1.00  0.00    -0.360 A  
HETATM    3  C   UNL     1     -10.567  12.504  67.126  1.00  0.00    -0.228 A  
HETATM    4  C   UNL     1      -9.117  11.058  65.695  1.00  0.00    -0.206 A  
HETATM    5  S   UNL     1      -9.062  11.656  67.289  1.00  0.00    -0.172 SA 
HETATM    6  C   UNL     1     -10.247  11.465  65.035  1.00  0.00    -0.333 A  
ENDROOT
BRANCH   3   7
HETATM    7  C   UNL     1     -11.007  13.313  68.253  1.00  0.00    -0.280 C  
HETATM    8  C   UNL     1     -11.646  12.713  69.289  1.00  0.00    -0.376 C  
BRANCH   7   9
HETATM    9  C   UNL     1     -10.708  14.745  68.355  1.00  0.00    -0.243 A  
HETATM   10  C   UNL     1     -10.198  15.683  67.439  1.00  0.00    -0.264 A  
HETATM   11  C   UNL     1     -10.582  17.073  69.289  1.00  0.00    -0.276 A  
HETATM   12  C   UNL     1     -10.122  17.008  68.002  1.00  0.00    -0.305 A  
HETATM   13  S   UNL     1     -11.082  15.554  69.856  1.00  0.00    -0.342 SA 
HETATM   14  C   UNL     1      -9.769  15.478  66.016  1.00  0.00    -0.378 C  
ENDBRANCH   7   9
BRANCH   8  15
HETATM   15  C   UNL     1     -11.868  11.227  69.497  1.00  0.00    -0.427 C  
BRANCH  15  16
HETATM   16  C   UNL     1     -12.906  10.857  70.606  1.00  0.00    -0.255 C  
BRANCH  16  17
HETATM   17  N   UNL     1     -12.353   9.903  71.582  1.00  0.00    -0.395 NA 
HETATM   18  C   UNL     1     -13.321   9.046  72.246  1.00  0.00    -0.467 C  
HETATM   19  C   UNL     1     -13.435   7.681  71.585  1.00  0.00    -0.415 C  
HETATM   20  C   UNL     1     -12.127   6.932  71.755  1.00  0.00    -0.385 C  
HETATM   21  C   UNL     1     -10.925   7.732  71.244  1.00  0.00    -0.259 C  
HETATM   22  C   UNL     1     -10.345   7.259  69.921  1.00  0.00    -0.219 C  
HETATM   23  C   UNL     1     -11.065   9.277  71.249  1.00  0.00    -0.357 C  
HETATM   24  O   UNL     1     -11.207   6.707  69.044  1.00  0.00    -0.269 OA 
HETATM   25  O   UNL     1      -9.159   7.393  69.639  1.00  0.00    -0.141 OA 
ENDBRANCH  16  17
ENDBRANCH  15  16
ENDBRANCH   8  15
ENDBRANCH   3   7
TORSDOF 5
ENDMDL
MODEL       32
REMARK 921   NORMALIZED FREE ENERGY PREDICTED BY IDOCK:   -5.66 KCAL/MOL
REMARK 922        TOTAL FREE ENERGY PREDICTED BY IDOCK:   -8.81 KCAL/MOL
REMARK 923 INTER-LIGAND FREE ENERGY PREDICTED BY IDOCK:   -7.67 KCAL/MOL
REMARK 924 INTRA-LIGAND FREE ENERGY PREDICTED BY IDOCK:   -1.14 KCAL/MOL
REMARK 927      BINDING AFFINITY PREDICTED BY RF-SCORE:    0.00 PKD
ROOT
HETATM    1  C   UNL     1     -10.624  10.959  68.836  1.00  0.00    -0.241 C  
HETATM    2  C   UNL     1     -11.171  12.349  68.919  1.00  0.00    -0.330 A  
HETATM    3  C   UNL     1     -10.972  13.414  68.024  1.00  0.00    -0.244 A  
HETATM    4  C   UNL     1     -12.354  14.057  70.003  1.00  0.00    -0.337 A  
HETATM    5  S   UNL     1     -11.777  14.838  68.604  1.00  0.00    -0.313 SA 
HETATM    6  C   UNL     1     -11.972  12.742  70.049  1.00  0.00    -0.371 A  
ENDROOT
BRANCH   3   7
HETATM    7  C   UNL     1     -10.191  13.535  66.801  1.00  0.00    -0.264 C  
HETATM    8  C   UNL     1      -8.953  14.089  66.859  1.00  0.00    -0.243 C  
BRANCH   7   9
HETATM    9  C   UNL     1     -10.655  13.000  65.518  1.00  0.00    -0.282 A  
HETATM   10  C   UNL     1     -11.483  13.521  64.507  1.00  0.00    -0.407 A  
HETATM   11  C   UNL     1     -10.888  11.468  63.541  1.00  0.00    -0.398 A  
HETATM   12  C   UNL     1     -11.613  12.618  63.390  1.00  0.00    -0.536 A  
HETATM   13  S   UNL     1     -10.068  11.430  65.026  1.00  0.00    -0.290 SA 
HETATM   14  C   UNL     1     -12.188  14.844  64.452  1.00  0.00    -0.399 C  
ENDBRANCH   7   9
BRANCH   8  15
HETATM   15  C   UNL     1      -8.190  14.508  68.101  1.00  0.00    -0.146 C  
BRANCH  15  16
HETATM   16  C   UNL     1      -7.194  15.695  67.901  1.00  0.00    -0.137 C  
BRANCH  16  17
HETATM   17  N   UNL     1      -7.583  16.881  68.684  1.00  0.00    -0.221 NA 
HETATM   18  C   UNL     1      -6.501  17.574  69.362  1.00  0.00    -0.230 C  
HETATM   19  C   UNL     1      -5.991  18.767  68.568  1.00  0.00    -0.217 C  
HETATM   20  C   UNL     1      -7.084  19.816  68.485  1.00  0.00    -0.353 C  
HETATM   21  C   UNL     1      -8.392  19.253  67.921  1.00  0.00    -0.338 C  
HETATM   22  C   UNL     1      -8.709  19.656  66.489  1.00  0.00    -0.362 C  
HETATM   23  C   UNL     1      -8.639  17.735  68.121  1.00  0.00    -0.262 C  
HETATM   24  O   UNL     1      -7.658  19.862  65.671  1.00  0.00    -0.332 OA 
HETATM   25  O   UNL     1      -9.859  19.762  66.078  1.00  0.00    -0.418 OA 
ENDBRANCH  16  17
ENDBRANCH  15  16
ENDBRANCH   8  15
ENDBRANCH   3   7
TORSDOF 5
ENDMDL
MODEL       33
REMARK 921   NORMALIZED FREE ENERGY PREDICTED BY IDOCK:   -5.64 KCAL/MOL
REMARK 922        TOTAL FREE ENERGY PREDICTED BY IDOCK:   -8.79 KCAL/MOL
REMARK 923 INTER-LIGAND FREE ENERGY PREDICTED BY IDOCK:   -7.36 KCAL/MOL
REMARK 924 INTRA-LIGAND FREE ENERGY PREDICTED BY IDOCK:   -1.43 KCAL/MOL
REMARK 927      BINDING AFFINITY PREDICTED BY RF-SCORE:    0.00 PKD
ROOT
HETATM    1  C   UNL     1     -12.696  13.624  66.038  1.00  0.00    -0.366 C  
HETATM    2  C   UNL     1     -11.814  12.606  65.386  1.00  0.00    -0.473 A  
HETATM    3  C   UNL     1     -10.720  11.923  65.944  1.00  0.00    -0.284 A  
HETATM    4  C   UNL     1     -11.096  11.353  63.541  1.00  0.00    -0.285 A  
HETATM    5  S   UNL     1      -9.994  10.890  64.754  1.00  0.00    -0.333 SA 
HETATM    6  C   UNL     1     -12.013  12.260  64.003  1.00  0.00    -0.551 A  
ENDROOT
BRANCH   3   7
HETATM    7  C   UNL     1     -10.088  11.986  67.254  1.00  0.00    -0.208 C  
HETATM    8  C   UNL     1      -9.237  13.008  67.529  1.00  0.00    -0.195 C  
BRANCH   7   9
HETATM    9  C   UNL     1     -10.402  11.035  68.324  1.00  0.00    -0.178 A  
HETATM   10  C   UNL     1     -11.206  11.120  69.474  1.00  0.00    -0.341 A  
HETATM   11  C   UNL     1     -10.503   8.887  69.622  1.00  0.00    -0.216 A  
HETATM   12  C   UNL     1     -11.237   9.880  70.210  1.00  0.00    -0.364 A  
HETATM   13  S   UNL     1      -9.742   9.422  68.204  1.00  0.00    -0.148 SA 
HETATM   14  C   UNL     1     -12.008  12.281  69.982  1.00  0.00    -0.379 C  
ENDBRANCH   7   9
BRANCH   8  15
HETATM   15  C   UNL     1      -8.935  14.213  66.659  1.00  0.00    -0.193 C  
BRANCH  15  16
HETATM   16  C   UNL     1      -7.705  15.066  67.106  1.00  0.00    -0.167 C  
BRANCH  16  17
HETATM   17  N   UNL     1      -8.096  16.424  67.522  1.00  0.00    -0.145 NA 
HETATM   18  C   UNL     1      -8.587  17.292  66.464  1.00  0.00    -0.264 C  
HETATM   19  C   UNL     1     -10.107  17.313  66.393  1.00  0.00    -0.321 C  
HETATM   20  C   UNL     1     -10.657  17.949  67.656  1.00  0.00    -0.398 C  
HETATM   21  C   UNL     1     -10.140  17.269  68.926  1.00  0.00    -0.331 C  
HETATM   22  C   UNL     1     -11.144  16.379  69.641  1.00  0.00    -0.306 C  
HETATM   23  C   UNL     1      -8.765  16.557  68.823  1.00  0.00    -0.259 C  
HETATM   24  O   UNL     1     -12.058  15.757  68.871  1.00  0.00    -0.333 OA 
HETATM   25  O   UNL     1     -11.115  16.201  70.854  1.00  0.00    -0.321 OA 
ENDBRANCH  16  17
ENDBRANCH  15  16
ENDBRANCH   8  15
ENDBRANCH   3   7
TORSDOF 5
ENDMDL
MODEL       34
REMARK 921   NORMALIZED FREE ENERGY PREDICTED BY IDOCK:   -5.60 KCAL/MOL
REMARK 922        TOTAL FREE ENERGY PREDICTED BY IDOCK:   -8.74 KCAL/MOL
REMARK 923 INTER-LIGAND FREE ENERGY PREDICTED BY IDOCK:   -7.67 KCAL/MOL
REMARK 924 INTRA-LIGAND FREE ENERGY PREDICTED BY IDOCK:   -1.08 KCAL/MOL
REMARK 927      BINDING AFFINITY PREDICTED BY RF-SCORE:    0.00 PKD
ROOT
HETATM    1  C   UNL     1     -11.040   6.455  67.441  1.00  0.00    -0.412 C  
HETATM    2  C   UNL     1     -10.135   6.431  68.632  1.00  0.00    -0.179 A  
HETATM    3  C   UNL     1      -9.960   7.427  69.608  1.00  0.00    -0.182 A  
HETATM    4  C   UNL     1      -8.466   5.456  69.957  1.00  0.00    -0.111 A  
HETATM    5  S   UNL     1      -8.750   6.936  70.750  1.00  0.00    -0.146 SA 
HETATM    6  C   UNL     1      -9.267   5.305  68.855  1.00  0.00    -0.150 A  
ENDROOT
BRANCH   3   7
HETATM    7  C   UNL     1     -10.538   8.753  69.772  1.00  0.00    -0.227 C  
HETATM    8  C   UNL     1     -10.069   9.777  69.014  1.00  0.00    -0.195 C  
BRANCH   7   9
HETATM    9  C   UNL     1     -11.672   9.010  70.665  1.00  0.00    -0.198 A  
HETATM   10  C   UNL     1     -12.461   8.173  71.474  1.00  0.00    -0.333 A  
HETATM   11  C   UNL     1     -13.392  10.261  72.000  1.00  0.00    -0.361 A  
HETATM   12  C   UNL     1     -13.450   8.912  72.220  1.00  0.00    -0.503 A  
HETATM   13  S   UNL     1     -12.184  10.666  70.882  1.00  0.00    -0.415 SA 
HETATM   14  C   UNL     1     -12.380   6.687  71.658  1.00  0.00    -0.382 C  
ENDBRANCH   7   9
BRANCH   8  15
HETATM   15  C   UNL     1      -9.061   9.699  67.883  1.00  0.00    -0.130 C  
BRANCH  15  16
HETATM   16  C   UNL     1      -9.674   9.682  66.446  1.00  0.00    -0.224 C  
BRANCH  16  17
HETATM   17  N   UNL     1      -9.343  10.903  65.691  1.00  0.00    -0.198 NA 
HETATM   18  C   UNL     1      -9.064  10.715  64.276  1.00  0.00    -0.220 C  
HETATM   19  C   UNL     1     -10.280  10.992  63.405  1.00  0.00    -0.404 C  
HETATM   20  C   UNL     1     -10.640  12.462  63.502  1.00  0.00    -0.451 C  
HETATM   21  C   UNL     1     -10.839  12.921  64.949  1.00  0.00    -0.331 C  
HETATM   22  C   UNL     1     -12.284  13.145  65.366  1.00  0.00    -0.461 C  
HETATM   23  C   UNL     1     -10.080  12.125  66.043  1.00  0.00    -0.235 C  
HETATM   24  O   UNL     1     -13.213  12.369  64.773  1.00  0.00    -0.784 OA 
HETATM   25  O   UNL     1     -12.600  13.965  66.220  1.00  0.00    -0.435 OA 
ENDBRANCH  16  17
ENDBRANCH  15  16
ENDBRANCH   8  15
ENDBRANCH   3   7
TORSDOF 5
ENDMDL
MODEL       35
REMARK 921   NORMALIZED FREE ENERGY PREDICTED BY IDOCK:   -5.56 KCAL/MOL
REMARK 922        TOTAL FREE ENERGY PREDICTED BY IDOCK:   -8.69 KCAL/MOL
REMARK 923 INTER-LIGAND FREE ENERGY PREDICTED BY IDOCK:   -7.58 KCAL/MOL
REMARK 924 INTRA-LIGAND FREE ENERGY PREDICTED BY IDOCK:   -1.11 KCAL/MOL
REMARK 927      BINDING AFFINITY PREDICTED BY RF-SCORE:    0.00 PKD
ROOT
HETATM    1  C   UNL     1      -9.247  14.545  66.160  1.00  0.00    -0.175 C  
HETATM    2  C   UNL     1      -8.305  14.877  67.273  1.00  0.00    -0.233 A  
HETATM    3  C   UNL     1      -8.404  15.918  68.211  1.00  0.00    -0.165 A  
HETATM    4  C   UNL     1      -6.317  14.571  68.476  1.00  0.00    -0.088 A  
HETATM    5  S   UNL     1      -7.022  15.908  69.260  1.00  0.00    -0.206 SA 
HETATM    6  C   UNL     1      -7.096  14.113  67.446  1.00  0.00    -0.101 A  
ENDROOT
BRANCH   3   7
HETATM    7  C   UNL     1      -9.379  16.984  68.395  1.00  0.00    -0.266 C  
HETATM    8  C   UNL     1     -10.410  16.796  69.258  1.00  0.00    -0.309 C  
BRANCH   7   9
HETATM    9  C   UNL     1      -9.241  18.292  67.748  1.00  0.00    -0.270 A  
HETATM   10  C   UNL     1      -8.392  19.389  67.978  1.00  0.00    -0.354 A  
HETATM   11  C   UNL     1      -9.570  20.161  66.102  1.00  0.00    -0.329 A  
HETATM   12  C   UNL     1      -8.608  20.454  67.030  1.00  0.00    -0.370 A  
HETATM   13  S   UNL     1     -10.250  18.629  66.362  1.00  0.00    -0.440 SA 
HETATM   14  C   UNL     1      -7.330  19.558  69.024  1.00  0.00    -0.392 C  
ENDBRANCH   7   9
BRANCH   8  15
HETATM   15  C   UNL     1     -10.627  15.619  70.189  1.00  0.00    -0.348 C  
BRANCH  15  16
HETATM   16  C   UNL     1     -11.076  14.294  69.494  1.00  0.00    -0.204 C  
BRANCH  16  17
HETATM   17  N   UNL     1     -12.441  13.900  69.886  1.00  0.00    -0.290 NA 
HETATM   18  C   UNL     1     -12.625  12.495  70.207  1.00  0.00     0.045 C  
HETATM   19  C   UNL     1     -12.555  12.229  71.703  1.00  0.00    -0.198 C  
HETATM   20  C   UNL     1     -13.729  12.905  72.386  1.00  0.00    -0.530 C  
HETATM   21  C   UNL     1     -13.815  14.398  72.060  1.00  0.00    -0.567 C  
HETATM   22  C   UNL     1     -13.383  15.334  73.178  1.00  0.00    -0.475 C  
HETATM   23  C   UNL     1     -13.199  14.852  70.710  1.00  0.00    -0.329 C  
HETATM   24  O   UNL     1     -12.424  14.882  74.009  1.00  0.00    -0.541 OA 
HETATM   25  O   UNL     1     -13.854  16.457  73.311  1.00  0.00    -0.447 OA 
ENDBRANCH  16  17
ENDBRANCH  15  16
ENDBRANCH   8  15
ENDBRANCH   3   7
TORSDOF 5
ENDMDL
MODEL       36
REMARK 921   NORMALIZED FREE ENERGY PREDICTED BY IDOCK:   -5.56 KCAL/MOL
REMARK 922        TOTAL FREE ENERGY PREDICTED BY IDOCK:   -8.69 KCAL/MOL
REMARK 923 INTER-LIGAND FREE ENERGY PREDICTED BY IDOCK:   -7.20 KCAL/MOL
REMARK 924 INTRA-LIGAND FREE ENERGY PREDICTED BY IDOCK:   -1.49 KCAL/MOL
REMARK 927      BINDING AFFINITY PREDICTED BY RF-SCORE:    0.00 PKD
ROOT
HETATM    1  C   UNL     1     -10.570   7.950  67.367  1.00  0.00    -0.342 C  
HETATM    2  C   UNL     1      -9.517   8.507  68.271  1.00  0.00    -0.143 A  
HETATM    3  C   UNL     1      -9.565   9.687  69.033  1.00  0.00    -0.168 A  
HETATM    4  C   UNL     1      -7.376   8.498  69.223  1.00  0.00    -0.071 A  
HETATM    5  S   UNL     1      -8.062   9.916  69.870  1.00  0.00    -0.173 SA 
HETATM    6  C   UNL     1      -8.249   7.838  68.399  1.00  0.00    -0.124 A  
ENDROOT
BRANCH   3   7
HETATM    7  C   UNL     1     -10.576  10.725  69.174  1.00  0.00    -0.254 C  
HETATM    8  C   UNL     1     -10.619  11.734  68.268  1.00  0.00    -0.236 C  
BRANCH   7   9
HETATM    9  C   UNL     1     -11.612  10.675  70.211  1.00  0.00    -0.336 A  
HETATM   10  C   UNL     1     -12.092   9.641  71.035  1.00  0.00    -0.421 A  
HETATM   11  C   UNL     1     -13.367  11.439  71.836  1.00  0.00    -0.304 A  
HETATM   12  C   UNL     1     -13.108  10.101  71.949  1.00  0.00    -0.571 A  
HETATM   13  S   UNL     1     -12.429  12.162  70.622  1.00  0.00    -0.163 SA 
HETATM   14  C   UNL     1     -11.675   8.201  71.084  1.00  0.00    -0.309 C  
ENDBRANCH   7   9
BRANCH   8  15
HETATM   15  C   UNL     1      -9.794  11.870  67.002  1.00  0.00    -0.206 C  
BRANCH  15  16
HETATM   16  C   UNL     1     -10.429  11.237  65.723  1.00  0.00    -0.254 C  
BRANCH  16  17
HETATM   17  N   UNL     1     -10.838  12.260  64.745  1.00  0.00    -0.292 NA 
HETATM   18  C   UNL     1     -12.268  12.384  64.519  1.00  0.00    -0.431 C  
HETATM   19  C   UNL     1     -12.889  13.503  65.342  1.00  0.00    -0.420 C  
HETATM   20  C   UNL     1     -12.341  14.835  64.868  1.00  0.00    -0.258 C  
HETATM   21  C   UNL     1     -10.811  14.876  64.884  1.00  0.00    -0.431 C  
HETATM   22  C   UNL     1     -10.194  15.691  66.010  1.00  0.00    -0.335 C  
HETATM   23  C   UNL     1     -10.076  13.517  64.738  1.00  0.00    -0.240 C  
HETATM   24  O   UNL     1     -10.880  15.737  67.169  1.00  0.00    -0.321 OA 
HETATM   25  O   UNL     1      -9.114  16.257  65.895  1.00  0.00    -0.395 OA 
ENDBRANCH  16  17
ENDBRANCH  15  16
ENDBRANCH   8  15
ENDBRANCH   3   7
TORSDOF 5
ENDMDL
MODEL       37
REMARK 921   NORMALIZED FREE ENERGY PREDICTED BY IDOCK:   -5.55 KCAL/MOL
REMARK 922        TOTAL FREE ENERGY PREDICTED BY IDOCK:   -8.67 KCAL/MOL
REMARK 923 INTER-LIGAND FREE ENERGY PREDICTED BY IDOCK:   -7.08 KCAL/MOL
REMARK 924 INTRA-LIGAND FREE ENERGY PREDICTED BY IDOCK:   -1.59 KCAL/MOL
REMARK 927      BINDING AFFINITY PREDICTED BY RF-SCORE:    0.00 PKD
ROOT
HETATM    1  C   UNL     1     -10.857   7.118  66.965  1.00  0.00    -0.382 C  
HETATM    2  C   UNL     1     -10.457   7.933  68.153  1.00  0.00    -0.227 A  
HETATM    3  C   UNL     1      -9.927   9.235  68.173  1.00  0.00    -0.177 A  
HETATM    4  C   UNL     1     -10.101   8.225  70.451  1.00  0.00    -0.190 A  
HETATM    5  S   UNL     1      -9.575   9.710  69.804  1.00  0.00    -0.231 SA 
HETATM    6  C   UNL     1     -10.550   7.374  69.477  1.00  0.00    -0.244 A  
ENDROOT
BRANCH   3   7
HETATM    7  C   UNL     1      -9.577  10.168  67.112  1.00  0.00    -0.202 C  
HETATM    8  C   UNL     1     -10.455  11.147  66.776  1.00  0.00    -0.297 C  
BRANCH   7   9
HETATM    9  C   UNL     1      -8.271  10.146  66.447  1.00  0.00    -0.122 A  
HETATM   10  C   UNL     1      -7.154  10.999  66.504  1.00  0.00    -0.136 A  
HETATM   11  C   UNL     1      -6.340   9.343  65.055  1.00  0.00    -0.075 A  
HETATM   12  C   UNL     1      -6.064  10.525  65.687  1.00  0.00    -0.131 A  
HETATM   13  S   UNL     1      -7.908   8.796  65.400  1.00  0.00    -0.105 SA 
HETATM   14  C   UNL     1      -6.969  12.262  67.292  1.00  0.00    -0.142 C  
ENDBRANCH   7   9
BRANCH   8  15
HETATM   15  C   UNL     1     -11.759  11.491  67.470  1.00  0.00    -0.262 C  
BRANCH  15  16
HETATM   16  C   UNL     1     -11.774  12.863  68.218  1.00  0.00    -0.350 C  
BRANCH  16  17
HETATM   17  N   UNL     1     -11.994  13.991  67.296  1.00  0.00    -0.411 NA 
HETATM   18  C   UNL     1     -10.946  14.998  67.269  1.00  0.00    -0.326 C  
HETATM   19  C   UNL     1      -9.965  14.782  66.127  1.00  0.00    -0.324 C  
HETATM   20  C   UNL     1     -10.683  14.986  64.806  1.00  0.00    -0.354 C  
HETATM   21  C   UNL     1     -11.932  14.109  64.680  1.00  0.00    -0.459 C  
HETATM   22  C   UNL     1     -11.795  12.915  63.749  1.00  0.00    -0.504 C  
HETATM   23  C   UNL     1     -12.622  13.684  66.003  1.00  0.00    -0.386 C  
HETATM   24  O   UNL     1     -10.572  12.359  63.652  1.00  0.00    -0.424 OA 
HETATM   25  O   UNL     1     -12.749  12.450  63.134  1.00  0.00    -0.618 OA 
ENDBRANCH  16  17
ENDBRANCH  15  16
ENDBRANCH   8  15
ENDBRANCH   3   7
TORSDOF 5
ENDMDL
MODEL       38
REMARK 921   NORMALIZED FREE ENERGY PREDICTED BY IDOCK:   -5.53 KCAL/MOL
REMARK 922        TOTAL FREE ENERGY PREDICTED BY IDOCK:   -8.65 KCAL/MOL
REMARK 923 INTER-LIGAND FREE ENERGY PREDICTED BY IDOCK:   -7.37 KCAL/MOL
REMARK 924 INTRA-LIGAND FREE ENERGY PREDICTED BY IDOCK:   -1.28 KCAL/MOL
REMARK 927      BINDING AFFINITY PREDICTED BY RF-SCORE:    0.00 PKD
ROOT
HETATM    1  C   UNL     1      -8.609  11.919  66.622  1.00  0.00    -0.163 C  
HETATM    2  C   UNL     1      -9.922  12.193  65.961  1.00  0.00    -0.257 A  
HETATM    3  C   UNL     1     -10.997  12.955  66.451  1.00  0.00    -0.285 A  
HETATM    4  C   UNL     1     -11.481  11.909  64.235  1.00  0.00    -0.346 A  
HETATM    5  S   UNL     1     -12.316  12.917  65.325  1.00  0.00    -0.477 SA 
HETATM    6  C   UNL     1     -10.223  11.603  64.683  1.00  0.00    -0.327 A  
ENDROOT
BRANCH   3   7
HETATM    7  C   UNL     1     -11.203  13.669  67.703  1.00  0.00    -0.303 C  
HETATM    8  C   UNL     1     -11.664  12.990  68.784  1.00  0.00    -0.363 C  
BRANCH   7   9
HETATM    9  C   UNL     1     -10.849  15.082  67.868  1.00  0.00    -0.280 A  
HETATM   10  C   UNL     1     -10.479  16.088  66.957  1.00  0.00    -0.307 A  
HETATM   11  C   UNL     1     -10.494  17.319  68.954  1.00  0.00    -0.327 A  
HETATM   12  C   UNL     1     -10.267  17.359  67.605  1.00  0.00    -0.342 A  
HETATM   13  S   UNL     1     -10.932  15.765  69.473  1.00  0.00    -0.326 SA 
HETATM   14  C   UNL     1     -10.311  16.000  65.468  1.00  0.00    -0.415 C  
ENDBRANCH   7   9
BRANCH   8  15
HETATM   15  C   UNL     1     -11.888  11.494  68.904  1.00  0.00    -0.406 C  
BRANCH  15  16
HETATM   16  C   UNL     1     -12.006  10.953  70.365  1.00  0.00    -0.362 C  
BRANCH  16  17
HETATM   17  N   UNL     1     -10.897  10.047  70.709  1.00  0.00    -0.308 NA 
HETATM   18  C   UNL     1     -11.238   8.933  71.578  1.00  0.00    -0.326 C  
HETATM   19  C   UNL     1     -11.507   7.653  70.801  1.00  0.00    -0.295 C  
HETATM   20  C   UNL     1     -10.225   7.197  70.130  1.00  0.00    -0.204 C  
HETATM   21  C   UNL     1      -9.601   8.291  69.259  1.00  0.00    -0.164 C  
HETATM   22  C   UNL     1      -9.761   8.099  67.759  1.00  0.00    -0.157 C  
HETATM   23  C   UNL     1      -9.918   9.759  69.651  1.00  0.00    -0.223 C  
HETATM   24  O   UNL     1     -10.877   7.466  67.346  1.00  0.00    -0.274 OA 
HETATM   25  O   UNL     1      -8.940   8.519  66.953  1.00  0.00    -0.135 OA 
ENDBRANCH  16  17
ENDBRANCH  15  16
ENDBRANCH   8  15
ENDBRANCH   3   7
TORSDOF 5
ENDMDL
MODEL       39
REMARK 921   NORMALIZED FREE ENERGY PREDICTED BY IDOCK:   -5.52 KCAL/MOL
REMARK 922        TOTAL FREE ENERGY PREDICTED BY IDOCK:   -8.63 KCAL/MOL
REMARK 923 INTER-LIGAND FREE ENERGY PREDICTED BY IDOCK:   -7.20 KCAL/MOL
REMARK 924 INTRA-LIGAND FREE ENERGY PREDICTED BY IDOCK:   -1.44 KCAL/MOL
REMARK 927      BINDING AFFINITY PREDICTED BY RF-SCORE:    0.00 PKD
ROOT
HETATM    1  C   UNL     1     -11.263  11.728  69.065  1.00  0.00    -0.324 C  
HETATM    2  C   UNL     1      -9.872  11.468  68.582  1.00  0.00    -0.184 A  
HETATM    3  C   UNL     1      -9.203  12.071  67.503  1.00  0.00    -0.180 A  
HETATM    4  C   UNL     1      -7.838  10.305  68.626  1.00  0.00    -0.101 A  
HETATM    5  S   UNL     1      -7.623  11.377  67.320  1.00  0.00    -0.146 SA 
HETATM    6  C   UNL     1      -9.066  10.457  69.215  1.00  0.00    -0.188 A  
ENDROOT
BRANCH   3   7
HETATM    7  C   UNL     1      -9.614  13.070  66.527  1.00  0.00    -0.260 C  
HETATM    8  C   UNL     1      -9.097  14.322  66.604  1.00  0.00    -0.249 C  
BRANCH   7   9
HETATM    9  C   UNL     1     -10.502  12.751  65.405  1.00  0.00    -0.286 A  
HETATM   10  C   UNL     1     -10.586  11.649  64.535  1.00  0.00    -0.373 A  
HETATM   11  C   UNL     1     -12.408  12.919  63.778  1.00  0.00    -0.417 A  
HETATM   12  C   UNL     1     -11.679  11.775  63.602  1.00  0.00    -0.517 A  
HETATM   13  S   UNL     1     -11.787  13.874  65.035  1.00  0.00    -0.396 SA 
HETATM   14  C   UNL     1      -9.732  10.417  64.484  1.00  0.00    -0.393 C  
ENDBRANCH   7   9
BRANCH   8  15
HETATM   15  C   UNL     1      -8.007  14.812  67.539  1.00  0.00    -0.207 C  
BRANCH  15  16
HETATM   16  C   UNL     1      -7.238  16.084  67.057  1.00  0.00    -0.213 C  
BRANCH  16  17
HETATM   17  N   UNL     1      -7.843  17.324  67.573  1.00  0.00    -0.179 NA 
HETATM   18  C   UNL     1      -8.370  18.235  66.571  1.00  0.00    -0.266 C  
HETATM   19  C   UNL     1      -9.869  18.067  66.369  1.00  0.00    -0.340 C  
HETATM   20  C   UNL     1     -10.593  18.479  67.636  1.00  0.00    -0.450 C  
HETATM   21  C   UNL     1     -10.082  17.732  68.870  1.00  0.00    -0.350 C  
HETATM   22  C   UNL     1     -11.003  16.643  69.399  1.00  0.00    -0.235 C  
HETATM   23  C   UNL     1      -8.618  17.220  68.818  1.00  0.00    -0.230 C  
HETATM   24  O   UNL     1     -11.764  16.000  68.491  1.00  0.00    -0.375 OA 
HETATM   25  O   UNL     1     -11.041  16.334  70.584  1.00  0.00    -0.341 OA 
ENDBRANCH  16  17
ENDBRANCH  15  16
ENDBRANCH   8  15
ENDBRANCH   3   7
TORSDOF 5
ENDMDL
MODEL       40
REMARK 921   NORMALIZED FREE ENERGY PREDICTED BY IDOCK:   -5.49 KCAL/MOL
REMARK 922        TOTAL FREE ENERGY PREDICTED BY IDOCK:   -8.59 KCAL/MOL
REMARK 923 INTER-LIGAND FREE ENERGY PREDICTED BY IDOCK:   -7.85 KCAL/MOL
REMARK 924 INTRA-LIGAND FREE ENERGY PREDICTED BY IDOCK:   -0.74 KCAL/MOL
REMARK 927      BINDING AFFINITY PREDICTED BY RF-SCORE:    0.00 PKD
ROOT
HETATM    1  C   UNL     1      -8.544  13.473  68.099  1.00  0.00    -0.173 C  
HETATM    2  C   UNL     1      -9.829  13.725  67.376  1.00  0.00    -0.238 A  
HETATM    3  C   UNL     1     -11.140  13.557  67.854  1.00  0.00    -0.265 A  
HETATM    4  C   UNL     1     -11.065  14.288  65.467  1.00  0.00    -0.323 A  
HETATM    5  S   UNL     1     -12.282  13.931  66.603  1.00  0.00    -0.375 SA 
HETATM    6  C   UNL     1      -9.811  14.149  66.001  1.00  0.00    -0.329 A  
ENDROOT
BRANCH   3   7
HETATM    7  C   UNL     1     -11.668  13.082  69.125  1.00  0.00    -0.378 C  
HETATM    8  C   UNL     1     -11.774  11.746  69.339  1.00  0.00    -0.405 C  
BRANCH   7   9
HETATM    9  C   UNL     1     -12.009  13.993  70.222  1.00  0.00    -0.339 A  
HETATM   10  C   UNL     1     -12.720  13.819  71.424  1.00  0.00    -0.450 A  
HETATM   11  C   UNL     1     -12.069  16.062  71.644  1.00  0.00    -0.472 A  
HETATM   12  C   UNL     1     -12.753  15.024  72.216  1.00  0.00    -0.418 A  
HETATM   13  S   UNL     1     -11.406  15.630  70.145  1.00  0.00    -0.380 SA 
HETATM   14  C   UNL     1     -13.390  12.587  71.955  1.00  0.00    -0.528 C  
ENDBRANCH   7   9
BRANCH   8  15
HETATM   15  C   UNL     1     -11.283  10.628  68.440  1.00  0.00    -0.347 C  
BRANCH  15  16
HETATM   16  C   UNL     1     -10.878   9.310  69.175  1.00  0.00    -0.133 C  
BRANCH  16  17
HETATM   17  N   UNL     1     -10.994   9.436  70.638  1.00  0.00    -0.265 NA 
HETATM   18  C   UNL     1     -12.239   8.959  71.217  1.00  0.00    -0.299 C  
HETATM   19  C   UNL     1     -12.120   7.541  71.755  1.00  0.00    -0.340 C  
HETATM   20  C   UNL     1     -11.159   7.530  72.928  1.00  0.00    -0.426 C  
HETATM   21  C   UNL     1      -9.799   8.138  72.575  1.00  0.00    -0.363 C  
HETATM   22  C   UNL     1      -8.667   7.139  72.396  1.00  0.00    -0.123 C  
HETATM   23  C   UNL     1      -9.781   9.184  71.428  1.00  0.00    -0.268 C  
HETATM   24  O   UNL     1      -9.002   5.923  71.923  1.00  0.00    -0.138 OA 
HETATM   25  O   UNL     1      -7.499   7.422  72.636  1.00  0.00    -0.074 OA 
ENDBRANCH  16  17
ENDBRANCH  15  16
ENDBRANCH   8  15
ENDBRANCH   3   7
TORSDOF 5
ENDMDL
MODEL       41
REMARK 921   NORMALIZED FREE ENERGY PREDICTED BY IDOCK:   -5.47 KCAL/MOL
REMARK 922        TOTAL FREE ENERGY PREDICTED BY IDOCK:   -8.57 KCAL/MOL
REMARK 923 INTER-LIGAND FREE ENERGY PREDICTED BY IDOCK:   -7.02 KCAL/MOL
REMARK 924 INTRA-LIGAND FREE ENERGY PREDICTED BY IDOCK:   -1.56 KCAL/MOL
REMARK 927      BINDING AFFINITY PREDICTED BY RF-SCORE:    0.00 PKD
ROOT
HETATM    1  C   UNL     1     -12.832  13.758  65.644  1.00  0.00    -0.456 C  
HETATM    2  C   UNL     1     -11.747  12.837  65.183  1.00  0.00    -0.396 A  
HETATM    3  C   UNL     1     -10.753  12.213  65.956  1.00  0.00    -0.273 A  
HETATM    4  C   UNL     1     -10.535  11.721  63.516  1.00  0.00    -0.449 A  
HETATM    5  S   UNL     1      -9.698  11.288  64.934  1.00  0.00    -0.259 SA 
HETATM    6  C   UNL     1     -11.603  12.537  63.782  1.00  0.00    -0.552 A  
ENDROOT
BRANCH   3   7
HETATM    7  C   UNL     1     -10.436  12.266  67.375  1.00  0.00    -0.228 C  
HETATM    8  C   UNL     1     -10.618  11.156  68.136  1.00  0.00    -0.227 C  
BRANCH   7   9
HETATM    9  C   UNL     1      -9.843  13.450  68.003  1.00  0.00    -0.229 A  
HETATM   10  C   UNL     1     -10.387  14.512  68.748  1.00  0.00    -0.243 A  
HETATM   11  C   UNL     1      -8.109  15.069  68.830  1.00  0.00    -0.166 A  
HETATM   12  C   UNL     1      -9.375  15.435  69.200  1.00  0.00    -0.246 A  
HETATM   13  S   UNL     1      -8.109  13.641  67.915  1.00  0.00    -0.181 SA 
HETATM   14  C   UNL     1     -11.816  14.767  69.126  1.00  0.00    -0.340 C  
ENDBRANCH   7   9
BRANCH   8  15
HETATM   15  C   UNL     1     -11.010   9.770  67.662  1.00  0.00    -0.226 C  
BRANCH  15  16
HETATM   16  C   UNL     1      -9.840   8.738  67.581  1.00  0.00    -0.180 C  
BRANCH  16  17
HETATM   17  N   UNL     1      -9.678   7.986  68.837  1.00  0.00    -0.156 NA 
HETATM   18  C   UNL     1      -8.465   8.264  69.588  1.00  0.00    -0.125 C  
HETATM   19  C   UNL     1      -8.692   9.280  70.698  1.00  0.00    -0.282 C  
HETATM   20  C   UNL     1      -9.622   8.685  71.738  1.00  0.00    -0.360 C  
HETATM   21  C   UNL     1     -10.934   8.182  71.129  1.00  0.00    -0.271 C  
HETATM   22  C   UNL     1     -12.150   9.054  71.393  1.00  0.00    -0.327 C  
HETATM   23  C   UNL     1     -10.890   7.756  69.637  1.00  0.00    -0.184 C  
HETATM   24  O   UNL     1     -11.931  10.378  71.515  1.00  0.00    -0.333 OA 
HETATM   25  O   UNL     1     -13.284   8.594  71.464  1.00  0.00    -0.328 OA 
ENDBRANCH  16  17
ENDBRANCH  15  16
ENDBRANCH   8  15
ENDBRANCH   3   7
TORSDOF 5
ENDMDL
MODEL       42
REMARK 921   NORMALIZED FREE ENERGY PREDICTED BY IDOCK:   -5.46 KCAL/MOL
REMARK 922        TOTAL FREE ENERGY PREDICTED BY IDOCK:   -8.56 KCAL/MOL
REMARK 923 INTER-LIGAND FREE ENERGY PREDICTED BY IDOCK:   -7.37 KCAL/MOL
REMARK 924 INTRA-LIGAND FREE ENERGY PREDICTED BY IDOCK:   -1.20 KCAL/MOL
REMARK 927      BINDING AFFINITY PREDICTED BY RF-SCORE:    0.00 PKD
ROOT
HETATM    1  C   UNL     1      -9.190  15.690  66.412  1.00  0.00    -0.346 C  
HETATM    2  C   UNL     1     -10.476  15.094  65.935  1.00  0.00    -0.350 A  
HETATM    3  C   UNL     1     -11.272  14.126  66.572  1.00  0.00    -0.330 A  
HETATM    4  C   UNL     1     -12.166  14.799  64.338  1.00  0.00    -0.428 A  
HETATM    5  S   UNL     1     -12.635  13.727  65.575  1.00  0.00    -0.477 SA 
HETATM    6  C   UNL     1     -11.012  15.468  64.652  1.00  0.00    -0.341 A  
ENDROOT
BRANCH   3   7
HETATM    7  C   UNL     1     -11.116  13.394  67.820  1.00  0.00    -0.292 C  
HETATM    8  C   UNL     1     -10.363  12.264  67.835  1.00  0.00    -0.216 C  
BRANCH   7   9
HETATM    9  C   UNL     1     -11.670  13.878  69.088  1.00  0.00    -0.338 A  
HETATM   10  C   UNL     1     -12.140  13.221  70.240  1.00  0.00    -0.405 A  
HETATM   11  C   UNL     1     -12.376  15.457  70.909  1.00  0.00    -0.398 A  
HETATM   12  C   UNL     1     -12.552  14.147  71.265  1.00  0.00    -0.438 A  
HETATM   13  S   UNL     1     -11.747  15.604  69.341  1.00  0.00    -0.379 SA 
HETATM   14  C   UNL     1     -12.234  11.750  70.516  1.00  0.00    -0.438 C  
ENDBRANCH   7   9
BRANCH   8  15
HETATM   15  C   UNL     1      -9.525  11.702  66.702  1.00  0.00    -0.213 C  
BRANCH  15  16
HETATM   16  C   UNL     1     -10.260  10.682  65.774  1.00  0.00    -0.252 C  
BRANCH  16  17
HETATM   17  N   UNL     1      -9.913   9.289  66.102  1.00  0.00    -0.290 NA 
HETATM   18  C   UNL     1      -8.524   8.916  65.891  1.00  0.00    -0.136 C  
HETATM   19  C   UNL     1      -7.704   8.995  67.170  1.00  0.00    -0.099 C  
HETATM   20  C   UNL     1      -8.205   7.950  68.149  1.00  0.00    -0.123 C  
HETATM   21  C   UNL     1      -9.709   8.067  68.410  1.00  0.00    -0.168 C  
HETATM   22  C   UNL     1     -10.091   8.661  69.757  1.00  0.00    -0.199 C  
HETATM   23  C   UNL     1     -10.564   8.699  67.280  1.00  0.00    -0.238 C  
HETATM   24  O   UNL     1      -9.246   9.572  70.278  1.00  0.00    -0.229 OA 
HETATM   25  O   UNL     1     -11.128   8.359  70.336  1.00  0.00    -0.245 OA 
ENDBRANCH  16  17
ENDBRANCH  15  16
ENDBRANCH   8  15
ENDBRANCH   3   7
TORSDOF 5
ENDMDL
MODEL       43
REMARK 921   NORMALIZED FREE ENERGY PREDICTED BY IDOCK:   -5.46 KCAL/MOL
REMARK 922        TOTAL FREE ENERGY PREDICTED BY IDOCK:   -8.56 KCAL/MOL
REMARK 923 INTER-LIGAND FREE ENERGY PREDICTED BY IDOCK:   -7.15 KCAL/MOL
REMARK 924 INTRA-LIGAND FREE ENERGY PREDICTED BY IDOCK:   -1.41 KCAL/MOL
REMARK 927      BINDING AFFINITY PREDICTED BY RF-SCORE:    0.00 PKD
ROOT
HETATM    1  C   UNL     1      -7.758  15.051  69.399  1.00  0.00    -0.190 C  
HETATM    2  C   UNL     1      -9.177  15.493  69.225  1.00  0.00    -0.268 A  
HETATM    3  C   UNL     1      -9.705  16.342  68.238  1.00  0.00    -0.224 A  
HETATM    4  C   UNL     1     -11.417  15.608  69.903  1.00  0.00    -0.338 A  
HETATM    5  S   UNL     1     -11.401  16.589  68.511  1.00  0.00    -0.117 SA 
HETATM    6  C   UNL     1     -10.181  15.081  70.171  1.00  0.00    -0.007 A  
ENDROOT
BRANCH   3   7
HETATM    7  C   UNL     1      -9.091  17.064  67.133  1.00  0.00    -0.232 C  
HETATM    8  C   UNL     1      -9.127  16.523  65.888  1.00  0.00    -0.188 C  
BRANCH   7   9
HETATM    9  C   UNL     1      -8.509  18.399  67.295  1.00  0.00    -0.254 A  
HETATM   10  C   UNL     1      -8.948  19.685  66.930  1.00  0.00    -0.395 A  
HETATM   11  C   UNL     1      -6.951  20.224  68.037  1.00  0.00    -0.292 A  
HETATM   12  C   UNL     1      -8.031  20.714  67.354  1.00  0.00    -0.315 A  
HETATM   13  S   UNL     1      -6.996  18.533  68.157  1.00  0.00    -0.241 SA 
HETATM   14  C   UNL     1     -10.202  20.087  66.211  1.00  0.00    -0.595 C  
ENDBRANCH   7   9
BRANCH   8  15
HETATM   15  C   UNL     1      -9.859  15.268  65.451  1.00  0.00    -0.318 C  
BRANCH  15  16
HETATM   16  C   UNL     1     -11.244  15.508  64.770  1.00  0.00    -0.390 C  
BRANCH  16  17
HETATM   17  N   UNL     1     -12.096  14.307  64.812  1.00  0.00    -0.425 NA 
HETATM   18  C   UNL     1     -12.149  13.527  63.586  1.00  0.00    -0.400 C  
HETATM   19  C   UNL     1     -11.186  12.350  63.607  1.00  0.00    -0.544 C  
HETATM   20  C   UNL     1     -11.625  11.363  64.673  1.00  0.00    -0.014 C  
HETATM   21  C   UNL     1     -11.778  12.019  66.048  1.00  0.00    -0.311 C  
HETATM   22  C   UNL     1     -10.674  11.703  67.045  1.00  0.00    -0.253 C  
HETATM   23  C   UNL     1     -12.101  13.536  66.064  1.00  0.00    -0.445 C  
HETATM   24  O   UNL     1      -9.445  11.485  66.538  1.00  0.00    -0.193 OA 
HETATM   25  O   UNL     1     -10.872  11.676  68.254  1.00  0.00    -0.197 OA 
ENDBRANCH  16  17
ENDBRANCH  15  16
ENDBRANCH   8  15
ENDBRANCH   3   7
TORSDOF 5
ENDMDL
MODEL       44
REMARK 921   NORMALIZED FREE ENERGY PREDICTED BY IDOCK:   -5.46 KCAL/MOL
REMARK 922        TOTAL FREE ENERGY PREDICTED BY IDOCK:   -8.55 KCAL/MOL
REMARK 923 INTER-LIGAND FREE ENERGY PREDICTED BY IDOCK:   -7.74 KCAL/MOL
REMARK 924 INTRA-LIGAND FREE ENERGY PREDICTED BY IDOCK:   -0.81 KCAL/MOL
REMARK 927      BINDING AFFINITY PREDICTED BY RF-SCORE:    0.00 PKD
ROOT
HETATM    1  C   UNL     1      -9.053  14.618  66.322  1.00  0.00    -0.196 C  
HETATM    2  C   UNL     1     -10.324  14.104  65.724  1.00  0.00    -0.338 A  
HETATM    3  C   UNL     1     -10.803  12.783  65.709  1.00  0.00    -0.272 A  
HETATM    4  C   UNL     1     -12.295  14.368  64.484  1.00  0.00    -0.418 A  
HETATM    5  S   UNL     1     -12.300  12.702  64.836  1.00  0.00    -0.471 SA 
HETATM    6  C   UNL     1     -11.201  14.999  65.015  1.00  0.00    -0.413 A  
ENDROOT
BRANCH   3   7
HETATM    7  C   UNL     1     -10.250  11.533  66.212  1.00  0.00    -0.268 C  
HETATM    8  C   UNL     1     -10.395  11.227  67.526  1.00  0.00    -0.224 C  
BRANCH   7   9
HETATM    9  C   UNL     1      -9.617  10.546  65.332  1.00  0.00    -0.237 A  
HETATM   10  C   UNL     1      -9.327  10.537  63.956  1.00  0.00    -0.308 A  
HETATM   11  C   UNL     1      -8.398   8.479  64.591  1.00  0.00    -0.146 A  
HETATM   12  C   UNL     1      -8.640   9.335  63.552  1.00  0.00    -0.201 A  
HETATM   13  S   UNL     1      -9.010   9.076  66.055  1.00  0.00    -0.199 SA 
HETATM   14  C   UNL     1      -9.614  11.586  62.923  1.00  0.00    -0.314 C  
ENDBRANCH   7   9
BRANCH   8  15
HETATM   15  C   UNL     1     -11.196  11.988  68.565  1.00  0.00    -0.306 C  
BRANCH  15  16
HETATM   16  C   UNL     1     -12.282  11.151  69.314  1.00  0.00    -0.226 C  
BRANCH  16  17
HETATM   17  N   UNL     1     -11.837  10.743  70.657  1.00  0.00    -0.342 NA 
HETATM   18  C   UNL     1     -12.866  10.714  71.683  1.00  0.00    -0.465 C  
HETATM   19  C   UNL     1     -13.436   9.320  71.891  1.00  0.00    -0.497 C  
HETATM   20  C   UNL     1     -12.355   8.416  72.452  1.00  0.00    -0.412 C  
HETATM   21  C   UNL     1     -11.092   8.409  71.586  1.00  0.00    -0.344 C  
HETATM   22  C   UNL     1     -10.884   7.156  70.750  1.00  0.00    -0.244 C  
HETATM   23  C   UNL     1     -10.828   9.677  70.731  1.00  0.00    -0.330 C  
HETATM   24  O   UNL     1     -11.994   6.520  70.325  1.00  0.00    -0.394 OA 
HETATM   25  O   UNL     1      -9.769   6.749  70.444  1.00  0.00    -0.175 OA 
ENDBRANCH  16  17
ENDBRANCH  15  16
ENDBRANCH   8  15
ENDBRANCH   3   7
TORSDOF 5
ENDMDL
MODEL       45
REMARK 921   NORMALIZED FREE ENERGY PREDICTED BY IDOCK:   -5.45 KCAL/MOL
REMARK 922        TOTAL FREE ENERGY PREDICTED BY IDOCK:   -8.54 KCAL/MOL
REMARK 923 INTER-LIGAND FREE ENERGY PREDICTED BY IDOCK:   -7.19 KCAL/MOL
REMARK 924 INTRA-LIGAND FREE ENERGY PREDICTED BY IDOCK:   -1.36 KCAL/MOL
REMARK 927      BINDING AFFINITY PREDICTED BY RF-SCORE:    0.00 PKD
ROOT
HETATM    1  C   UNL     1     -12.361  14.212  67.449  1.00  0.00    -0.136 C  
HETATM    2  C   UNL     1     -11.900  13.645  66.144  1.00  0.00    -0.424 A  
HETATM    3  C   UNL     1     -10.750  12.879  65.889  1.00  0.00    -0.271 A  
HETATM    4  C   UNL     1     -12.069  13.363  63.823  1.00  0.00    -0.456 A  
HETATM    5  S   UNL     1     -10.639  12.515  64.196  1.00  0.00    -0.426 SA 
HETATM    6  C   UNL     1     -12.646  13.908  64.940  1.00  0.00    -0.380 A  
ENDROOT
BRANCH   3   7
HETATM    7  C   UNL     1      -9.662  12.428  66.745  1.00  0.00    -0.226 C  
HETATM    8  C   UNL     1      -8.682  13.303  67.085  1.00  0.00    -0.215 C  
BRANCH   7   9
HETATM    9  C   UNL     1      -9.629  11.083  67.328  1.00  0.00    -0.165 A  
HETATM   10  C   UNL     1     -10.451  10.425  68.261  1.00  0.00    -0.221 A  
HETATM   11  C   UNL     1      -8.949   8.700  67.736  1.00  0.00    -0.136 A  
HETATM   12  C   UNL     1     -10.033   9.064  68.489  1.00  0.00    -0.193 A  
HETATM   13  S   UNL     1      -8.396   9.980  66.771  1.00  0.00    -0.126 SA 
HETATM   14  C   UNL     1     -11.658  10.941  68.987  1.00  0.00    -0.387 C  
ENDBRANCH   7   9
BRANCH   8  15
HETATM   15  C   UNL     1      -8.626  14.787  66.780  1.00  0.00    -0.226 C  
BRANCH  15  16
HETATM   16  C   UNL     1      -9.120  15.723  67.930  1.00  0.00    -0.186 C  
BRANCH  16  17
HETATM   17  N   UNL     1      -9.882  16.874  67.416  1.00  0.00    -0.255 NA 
HETATM   18  C   UNL     1     -10.624  17.634  68.409  1.00  0.00    -0.316 C  
HETATM   19  C   UNL     1      -9.865  18.864  68.883  1.00  0.00    -0.447 C  
HETATM   20  C   UNL     1      -9.721  19.838  67.729  1.00  0.00    -0.495 C  
HETATM   21  C   UNL     1      -9.080  19.193  66.497  1.00  0.00    -0.365 C  
HETATM   22  C   UNL     1      -7.633  19.583  66.237  1.00  0.00    -0.291 C  
HETATM   23  C   UNL     1      -9.260  17.659  66.340  1.00  0.00    -0.244 C  
HETATM   24  O   UNL     1      -6.879  19.864  67.318  1.00  0.00    -0.206 OA 
HETATM   25  O   UNL     1      -7.155  19.615  65.109  1.00  0.00    -0.394 OA 
ENDBRANCH  16  17
ENDBRANCH  15  16
ENDBRANCH   8  15
ENDBRANCH   3   7
TORSDOF 5
ENDMDL
MODEL       46
REMARK 921   NORMALIZED FREE ENERGY PREDICTED BY IDOCK:   -5.41 KCAL/MOL
REMARK 922        TOTAL FREE ENERGY PREDICTED BY IDOCK:   -8.49 KCAL/MOL
REMARK 923 INTER-LIGAND FREE ENERGY PREDICTED BY IDOCK:   -7.56 KCAL/MOL
REMARK 924 INTRA-LIGAND FREE ENERGY PREDICTED BY IDOCK:   -0.93 KCAL/MOL
REMARK 927      BINDING AFFINITY PREDICTED BY RF-SCORE:    0.00 PKD
ROOT
HETATM    1  C   UNL     1      -5.630  16.890  66.587  1.00  0.00    -0.115 C  
HETATM    2  C   UNL     1      -6.415  16.270  67.699  1.00  0.00    -0.183 A  
HETATM    3  C   UNL     1      -7.811  16.212  67.848  1.00  0.00    -0.141 A  
HETATM    4  C   UNL     1      -6.588  15.200  69.777  1.00  0.00    -0.177 A  
HETATM    5  S   UNL     1      -8.219  15.434  69.344  1.00  0.00    -0.214 SA 
HETATM    6  C   UNL     1      -5.732  15.679  68.821  1.00  0.00    -0.096 A  
ENDROOT
BRANCH   3   7
HETATM    7  C   UNL     1      -8.906  16.728  67.039  1.00  0.00    -0.227 C  
HETATM    8  C   UNL     1      -9.660  15.860  66.317  1.00  0.00    -0.345 C  
BRANCH   7   9
HETATM    9  C   UNL     1      -9.284  18.144  67.042  1.00  0.00    -0.270 A  
HETATM   10  C   UNL     1      -8.838  19.252  67.786  1.00  0.00    -0.348 A  
HETATM   11  C   UNL     1     -10.385  20.298  66.366  1.00  0.00    -0.289 A  
HETATM   12  C   UNL     1      -9.494  20.473  67.390  1.00  0.00    -0.551 A  
HETATM   13  S   UNL     1     -10.477  18.675  65.883  1.00  0.00    -0.203 SA 
HETATM   14  C   UNL     1      -7.799  19.307  68.867  1.00  0.00    -0.367 C  
ENDBRANCH   7   9
BRANCH   8  15
HETATM   15  C   UNL     1      -9.590  14.345  66.332  1.00  0.00    -0.320 C  
BRANCH  15  16
HETATM   16  C   UNL     1     -10.680  13.637  67.198  1.00  0.00    -0.277 C  
BRANCH  16  17
HETATM   17  N   UNL     1     -11.679  12.943  66.368  1.00  0.00    -0.375 NA 
HETATM   18  C   UNL     1     -12.560  13.799  65.591  1.00  0.00    -0.509 C  
HETATM   19  C   UNL     1     -12.082  13.970  64.157  1.00  0.00    -0.456 C  
HETATM   20  C   UNL     1     -12.164  12.636  63.440  1.00  0.00    -0.610 C  
HETATM   21  C   UNL     1     -11.410  11.527  64.180  1.00  0.00    -0.349 C  
HETATM   22  C   UNL     1     -10.086  11.115  63.557  1.00  0.00    -0.385 C  
HETATM   23  C   UNL     1     -11.254  11.697  65.714  1.00  0.00    -0.230 C  
HETATM   24  O   UNL     1      -9.401  12.072  62.902  1.00  0.00    -0.257 OA 
HETATM   25  O   UNL     1      -9.638   9.979  63.663  1.00  0.00    -0.273 OA 
ENDBRANCH  16  17
ENDBRANCH  15  16
ENDBRANCH   8  15
ENDBRANCH   3   7
TORSDOF 5
ENDMDL
MODEL       47
REMARK 921   NORMALIZED FREE ENERGY PREDICTED BY IDOCK:   -5.41 KCAL/MOL
REMARK 922        TOTAL FREE ENERGY PREDICTED BY IDOCK:   -8.49 KCAL/MOL
REMARK 923 INTER-LIGAND FREE ENERGY PREDICTED BY IDOCK:   -7.66 KCAL/MOL
REMARK 924 INTRA-LIGAND FREE ENERGY PREDICTED BY IDOCK:   -0.83 KCAL/MOL
REMARK 927      BINDING AFFINITY PREDICTED BY RF-SCORE:    0.00 PKD
ROOT
HETATM    1  C   UNL     1     -13.956   8.705  71.410  1.00  0.00    -0.329 C  
HETATM    2  C   UNL     1     -12.468   8.693  71.558  1.00  0.00    -0.364 A  
HETATM    3  C   UNL     1     -11.529   9.544  70.949  1.00  0.00    -0.334 A  
HETATM    4  C   UNL     1     -10.465   7.782  72.364  1.00  0.00    -0.263 A  
HETATM    5  S   UNL     1      -9.921   9.078  71.403  1.00  0.00    -0.307 SA 
HETATM    6  C   UNL     1     -11.832   7.689  72.370  1.00  0.00    -0.336 A  
ENDROOT
BRANCH   3   7
HETATM    7  C   UNL     1     -11.668  10.640  70.001  1.00  0.00    -0.405 C  
HETATM    8  C   UNL     1     -12.224  11.807  70.416  1.00  0.00    -0.416 C  
BRANCH   7   9
HETATM    9  C   UNL     1     -11.149  10.564  68.632  1.00  0.00    -0.267 A  
HETATM   10  C   UNL     1     -10.617   9.510  67.868  1.00  0.00    -0.299 A  
HETATM   11  C   UNL     1     -10.568  11.239  66.284  1.00  0.00    -0.263 A  
HETATM   12  C   UNL     1     -10.279   9.925  66.529  1.00  0.00    -0.292 A  
HETATM   13  S   UNL     1     -11.217  12.006  67.650  1.00  0.00    -0.305 SA 
HETATM   14  C   UNL     1     -10.397   8.078  68.258  1.00  0.00    -0.240 C  
ENDBRANCH   7   9
BRANCH   8  15
HETATM   15  C   UNL     1     -12.629  12.182  71.828  1.00  0.00    -0.133 C  
BRANCH  15  16
HETATM   16  C   UNL     1     -14.028  12.865  71.961  1.00  0.00    -0.032 C  
BRANCH  16  17
HETATM   17  N   UNL     1     -13.919  14.330  72.067  1.00  0.00    -0.462 NA 
HETATM   18  C   UNL     1     -13.337  14.833  73.300  1.00  0.00    -0.227 C  
HETATM   19  C   UNL     1     -11.854  15.139  73.157  1.00  0.00    -0.438 C  
HETATM   20  C   UNL     1     -11.672  16.290  72.186  1.00  0.00    -0.531 C  
HETATM   21  C   UNL     1     -12.350  16.030  70.838  1.00  0.00    -0.234 C  
HETATM   22  C   UNL     1     -11.409  15.688  69.693  1.00  0.00    -0.329 C  
HETATM   23  C   UNL     1     -13.563  15.063  70.844  1.00  0.00    -0.307 C  
HETATM   24  O   UNL     1     -10.277  15.031  70.015  1.00  0.00    -0.160 OA 
HETATM   25  O   UNL     1     -11.667  15.964  68.527  1.00  0.00    -0.383 OA 
ENDBRANCH  16  17
ENDBRANCH  15  16
ENDBRANCH   8  15
ENDBRANCH   3   7
TORSDOF 5
ENDMDL
MODEL       48
REMARK 921   NORMALIZED FREE ENERGY PREDICTED BY IDOCK:   -5.41 KCAL/MOL
REMARK 922        TOTAL FREE ENERGY PREDICTED BY IDOCK:   -8.49 KCAL/MOL
REMARK 923 INTER-LIGAND FREE ENERGY PREDICTED BY IDOCK:   -6.90 KCAL/MOL
REMARK 924 INTRA-LIGAND FREE ENERGY PREDICTED BY IDOCK:   -1.59 KCAL/MOL
REMARK 927      BINDING AFFINITY PREDICTED BY RF-SCORE:    0.00 PKD
ROOT
HETATM    1  C   UNL     1     -12.173  14.735  69.213  1.00  0.00    -0.234 C  
HETATM    2  C   UNL     1     -10.732  14.441  68.939  1.00  0.00    -0.260 A  
HETATM    3  C   UNL     1     -10.186  13.330  68.273  1.00  0.00    -0.250 A  
HETATM    4  C   UNL     1      -8.442  14.897  69.137  1.00  0.00    -0.152 A  
HETATM    5  S   UNL     1      -8.453  13.432  68.269  1.00  0.00    -0.146 SA 
HETATM    6  C   UNL     1      -9.710  15.330  69.426  1.00  0.00    -0.248 A  
ENDROOT
BRANCH   3   7
HETATM    7  C   UNL     1     -10.790  12.145  67.683  1.00  0.00    -0.272 C  
HETATM    8  C   UNL     1     -11.234  11.154  68.498  1.00  0.00    -0.318 C  
BRANCH   7   9
HETATM    9  C   UNL     1     -11.019  12.016  66.241  1.00  0.00    -0.299 A  
HETATM   10  C   UNL     1     -11.835  12.718  65.335  1.00  0.00    -0.456 A  
HETATM   11  C   UNL     1     -10.763  11.234  63.868  1.00  0.00    -0.384 A  
HETATM   12  C   UNL     1     -11.681  12.242  63.982  1.00  0.00    -0.506 A  
HETATM   13  S   UNL     1     -10.094  10.818  65.370  1.00  0.00    -0.289 SA 
HETATM   14  C   UNL     1     -12.776  13.856  65.598  1.00  0.00    -0.534 C  
ENDBRANCH   7   9
BRANCH   8  15
HETATM   15  C   UNL     1     -11.298  11.168  70.013  1.00  0.00    -0.326 C  
BRANCH  15  16
HETATM   16  C   UNL     1     -12.263  10.115  70.649  1.00  0.00    -0.302 C  
BRANCH  16  17
HETATM   17  N   UNL     1     -11.530   9.052  71.357  1.00  0.00    -0.302 NA 
HETATM   18  C   UNL     1     -11.837   7.692  70.948  1.00  0.00    -0.250 C  
HETATM   19  C   UNL     1     -10.835   7.151  69.939  1.00  0.00    -0.276 C  
HETATM   20  C   UNL     1      -9.478   7.021  70.603  1.00  0.00    -0.165 C  
HETATM   21  C   UNL     1      -9.013   8.332  71.244  1.00  0.00    -0.200 C  
HETATM   22  C   UNL     1      -7.920   9.072  70.491  1.00  0.00    -0.139 C  
HETATM   23  C   UNL     1     -10.123   9.320  71.691  1.00  0.00    -0.162 C  
HETATM   24  O   UNL     1      -7.913   8.941  69.150  1.00  0.00    -0.101 OA 
HETATM   25  O   UNL     1      -7.097   9.781  71.059  1.00  0.00    -0.325 OA 
ENDBRANCH  16  17
ENDBRANCH  15  16
ENDBRANCH   8  15
ENDBRANCH   3   7
TORSDOF 5
ENDMDL
MODEL       49
REMARK 921   NORMALIZED FREE ENERGY PREDICTED BY IDOCK:   -5.39 KCAL/MOL
REMARK 922        TOTAL FREE ENERGY PREDICTED BY IDOCK:   -8.47 KCAL/MOL
REMARK 923 INTER-LIGAND FREE ENERGY PREDICTED BY IDOCK:   -7.31 KCAL/MOL
REMARK 924 INTRA-LIGAND FREE ENERGY PREDICTED BY IDOCK:   -1.16 KCAL/MOL
REMARK 927      BINDING AFFINITY PREDICTED BY RF-SCORE:    0.00 PKD
ROOT
HETATM    1  C   UNL     1      -7.949   7.547  71.318  1.00  0.00    -0.095 C  
HETATM    2  C   UNL     1      -8.847   7.177  70.180  1.00  0.00    -0.145 A  
HETATM    3  C   UNL     1      -9.841   7.961  69.570  1.00  0.00    -0.176 A  
HETATM    4  C   UNL     1      -9.701   5.657  68.614  1.00  0.00    -0.137 A  
HETATM    5  S   UNL     1     -10.642   7.048  68.331  1.00  0.00    -0.184 SA 
HETATM    6  C   UNL     1      -8.783   5.856  69.612  1.00  0.00    -0.128 A  
ENDROOT
BRANCH   3   7
HETATM    7  C   UNL     1     -10.330   9.306  69.835  1.00  0.00    -0.241 C  
HETATM    8  C   UNL     1      -9.780  10.353  69.170  1.00  0.00    -0.234 C  
BRANCH   7   9
HETATM    9  C   UNL     1     -11.460   9.567  70.732  1.00  0.00    -0.310 A  
HETATM   10  C   UNL     1     -12.001   8.859  71.821  1.00  0.00    -0.429 A  
HETATM   11  C   UNL     1     -13.376  10.760  71.835  1.00  0.00    -0.340 A  
HETATM   12  C   UNL     1     -13.107   9.556  72.428  1.00  0.00    -0.430 A  
HETATM   13  S   UNL     1     -12.337  11.063  70.529  1.00  0.00    -0.377 SA 
HETATM   14  C   UNL     1     -11.567   7.546  72.403  1.00  0.00    -0.356 C  
ENDBRANCH   7   9
BRANCH   8  15
HETATM   15  C   UNL     1      -8.760  10.297  68.048  1.00  0.00    -0.122 C  
BRANCH  15  16
HETATM   16  C   UNL     1      -9.139  11.102  66.763  1.00  0.00    -0.166 C  
BRANCH  16  17
HETATM   17  N   UNL     1     -10.139  12.147  67.041  1.00  0.00    -0.203 NA 
HETATM   18  C   UNL     1      -9.632  13.509  67.096  1.00  0.00    -0.241 C  
HETATM   19  C   UNL     1      -9.818  14.249  65.780  1.00  0.00    -0.314 C  
HETATM   20  C   UNL     1     -11.300  14.435  65.516  1.00  0.00    -0.334 C  
HETATM   21  C   UNL     1     -12.071  13.113  65.559  1.00  0.00    -0.490 C  
HETATM   22  C   UNL     1     -12.499  12.566  64.206  1.00  0.00    -0.432 C  
HETATM   23  C   UNL     1     -11.465  11.981  66.430  1.00  0.00    -0.353 C  
HETATM   24  O   UNL     1     -11.695  12.842  63.160  1.00  0.00    -0.472 OA 
HETATM   25  O   UNL     1     -13.506  11.882  64.063  1.00  0.00    -0.600 OA 
ENDBRANCH  16  17
ENDBRANCH  15  16
ENDBRANCH   8  15
ENDBRANCH   3   7
TORSDOF 5
ENDMDL
MODEL       50
REMARK 921   NORMALIZED FREE ENERGY PREDICTED BY IDOCK:   -5.38 KCAL/MOL
REMARK 922        TOTAL FREE ENERGY PREDICTED BY IDOCK:   -8.45 KCAL/MOL
REMARK 923 INTER-LIGAND FREE ENERGY PREDICTED BY IDOCK:   -7.24 KCAL/MOL
REMARK 924 INTRA-LIGAND FREE ENERGY PREDICTED BY IDOCK:   -1.21 KCAL/MOL
REMARK 927      BINDING AFFINITY PREDICTED BY RF-SCORE:    0.00 PKD
ROOT
HETATM    1  C   UNL     1     -11.640   6.397  69.994  1.00  0.00    -0.446 C  
HETATM    2  C   UNL     1     -12.228   7.532  70.771  1.00  0.00    -0.152 A  
HETATM    3  C   UNL     1     -11.686   8.811  70.981  1.00  0.00    -0.282 A  
HETATM    4  C   UNL     1     -13.860   8.474  72.164  1.00  0.00    -0.393 A  
HETATM    5  S   UNL     1     -12.735   9.742  72.002  1.00  0.00    -0.346 SA 
HETATM    6  C   UNL     1     -13.481   7.362  71.459  1.00  0.00    -0.445 A  
ENDROOT
BRANCH   3   7
HETATM    7  C   UNL     1     -10.432   9.425  70.569  1.00  0.00    -0.335 C  
HETATM    8  C   UNL     1     -10.454  10.414  69.639  1.00  0.00    -0.279 C  
BRANCH   7   9
HETATM    9  C   UNL     1      -9.149   9.078  71.185  1.00  0.00    -0.246 A  
HETATM   10  C   UNL     1      -8.809   8.408  72.375  1.00  0.00    -0.294 A  
HETATM   11  C   UNL     1      -6.672   8.785  71.483  1.00  0.00    -0.081 A  
HETATM   12  C   UNL     1      -7.382   8.265  72.530  1.00  0.00    -0.142 A  
HETATM   13  S   UNL     1      -7.688   9.479  70.316  1.00  0.00    -0.170 SA 
HETATM   14  C   UNL     1      -9.711   7.838  73.429  1.00  0.00    -0.353 C  
ENDBRANCH   7   9
BRANCH   8  15
HETATM   15  C   UNL     1     -11.675  11.079  69.031  1.00  0.00    -0.402 C  
BRANCH  15  16
HETATM   16  C   UNL     1     -12.030  12.482  69.618  1.00  0.00    -0.272 C  
BRANCH  16  17
HETATM   17  N   UNL     1     -11.697  13.572  68.683  1.00  0.00    -0.332 NA 
HETATM   18  C   UNL     1     -10.388  14.178  68.860  1.00  0.00    -0.199 C  
HETATM   19  C   UNL     1      -9.348  13.595  67.915  1.00  0.00    -0.206 C  
HETATM   20  C   UNL     1      -9.714  13.954  66.487  1.00  0.00    -0.303 C  
HETATM   21  C   UNL     1     -11.139  13.528  66.124  1.00  0.00    -0.299 C  
HETATM   22  C   UNL     1     -11.243  12.309  65.221  1.00  0.00    -0.328 C  
HETATM   23  C   UNL     1     -12.153  13.421  67.294  1.00  0.00    -0.304 C  
HETATM   24  O   UNL     1     -10.276  11.380  65.345  1.00  0.00    -0.247 OA 
HETATM   25  O   UNL     1     -12.172  12.151  64.437  1.00  0.00    -0.385 OA 
ENDBRANCH  16  17
ENDBRANCH  15  16
ENDBRANCH   8  15
ENDBRANCH   3   7
TORSDOF 5
ENDMDL
MODEL       51
REMARK 921   NORMALIZED FREE ENERGY PREDICTED BY IDOCK:   -5.37 KCAL/MOL
REMARK 922        TOTAL FREE ENERGY PREDICTED BY IDOCK:   -8.44 KCAL/MOL
REMARK 923 INTER-LIGAND FREE ENERGY PREDICTED BY IDOCK:   -6.61 KCAL/MOL
REMARK 924 INTRA-LIGAND FREE ENERGY PREDICTED BY IDOCK:   -1.83 KCAL/MOL
REMARK 927      BINDING AFFINITY PREDICTED BY RF-SCORE:    0.00 PKD
ROOT
HETATM    1  C   UNL     1     -10.130  16.577  66.234  1.00  0.00    -0.347 C  
HETATM    2  C   UNL     1     -10.925  15.354  65.906  1.00  0.00    -0.293 A  
HETATM    3  C   UNL     1     -11.185  14.243  66.727  1.00  0.00    -0.332 A  
HETATM    4  C   UNL     1     -12.147  13.999  64.434  1.00  0.00    -0.458 A  
HETATM    5  S   UNL     1     -12.111  13.062  65.856  1.00  0.00    -0.426 SA 
HETATM    6  C   UNL     1     -11.491  15.192  64.592  1.00  0.00    -0.363 A  
ENDROOT
BRANCH   3   7
HETATM    7  C   UNL     1     -10.772  13.906  68.082  1.00  0.00    -0.260 C  
HETATM    8  C   UNL     1      -9.529  13.401  68.288  1.00  0.00    -0.209 C  
BRANCH   7   9
HETATM    9  C   UNL     1     -11.617  14.173  69.249  1.00  0.00    -0.304 A  
HETATM   10  C   UNL     1     -12.193  13.340  70.225  1.00  0.00    -0.391 A  
HETATM   11  C   UNL     1     -12.872  15.440  71.018  1.00  0.00    -0.463 A  
HETATM   12  C   UNL     1     -12.919  14.088  71.221  1.00  0.00    -0.418 A  
HETATM   13  S   UNL     1     -11.990  15.838  69.625  1.00  0.00    -0.248 SA 
HETATM   14  C   UNL     1     -12.122  11.847  70.353  1.00  0.00    -0.421 C  
ENDBRANCH   7   9
BRANCH   8  15
HETATM   15  C   UNL     1      -8.418  13.245  67.267  1.00  0.00    -0.203 C  
BRANCH  15  16
HETATM   16  C   UNL     1      -7.033  12.817  67.849  1.00  0.00    -0.116 C  
BRANCH  16  17
HETATM   17  N   UNL     1      -6.879  11.353  67.887  1.00  0.00    -0.070 NA 
HETATM   18  C   UNL     1      -6.869  10.752  69.211  1.00  0.00    -0.092 C  
HETATM   19  C   UNL     1      -8.234  10.213  69.612  1.00  0.00    -0.176 C  
HETATM   20  C   UNL     1      -8.601   9.056  68.702  1.00  0.00    -0.129 C  
HETATM   21  C   UNL     1      -8.532   9.433  67.220  1.00  0.00    -0.125 C  
HETATM   22  C   UNL     1      -9.876   9.629  66.536  1.00  0.00    -0.235 C  
HETATM   23  C   UNL     1      -7.562  10.582  66.838  1.00  0.00    -0.110 C  
HETATM   24  O   UNL     1     -10.883  10.093  67.302  1.00  0.00    -0.271 OA 
HETATM   25  O   UNL     1     -10.043   9.408  65.342  1.00  0.00    -0.150 OA 
ENDBRANCH  16  17
ENDBRANCH  15  16
ENDBRANCH   8  15
ENDBRANCH   3   7
TORSDOF 5
ENDMDL
MODEL       52
REMARK 921   NORMALIZED FREE ENERGY PREDICTED BY IDOCK:   -5.37 KCAL/MOL
REMARK 922        TOTAL FREE ENERGY PREDICTED BY IDOCK:   -8.44 KCAL/MOL
REMARK 923 INTER-LIGAND FREE ENERGY PREDICTED BY IDOCK:   -6.84 KCAL/MOL
REMARK 924 INTRA-LIGAND FREE ENERGY PREDICTED BY IDOCK:   -1.60 KCAL/MOL
REMARK 927      BINDING AFFINITY PREDICTED BY RF-SCORE:    0.00 PKD
ROOT
HETATM    1  C   UNL     1     -12.015  13.637  68.668  1.00  0.00    -0.395 C  
HETATM    2  C   UNL     1     -11.705  14.052  67.265  1.00  0.00    -0.420 A  
HETATM    3  C   UNL     1     -10.572  14.738  66.795  1.00  0.00    -0.302 A  
HETATM    4  C   UNL     1     -12.244  14.280  64.996  1.00  0.00    -0.433 A  
HETATM    5  S   UNL     1     -10.718  15.031  65.091  1.00  0.00    -0.434 SA 
HETATM    6  C   UNL     1     -12.652  13.796  66.211  1.00  0.00    -0.372 A  
ENDROOT
BRANCH   3   7
HETATM    7  C   UNL     1      -9.400  15.276  67.470  1.00  0.00    -0.204 C  
HETATM    8  C   UNL     1      -8.357  14.450  67.744  1.00  0.00    -0.172 C  
BRANCH   7   9
HETATM    9  C   UNL     1      -9.262  16.700  67.789  1.00  0.00    -0.214 A  
HETATM   10  C   UNL     1      -8.347  17.688  67.384  1.00  0.00    -0.217 A  
HETATM   11  C   UNL     1      -9.781  18.973  68.722  1.00  0.00    -0.416 A  
HETATM   12  C   UNL     1      -8.656  18.980  67.943  1.00  0.00    -0.333 A  
HETATM   13  S   UNL     1     -10.466  17.426  68.825  1.00  0.00    -0.288 SA 
HETATM   14  C   UNL     1      -7.164  17.561  66.469  1.00  0.00    -0.298 C  
ENDBRANCH   7   9
BRANCH   8  15
HETATM   15  C   UNL     1      -8.191  13.005  67.315  1.00  0.00    -0.174 C  
BRANCH  15  16
HETATM   16  C   UNL     1      -7.646  12.041  68.418  1.00  0.00    -0.128 C  
BRANCH  16  17
HETATM   17  N   UNL     1      -8.122  10.660  68.228  1.00  0.00    -0.113 NA 
HETATM   18  C   UNL     1      -9.272  10.273  69.029  1.00  0.00    -0.183 C  
HETATM   19  C   UNL     1     -10.579  10.398  68.263  1.00  0.00    -0.245 C  
HETATM   20  C   UNL     1     -10.589   9.397  67.123  1.00  0.00    -0.294 C  
HETATM   21  C   UNL     1      -9.363   9.532  66.216  1.00  0.00    -0.242 C  
HETATM   22  C   UNL     1      -9.623  10.182  64.866  1.00  0.00    -0.306 C  
HETATM   23  C   UNL     1      -8.082  10.122  66.861  1.00  0.00    -0.121 C  
HETATM   24  O   UNL     1     -10.599  11.109  64.818  1.00  0.00    -0.317 OA 
HETATM   25  O   UNL     1      -8.964   9.909  63.870  1.00  0.00    -0.215 OA 
ENDBRANCH  16  17
ENDBRANCH  15  16
ENDBRANCH   8  15
ENDBRANCH   3   7
TORSDOF 5
ENDMDL
MODEL       53
REMARK 921   NORMALIZED FREE ENERGY PREDICTED BY IDOCK:   -5.37 KCAL/MOL
REMARK 922        TOTAL FREE ENERGY PREDICTED BY IDOCK:   -8.43 KCAL/MOL
REMARK 923 INTER-LIGAND FREE ENERGY PREDICTED BY IDOCK:   -7.43 KCAL/MOL
REMARK 924 INTRA-LIGAND FREE ENERGY PREDICTED BY IDOCK:   -1.00 KCAL/MOL
REMARK 927      BINDING AFFINITY PREDICTED BY RF-SCORE:    0.00 PKD
ROOT
HETATM    1  C   UNL     1     -12.443  13.529  66.180  1.00  0.00    -0.424 C  
HETATM    2  C   UNL     1     -11.105  13.329  66.818  1.00  0.00    -0.313 A  
HETATM    3  C   UNL     1     -10.820  12.786  68.082  1.00  0.00    -0.228 A  
HETATM    4  C   UNL     1      -8.773  13.554  66.874  1.00  0.00    -0.145 A  
HETATM    5  S   UNL     1      -9.110  12.825  68.376  1.00  0.00    -0.071 SA 
HETATM    6  C   UNL     1      -9.911  13.761  66.140  1.00  0.00    -0.310 A  
ENDROOT
BRANCH   3   7
HETATM    7  C   UNL     1     -11.673  12.290  69.153  1.00  0.00    -0.377 C  
HETATM    8  C   UNL     1     -11.873  10.953  69.275  1.00  0.00    -0.395 C  
BRANCH   7   9
HETATM    9  C   UNL     1     -12.259  13.177  70.163  1.00  0.00    -0.290 A  
HETATM   10  C   UNL     1     -12.412  14.573  70.237  1.00  0.00    -0.405 A  
HETATM   11  C   UNL     1     -13.487  13.930  72.220  1.00  0.00    -0.526 A  
HETATM   12  C   UNL     1     -13.106  14.982  71.433  1.00  0.00    -0.464 A  
HETATM   13  S   UNL     1     -12.997  12.444  71.565  1.00  0.00    -0.181 SA 
HETATM   14  C   UNL     1     -11.979  15.624  69.258  1.00  0.00    -0.338 C  
ENDBRANCH   7   9
BRANCH   8  15
HETATM   15  C   UNL     1     -11.200   9.847  68.485  1.00  0.00    -0.129 C  
BRANCH  15  16
HETATM   16  C   UNL     1     -10.480   8.758  69.344  1.00  0.00    -0.222 C  
BRANCH  16  17
HETATM   17  N   UNL     1     -11.151   8.542  70.637  1.00  0.00    -0.251 NA 
HETATM   18  C   UNL     1     -11.928   7.318  70.749  1.00  0.00    -0.272 C  
HETATM   19  C   UNL     1     -11.150   6.200  71.425  1.00  0.00    -0.346 C  
HETATM   20  C   UNL     1     -10.880   6.580  72.869  1.00  0.00    -0.288 C  
HETATM   21  C   UNL     1     -10.183   7.937  72.995  1.00  0.00    -0.394 C  
HETATM   22  C   UNL     1      -8.705   7.878  73.350  1.00  0.00    -0.249 C  
HETATM   23  C   UNL     1     -10.420   8.951  71.845  1.00  0.00    -0.345 C  
HETATM   24  O   UNL     1      -8.018   6.808  72.905  1.00  0.00    -0.104 OA 
HETATM   25  O   UNL     1      -8.147   8.767  73.984  1.00  0.00    -0.366 OA 
ENDBRANCH  16  17
ENDBRANCH  15  16
ENDBRANCH   8  15
ENDBRANCH   3   7
TORSDOF 5
ENDMDL
MODEL       54
REMARK 921   NORMALIZED FREE ENERGY PREDICTED BY IDOCK:   -5.36 KCAL/MOL
REMARK 922        TOTAL FREE ENERGY PREDICTED BY IDOCK:   -8.43 KCAL/MOL
REMARK 923 INTER-LIGAND FREE ENERGY PREDICTED BY IDOCK:   -7.80 KCAL/MOL
REMARK 924 INTRA-LIGAND FREE ENERGY PREDICTED BY IDOCK:   -0.63 KCAL/MOL
REMARK 927      BINDING AFFINITY PREDICTED BY RF-SCORE:    0.00 PKD
ROOT
HETATM    1  C   UNL     1     -12.913  10.956  71.788  1.00  0.00    -0.557 C  
HETATM    2  C   UNL     1     -12.823   9.476  71.591  1.00  0.00    -0.483 A  
HETATM    3  C   UNL     1     -11.756   8.736  71.054  1.00  0.00    -0.282 A  
HETATM    4  C   UNL     1     -13.723   7.313  71.641  1.00  0.00    -0.347 A  
HETATM    5  S   UNL     1     -12.172   7.053  70.988  1.00  0.00    -0.338 SA 
HETATM    6  C   UNL     1     -13.943   8.635  71.924  1.00  0.00    -0.501 A  
ENDROOT
BRANCH   3   7
HETATM    7  C   UNL     1     -10.465   9.131  70.509  1.00  0.00    -0.289 C  
HETATM    8  C   UNL     1     -10.422   9.816  69.339  1.00  0.00    -0.241 C  
BRANCH   7   9
HETATM    9  C   UNL     1      -9.207   8.892  71.223  1.00  0.00    -0.258 A  
HETATM   10  C   UNL     1      -8.902   8.250  72.437  1.00  0.00    -0.286 A  
HETATM   11  C   UNL     1      -6.744   8.811  71.709  1.00  0.00    -0.071 A  
HETATM   12  C   UNL     1      -7.485   8.228  72.701  1.00  0.00    -0.153 A  
HETATM   13  S   UNL     1      -7.724   9.418  70.465  1.00  0.00    -0.152 SA 
HETATM   14  C   UNL     1      -9.830   7.602  73.422  1.00  0.00    -0.362 C  
ENDBRANCH   7   9
BRANCH   8  15
HETATM   15  C   UNL     1     -11.596  10.357  68.546  1.00  0.00    -0.152 C  
BRANCH  15  16
HETATM   16  C   UNL     1     -11.234  11.424  67.463  1.00  0.00    -0.292 C  
BRANCH  16  17
HETATM   17  N   UNL     1     -12.018  12.661  67.623  1.00  0.00    -0.403 NA 
HETATM   18  C   UNL     1     -12.019  13.240  68.956  1.00  0.00    -0.293 C  
HETATM   19  C   UNL     1     -10.992  14.351  69.105  1.00  0.00    -0.288 C  
HETATM   20  C   UNL     1     -11.382  15.516  68.215  1.00  0.00    -0.360 C  
HETATM   21  C   UNL     1     -11.581  15.095  66.756  1.00  0.00    -0.136 C  
HETATM   22  C   UNL     1     -10.468  15.503  65.804  1.00  0.00    -0.361 C  
HETATM   23  C   UNL     1     -11.988  13.618  66.508  1.00  0.00    -0.424 C  
HETATM   24  O   UNL     1      -9.225  15.571  66.320  1.00  0.00    -0.279 OA 
HETATM   25  O   UNL     1     -10.671  15.731  64.617  1.00  0.00    -0.497 OA 
ENDBRANCH  16  17
ENDBRANCH  15  16
ENDBRANCH   8  15
ENDBRANCH   3   7
TORSDOF 5
ENDMDL
MODEL       55
REMARK 921   NORMALIZED FREE ENERGY PREDICTED BY IDOCK:   -5.34 KCAL/MOL
REMARK 922        TOTAL FREE ENERGY PREDICTED BY IDOCK:   -8.40 KCAL/MOL
REMARK 923 INTER-LIGAND FREE ENERGY PREDICTED BY IDOCK:   -7.04 KCAL/MOL
REMARK 924 INTRA-LIGAND FREE ENERGY PREDICTED BY IDOCK:   -1.36 KCAL/MOL
REMARK 927      BINDING AFFINITY PREDICTED BY RF-SCORE:    0.00 PKD
ROOT
HETATM    1  C   UNL     1      -9.134  11.147  65.097  1.00  0.00    -0.161 C  
HETATM    2  C   UNL     1     -10.339  11.988  64.818  1.00  0.00    -0.318 A  
HETATM    3  C   UNL     1     -10.814  13.091  65.549  1.00  0.00    -0.278 A  
HETATM    4  C   UNL     1     -12.286  12.501  63.619  1.00  0.00    -0.522 A  
HETATM    5  S   UNL     1     -12.284  13.684  64.843  1.00  0.00    -0.421 SA 
HETATM    6  C   UNL     1     -11.201  11.669  63.711  1.00  0.00    -0.498 A  
ENDROOT
BRANCH   3   7
HETATM    7  C   UNL     1     -10.346  13.736  66.767  1.00  0.00    -0.272 C  
HETATM    8  C   UNL     1     -10.840  13.327  67.964  1.00  0.00    -0.261 C  
BRANCH   7   9
HETATM    9  C   UNL     1      -9.293  14.756  66.760  1.00  0.00    -0.249 A  
HETATM   10  C   UNL     1      -9.245  16.079  66.285  1.00  0.00    -0.368 A  
HETATM   11  C   UNL     1      -7.106  15.898  67.230  1.00  0.00    -0.207 A  
HETATM   12  C   UNL     1      -7.976  16.708  66.554  1.00  0.00    -0.342 A  
HETATM   13  S   UNL     1      -7.773  14.367  67.528  1.00  0.00    -0.190 SA 
HETATM   14  C   UNL     1     -10.312  16.872  65.590  1.00  0.00    -0.254 C  
ENDBRANCH   7   9
BRANCH   8  15
HETATM   15  C   UNL     1     -11.765  12.153  68.225  1.00  0.00    -0.401 C  
BRANCH  15  16
HETATM   16  C   UNL     1     -11.557  11.434  69.596  1.00  0.00    -0.330 C  
BRANCH  16  17
HETATM   17  N   UNL     1     -11.460   9.972  69.444  1.00  0.00    -0.140 NA 
HETATM   18  C   UNL     1     -10.746   9.505  68.267  1.00  0.00    -0.194 C  
HETATM   19  C   UNL     1      -9.294   9.164  68.569  1.00  0.00    -0.137 C  
HETATM   20  C   UNL     1      -9.246   7.973  69.506  1.00  0.00    -0.152 C  
HETATM   21  C   UNL     1     -10.071   8.194  70.776  1.00  0.00    -0.211 C  
HETATM   22  C   UNL     1      -9.265   8.472  72.035  1.00  0.00    -0.256 C  
HETATM   23  C   UNL     1     -11.261   9.185  70.669  1.00  0.00    -0.270 C  
HETATM   24  O   UNL     1      -8.094   9.118  71.874  1.00  0.00    -0.330 OA 
HETATM   25  O   UNL     1      -9.663   8.157  73.151  1.00  0.00    -0.277 OA 
ENDBRANCH  16  17
ENDBRANCH  15  16
ENDBRANCH   8  15
ENDBRANCH   3   7
TORSDOF 5
ENDMDL
MODEL       56
REMARK 921   NORMALIZED FREE ENERGY PREDICTED BY IDOCK:   -5.33 KCAL/MOL
REMARK 922        TOTAL FREE ENERGY PREDICTED BY IDOCK:   -8.39 KCAL/MOL
REMARK 923 INTER-LIGAND FREE ENERGY PREDICTED BY IDOCK:   -7.28 KCAL/MOL
REMARK 924 INTRA-LIGAND FREE ENERGY PREDICTED BY IDOCK:   -1.11 KCAL/MOL
REMARK 927      BINDING AFFINITY PREDICTED BY RF-SCORE:    0.00 PKD
ROOT
HETATM    1  C   UNL     1      -9.585  11.512  68.596  1.00  0.00    -0.159 C  
HETATM    2  C   UNL     1     -10.532  12.361  67.809  1.00  0.00    -0.231 A  
HETATM    3  C   UNL     1     -11.168  13.549  68.208  1.00  0.00    -0.274 A  
HETATM    4  C   UNL     1     -11.838  12.813  65.916  1.00  0.00    -0.437 A  
HETATM    5  S   UNL     1     -12.216  14.117  66.946  1.00  0.00    -0.253 SA 
HETATM    6  C   UNL     1     -10.931  11.959  66.485  1.00  0.00    -0.337 A  
ENDROOT
BRANCH   3   7
HETATM    7  C   UNL     1     -11.152  14.300  69.455  1.00  0.00    -0.283 C  
HETATM    8  C   UNL     1     -10.208  15.259  69.637  1.00  0.00    -0.253 C  
BRANCH   7   9
HETATM    9  C   UNL     1     -12.173  14.122  70.491  1.00  0.00    -0.361 A  
HETATM   10  C   UNL     1     -12.688  12.986  71.141  1.00  0.00    -0.372 A  
HETATM   11  C   UNL     1     -13.867  14.678  72.260  1.00  0.00    -0.479 A  
HETATM   12  C   UNL     1     -13.668  13.329  72.142  1.00  0.00    -0.619 A  
HETATM   13  S   UNL     1     -12.915  15.553  71.163  1.00  0.00    -0.482 SA 
HETATM   14  C   UNL     1     -12.337  11.542  70.940  1.00  0.00    -0.460 C  
ENDBRANCH   7   9
BRANCH   8  15
HETATM   15  C   UNL     1      -9.197  15.759  68.623  1.00  0.00    -0.207 C  
BRANCH  15  16
HETATM   16  C   UNL     1      -7.755  15.993  69.180  1.00  0.00    -0.231 C  
BRANCH  16  17
HETATM   17  N   UNL     1      -7.027  17.018  68.413  1.00  0.00    -0.173 NA 
HETATM   18  C   UNL     1      -7.793  17.700  67.383  1.00  0.00    -0.205 C  
HETATM   19  C   UNL     1      -8.347  19.033  67.862  1.00  0.00    -0.320 C  
HETATM   20  C   UNL     1      -7.198  19.984  68.134  1.00  0.00    -0.320 C  
HETATM   21  C   UNL     1      -6.170  19.395  69.104  1.00  0.00    -0.311 C  
HETATM   22  C   UNL     1      -6.203  19.966  70.513  1.00  0.00    -0.264 C  
HETATM   23  C   UNL     1      -6.066  17.847  69.153  1.00  0.00    -0.225 C  
HETATM   24  O   UNL     1      -7.402  20.376  70.972  1.00  0.00     0.216 OA 
HETATM   25  O   UNL     1      -5.203  20.029  71.219  1.00  0.00    -0.240 OA 
ENDBRANCH  16  17
ENDBRANCH  15  16
ENDBRANCH   8  15
ENDBRANCH   3   7
TORSDOF 5
ENDMDL
MODEL       57
REMARK 921   NORMALIZED FREE ENERGY PREDICTED BY IDOCK:   -5.33 KCAL/MOL
REMARK 922        TOTAL FREE ENERGY PREDICTED BY IDOCK:   -8.38 KCAL/MOL
REMARK 923 INTER-LIGAND FREE ENERGY PREDICTED BY IDOCK:   -7.40 KCAL/MOL
REMARK 924 INTRA-LIGAND FREE ENERGY PREDICTED BY IDOCK:   -0.99 KCAL/MOL
REMARK 927      BINDING AFFINITY PREDICTED BY RF-SCORE:    0.00 PKD
ROOT
HETATM    1  C   UNL     1      -7.971  12.616  68.174  1.00  0.00    -0.158 C  
HETATM    2  C   UNL     1      -7.938  11.575  67.100  1.00  0.00    -0.160 A  
HETATM    3  C   UNL     1      -9.023  11.005  66.412  1.00  0.00    -0.181 A  
HETATM    4  C   UNL     1      -6.825  10.027  65.737  1.00  0.00    -0.111 A  
HETATM    5  S   UNL     1      -8.455   9.800  65.300  1.00  0.00    -0.155 SA 
HETATM    6  C   UNL     1      -6.683  10.999  66.693  1.00  0.00    -0.134 A  
ENDROOT
BRANCH   3   7
HETATM    7  C   UNL     1     -10.462  11.195  66.520  1.00  0.00    -0.305 C  
HETATM    8  C   UNL     1     -11.134  10.595  67.535  1.00  0.00    -0.367 C  
BRANCH   7   9
HETATM    9  C   UNL     1     -11.206  12.083  65.621  1.00  0.00    -0.327 A  
HETATM   10  C   UNL     1     -11.919  13.277  65.831  1.00  0.00    -0.466 A  
HETATM   11  C   UNL     1     -12.130  13.068  63.504  1.00  0.00    -0.542 A  
HETATM   12  C   UNL     1     -12.451  13.816  64.604  1.00  0.00    -0.356 A  
HETATM   13  S   UNL     1     -11.218  11.699  63.918  1.00  0.00    -0.368 SA 
HETATM   14  C   UNL     1     -12.155  14.024  67.110  1.00  0.00    -0.436 C  
ENDBRANCH   7   9
BRANCH   8  15
HETATM   15  C   UNL     1     -10.544   9.817  68.696  1.00  0.00    -0.249 C  
BRANCH  15  16
HETATM   16  C   UNL     1     -10.371   8.283  68.450  1.00  0.00    -0.199 C  
BRANCH  16  17
HETATM   17  N   UNL     1     -10.361   7.520  69.710  1.00  0.00    -0.215 NA 
HETATM   18  C   UNL     1      -9.220   7.751  70.581  1.00  0.00    -0.161 C  
HETATM   19  C   UNL     1      -9.522   8.768  71.671  1.00  0.00    -0.358 C  
HETATM   20  C   UNL     1     -10.571   8.201  72.608  1.00  0.00    -0.414 C  
HETATM   21  C   UNL     1     -11.832   7.747  71.867  1.00  0.00    -0.338 C  
HETATM   22  C   UNL     1     -13.038   8.660  72.016  1.00  0.00    -0.381 C  
HETATM   23  C   UNL     1     -11.654   7.328  70.383  1.00  0.00    -0.219 C  
HETATM   24  O   UNL     1     -12.787   9.974  72.171  1.00  0.00    -0.389 OA 
HETATM   25  O   UNL     1     -14.188   8.239  71.970  1.00  0.00    -0.406 OA 
ENDBRANCH  16  17
ENDBRANCH  15  16
ENDBRANCH   8  15
ENDBRANCH   3   7
TORSDOF 5
ENDMDL
MODEL       58
REMARK 921   NORMALIZED FREE ENERGY PREDICTED BY IDOCK:   -5.32 KCAL/MOL
REMARK 922        TOTAL FREE ENERGY PREDICTED BY IDOCK:   -8.38 KCAL/MOL
REMARK 923 INTER-LIGAND FREE ENERGY PREDICTED BY IDOCK:   -7.98 KCAL/MOL
REMARK 924 INTRA-LIGAND FREE ENERGY PREDICTED BY IDOCK:   -0.41 KCAL/MOL
REMARK 927      BINDING AFFINITY PREDICTED BY RF-SCORE:    0.00 PKD
ROOT
HETATM    1  C   UNL     1     -12.228  13.556  67.750  1.00  0.00    -0.194 C  
HETATM    2  C   UNL     1     -11.861  14.321  68.982  1.00  0.00    -0.370 A  
HETATM    3  C   UNL     1     -10.848  15.283  69.135  1.00  0.00    -0.250 A  
HETATM    4  C   UNL     1     -12.066  14.809  71.265  1.00  0.00    -0.341 A  
HETATM    5  S   UNL     1     -10.793  15.832  70.780  1.00  0.00    -0.087 SA 
HETATM    6  C   UNL     1     -12.550  14.067  70.220  1.00  0.00    -0.354 A  
ENDROOT
BRANCH   3   7
HETATM    7  C   UNL     1      -9.850  15.813  68.217  1.00  0.00    -0.213 C  
HETATM    8  C   UNL     1      -8.791  15.037  67.872  1.00  0.00    -0.171 C  
BRANCH   7   9
HETATM    9  C   UNL     1      -9.990  17.125  67.579  1.00  0.00    -0.279 A  
HETATM   10  C   UNL     1     -10.441  17.528  66.309  1.00  0.00    -0.283 A  
HETATM   11  C   UNL     1     -10.022  19.619  67.285  1.00  0.00    -0.395 A  
HETATM   12  C   UNL     1     -10.437  18.962  66.159  1.00  0.00    -0.521 A  
HETATM   13  S   UNL     1      -9.602  18.540  68.525  1.00  0.00    -0.368 SA 
HETATM   14  C   UNL     1     -10.921  16.684  65.165  1.00  0.00    -0.160 C  
ENDBRANCH   7   9
BRANCH   8  15
HETATM   15  C   UNL     1      -8.559  13.583  68.235  1.00  0.00    -0.168 C  
BRANCH  15  16
HETATM   16  C   UNL     1      -9.493  12.559  67.515  1.00  0.00    -0.185 C  
BRANCH  16  17
HETATM   17  N   UNL     1      -9.152  12.408  66.090  1.00  0.00    -0.110 NA 
HETATM   18  C   UNL     1      -8.828  11.058  65.657  1.00  0.00    -0.178 C  
HETATM   19  C   UNL     1     -10.018  10.350  65.030  1.00  0.00    -0.399 C  
HETATM   20  C   UNL     1     -10.396  11.053  63.740  1.00  0.00    -0.427 C  
HETATM   21  C   UNL     1     -10.646  12.550  63.942  1.00  0.00    -0.472 C  
HETATM   22  C   UNL     1     -12.105  12.975  63.912  1.00  0.00    -0.471 C  
HETATM   23  C   UNL     1      -9.912  13.223  65.132  1.00  0.00    -0.153 C  
HETATM   24  O   UNL     1     -13.007  12.078  64.357  1.00  0.00    -0.600 OA 
HETATM   25  O   UNL     1     -12.457  14.087  63.534  1.00  0.00    -0.826 OA 
ENDBRANCH  16  17
ENDBRANCH  15  16
ENDBRANCH   8  15
ENDBRANCH   3   7
TORSDOF 5
ENDMDL
MODEL       59
REMARK 921   NORMALIZED FREE ENERGY PREDICTED BY IDOCK:   -5.30 KCAL/MOL
REMARK 922        TOTAL FREE ENERGY PREDICTED BY IDOCK:   -8.35 KCAL/MOL
REMARK 923 INTER-LIGAND FREE ENERGY PREDICTED BY IDOCK:   -6.92 KCAL/MOL
REMARK 924 INTRA-LIGAND FREE ENERGY PREDICTED BY IDOCK:   -1.43 KCAL/MOL
REMARK 927      BINDING AFFINITY PREDICTED BY RF-SCORE:    0.00 PKD
ROOT
HETATM    1  C   UNL     1     -11.140  14.179  68.890  1.00  0.00    -0.288 C  
HETATM    2  C   UNL     1     -11.439  13.512  67.585  1.00  0.00    -0.351 A  
HETATM    3  C   UNL     1     -10.962  12.277  67.114  1.00  0.00    -0.262 A  
HETATM    4  C   UNL     1     -12.411  13.454  65.454  1.00  0.00    -0.477 A  
HETATM    5  S   UNL     1     -11.561  11.980  65.512  1.00  0.00    -0.223 SA 
HETATM    6  C   UNL     1     -12.273  14.170  66.614  1.00  0.00    -0.450 A  
ENDROOT
BRANCH   3   7
HETATM    7  C   UNL     1     -10.048  11.297  67.681  1.00  0.00    -0.201 C  
HETATM    8  C   UNL     1     -10.480  10.491  68.685  1.00  0.00    -0.211 C  
BRANCH   7   9
HETATM    9  C   UNL     1      -8.698  11.084  67.150  1.00  0.00    -0.135 A  
HETATM   10  C   UNL     1      -8.177  10.200  66.188  1.00  0.00    -0.125 A  
HETATM   11  C   UNL     1      -6.247  11.422  66.720  1.00  0.00    -0.141 A  
HETATM   12  C   UNL     1      -6.766  10.404  65.968  1.00  0.00    -0.124 A  
HETATM   13  S   UNL     1      -7.421  12.130  67.719  1.00  0.00    -0.135 SA 
HETATM   14  C   UNL     1      -8.886   9.145  65.392  1.00  0.00    -0.236 C  
ENDBRANCH   7   9
BRANCH   8  15
HETATM   15  C   UNL     1     -11.888  10.387  69.239  1.00  0.00    -0.165 C  
BRANCH  15  16
HETATM   16  C   UNL     1     -12.100  11.033  70.646  1.00  0.00    -0.373 C  
BRANCH  16  17
HETATM   17  N   UNL     1     -12.240  10.017  71.704  1.00  0.00    -0.392 NA 
HETATM   18  C   UNL     1     -13.602   9.643  72.045  1.00  0.00    -0.385 C  
HETATM   19  C   UNL     1     -14.050   8.376  71.331  1.00  0.00    -0.363 C  
HETATM   20  C   UNL     1     -13.227   7.204  71.830  1.00  0.00    -0.355 C  
HETATM   21  C   UNL     1     -11.721   7.449  71.698  1.00  0.00    -0.311 C  
HETATM   22  C   UNL     1     -11.036   6.692  70.571  1.00  0.00    -0.307 C  
HETATM   23  C   UNL     1     -11.253   8.928  71.718  1.00  0.00    -0.362 C  
HETATM   24  O   UNL     1     -11.775   6.443  69.472  1.00  0.00    -0.366 OA 
HETATM   25  O   UNL     1      -9.862   6.347  70.633  1.00  0.00    -0.181 OA 
ENDBRANCH  16  17
ENDBRANCH  15  16
ENDBRANCH   8  15
ENDBRANCH   3   7
TORSDOF 5
ENDMDL
MODEL       60
REMARK 921   NORMALIZED FREE ENERGY PREDICTED BY IDOCK:   -5.30 KCAL/MOL
REMARK 922        TOTAL FREE ENERGY PREDICTED BY IDOCK:   -8.35 KCAL/MOL
REMARK 923 INTER-LIGAND FREE ENERGY PREDICTED BY IDOCK:   -7.31 KCAL/MOL
REMARK 924 INTRA-LIGAND FREE ENERGY PREDICTED BY IDOCK:   -1.04 KCAL/MOL
REMARK 927      BINDING AFFINITY PREDICTED BY RF-SCORE:    0.00 PKD
ROOT
HETATM    1  C   UNL     1      -7.873  10.790  68.439  1.00  0.00    -0.120 C  
HETATM    2  C   UNL     1      -9.319  11.070  68.705  1.00  0.00    -0.196 A  
HETATM    3  C   UNL     1     -10.174  11.944  68.012  1.00  0.00    -0.192 A  
HETATM    4  C   UNL     1     -11.287  10.837  69.956  1.00  0.00    -0.319 A  
HETATM    5  S   UNL     1     -11.744  11.951  68.752  1.00  0.00    -0.323 SA 
HETATM    6  C   UNL     1      -9.982  10.442  69.817  1.00  0.00    -0.167 A  
ENDROOT
BRANCH   3   7
HETATM    7  C   UNL     1      -9.956  12.846  66.890  1.00  0.00    -0.238 C  
HETATM    8  C   UNL     1      -9.444  14.081  67.123  1.00  0.00    -0.241 C  
BRANCH   7   9
HETATM    9  C   UNL     1     -10.187  12.439  65.501  1.00  0.00    -0.274 A  
HETATM   10  C   UNL     1     -10.921  13.010  64.446  1.00  0.00    -0.400 A  
HETATM   11  C   UNL     1      -9.996  11.153  63.352  1.00  0.00    -0.387 A  
HETATM   12  C   UNL     1     -10.807  12.248  63.227  1.00  0.00    -0.359 A  
HETATM   13  S   UNL     1      -9.383  10.999  64.926  1.00  0.00    -0.196 SA 
HETATM   14  C   UNL     1     -11.744  14.265  64.438  1.00  0.00    -0.405 C  
ENDBRANCH   7   9
BRANCH   8  15
HETATM   15  C   UNL     1      -8.932  14.631  68.441  1.00  0.00    -0.180 C  
BRANCH  15  16
HETATM   16  C   UNL     1      -8.444  16.114  68.399  1.00  0.00    -0.184 C  
BRANCH  16  17
HETATM   17  N   UNL     1      -9.334  16.966  67.591  1.00  0.00    -0.231 NA 
HETATM   18  C   UNL     1     -10.425  17.602  68.311  1.00  0.00    -0.375 C  
HETATM   19  C   UNL     1     -10.094  19.031  68.717  1.00  0.00    -0.429 C  
HETATM   20  C   UNL     1      -9.949  19.883  67.471  1.00  0.00    -0.552 C  
HETATM   21  C   UNL     1      -8.933  19.305  66.482  1.00  0.00    -0.373 C  
HETATM   22  C   UNL     1      -7.599  20.033  66.422  1.00  0.00    -0.295 C  
HETATM   23  C   UNL     1      -8.708  17.771  66.533  1.00  0.00    -0.257 C  
HETATM   24  O   UNL     1      -7.173  20.612  67.561  1.00  0.00    -0.315 OA 
HETATM   25  O   UNL     1      -6.919  20.072  65.403  1.00  0.00    -0.303 OA 
ENDBRANCH  16  17
ENDBRANCH  15  16
ENDBRANCH   8  15
ENDBRANCH   3   7
TORSDOF 5
ENDMDL
MODEL       61
REMARK 921   NORMALIZED FREE ENERGY PREDICTED BY IDOCK:   -5.30 KCAL/MOL
REMARK 922        TOTAL FREE ENERGY PREDICTED BY IDOCK:   -8.35 KCAL/MOL
REMARK 923 INTER-LIGAND FREE ENERGY PREDICTED BY IDOCK:   -7.34 KCAL/MOL
REMARK 924 INTRA-LIGAND FREE ENERGY PREDICTED BY IDOCK:   -1.01 KCAL/MOL
REMARK 927      BINDING AFFINITY PREDICTED BY RF-SCORE:    0.00 PKD
ROOT
HETATM    1  C   UNL     1     -11.396   6.672  68.540  1.00  0.00    -0.128 C  
HETATM    2  C   UNL     1     -10.437   7.704  68.040  1.00  0.00    -0.247 A  
HETATM    3  C   UNL     1     -10.035   8.893  68.673  1.00  0.00    -0.177 A  
HETATM    4  C   UNL     1      -9.027   8.614  66.404  1.00  0.00    -0.161 A  
HETATM    5  S   UNL     1      -8.948   9.775  67.647  1.00  0.00    -0.127 SA 
HETATM    6  C   UNL     1      -9.842   7.564  66.737  1.00  0.00    -0.295 A  
ENDROOT
BRANCH   3   7
HETATM    7  C   UNL     1     -10.412   9.507  69.938  1.00  0.00    -0.269 C  
HETATM    8  C   UNL     1     -11.171  10.633  69.927  1.00  0.00    -0.378 C  
BRANCH   7   9
HETATM    9  C   UNL     1     -10.075   8.907  71.232  1.00  0.00    -0.295 A  
HETATM   10  C   UNL     1     -10.857   8.346  72.258  1.00  0.00    -0.422 A  
HETATM   11  C   UNL     1      -8.707   7.979  73.123  1.00  0.00    -0.237 A  
HETATM   12  C   UNL     1     -10.050   7.833  73.338  1.00  0.00    -0.327 A  
HETATM   13  S   UNL     1      -8.386   8.755  71.649  1.00  0.00    -0.065 SA 
HETATM   14  C   UNL     1     -12.348   8.207  72.342  1.00  0.00    -0.345 C  
ENDBRANCH   7   9
BRANCH   8  15
HETATM   15  C   UNL     1     -11.810  11.300  68.724  1.00  0.00    -0.396 C  
BRANCH  15  16
HETATM   16  C   UNL     1     -11.184  12.671  68.312  1.00  0.00    -0.272 C  
BRANCH  16  17
HETATM   17  N   UNL     1     -10.903  12.737  66.867  1.00  0.00    -0.250 NA 
HETATM   18  C   UNL     1     -12.063  12.665  65.994  1.00  0.00    -0.364 C  
HETATM   19  C   UNL     1     -12.541  14.040  65.553  1.00  0.00    -0.543 C  
HETATM   20  C   UNL     1     -11.480  14.682  64.678  1.00  0.00    -0.389 C  
HETATM   21  C   UNL     1     -10.111  14.730  65.362  1.00  0.00    -0.406 C  
HETATM   22  C   UNL     1      -9.685  16.099  65.867  1.00  0.00    -0.340 C  
HETATM   23  C   UNL     1      -9.831  13.647  66.437  1.00  0.00    -0.296 C  
HETATM   24  O   UNL     1     -10.667  16.927  66.272  1.00  0.00    -0.229 OA 
HETATM   25  O   UNL     1      -8.508  16.435  65.938  1.00  0.00    -0.379 OA 
ENDBRANCH  16  17
ENDBRANCH  15  16
ENDBRANCH   8  15
ENDBRANCH   3   7
TORSDOF 5
ENDMDL
MODEL       62
REMARK 921   NORMALIZED FREE ENERGY PREDICTED BY IDOCK:   -5.29 KCAL/MOL
REMARK 922        TOTAL FREE ENERGY PREDICTED BY IDOCK:   -8.34 KCAL/MOL
REMARK 923 INTER-LIGAND FREE ENERGY PREDICTED BY IDOCK:   -7.07 KCAL/MOL
REMARK 924 INTRA-LIGAND FREE ENERGY PREDICTED BY IDOCK:   -1.27 KCAL/MOL
REMARK 927      BINDING AFFINITY PREDICTED BY RF-SCORE:    0.00 PKD
ROOT
HETATM    1  C   UNL     1      -7.617  11.275  68.594  1.00  0.00    -0.129 C  
HETATM    2  C   UNL     1      -8.578  10.380  67.878  1.00  0.00    -0.118 A  
HETATM    3  C   UNL     1      -9.909  10.086  68.221  1.00  0.00    -0.146 A  
HETATM    4  C   UNL     1      -9.131   8.840  66.200  1.00  0.00    -0.202 A  
HETATM    5  S   UNL     1     -10.575   8.944  67.098  1.00  0.00    -0.151 SA 
HETATM    6  C   UNL     1      -8.153   9.653  66.710  1.00  0.00    -0.113 A  
ENDROOT
BRANCH   3   7
HETATM    7  C   UNL     1     -10.749  10.500  69.336  1.00  0.00    -0.277 C  
HETATM    8  C   UNL     1     -11.443  11.663  69.245  1.00  0.00    -0.364 C  
BRANCH   7   9
HETATM    9  C   UNL     1     -10.946   9.663  70.523  1.00  0.00    -0.313 A  
HETATM   10  C   UNL     1     -10.056   8.961  71.356  1.00  0.00    -0.379 A  
HETATM   11  C   UNL     1     -12.085   8.528  72.453  1.00  0.00    -0.367 A  
HETATM   12  C   UNL     1     -10.734   8.306  72.448  1.00  0.00    -0.411 A  
HETATM   13  S   UNL     1     -12.569   9.491  71.143  1.00  0.00    -0.277 SA 
HETATM   14  C   UNL     1      -8.564   8.841  71.257  1.00  0.00    -0.258 C  
ENDBRANCH   7   9
BRANCH   8  15
HETATM   15  C   UNL     1     -11.561  12.572  68.036  1.00  0.00    -0.395 C  
BRANCH  15  16
HETATM   16  C   UNL     1     -10.489  13.705  67.948  1.00  0.00    -0.247 C  
BRANCH  16  17
HETATM   17  N   UNL     1     -11.089  15.007  67.609  1.00  0.00    -0.306 NA 
HETATM   18  C   UNL     1     -11.708  15.724  68.711  1.00  0.00    -0.378 C  
HETATM   19  C   UNL     1     -10.781  16.765  69.318  1.00  0.00    -0.324 C  
HETATM   20  C   UNL     1     -10.514  17.854  68.295  1.00  0.00    -0.362 C  
HETATM   21  C   UNL     1      -9.982  17.295  66.973  1.00  0.00    -0.289 C  
HETATM   22  C   UNL     1      -8.498  17.515  66.725  1.00  0.00    -0.250 C  
HETATM   23  C   UNL     1     -10.375  15.835  66.626  1.00  0.00    -0.291 C  
HETATM   24  O   UNL     1      -7.701  17.546  67.811  1.00  0.00    -0.198 OA 
HETATM   25  O   UNL     1      -8.032  17.630  65.597  1.00  0.00    -0.529 OA 
ENDBRANCH  16  17
ENDBRANCH  15  16
ENDBRANCH   8  15
ENDBRANCH   3   7
TORSDOF 5
ENDMDL
MODEL       63
REMARK 921   NORMALIZED FREE ENERGY PREDICTED BY IDOCK:   -5.29 KCAL/MOL
REMARK 922        TOTAL FREE ENERGY PREDICTED BY IDOCK:   -8.33 KCAL/MOL
REMARK 923 INTER-LIGAND FREE ENERGY PREDICTED BY IDOCK:   -7.26 KCAL/MOL
REMARK 924 INTRA-LIGAND FREE ENERGY PREDICTED BY IDOCK:   -1.07 KCAL/MOL
REMARK 927      BINDING AFFINITY PREDICTED BY RF-SCORE:    0.00 PKD
ROOT
HETATM    1  C   UNL     1     -12.787   7.342  71.214  1.00  0.00    -0.365 C  
HETATM    2  C   UNL     1     -11.397   7.819  71.494  1.00  0.00    -0.289 A  
HETATM    3  C   UNL     1     -10.408   8.198  70.570  1.00  0.00    -0.202 A  
HETATM    4  C   UNL     1      -9.611   8.291  72.936  1.00  0.00    -0.249 A  
HETATM    5  S   UNL     1      -8.945   8.618  71.403  1.00  0.00    -0.241 SA 
HETATM    6  C   UNL     1     -10.916   7.883  72.849  1.00  0.00    -0.452 A  
ENDROOT
BRANCH   3   7
HETATM    7  C   UNL     1     -10.384   8.227  69.115  1.00  0.00    -0.225 C  
HETATM    8  C   UNL     1     -10.722   9.373  68.470  1.00  0.00    -0.203 C  
BRANCH   7   9
HETATM    9  C   UNL     1      -9.923   7.089  68.315  1.00  0.00    -0.153 A  
HETATM   10  C   UNL     1      -9.792   5.716  68.592  1.00  0.00    -0.190 A  
HETATM   11  C   UNL     1      -9.142   5.751  66.338  1.00  0.00    -0.146 A  
HETATM   12  C   UNL     1      -9.329   4.971  67.447  1.00  0.00    -0.138 A  
HETATM   13  S   UNL     1      -9.484   7.382  66.651  1.00  0.00    -0.178 SA 
HETATM   14  C   UNL     1     -10.084   4.976  69.864  1.00  0.00    -0.344 C  
ENDBRANCH   7   9
BRANCH   8  15
HETATM   15  C   UNL     1     -11.018  10.725  69.091  1.00  0.00    -0.293 C  
BRANCH  15  16
HETATM   16  C   UNL     1     -12.033  11.613  68.302  1.00  0.00    -0.166 C  
BRANCH  16  17
HETATM   17  N   UNL     1     -11.515  12.972  68.070  1.00  0.00    -0.288 NA 
HETATM   18  C   UNL     1     -10.087  13.148  68.281  1.00  0.00    -0.247 C  
HETATM   19  C   UNL     1      -9.296  13.062  66.985  1.00  0.00    -0.236 C  
HETATM   20  C   UNL     1      -9.668  14.232  66.094  1.00  0.00    -0.325 C  
HETATM   21  C   UNL     1     -11.177  14.326  65.853  1.00  0.00    -0.319 C  
HETATM   22  C   UNL     1     -11.645  13.887  64.475  1.00  0.00    -0.393 C  
HETATM   23  C   UNL     1     -12.096  13.725  66.950  1.00  0.00    -0.413 C  
HETATM   24  O   UNL     1     -10.928  12.918  63.873  1.00  0.00    -0.388 OA 
HETATM   25  O   UNL     1     -12.640  14.361  63.938  1.00  0.00    -0.814 OA 
ENDBRANCH  16  17
ENDBRANCH  15  16
ENDBRANCH   8  15
ENDBRANCH   3   7
TORSDOF 5
ENDMDL
MODEL       64
REMARK 921   NORMALIZED FREE ENERGY PREDICTED BY IDOCK:   -5.29 KCAL/MOL
REMARK 922        TOTAL FREE ENERGY PREDICTED BY IDOCK:   -8.33 KCAL/MOL
REMARK 923 INTER-LIGAND FREE ENERGY PREDICTED BY IDOCK:   -6.90 KCAL/MOL
REMARK 924 INTRA-LIGAND FREE ENERGY PREDICTED BY IDOCK:   -1.43 KCAL/MOL
REMARK 927      BINDING AFFINITY PREDICTED BY RF-SCORE:    0.00 PKD
ROOT
HETATM    1  C   UNL     1     -12.128  13.503  68.116  1.00  0.00    -0.290 C  
HETATM    2  C   UNL     1     -11.787  13.486  66.660  1.00  0.00    -0.450 A  
HETATM    3  C   UNL     1     -10.685  12.877  66.035  1.00  0.00    -0.277 A  
HETATM    4  C   UNL     1     -12.141  14.124  64.433  1.00  0.00    -0.463 A  
HETATM    5  S   UNL     1     -10.715  13.198  64.330  1.00  0.00    -0.372 SA 
HETATM    6  C   UNL     1     -12.612  14.195  65.717  1.00  0.00    -0.475 A  
ENDROOT
BRANCH   3   7
HETATM    7  C   UNL     1      -9.551  12.129  66.557  1.00  0.00    -0.235 C  
HETATM    8  C   UNL     1      -8.484  12.805  67.055  1.00  0.00    -0.154 C  
BRANCH   7   9
HETATM    9  C   UNL     1      -9.551  10.666  66.647  1.00  0.00    -0.175 A  
HETATM   10  C   UNL     1     -10.128   9.764  67.560  1.00  0.00    -0.246 A  
HETATM   11  C   UNL     1      -9.170   8.260  66.035  1.00  0.00    -0.166 A  
HETATM   12  C   UNL     1      -9.884   8.390  67.195  1.00  0.00    -0.279 A  
HETATM   13  S   UNL     1      -8.754   9.768  65.380  1.00  0.00    -0.167 SA 
HETATM   14  C   UNL     1     -10.941  10.052  68.787  1.00  0.00    -0.242 C  
ENDBRANCH   7   9
BRANCH   8  15
HETATM   15  C   UNL     1      -8.359  14.303  67.260  1.00  0.00    -0.222 C  
BRANCH  15  16
HETATM   16  C   UNL     1      -6.901  14.829  67.456  1.00  0.00    -0.155 C  
BRANCH  16  17
HETATM   17  N   UNL     1      -6.870  16.267  67.774  1.00  0.00    -0.125 NA 
HETATM   18  C   UNL     1      -5.968  17.074  66.969  1.00  0.00    -0.179 C  
HETATM   19  C   UNL     1      -6.681  17.758  65.813  1.00  0.00    -0.223 C  
HETATM   20  C   UNL     1      -7.666  18.772  66.363  1.00  0.00    -0.289 C  
HETATM   21  C   UNL     1      -8.642  18.154  67.367  1.00  0.00    -0.244 C  
HETATM   22  C   UNL     1     -10.055  17.937  66.852  1.00  0.00    -0.348 C  
HETATM   23  C   UNL     1      -8.149  16.898  68.133  1.00  0.00    -0.201 C  
HETATM   24  O   UNL     1     -10.186  17.670  65.537  1.00  0.00    -0.600 OA 
HETATM   25  O   UNL     1     -11.034  17.969  67.588  1.00  0.00    -0.323 OA 
ENDBRANCH  16  17
ENDBRANCH  15  16
ENDBRANCH   8  15
ENDBRANCH   3   7
TORSDOF 5
ENDMDL
MODEL       65
REMARK 921   NORMALIZED FREE ENERGY PREDICTED BY IDOCK:   -5.24 KCAL/MOL
REMARK 922        TOTAL FREE ENERGY PREDICTED BY IDOCK:   -8.28 KCAL/MOL
REMARK 923 INTER-LIGAND FREE ENERGY PREDICTED BY IDOCK:   -6.90 KCAL/MOL
REMARK 924 INTRA-LIGAND FREE ENERGY PREDICTED BY IDOCK:   -1.38 KCAL/MOL
REMARK 927      BINDING AFFINITY PREDICTED BY RF-SCORE:    0.00 PKD
ROOT
HETATM    1  C   UNL     1      -7.518   9.483  69.691  1.00  0.00    -0.092 C  
HETATM    2  C   UNL     1      -8.798   9.001  70.298  1.00  0.00    -0.210 A  
HETATM    3  C   UNL     1      -9.983   8.630  69.640  1.00  0.00    -0.191 A  
HETATM    4  C   UNL     1     -10.178   8.513  72.128  1.00  0.00    -0.333 A  
HETATM    5  S   UNL     1     -11.199   8.200  70.801  1.00  0.00    -0.256 SA 
HETATM    6  C   UNL     1      -8.933   8.924  71.729  1.00  0.00    -0.203 A  
ENDROOT
BRANCH   3   7
HETATM    7  C   UNL     1     -10.362   8.615  68.234  1.00  0.00    -0.252 C  
HETATM    8  C   UNL     1     -10.994   9.695  67.708  1.00  0.00    -0.203 C  
BRANCH   7   9
HETATM    9  C   UNL     1     -10.008   7.510  67.338  1.00  0.00    -0.187 A  
HETATM   10  C   UNL     1      -8.963   7.324  66.416  1.00  0.00    -0.184 A  
HETATM   11  C   UNL     1     -10.043   5.248  66.247  1.00  0.00    -0.207 A  
HETATM   12  C   UNL     1      -9.012   6.024  65.792  1.00  0.00    -0.116 A  
HETATM   13  S   UNL     1     -10.985   6.064  67.398  1.00  0.00    -0.137 SA 
HETATM   14  C   UNL     1      -7.852   8.261  66.044  1.00  0.00    -0.095 C  
ENDBRANCH   7   9
BRANCH   8  15
HETATM   15  C   UNL     1     -11.264  11.024  68.387  1.00  0.00    -0.337 C  
BRANCH  15  16
HETATM   16  C   UNL     1     -10.320  12.194  67.961  1.00  0.00    -0.205 C  
BRANCH  16  17
HETATM   17  N   UNL     1     -11.069  13.336  67.410  1.00  0.00    -0.271 NA 
HETATM   18  C   UNL     1     -10.325  14.579  67.285  1.00  0.00    -0.260 C  
HETATM   19  C   UNL     1      -9.773  14.784  65.883  1.00  0.00    -0.355 C  
HETATM   20  C   UNL     1     -10.926  14.964  64.914  1.00  0.00    -0.422 C  
HETATM   21  C   UNL     1     -11.933  13.813  64.984  1.00  0.00    -0.401 C  
HETATM   22  C   UNL     1     -11.882  12.833  63.823  1.00  0.00    -0.499 C  
HETATM   23  C   UNL     1     -12.024  13.049  66.331  1.00  0.00    -0.402 C  
HETATM   24  O   UNL     1     -10.679  12.638  63.248  1.00  0.00    -0.327 OA 
HETATM   25  O   UNL     1     -12.871  12.219  63.439  1.00  0.00    -0.754 OA 
ENDBRANCH  16  17
ENDBRANCH  15  16
ENDBRANCH   8  15
ENDBRANCH   3   7
TORSDOF 5
ENDMDL
MODEL       66
REMARK 921   NORMALIZED FREE ENERGY PREDICTED BY IDOCK:   -5.24 KCAL/MOL
REMARK 922        TOTAL FREE ENERGY PREDICTED BY IDOCK:   -8.27 KCAL/MOL
REMARK 923 INTER-LIGAND FREE ENERGY PREDICTED BY IDOCK:   -7.33 KCAL/MOL
REMARK 924 INTRA-LIGAND FREE ENERGY PREDICTED BY IDOCK:   -0.94 KCAL/MOL
REMARK 927      BINDING AFFINITY PREDICTED BY RF-SCORE:    0.00 PKD
ROOT
HETATM    1  C   UNL     1     -12.899   7.177  71.248  1.00  0.00    -0.399 C  
HETATM    2  C   UNL     1     -11.469   7.514  71.533  1.00  0.00    -0.293 A  
HETATM    3  C   UNL     1     -10.385   7.517  70.639  1.00  0.00    -0.208 A  
HETATM    4  C   UNL     1      -9.713   8.075  72.979  1.00  0.00    -0.278 A  
HETATM    5  S   UNL     1      -8.922   7.924  71.479  1.00  0.00    -0.144 SA 
HETATM    6  C   UNL     1     -11.059   7.840  72.873  1.00  0.00    -0.457 A  
ENDROOT
BRANCH   3   7
HETATM    7  C   UNL     1     -10.277   7.187  69.225  1.00  0.00    -0.193 C  
HETATM    8  C   UNL     1     -10.414   8.173  68.303  1.00  0.00    -0.210 C  
BRANCH   7   9
HETATM    9  C   UNL     1      -9.938   5.839  68.758  1.00  0.00    -0.159 A  
HETATM   10  C   UNL     1      -9.710   4.623  69.429  1.00  0.00    -0.272 A  
HETATM   11  C   UNL     1      -9.503   3.917  67.201  1.00  0.00    -0.201 A  
HETATM   12  C   UNL     1      -9.449   3.539  68.515  1.00  0.00    -0.207 A  
HETATM   13  S   UNL     1      -9.834   5.572  67.036  1.00  0.00    -0.176 SA 
HETATM   14  C   UNL     1      -9.730   4.339  70.901  1.00  0.00    -0.266 C  
ENDBRANCH   7   9
BRANCH   8  15
HETATM   15  C   UNL     1     -10.550   9.661  68.561  1.00  0.00    -0.253 C  
BRANCH  15  16
HETATM   16  C   UNL     1     -10.639  10.554  67.281  1.00  0.00    -0.264 C  
BRANCH  16  17
HETATM   17  N   UNL     1     -11.685  11.584  67.398  1.00  0.00    -0.609 NA 
HETATM   18  C   UNL     1     -11.959  12.058  68.745  1.00  0.00    -0.244 C  
HETATM   19  C   UNL     1     -11.220  13.348  69.065  1.00  0.00    -0.323 C  
HETATM   20  C   UNL     1     -11.755  14.462  68.184  1.00  0.00    -0.377 C  
HETATM   21  C   UNL     1     -11.697  14.108  66.696  1.00  0.00    -0.422 C  
HETATM   22  C   UNL     1     -10.602  14.806  65.904  1.00  0.00    -0.314 C  
HETATM   23  C   UNL     1     -11.743  12.599  66.336  1.00  0.00    -0.405 C  
HETATM   24  O   UNL     1      -9.468  15.100  66.569  1.00  0.00    -0.246 OA 
HETATM   25  O   UNL     1     -10.719  15.066  64.712  1.00  0.00    -0.404 OA 
ENDBRANCH  16  17
ENDBRANCH  15  16
ENDBRANCH   8  15
ENDBRANCH   3   7
TORSDOF 5
ENDMDL
MODEL       67
REMARK 921   NORMALIZED FREE ENERGY PREDICTED BY IDOCK:   -5.23 KCAL/MOL
REMARK 922        TOTAL FREE ENERGY PREDICTED BY IDOCK:   -8.27 KCAL/MOL
REMARK 923 INTER-LIGAND FREE ENERGY PREDICTED BY IDOCK:   -7.42 KCAL/MOL
REMARK 924 INTRA-LIGAND FREE ENERGY PREDICTED BY IDOCK:   -0.84 KCAL/MOL
REMARK 927      BINDING AFFINITY PREDICTED BY RF-SCORE:    0.00 PKD
ROOT
HETATM    1  C   UNL     1     -12.608  13.672  65.915  1.00  0.00    -0.478 C  
HETATM    2  C   UNL     1     -11.269  13.861  66.556  1.00  0.00    -0.327 A  
HETATM    3  C   UNL     1     -10.852  13.445  67.832  1.00  0.00    -0.247 A  
HETATM    4  C   UNL     1      -9.090  14.721  66.604  1.00  0.00    -0.272 A  
HETATM    5  S   UNL     1      -9.221  13.960  68.122  1.00  0.00    -0.205 SA 
HETATM    6  C   UNL     1     -10.237  14.591  65.867  1.00  0.00    -0.339 A  
ENDROOT
BRANCH   3   7
HETATM    7  C   UNL     1     -11.542  12.757  68.914  1.00  0.00    -0.362 C  
HETATM    8  C   UNL     1     -11.559  11.400  68.930  1.00  0.00    -0.388 C  
BRANCH   7   9
HETATM    9  C   UNL     1     -12.147  13.475  70.039  1.00  0.00    -0.341 A  
HETATM   10  C   UNL     1     -12.704  13.047  71.258  1.00  0.00    -0.385 A  
HETATM   11  C   UNL     1     -12.893  15.373  71.506  1.00  0.00    -0.429 A  
HETATM   12  C   UNL     1     -13.138  14.153  72.076  1.00  0.00    -0.472 A  
HETATM   13  S   UNL     1     -12.174  15.220  69.978  1.00  0.00    -0.336 SA 
HETATM   14  C   UNL     1     -12.868  11.652  71.784  1.00  0.00    -0.418 C  
ENDBRANCH   7   9
BRANCH   8  15
HETATM   15  C   UNL     1     -10.821  10.459  67.997  1.00  0.00    -0.319 C  
BRANCH  15  16
HETATM   16  C   UNL     1      -9.506   9.843  68.575  1.00  0.00    -0.146 C  
BRANCH  16  17
HETATM   17  N   UNL     1      -9.622   8.389  68.782  1.00  0.00    -0.148 NA 
HETATM   18  C   UNL     1      -8.423   7.721  69.260  1.00  0.00    -0.138 C  
HETATM   19  C   UNL     1      -8.430   7.528  70.768  1.00  0.00    -0.126 C  
HETATM   20  C   UNL     1      -9.543   6.567  71.144  1.00  0.00    -0.181 C  
HETATM   21  C   UNL     1     -10.905   7.010  70.603  1.00  0.00    -0.274 C  
HETATM   22  C   UNL     1     -11.857   7.591  71.637  1.00  0.00    -0.291 C  
HETATM   23  C   UNL     1     -10.894   7.892  69.327  1.00  0.00    -0.064 C  
HETATM   24  O   UNL     1     -11.298   8.248  72.673  1.00  0.00    -0.390 OA 
HETATM   25  O   UNL     1     -13.074   7.500  71.532  1.00  0.00    -0.349 OA 
ENDBRANCH  16  17
ENDBRANCH  15  16
ENDBRANCH   8  15
ENDBRANCH   3   7
TORSDOF 5
ENDMDL
MODEL       68
REMARK 921   NORMALIZED FREE ENERGY PREDICTED BY IDOCK:   -5.20 KCAL/MOL
REMARK 922        TOTAL FREE ENERGY PREDICTED BY IDOCK:   -8.22 KCAL/MOL
REMARK 923 INTER-LIGAND FREE ENERGY PREDICTED BY IDOCK:   -7.48 KCAL/MOL
REMARK 924 INTRA-LIGAND FREE ENERGY PREDICTED BY IDOCK:   -0.75 KCAL/MOL
REMARK 927      BINDING AFFINITY PREDICTED BY RF-SCORE:    0.00 PKD
ROOT
HETATM    1  C   UNL     1      -7.969  12.496  68.220  1.00  0.00    -0.153 C  
HETATM    2  C   UNL     1      -8.849  12.062  67.092  1.00  0.00    -0.188 A  
HETATM    3  C   UNL     1     -10.195  12.397  66.864  1.00  0.00    -0.225 A  
HETATM    4  C   UNL     1      -9.289  10.813  65.158  1.00  0.00    -0.217 A  
HETATM    5  S   UNL     1     -10.778  11.588  65.444  1.00  0.00    -0.257 SA 
HETATM    6  C   UNL     1      -8.349  11.152  66.095  1.00  0.00    -0.144 A  
ENDROOT
BRANCH   3   7
HETATM    7  C   UNL     1     -11.146  13.204  67.616  1.00  0.00    -0.295 C  
HETATM    8  C   UNL     1     -11.615  14.354  67.069  1.00  0.00    -0.402 C  
BRANCH   7   9
HETATM    9  C   UNL     1     -11.688  12.776  68.909  1.00  0.00    -0.326 A  
HETATM   10  C   UNL     1     -12.161  13.484  70.029  1.00  0.00    -0.411 A  
HETATM   11  C   UNL     1     -12.563  11.280  70.727  1.00  0.00    -0.332 A  
HETATM   12  C   UNL     1     -12.644  12.604  71.064  1.00  0.00    -0.354 A  
HETATM   13  S   UNL     1     -11.882  11.063  69.189  1.00  0.00    -0.315 SA 
HETATM   14  C   UNL     1     -12.236  14.966  70.248  1.00  0.00    -0.389 C  
ENDBRANCH   7   9
BRANCH   8  15
HETATM   15  C   UNL     1     -11.363  14.876  65.667  1.00  0.00    -0.325 C  
BRANCH  15  16
HETATM   16  C   UNL     1     -10.362  16.071  65.571  1.00  0.00    -0.390 C  
BRANCH  16  17
HETATM   17  N   UNL     1      -9.516  16.180  66.772  1.00  0.00    -0.227 NA 
HETATM   18  C   UNL     1      -8.087  16.023  66.555  1.00  0.00    -0.269 C  
HETATM   19  C   UNL     1      -7.371  17.359  66.424  1.00  0.00    -0.340 C  
HETATM   20  C   UNL     1      -7.449  18.099  67.746  1.00  0.00    -0.213 C  
HETATM   21  C   UNL     1      -8.887  18.252  68.247  1.00  0.00    -0.301 C  
HETATM   22  C   UNL     1      -9.480  19.645  68.105  1.00  0.00    -0.360 C  
HETATM   23  C   UNL     1      -9.906  17.182  67.774  1.00  0.00    -0.274 C  
HETATM   24  O   UNL     1      -9.049  20.383  67.064  1.00  0.00    -0.359 OA 
HETATM   25  O   UNL     1     -10.331  20.077  68.875  1.00  0.00    -0.411 OA 
ENDBRANCH  16  17
ENDBRANCH  15  16
ENDBRANCH   8  15
ENDBRANCH   3   7
TORSDOF 5
ENDMDL
MODEL       69
REMARK 921   NORMALIZED FREE ENERGY PREDICTED BY IDOCK:   -5.19 KCAL/MOL
REMARK 922        TOTAL FREE ENERGY PREDICTED BY IDOCK:   -8.20 KCAL/MOL
REMARK 923 INTER-LIGAND FREE ENERGY PREDICTED BY IDOCK:   -6.77 KCAL/MOL
REMARK 924 INTRA-LIGAND FREE ENERGY PREDICTED BY IDOCK:   -1.43 KCAL/MOL
REMARK 927      BINDING AFFINITY PREDICTED BY RF-SCORE:    0.00 PKD
ROOT
HETATM    1  C   UNL     1     -12.092  13.815  68.444  1.00  0.00    -0.324 C  
HETATM    2  C   UNL     1     -11.707  14.113  67.029  1.00  0.00    -0.430 A  
HETATM    3  C   UNL     1     -10.539  14.741  66.563  1.00  0.00    -0.299 A  
HETATM    4  C   UNL     1     -12.133  14.171  64.726  1.00  0.00    -0.441 A  
HETATM    5  S   UNL     1     -10.599  14.902  64.836  1.00  0.00    -0.326 SA 
HETATM    6  C   UNL     1     -12.608  13.792  65.954  1.00  0.00    -0.494 A  
ENDROOT
BRANCH   3   7
HETATM    7  C   UNL     1      -9.389  15.309  67.251  1.00  0.00    -0.212 C  
HETATM    8  C   UNL     1      -8.345  14.504  67.571  1.00  0.00    -0.201 C  
BRANCH   7   9
HETATM    9  C   UNL     1      -9.275  16.743  67.535  1.00  0.00    -0.215 A  
HETATM   10  C   UNL     1      -8.378  17.736  67.101  1.00  0.00    -0.236 A  
HETATM   11  C   UNL     1      -9.829  19.030  68.415  1.00  0.00    -0.392 A  
HETATM   12  C   UNL     1      -8.707  19.036  67.630  1.00  0.00    -0.317 A  
HETATM   13  S   UNL     1     -10.487  17.473  68.558  1.00  0.00    -0.329 SA 
HETATM   14  C   UNL     1      -7.197  17.607  66.185  1.00  0.00    -0.352 C  
ENDBRANCH   7   9
BRANCH   8  15
HETATM   15  C   UNL     1      -8.153  13.049  67.185  1.00  0.00    -0.114 C  
BRANCH  15  16
HETATM   16  C   UNL     1      -8.607  12.010  68.260  1.00  0.00    -0.174 C  
BRANCH  16  17
HETATM   17  N   UNL     1      -9.801  11.261  67.833  1.00  0.00    -0.172 NA 
HETATM   18  C   UNL     1      -9.871  10.935  66.418  1.00  0.00    -0.207 C  
HETATM   19  C   UNL     1      -9.380   9.526  66.124  1.00  0.00    -0.254 C  
HETATM   20  C   UNL     1     -10.323   8.524  66.764  1.00  0.00    -0.346 C  
HETATM   21  C   UNL     1     -10.515   8.776  68.262  1.00  0.00    -0.236 C  
HETATM   22  C   UNL     1      -9.798   7.802  69.183  1.00  0.00    -0.173 C  
HETATM   23  C   UNL     1     -10.309  10.233  68.754  1.00  0.00    -0.195 C  
HETATM   24  O   UNL     1      -8.638   7.285  68.732  1.00  0.00    -0.128 OA 
HETATM   25  O   UNL     1     -10.226   7.515  70.295  1.00  0.00    -0.200 OA 
ENDBRANCH  16  17
ENDBRANCH  15  16
ENDBRANCH   8  15
ENDBRANCH   3   7
TORSDOF 5
ENDMDL
MODEL       70
REMARK 921   NORMALIZED FREE ENERGY PREDICTED BY IDOCK:   -5.17 KCAL/MOL
REMARK 922        TOTAL FREE ENERGY PREDICTED BY IDOCK:   -8.18 KCAL/MOL
REMARK 923 INTER-LIGAND FREE ENERGY PREDICTED BY IDOCK:   -7.41 KCAL/MOL
REMARK 924 INTRA-LIGAND FREE ENERGY PREDICTED BY IDOCK:   -0.77 KCAL/MOL
REMARK 927      BINDING AFFINITY PREDICTED BY RF-SCORE:    0.00 PKD
ROOT
HETATM    1  C   UNL     1     -10.494   7.313  67.033  1.00  0.00    -0.398 C  
HETATM    2  C   UNL     1      -9.470   8.180  67.693  1.00  0.00    -0.172 A  
HETATM    3  C   UNL     1      -9.681   9.302  68.513  1.00  0.00    -0.150 A  
HETATM    4  C   UNL     1      -7.260   8.842  68.106  1.00  0.00    -0.083 A  
HETATM    5  S   UNL     1      -8.160   9.993  68.980  1.00  0.00    -0.128 SA 
HETATM    6  C   UNL     1      -8.068   7.933  67.475  1.00  0.00    -0.124 A  
ENDROOT
BRANCH   3   7
HETATM    7  C   UNL     1     -10.891   9.983  68.951  1.00  0.00    -0.250 C  
HETATM    8  C   UNL     1     -11.479  10.884  68.124  1.00  0.00    -0.368 C  
BRANCH   7   9
HETATM    9  C   UNL     1     -11.552   9.668  70.221  1.00  0.00    -0.198 A  
HETATM   10  C   UNL     1     -12.314  10.437  71.120  1.00  0.00    -0.505 A  
HETATM   11  C   UNL     1     -12.437   8.337  72.159  1.00  0.00    -0.352 A  
HETATM   12  C   UNL     1     -12.799   9.655  72.230  1.00  0.00    -0.407 A  
HETATM   13  S   UNL     1     -11.490   8.018  70.788  1.00  0.00    -0.229 SA 
HETATM   14  C   UNL     1     -12.678  11.890  71.046  1.00  0.00    -0.354 C  
ENDBRANCH   7   9
BRANCH   8  15
HETATM   15  C   UNL     1     -11.098  11.204  66.691  1.00  0.00    -0.255 C  
BRANCH  15  16
HETATM   16  C   UNL     1     -10.341  12.556  66.489  1.00  0.00    -0.237 C  
BRANCH  16  17
HETATM   17  N   UNL     1     -10.948  13.650  67.268  1.00  0.00    -0.284 NA 
HETATM   18  C   UNL     1     -10.347  13.910  68.566  1.00  0.00    -0.244 C  
HETATM   19  C   UNL     1      -9.338  15.046  68.519  1.00  0.00    -0.196 C  
HETATM   20  C   UNL     1     -10.058  16.342  68.197  1.00  0.00    -0.244 C  
HETATM   21  C   UNL     1     -10.890  16.245  66.916  1.00  0.00    -0.151 C  
HETATM   22  C   UNL     1     -10.305  16.956  65.705  1.00  0.00    -0.283 C  
HETATM   23  C   UNL     1     -11.395  14.833  66.519  1.00  0.00    -0.344 C  
HETATM   24  O   UNL     1      -8.961  17.017  65.631  1.00  0.00    -0.492 OA 
HETATM   25  O   UNL     1     -11.008  17.427  64.819  1.00  0.00    -0.964 OA 
ENDBRANCH  16  17
ENDBRANCH  15  16
ENDBRANCH   8  15
ENDBRANCH   3   7
TORSDOF 5
ENDMDL
MODEL       71
REMARK 921   NORMALIZED FREE ENERGY PREDICTED BY IDOCK:   -5.16 KCAL/MOL
REMARK 922        TOTAL FREE ENERGY PREDICTED BY IDOCK:   -8.17 KCAL/MOL
REMARK 923 INTER-LIGAND FREE ENERGY PREDICTED BY IDOCK:   -6.83 KCAL/MOL
REMARK 924 INTRA-LIGAND FREE ENERGY PREDICTED BY IDOCK:   -1.35 KCAL/MOL
REMARK 927      BINDING AFFINITY PREDICTED BY RF-SCORE:    0.00 PKD
ROOT
HETATM    1  C   UNL     1      -7.080   8.191  68.901  1.00  0.00    -0.066 C  
HETATM    2  C   UNL     1      -8.316   7.594  68.307  1.00  0.00    -0.125 A  
HETATM    3  C   UNL     1      -9.596   8.167  68.209  1.00  0.00    -0.144 A  
HETATM    4  C   UNL     1      -9.511   5.830  67.329  1.00  0.00    -0.114 A  
HETATM    5  S   UNL     1     -10.700   7.039  67.488  1.00  0.00    -0.280 SA 
HETATM    6  C   UNL     1      -8.291   6.250  67.792  1.00  0.00    -0.117 A  
ENDROOT
BRANCH   3   7
HETATM    7  C   UNL     1     -10.135   9.446  68.649  1.00  0.00    -0.208 C  
HETATM    8  C   UNL     1      -9.907  10.553  67.898  1.00  0.00    -0.181 C  
BRANCH   7   9
HETATM    9  C   UNL     1     -10.991   9.570  69.832  1.00  0.00    -0.238 A  
HETATM   10  C   UNL     1     -11.055   8.862  71.046  1.00  0.00    -0.340 A  
HETATM   11  C   UNL     1     -12.707  10.484  71.422  1.00  0.00    -0.442 A  
HETATM   12  C   UNL     1     -12.056   9.396  71.936  1.00  0.00    -0.427 A  
HETATM   13  S   UNL     1     -12.160  10.867  69.863  1.00  0.00    -0.348 SA 
HETATM   14  C   UNL     1     -10.231   7.695  71.504  1.00  0.00    -0.212 C  
ENDBRANCH   7   9
BRANCH   8  15
HETATM   15  C   UNL     1      -9.240  10.621  66.538  1.00  0.00    -0.187 C  
BRANCH  15  16
HETATM   16  C   UNL     1     -10.203  10.476  65.316  1.00  0.00    -0.282 C  
BRANCH  16  17
HETATM   17  N   UNL     1     -10.315  11.729  64.549  1.00  0.00    -0.277 NA 
HETATM   18  C   UNL     1     -11.458  11.823  63.656  1.00  0.00    -0.431 C  
HETATM   19  C   UNL     1     -12.622  12.576  64.283  1.00  0.00    -0.485 C  
HETATM   20  C   UNL     1     -12.223  14.023  64.498  1.00  0.00    -0.463 C  
HETATM   21  C   UNL     1     -10.932  14.159  65.311  1.00  0.00    -0.339 C  
HETATM   22  C   UNL     1     -11.116  14.609  66.752  1.00  0.00    -0.335 C  
HETATM   23  C   UNL     1      -9.938  12.970  65.241  1.00  0.00    -0.170 C  
HETATM   24  O   UNL     1     -12.258  14.236  67.362  1.00  0.00    -0.378 OA 
HETATM   25  O   UNL     1     -10.263  15.253  67.351  1.00  0.00    -0.239 OA 
ENDBRANCH  16  17
ENDBRANCH  15  16
ENDBRANCH   8  15
ENDBRANCH   3   7
TORSDOF 5
ENDMDL
MODEL       72
REMARK 921   NORMALIZED FREE ENERGY PREDICTED BY IDOCK:   -5.16 KCAL/MOL
REMARK 922        TOTAL FREE ENERGY PREDICTED BY IDOCK:   -8.16 KCAL/MOL
REMARK 923 INTER-LIGAND FREE ENERGY PREDICTED BY IDOCK:   -7.26 KCAL/MOL
REMARK 924 INTRA-LIGAND FREE ENERGY PREDICTED BY IDOCK:   -0.90 KCAL/MOL
REMARK 927      BINDING AFFINITY PREDICTED BY RF-SCORE:    0.00 PKD
ROOT
HETATM    1  C   UNL     1     -11.938  11.091  68.924  1.00  0.00    -0.332 C  
HETATM    2  C   UNL     1     -10.466  11.274  68.731  1.00  0.00    -0.232 A  
HETATM    3  C   UNL     1      -9.809  12.219  67.925  1.00  0.00    -0.201 A  
HETATM    4  C   UNL     1      -8.232  10.651  69.062  1.00  0.00    -0.151 A  
HETATM    5  S   UNL     1      -8.093  11.977  68.002  1.00  0.00    -0.162 SA 
HETATM    6  C   UNL     1      -9.538  10.384  69.377  1.00  0.00    -0.213 A  
ENDROOT
BRANCH   3   7
HETATM    7  C   UNL     1     -10.301  13.260  67.033  1.00  0.00    -0.246 C  
HETATM    8  C   UNL     1     -10.169  14.561  67.399  1.00  0.00    -0.240 C  
BRANCH   7   9
HETATM    9  C   UNL     1     -10.855  12.962  65.710  1.00  0.00    -0.269 A  
HETATM   10  C   UNL     1     -10.689  11.881  64.824  1.00  0.00    -0.356 A  
HETATM   11  C   UNL     1     -12.265  13.153  63.640  1.00  0.00    -0.479 A  
HETATM   12  C   UNL     1     -11.497  12.021  63.638  1.00  0.00    -0.556 A  
HETATM   13  S   UNL     1     -12.013  14.082  65.036  1.00  0.00    -0.425 SA 
HETATM   14  C   UNL     1      -9.832  10.659  64.975  1.00  0.00    -0.353 C  
ENDBRANCH   7   9
BRANCH   8  15
HETATM   15  C   UNL     1      -9.439  15.107  68.611  1.00  0.00    -0.206 C  
BRANCH  15  16
HETATM   16  C   UNL     1      -8.134  15.907  68.298  1.00  0.00    -0.144 C  
BRANCH  16  17
HETATM   17  N   UNL     1      -8.135  17.235  68.936  1.00  0.00    -0.232 NA 
HETATM   18  C   UNL     1      -6.835  17.870  69.074  1.00  0.00    -0.242 C  
HETATM   19  C   UNL     1      -6.550  18.857  67.952  1.00  0.00    -0.227 C  
HETATM   20  C   UNL     1      -7.522  20.018  68.048  1.00  0.00    -0.324 C  
HETATM   21  C   UNL     1      -8.982  19.557  68.067  1.00  0.00    -0.380 C  
HETATM   22  C   UNL     1      -9.752  19.786  66.776  1.00  0.00    -0.397 C  
HETATM   23  C   UNL     1      -9.255  18.130  68.612  1.00  0.00    -0.282 C  
HETATM   24  O   UNL     1      -9.044  19.729  65.631  1.00  0.00    -0.323 OA 
HETATM   25  O   UNL     1     -10.961  19.982  66.760  1.00  0.00    -0.294 OA 
ENDBRANCH  16  17
ENDBRANCH  15  16
ENDBRANCH   8  15
ENDBRANCH   3   7
TORSDOF 5
ENDMDL
MODEL       73
REMARK 921   NORMALIZED FREE ENERGY PREDICTED BY IDOCK:   -5.14 KCAL/MOL
REMARK 922        TOTAL FREE ENERGY PREDICTED BY IDOCK:   -8.14 KCAL/MOL
REMARK 923 INTER-LIGAND FREE ENERGY PREDICTED BY IDOCK:   -7.22 KCAL/MOL
REMARK 924 INTRA-LIGAND FREE ENERGY PREDICTED BY IDOCK:   -0.91 KCAL/MOL
REMARK 927      BINDING AFFINITY PREDICTED BY RF-SCORE:    0.00 PKD
ROOT
HETATM    1  C   UNL     1     -12.138  14.465  69.317  1.00  0.00    -0.336 C  
HETATM    2  C   UNL     1     -10.742  14.406  68.782  1.00  0.00    -0.258 A  
HETATM    3  C   UNL     1     -10.183  13.445  67.923  1.00  0.00    -0.241 A  
HETATM    4  C   UNL     1      -8.531  15.172  68.650  1.00  0.00    -0.170 A  
HETATM    5  S   UNL     1      -8.507  13.797  67.646  1.00  0.00    -0.197 SA 
HETATM    6  C   UNL     1      -9.773  15.392  69.186  1.00  0.00    -0.252 A  
ENDROOT
BRANCH   3   7
HETATM    7  C   UNL     1     -10.724  12.236  67.318  1.00  0.00    -0.263 C  
HETATM    8  C   UNL     1     -11.056  11.189  68.116  1.00  0.00    -0.324 C  
BRANCH   7   9
HETATM    9  C   UNL     1     -11.007  12.135  65.884  1.00  0.00    -0.292 A  
HETATM   10  C   UNL     1     -11.855  12.856  65.023  1.00  0.00    -0.411 A  
HETATM   11  C   UNL     1     -10.841  11.400  63.488  1.00  0.00    -0.353 A  
HETATM   12  C   UNL     1     -11.753  12.407  63.657  1.00  0.00    -0.596 A  
HETATM   13  S   UNL     1     -10.117  10.954  64.955  1.00  0.00    -0.318 SA 
HETATM   14  C   UNL     1     -12.784  13.989  65.343  1.00  0.00    -0.499 C  
ENDBRANCH   7   9
BRANCH   8  15
HETATM   15  C   UNL     1     -11.053  11.151  69.632  1.00  0.00    -0.297 C  
BRANCH  15  16
HETATM   16  C   UNL     1     -11.596   9.830  70.267  1.00  0.00    -0.220 C  
BRANCH  16  17
HETATM   17  N   UNL     1     -10.673   8.700  70.063  1.00  0.00    -0.228 NA 
HETATM   18  C   UNL     1      -9.257   9.014  70.164  1.00  0.00    -0.192 C  
HETATM   19  C   UNL     1      -8.692   8.701  71.541  1.00  0.00    -0.266 C  
HETATM   20  C   UNL     1      -8.739   7.203  71.772  1.00  0.00    -0.121 C  
HETATM   21  C   UNL     1     -10.141   6.623  71.569  1.00  0.00    -0.200 C  
HETATM   22  C   UNL     1     -10.881   6.249  72.844  1.00  0.00    -0.256 C  
HETATM   23  C   UNL     1     -11.082   7.398  70.608  1.00  0.00    -0.266 C  
HETATM   24  O   UNL     1     -10.610   6.986  73.939  1.00  0.00    -0.371 OA 
HETATM   25  O   UNL     1     -11.707   5.345  72.881  1.00  0.00    -0.297 OA 
ENDBRANCH  16  17
ENDBRANCH  15  16
ENDBRANCH   8  15
ENDBRANCH   3   7
TORSDOF 5
ENDMDL
MODEL       74
REMARK 921   NORMALIZED FREE ENERGY PREDICTED BY IDOCK:   -5.12 KCAL/MOL
REMARK 922        TOTAL FREE ENERGY PREDICTED BY IDOCK:   -8.12 KCAL/MOL
REMARK 923 INTER-LIGAND FREE ENERGY PREDICTED BY IDOCK:   -6.93 KCAL/MOL
REMARK 924 INTRA-LIGAND FREE ENERGY PREDICTED BY IDOCK:   -1.19 KCAL/MOL
REMARK 927      BINDING AFFINITY PREDICTED BY RF-SCORE:    0.00 PKD
ROOT
HETATM    1  C   UNL     1      -9.659   9.666  65.203  1.00  0.00    -0.324 C  
HETATM    2  C   UNL     1      -8.774   9.946  66.376  1.00  0.00    -0.144 A  
HETATM    3  C   UNL     1      -9.107   9.914  67.740  1.00  0.00    -0.131 A  
HETATM    4  C   UNL     1      -6.745  10.618  67.336  1.00  0.00    -0.075 A  
HETATM    5  S   UNL     1      -7.736  10.374  68.699  1.00  0.00    -0.109 SA 
HETATM    6  C   UNL     1      -7.408  10.351  66.168  1.00  0.00    -0.131 A  
ENDROOT
BRANCH   3   7
HETATM    7  C   UNL     1     -10.355   9.644  68.440  1.00  0.00    -0.233 C  
HETATM    8  C   UNL     1     -11.318  10.601  68.467  1.00  0.00    -0.348 C  
BRANCH   7   9
HETATM    9  C   UNL     1     -10.650   8.342  69.045  1.00  0.00    -0.154 A  
HETATM   10  C   UNL     1     -10.911   7.071  68.501  1.00  0.00    -0.187 A  
HETATM   11  C   UNL     1     -10.965   6.564  70.791  1.00  0.00    -0.276 A  
HETATM   12  C   UNL     1     -11.101   6.071  69.522  1.00  0.00    -0.468 A  
HETATM   13  S   UNL     1     -10.639   8.228  70.788  1.00  0.00    -0.215 SA 
HETATM   14  C   UNL     1     -10.985   6.657  67.061  1.00  0.00    -0.463 C  
ENDBRANCH   7   9
BRANCH   8  15
HETATM   15  C   UNL     1     -11.318  11.927  67.731  1.00  0.00    -0.361 C  
BRANCH  15  16
HETATM   16  C   UNL     1     -10.415  13.037  68.359  1.00  0.00    -0.252 C  
BRANCH  16  17
HETATM   17  N   UNL     1     -11.126  14.321  68.487  1.00  0.00    -0.247 NA 
HETATM   18  C   UNL     1     -10.711  15.165  69.596  1.00  0.00    -0.278 C  
HETATM   19  C   UNL     1      -9.708  16.226  69.170  1.00  0.00    -0.265 C  
HETATM   20  C   UNL     1     -10.380  17.198  68.219  1.00  0.00    -0.354 C  
HETATM   21  C   UNL     1     -11.028  16.492  67.024  1.00  0.00    -0.012 C  
HETATM   22  C   UNL     1     -10.283  16.631  65.706  1.00  0.00    -0.307 C  
HETATM   23  C   UNL     1     -11.469  15.020  67.241  1.00  0.00    -0.304 C  
HETATM   24  O   UNL     1      -8.942  16.739  65.776  1.00  0.00    -0.508 OA 
HETATM   25  O   UNL     1     -10.859  16.617  64.624  1.00  0.00    -0.784 OA 
ENDBRANCH  16  17
ENDBRANCH  15  16
ENDBRANCH   8  15
ENDBRANCH   3   7
TORSDOF 5
ENDMDL
MODEL       75
REMARK 921   NORMALIZED FREE ENERGY PREDICTED BY IDOCK:   -5.11 KCAL/MOL
REMARK 922        TOTAL FREE ENERGY PREDICTED BY IDOCK:   -8.10 KCAL/MOL
REMARK 923 INTER-LIGAND FREE ENERGY PREDICTED BY IDOCK:   -7.47 KCAL/MOL
REMARK 924 INTRA-LIGAND FREE ENERGY PREDICTED BY IDOCK:   -0.63 KCAL/MOL
REMARK 927      BINDING AFFINITY PREDICTED BY RF-SCORE:    0.00 PKD
ROOT
HETATM    1  C   UNL     1      -8.271  12.310  67.713  1.00  0.00    -0.161 C  
HETATM    2  C   UNL     1      -9.495  12.273  66.854  1.00  0.00    -0.217 A  
HETATM    3  C   UNL     1     -10.714  12.943  67.053  1.00  0.00    -0.257 A  
HETATM    4  C   UNL     1     -10.734  11.473  65.032  1.00  0.00    -0.290 A  
HETATM    5  S   UNL     1     -11.837  12.520  65.799  1.00  0.00    -0.417 SA 
HETATM    6  C   UNL     1      -9.529  11.436  65.683  1.00  0.00    -0.253 A  
ENDROOT
BRANCH   3   7
HETATM    7  C   UNL     1     -11.189  13.823  68.110  1.00  0.00    -0.298 C  
HETATM    8  C   UNL     1     -11.162  15.166  67.915  1.00  0.00    -0.334 C  
BRANCH   7   9
HETATM    9  C   UNL     1     -11.780  13.311  69.351  1.00  0.00    -0.325 A  
HETATM   10  C   UNL     1     -12.424  13.937  70.433  1.00  0.00    -0.404 A  
HETATM   11  C   UNL     1     -12.615  11.689  71.077  1.00  0.00    -0.331 A  
HETATM   12  C   UNL     1     -12.882  12.988  71.417  1.00  0.00    -0.385 A  
HETATM   13  S   UNL     1     -11.789  11.583  69.599  1.00  0.00    -0.365 SA 
HETATM   14  C   UNL     1     -12.695  15.396  70.656  1.00  0.00    -0.490 C  
ENDBRANCH   7   9
BRANCH   8  15
HETATM   15  C   UNL     1     -10.801  15.903  66.640  1.00  0.00    -0.213 C  
BRANCH  15  16
HETATM   16  C   UNL     1      -9.372  16.534  66.618  1.00  0.00    -0.256 C  
BRANCH  16  17
HETATM   17  N   UNL     1      -9.366  17.909  67.147  1.00  0.00    -0.260 NA 
HETATM   18  C   UNL     1      -8.981  18.047  68.542  1.00  0.00    -0.289 C  
HETATM   19  C   UNL     1      -7.513  18.412  68.703  1.00  0.00    -0.314 C  
HETATM   20  C   UNL     1      -7.276  19.797  68.132  1.00  0.00    -0.329 C  
HETATM   21  C   UNL     1      -7.755  19.922  66.683  1.00  0.00    -0.310 C  
HETATM   22  C   UNL     1      -6.654  19.943  65.635  1.00  0.00    -0.256 C  
HETATM   23  C   UNL     1      -8.899  18.970  66.244  1.00  0.00    -0.277 C  
HETATM   24  O   UNL     1      -5.537  19.245  65.916  1.00  0.00    -0.153 OA 
HETATM   25  O   UNL     1      -6.774  20.538  64.570  1.00  0.00    -0.286 OA 
ENDBRANCH  16  17
ENDBRANCH  15  16
ENDBRANCH   8  15
ENDBRANCH   3   7
TORSDOF 5
ENDMDL
MODEL       76
REMARK 921   NORMALIZED FREE ENERGY PREDICTED BY IDOCK:   -5.11 KCAL/MOL
REMARK 922        TOTAL FREE ENERGY PREDICTED BY IDOCK:   -8.10 KCAL/MOL
REMARK 923 INTER-LIGAND FREE ENERGY PREDICTED BY IDOCK:   -6.74 KCAL/MOL
REMARK 924 INTRA-LIGAND FREE ENERGY PREDICTED BY IDOCK:   -1.36 KCAL/MOL
REMARK 927      BINDING AFFINITY PREDICTED BY RF-SCORE:    0.00 PKD
ROOT
HETATM    1  C   UNL     1      -8.438   7.116  66.879  1.00  0.00    -0.123 C  
HETATM    2  C   UNL     1      -7.880   7.904  68.021  1.00  0.00    -0.127 A  
HETATM    3  C   UNL     1      -8.575   8.710  68.940  1.00  0.00    -0.130 A  
HETATM    4  C   UNL     1      -6.103   8.739  69.300  1.00  0.00    -0.042 A  
HETATM    5  S   UNL     1      -7.459   9.457  70.039  1.00  0.00    -0.126 SA 
HETATM    6  C   UNL     1      -6.459   7.935  68.250  1.00  0.00    -0.054 A  
ENDROOT
BRANCH   3   7
HETATM    7  C   UNL     1      -9.982   9.058  69.072  1.00  0.00    -0.191 C  
HETATM    8  C   UNL     1     -10.498  10.039  68.288  1.00  0.00    -0.246 C  
BRANCH   7   9
HETATM    9  C   UNL     1     -10.891   8.327  69.960  1.00  0.00    -0.232 A  
HETATM   10  C   UNL     1     -11.223   6.965  70.080  1.00  0.00    -0.347 A  
HETATM   11  C   UNL     1     -12.489   7.859  71.841  1.00  0.00    -0.321 A  
HETATM   12  C   UNL     1     -12.151   6.723  71.156  1.00  0.00    -0.422 A  
HETATM   13  S   UNL     1     -11.731   9.232  71.195  1.00  0.00    -0.349 SA 
HETATM   14  C   UNL     1     -10.730   5.799  69.275  1.00  0.00    -0.386 C  
ENDBRANCH   7   9
BRANCH   8  15
HETATM   15  C   UNL     1      -9.803  10.773  67.157  1.00  0.00    -0.216 C  
BRANCH  15  16
HETATM   16  C   UNL     1     -10.155  10.269  65.721  1.00  0.00    -0.255 C  
BRANCH  16  17
HETATM   17  N   UNL     1     -10.061  11.346  64.720  1.00  0.00    -0.260 NA 
HETATM   18  C   UNL     1     -10.969  11.238  63.590  1.00  0.00    -0.287 C  
HETATM   19  C   UNL     1     -12.227  12.073  63.777  1.00  0.00    -0.600 C  
HETATM   20  C   UNL     1     -11.853  13.544  63.791  1.00  0.00    -0.429 C  
HETATM   21  C   UNL     1     -10.778  13.863  64.833  1.00  0.00    -0.422 C  
HETATM   22  C   UNL     1     -11.272  14.582  66.078  1.00  0.00    -0.337 C  
HETATM   23  C   UNL     1      -9.821  12.706  65.223  1.00  0.00    -0.119 C  
HETATM   24  O   UNL     1     -12.531  14.310  66.474  1.00  0.00    -0.428 OA 
HETATM   25  O   UNL     1     -10.562  15.349  66.718  1.00  0.00    -0.298 OA 
ENDBRANCH  16  17
ENDBRANCH  15  16
ENDBRANCH   8  15
ENDBRANCH   3   7
TORSDOF 5
ENDMDL
MODEL       77
REMARK 921   NORMALIZED FREE ENERGY PREDICTED BY IDOCK:   -5.11 KCAL/MOL
REMARK 922        TOTAL FREE ENERGY PREDICTED BY IDOCK:   -8.10 KCAL/MOL
REMARK 923 INTER-LIGAND FREE ENERGY PREDICTED BY IDOCK:   -6.91 KCAL/MOL
REMARK 924 INTRA-LIGAND FREE ENERGY PREDICTED BY IDOCK:   -1.19 KCAL/MOL
REMARK 927      BINDING AFFINITY PREDICTED BY RF-SCORE:    0.00 PKD
ROOT
HETATM    1  C   UNL     1      -7.962  11.308  68.692  1.00  0.00    -0.145 C  
HETATM    2  C   UNL     1      -8.774  10.157  68.190  1.00  0.00    -0.122 A  
HETATM    3  C   UNL     1      -9.928   9.595  68.763  1.00  0.00    -0.173 A  
HETATM    4  C   UNL     1      -9.185   8.392  66.704  1.00  0.00    -0.180 A  
HETATM    5  S   UNL     1     -10.459   8.237  67.823  1.00  0.00    -0.182 SA 
HETATM    6  C   UNL     1      -8.367   9.450  67.004  1.00  0.00    -0.127 A  
ENDROOT
BRANCH   3   7
HETATM    7  C   UNL     1     -10.666   9.898  69.981  1.00  0.00    -0.338 C  
HETATM    8  C   UNL     1     -11.505  10.966  69.997  1.00  0.00    -0.411 C  
BRANCH   7   9
HETATM    9  C   UNL     1     -10.607   9.041  71.168  1.00  0.00    -0.290 A  
HETATM   10  C   UNL     1     -11.596   8.394  71.932  1.00  0.00    -0.395 A  
HETATM   11  C   UNL     1      -9.663   7.644  73.030  1.00  0.00    -0.244 A  
HETATM   12  C   UNL     1     -11.031   7.610  73.002  1.00  0.00    -0.457 A  
HETATM   13  S   UNL     1      -9.033   8.632  71.804  1.00  0.00    -0.218 SA 
HETATM   14  C   UNL     1     -13.085   8.407  71.755  1.00  0.00    -0.373 C  
ENDBRANCH   7   9
BRANCH   8  15
HETATM   15  C   UNL     1     -11.885  11.855  68.829  1.00  0.00    -0.371 C  
BRANCH  15  16
HETATM   16  C   UNL     1     -11.322  13.311  68.889  1.00  0.00    -0.288 C  
BRANCH  16  17
HETATM   17  N   UNL     1     -10.440  13.610  67.747  1.00  0.00    -0.237 NA 
HETATM   18  C   UNL     1     -11.044  13.481  66.431  1.00  0.00    -0.302 C  
HETATM   19  C   UNL     1     -11.529  14.815  65.885  1.00  0.00    -0.319 C  
HETATM   20  C   UNL     1     -10.335  15.718  65.638  1.00  0.00    -0.411 C  
HETATM   21  C   UNL     1      -9.458  15.880  66.883  1.00  0.00    -0.242 C  
HETATM   22  C   UNL     1      -9.579  17.218  67.594  1.00  0.00    -0.256 C  
HETATM   23  C   UNL     1      -9.489  14.718  67.911  1.00  0.00    -0.201 C  
HETATM   24  O   UNL     1     -10.778  17.829  67.533  1.00  0.00    -0.375 OA 
HETATM   25  O   UNL     1      -8.650  17.714  68.221  1.00  0.00    -0.253 OA 
ENDBRANCH  16  17
ENDBRANCH  15  16
ENDBRANCH   8  15
ENDBRANCH   3   7
TORSDOF 5
ENDMDL
MODEL       78
REMARK 921   NORMALIZED FREE ENERGY PREDICTED BY IDOCK:   -5.10 KCAL/MOL
REMARK 922        TOTAL FREE ENERGY PREDICTED BY IDOCK:   -8.09 KCAL/MOL
REMARK 923 INTER-LIGAND FREE ENERGY PREDICTED BY IDOCK:   -7.02 KCAL/MOL
REMARK 924 INTRA-LIGAND FREE ENERGY PREDICTED BY IDOCK:   -1.07 KCAL/MOL
REMARK 927      BINDING AFFINITY PREDICTED BY RF-SCORE:    0.00 PKD
ROOT
HETATM    1  C   UNL     1      -7.952   9.189  70.880  1.00  0.00    -0.192 C  
HETATM    2  C   UNL     1      -9.331   8.646  71.087  1.00  0.00    -0.274 A  
HETATM    3  C   UNL     1     -10.243   8.204  70.113  1.00  0.00    -0.199 A  
HETATM    4  C   UNL     1     -11.173   8.103  72.430  1.00  0.00    -0.386 A  
HETATM    5  S   UNL     1     -11.730   7.722  70.867  1.00  0.00    -0.227 SA 
HETATM    6  C   UNL     1      -9.887   8.576  72.413  1.00  0.00    -0.358 A  
ENDROOT
BRANCH   3   7
HETATM    7  C   UNL     1     -10.180   8.155  68.660  1.00  0.00    -0.226 C  
HETATM    8  C   UNL     1     -10.625   9.217  67.942  1.00  0.00    -0.288 C  
BRANCH   7   9
HETATM    9  C   UNL     1      -9.572   7.033  67.939  1.00  0.00    -0.123 A  
HETATM   10  C   UNL     1      -9.529   5.648  68.184  1.00  0.00    -0.125 A  
HETATM   11  C   UNL     1      -8.392   5.744  66.135  1.00  0.00    -0.122 A  
HETATM   12  C   UNL     1      -8.835   4.932  67.143  1.00  0.00    -0.106 A  
HETATM   13  S   UNL     1      -8.767   7.372  66.427  1.00  0.00    -0.147 SA 
HETATM   14  C   UNL     1     -10.111   4.873  69.330  1.00  0.00    -0.248 C  
ENDBRANCH   7   9
BRANCH   8  15
HETATM   15  C   UNL     1     -11.088  10.559  68.475  1.00  0.00    -0.329 C  
BRANCH  15  16
HETATM   16  C   UNL     1     -10.036  11.711  68.387  1.00  0.00    -0.201 C  
BRANCH  16  17
HETATM   17  N   UNL     1     -10.660  13.006  68.065  1.00  0.00    -0.229 NA 
HETATM   18  C   UNL     1      -9.744  14.117  67.866  1.00  0.00    -0.224 C  
HETATM   19  C   UNL     1      -9.436  14.358  66.396  1.00  0.00    -0.309 C  
HETATM   20  C   UNL     1     -10.700  14.812  65.690  1.00  0.00    -0.345 C  
HETATM   21  C   UNL     1     -11.864  13.839  65.893  1.00  0.00    -0.405 C  
HETATM   22  C   UNL     1     -12.206  12.974  64.689  1.00  0.00    -0.421 C  
HETATM   23  C   UNL     1     -11.836  12.979  67.184  1.00  0.00    -0.373 C  
HETATM   24  O   UNL     1     -11.186  12.641  63.875  1.00  0.00    -0.381 OA 
HETATM   25  O   UNL     1     -13.342  12.568  64.475  1.00  0.00    -0.780 OA 
ENDBRANCH  16  17
ENDBRANCH  15  16
ENDBRANCH   8  15
ENDBRANCH   3   7
TORSDOF 5
ENDMDL
MODEL       79
REMARK 921   NORMALIZED FREE ENERGY PREDICTED BY IDOCK:   -5.09 KCAL/MOL
REMARK 922        TOTAL FREE ENERGY PREDICTED BY IDOCK:   -8.08 KCAL/MOL
REMARK 923 INTER-LIGAND FREE ENERGY PREDICTED BY IDOCK:   -7.05 KCAL/MOL
REMARK 924 INTRA-LIGAND FREE ENERGY PREDICTED BY IDOCK:   -1.03 KCAL/MOL
REMARK 927      BINDING AFFINITY PREDICTED BY RF-SCORE:    0.00 PKD
ROOT
HETATM    1  C   UNL     1     -10.213   9.199  66.211  1.00  0.00    -0.257 C  
HETATM    2  C   UNL     1      -9.333  10.037  67.083  1.00  0.00    -0.173 A  
HETATM    3  C   UNL     1      -9.656  10.651  68.305  1.00  0.00    -0.162 A  
HETATM    4  C   UNL     1      -7.329  11.159  67.549  1.00  0.00    -0.102 A  
HETATM    5  S   UNL     1      -8.299  11.563  68.889  1.00  0.00     0.079 SA 
HETATM    6  C   UNL     1      -7.988  10.342  66.669  1.00  0.00    -0.116 A  
ENDROOT
BRANCH   3   7
HETATM    7  C   UNL     1     -10.886  10.706  69.082  1.00  0.00    -0.279 C  
HETATM    8  C   UNL     1     -11.813  11.652  68.786  1.00  0.00    -0.387 C  
BRANCH   7   9
HETATM    9  C   UNL     1     -11.203   9.720  70.119  1.00  0.00    -0.272 A  
HETATM   10  C   UNL     1     -12.056   9.748  71.237  1.00  0.00    -0.470 A  
HETATM   11  C   UNL     1     -11.268   7.542  71.369  1.00  0.00    -0.242 A  
HETATM   12  C   UNL     1     -12.066   8.493  71.946  1.00  0.00    -0.411 A  
HETATM   13  S   UNL     1     -10.473   8.138  69.995  1.00  0.00    -0.233 SA 
HETATM   14  C   UNL     1     -12.925  10.865  71.735  1.00  0.00    -0.557 C  
ENDBRANCH   7   9
BRANCH   8  15
HETATM   15  C   UNL     1     -11.794  12.628  67.625  1.00  0.00    -0.390 C  
BRANCH  15  16
HETATM   16  C   UNL     1     -11.576  14.125  68.017  1.00  0.00    -0.334 C  
BRANCH  16  17
HETATM   17  N   UNL     1     -10.171  14.538  67.859  1.00  0.00    -0.229 NA 
HETATM   18  C   UNL     1      -9.571  14.259  66.565  1.00  0.00    -0.297 C  
HETATM   19  C   UNL     1      -9.607  15.466  65.639  1.00  0.00    -0.323 C  
HETATM   20  C   UNL     1      -8.723  16.559  66.210  1.00  0.00    -0.369 C  
HETATM   21  C   UNL     1      -9.092  16.916  67.652  1.00  0.00    -0.223 C  
HETATM   22  C   UNL     1      -9.830  18.234  67.826  1.00  0.00    -0.318 C  
HETATM   23  C   UNL     1      -9.772  15.803  68.492  1.00  0.00    -0.206 C  
HETATM   24  O   UNL     1     -10.630  18.619  66.813  1.00  0.00    -0.395 OA 
HETATM   25  O   UNL     1      -9.734  18.909  68.845  1.00  0.00    -0.382 OA 
ENDBRANCH  16  17
ENDBRANCH  15  16
ENDBRANCH   8  15
ENDBRANCH   3   7
TORSDOF 5
ENDMDL
MODEL       80
REMARK 921   NORMALIZED FREE ENERGY PREDICTED BY IDOCK:   -5.09 KCAL/MOL
REMARK 922        TOTAL FREE ENERGY PREDICTED BY IDOCK:   -8.08 KCAL/MOL
REMARK 923 INTER-LIGAND FREE ENERGY PREDICTED BY IDOCK:   -7.46 KCAL/MOL
REMARK 924 INTRA-LIGAND FREE ENERGY PREDICTED BY IDOCK:   -0.62 KCAL/MOL
REMARK 927      BINDING AFFINITY PREDICTED BY RF-SCORE:    0.00 PKD
ROOT
HETATM    1  C   UNL     1     -12.349   6.946  71.160  1.00  0.00    -0.419 C  
HETATM    2  C   UNL     1     -11.018   7.591  71.383  1.00  0.00    -0.254 A  
HETATM    3  C   UNL     1     -10.047   7.929  70.424  1.00  0.00    -0.194 A  
HETATM    4  C   UNL     1      -9.320   8.435  72.760  1.00  0.00    -0.242 A  
HETATM    5  S   UNL     1      -8.651   8.604  71.203  1.00  0.00    -0.196 SA 
HETATM    6  C   UNL     1     -10.578   7.894  72.720  1.00  0.00    -0.418 A  
ENDROOT
BRANCH   3   7
HETATM    7  C   UNL     1      -9.991   7.752  68.980  1.00  0.00    -0.182 C  
HETATM    8  C   UNL     1     -10.208   8.822  68.174  1.00  0.00    -0.250 C  
BRANCH   7   9
HETATM    9  C   UNL     1      -9.619   6.477  68.360  1.00  0.00    -0.122 A  
HETATM   10  C   UNL     1      -8.519   5.617  68.526  1.00  0.00    -0.105 A  
HETATM   11  C   UNL     1      -9.776   4.391  66.970  1.00  0.00    -0.205 A  
HETATM   12  C   UNL     1      -8.624   4.434  67.708  1.00  0.00    -0.109 A  
HETATM   13  S   UNL     1     -10.732   5.769  67.216  1.00  0.00    -0.208 SA 
HETATM   14  C   UNL     1      -7.326   5.771  69.423  1.00  0.00    -0.071 C  
ENDBRANCH   7   9
BRANCH   8  15
HETATM   15  C   UNL     1     -10.392  10.268  68.594  1.00  0.00    -0.203 C  
BRANCH  15  16
HETATM   16  C   UNL     1     -11.155  11.168  67.568  1.00  0.00    -0.291 C  
BRANCH  16  17
HETATM   17  N   UNL     1     -10.247  11.759  66.570  1.00  0.00    -0.204 NA 
HETATM   18  C   UNL     1      -9.413  10.819  65.839  1.00  0.00    -0.197 C  
HETATM   19  C   UNL     1     -10.005  10.451  64.487  1.00  0.00    -0.401 C  
HETATM   20  C   UNL     1     -10.018  11.679  63.596  1.00  0.00    -0.406 C  
HETATM   21  C   UNL     1     -10.735  12.865  64.246  1.00  0.00    -0.430 C  
HETATM   22  C   UNL     1     -12.117  13.173  63.692  1.00  0.00    -0.513 C  
HETATM   23  C   UNL     1     -10.757  12.900  65.797  1.00  0.00    -0.273 C  
HETATM   24  O   UNL     1     -12.830  12.127  63.230  1.00  0.00    -0.735 OA 
HETATM   25  O   UNL     1     -12.584  14.306  63.686  1.00  0.00    -0.831 OA 
ENDBRANCH  16  17
ENDBRANCH  15  16
ENDBRANCH   8  15
ENDBRANCH   3   7
TORSDOF 5
ENDMDL
MODEL       81
REMARK 921   NORMALIZED FREE ENERGY PREDICTED BY IDOCK:   -5.05 KCAL/MOL
REMARK 922        TOTAL FREE ENERGY PREDICTED BY IDOCK:   -8.03 KCAL/MOL
REMARK 923 INTER-LIGAND FREE ENERGY PREDICTED BY IDOCK:   -7.10 KCAL/MOL
REMARK 924 INTRA-LIGAND FREE ENERGY PREDICTED BY IDOCK:   -0.92 KCAL/MOL
REMARK 927      BINDING AFFINITY PREDICTED BY RF-SCORE:    0.00 PKD
ROOT
HETATM    1  C   UNL     1     -12.749   7.871  71.338  1.00  0.00    -0.312 C  
HETATM    2  C   UNL     1     -11.306   8.254  71.420  1.00  0.00    -0.309 A  
HETATM    3  C   UNL     1     -10.468   8.704  70.384  1.00  0.00    -0.208 A  
HETATM    4  C   UNL     1      -9.273   8.474  72.566  1.00  0.00    -0.233 A  
HETATM    5  S   UNL     1      -8.861   8.960  70.987  1.00  0.00    -0.242 SA 
HETATM    6  C   UNL     1     -10.597   8.133  72.667  1.00  0.00    -0.414 A  
ENDROOT
BRANCH   3   7
HETATM    7  C   UNL     1     -10.692   8.909  68.960  1.00  0.00    -0.148 C  
HETATM    8  C   UNL     1     -11.129  10.119  68.527  1.00  0.00    -0.266 C  
BRANCH   7   9
HETATM    9  C   UNL     1     -10.379   7.884  67.961  1.00  0.00    -0.209 A  
HETATM   10  C   UNL     1      -9.699   7.923  66.730  1.00  0.00    -0.303 A  
HETATM   11  C   UNL     1     -10.169   5.629  66.874  1.00  0.00    -0.227 A  
HETATM   12  C   UNL     1      -9.604   6.621  66.119  1.00  0.00    -0.020 A  
HETATM   13  S   UNL     1     -10.848   6.237  68.304  1.00  0.00    -0.316 SA 
HETATM   14  C   UNL     1      -9.078   9.096  66.031  1.00  0.00    -0.245 C  
ENDBRANCH   7   9
BRANCH   8  15
HETATM   15  C   UNL     1     -11.310  11.381  69.350  1.00  0.00    -0.365 C  
BRANCH  15  16
HETATM   16  C   UNL     1     -11.677  12.661  68.534  1.00  0.00    -0.330 C  
BRANCH  16  17
HETATM   17  N   UNL     1     -11.152  12.609  67.159  1.00  0.00    -0.268 NA 
HETATM   18  C   UNL     1     -12.146  12.472  66.107  1.00  0.00    -0.286 C  
HETATM   19  C   UNL     1     -12.517  13.809  65.484  1.00  0.00    -0.548 C  
HETATM   20  C   UNL     1     -11.310  14.373  64.757  1.00  0.00    -0.388 C  
HETATM   21  C   UNL     1     -10.077  14.470  65.659  1.00  0.00    -0.384 C  
HETATM   22  C   UNL     1      -9.718  15.873  66.121  1.00  0.00    -0.321 C  
HETATM   23  C   UNL     1     -10.006  13.476  66.849  1.00  0.00    -0.256 C  
HETATM   24  O   UNL     1     -10.740  16.736  66.285  1.00  0.00    -0.234 OA 
HETATM   25  O   UNL     1      -8.565  16.208  66.366  1.00  0.00    -0.273 OA 
ENDBRANCH  16  17
ENDBRANCH  15  16
ENDBRANCH   8  15
ENDBRANCH   3   7
TORSDOF 5
ENDMDL
MODEL       82
REMARK 921   NORMALIZED FREE ENERGY PREDICTED BY IDOCK:   -5.05 KCAL/MOL
REMARK 922        TOTAL FREE ENERGY PREDICTED BY IDOCK:   -8.02 KCAL/MOL
REMARK 923 INTER-LIGAND FREE ENERGY PREDICTED BY IDOCK:   -6.94 KCAL/MOL
REMARK 924 INTRA-LIGAND FREE ENERGY PREDICTED BY IDOCK:   -1.08 KCAL/MOL
REMARK 927      BINDING AFFINITY PREDICTED BY RF-SCORE:    0.00 PKD
ROOT
HETATM    1  C   UNL     1     -10.054   9.633  70.715  1.00  0.00    -0.293 C  
HETATM    2  C   UNL     1      -8.809   9.222  69.996  1.00  0.00    -0.212 A  
HETATM    3  C   UNL     1      -8.625   8.121  69.141  1.00  0.00    -0.136 A  
HETATM    4  C   UNL     1      -6.529   9.433  69.497  1.00  0.00    -0.043 A  
HETATM    5  S   UNL     1      -6.976   8.052  68.606  1.00  0.00    -0.072 SA 
HETATM    6  C   UNL     1      -7.589   9.964  70.183  1.00  0.00    -0.185 A  
ENDROOT
BRANCH   3   7
HETATM    7  C   UNL     1      -9.515   7.053  68.712  1.00  0.00    -0.136 C  
HETATM    8  C   UNL     1     -10.243   7.213  67.577  1.00  0.00    -0.272 C  
BRANCH   7   9
HETATM    9  C   UNL     1      -9.593   5.767  69.412  1.00  0.00    -0.140 A  
HETATM   10  C   UNL     1     -10.195   5.371  70.621  1.00  0.00    -0.323 A  
HETATM   11  C   UNL     1      -9.358   3.310  69.875  1.00  0.00    -0.164 A  
HETATM   12  C   UNL     1     -10.035   3.960  70.871  1.00  0.00    -0.134 A  
HETATM   13  S   UNL     1      -8.877   4.372  68.644  1.00  0.00    -0.110 SA 
HETATM   14  C   UNL     1     -10.960   6.198  71.611  1.00  0.00    -0.320 C  
ENDBRANCH   7   9
BRANCH   8  15
HETATM   15  C   UNL     1     -10.160   8.358  66.585  1.00  0.00    -0.358 C  
BRANCH  15  16
HETATM   16  C   UNL     1     -10.719   9.724  67.096  1.00  0.00    -0.202 C  
BRANCH  16  17
HETATM   17  N   UNL     1     -10.060  10.869  66.445  1.00  0.00    -0.224 NA 
HETATM   18  C   UNL     1      -9.268  10.557  65.267  1.00  0.00    -0.200 C  
HETATM   19  C   UNL     1     -10.038  10.784  63.975  1.00  0.00    -0.410 C  
HETATM   20  C   UNL     1     -10.330  12.265  63.822  1.00  0.00    -0.464 C  
HETATM   21  C   UNL     1     -11.048  12.849  65.041  1.00  0.00    -0.320 C  
HETATM   22  C   UNL     1     -12.528  13.137  64.848  1.00  0.00    -0.433 C  
HETATM   23  C   UNL     1     -10.811  12.132  66.397  1.00  0.00    -0.271 C  
HETATM   24  O   UNL     1     -13.195  12.333  63.997  1.00  0.00    -0.757 OA 
HETATM   25  O   UNL     1     -13.106  14.033  65.453  1.00  0.00    -0.763 OA 
ENDBRANCH  16  17
ENDBRANCH  15  16
ENDBRANCH   8  15
ENDBRANCH   3   7
TORSDOF 5
ENDMDL
MODEL       83
REMARK 921   NORMALIZED FREE ENERGY PREDICTED BY IDOCK:   -5.05 KCAL/MOL
REMARK 922        TOTAL FREE ENERGY PREDICTED BY IDOCK:   -8.02 KCAL/MOL
REMARK 923 INTER-LIGAND FREE ENERGY PREDICTED BY IDOCK:   -6.48 KCAL/MOL
REMARK 924 INTRA-LIGAND FREE ENERGY PREDICTED BY IDOCK:   -1.54 KCAL/MOL
REMARK 927      BINDING AFFINITY PREDICTED BY RF-SCORE:    0.00 PKD
ROOT
HETATM    1  C   UNL     1     -11.764   6.407  70.209  1.00  0.00    -0.389 C  
HETATM    2  C   UNL     1     -10.903   6.829  69.060  1.00  0.00    -0.290 A  
HETATM    3  C   UNL     1     -10.007   7.909  68.999  1.00  0.00    -0.187 A  
HETATM    4  C   UNL     1     -10.166   6.659  66.842  1.00  0.00    -0.220 A  
HETATM    5  S   UNL     1      -9.295   8.004  67.419  1.00  0.00    -0.150 SA 
HETATM    6  C   UNL     1     -10.976   6.122  67.808  1.00  0.00    -0.400 A  
ENDROOT
BRANCH   3   7
HETATM    7  C   UNL     1      -9.650   8.944  69.959  1.00  0.00    -0.190 C  
HETATM    8  C   UNL     1     -10.200  10.179  69.835  1.00  0.00    -0.284 C  
BRANCH   7   9
HETATM    9  C   UNL     1      -8.785   8.679  71.112  1.00  0.00    -0.197 A  
HETATM   10  C   UNL     1      -9.046   8.252  72.427  1.00  0.00    -0.307 A  
HETATM   11  C   UNL     1      -6.703   8.358  72.480  1.00  0.00    -0.092 A  
HETATM   12  C   UNL     1      -7.837   8.088  73.196  1.00  0.00    -0.206 A  
HETATM   13  S   UNL     1      -7.059   8.838  70.893  1.00  0.00    -0.085 SA 
HETATM   14  C   UNL     1     -10.362   7.943  73.076  1.00  0.00    -0.401 C  
ENDBRANCH   7   9
BRANCH   8  15
HETATM   15  C   UNL     1     -11.276  10.613  68.859  1.00  0.00    -0.333 C  
BRANCH  15  16
HETATM   16  C   UNL     1     -12.045  11.916  69.251  1.00  0.00    -0.210 C  
BRANCH  16  17
HETATM   17  N   UNL     1     -11.767  13.023  68.320  1.00  0.00    -0.335 NA 
HETATM   18  C   UNL     1     -10.661  13.893  68.683  1.00  0.00    -0.257 C  
HETATM   19  C   UNL     1      -9.369  13.511  67.977  1.00  0.00    -0.213 C  
HETATM   20  C   UNL     1      -9.526  13.744  66.487  1.00  0.00    -0.282 C  
HETATM   21  C   UNL     1     -10.745  13.022  65.907  1.00  0.00    -0.292 C  
HETATM   22  C   UNL     1     -10.435  11.781  65.084  1.00  0.00    -0.283 C  
HETATM   23  C   UNL     1     -11.916  12.740  66.885  1.00  0.00    -0.310 C  
HETATM   24  O   UNL     1      -9.342  11.077  65.439  1.00  0.00    -0.204 OA 
HETATM   25  O   UNL     1     -11.151  11.411  64.161  1.00  0.00    -0.362 OA 
ENDBRANCH  16  17
ENDBRANCH  15  16
ENDBRANCH   8  15
ENDBRANCH   3   7
TORSDOF 5
ENDMDL
MODEL       84
REMARK 921   NORMALIZED FREE ENERGY PREDICTED BY IDOCK:   -5.03 KCAL/MOL
REMARK 922        TOTAL FREE ENERGY PREDICTED BY IDOCK:   -8.00 KCAL/MOL
REMARK 923 INTER-LIGAND FREE ENERGY PREDICTED BY IDOCK:   -6.52 KCAL/MOL
REMARK 924 INTRA-LIGAND FREE ENERGY PREDICTED BY IDOCK:   -1.48 KCAL/MOL
REMARK 927      BINDING AFFINITY PREDICTED BY RF-SCORE:    0.00 PKD
ROOT
HETATM    1  C   UNL     1     -11.061   6.614  67.436  1.00  0.00    -0.398 C  
HETATM    2  C   UNL     1      -9.829   7.223  68.025  1.00  0.00    -0.167 A  
HETATM    3  C   UNL     1      -9.079   8.307  67.536  1.00  0.00    -0.137 A  
HETATM    4  C   UNL     1      -8.094   7.299  69.600  1.00  0.00    -0.129 A  
HETATM    5  S   UNL     1      -7.703   8.587  68.556  1.00  0.00    -0.105 SA 
HETATM    6  C   UNL     1      -9.244   6.661  69.215  1.00  0.00    -0.140 A  
ENDROOT
BRANCH   3   7
HETATM    7  C   UNL     1      -9.214   9.138  66.349  1.00  0.00    -0.233 C  
HETATM    8  C   UNL     1     -10.009  10.237  66.398  1.00  0.00    -0.287 C  
BRANCH   7   9
HETATM    9  C   UNL     1      -8.453   8.883  65.122  1.00  0.00    -0.173 A  
HETATM   10  C   UNL     1      -7.909   7.714  64.559  1.00  0.00    -0.134 A  
HETATM   11  C   UNL     1      -7.358   9.274  62.896  1.00  0.00    -0.100 A  
HETATM   12  C   UNL     1      -7.274   7.967  63.289  1.00  0.00    -0.091 A  
HETATM   13  S   UNL     1      -8.165  10.226  64.044  1.00  0.00    -0.125 SA 
HETATM   14  C   UNL     1      -7.933   6.311  65.088  1.00  0.00    -0.115 C  
ENDBRANCH   7   9
BRANCH   8  15
HETATM   15  C   UNL     1     -10.713  10.810  67.613  1.00  0.00    -0.305 C  
BRANCH  15  16
HETATM   16  C   UNL     1     -10.120  12.149  68.157  1.00  0.00    -0.206 C  
BRANCH  16  17
HETATM   17  N   UNL     1     -10.851  13.323  67.649  1.00  0.00    -0.254 NA 
HETATM   18  C   UNL     1     -10.037  14.484  67.328  1.00  0.00    -0.247 C  
HETATM   19  C   UNL     1      -9.698  14.562  65.848  1.00  0.00    -0.324 C  
HETATM   20  C   UNL     1     -10.970  14.792  65.054  1.00  0.00    -0.426 C  
HETATM   21  C   UNL     1     -12.044  13.743  65.355  1.00  0.00    -0.427 C  
HETATM   22  C   UNL     1     -12.255  12.700  64.269  1.00  0.00    -0.445 C  
HETATM   23  C   UNL     1     -11.984  13.065  66.749  1.00  0.00    -0.369 C  
HETATM   24  O   UNL     1     -11.177  12.366  63.533  1.00  0.00    -0.437 OA 
HETATM   25  O   UNL     1     -13.338  12.158  64.081  1.00  0.00    -0.750 OA 
ENDBRANCH  16  17
ENDBRANCH  15  16
ENDBRANCH   8  15
ENDBRANCH   3   7
TORSDOF 5
ENDMDL
MODEL       85
REMARK 921   NORMALIZED FREE ENERGY PREDICTED BY IDOCK:   -5.01 KCAL/MOL
REMARK 922        TOTAL FREE ENERGY PREDICTED BY IDOCK:   -7.98 KCAL/MOL
REMARK 923 INTER-LIGAND FREE ENERGY PREDICTED BY IDOCK:   -6.91 KCAL/MOL
REMARK 924 INTRA-LIGAND FREE ENERGY PREDICTED BY IDOCK:   -1.06 KCAL/MOL
REMARK 927      BINDING AFFINITY PREDICTED BY RF-SCORE:    0.00 PKD
ROOT
HETATM    1  C   UNL     1      -7.998  10.499  69.037  1.00  0.00    -0.136 C  
HETATM    2  C   UNL     1      -9.452  10.853  69.028  1.00  0.00    -0.160 A  
HETATM    3  C   UNL     1     -10.127  11.720  68.151  1.00  0.00    -0.192 A  
HETATM    4  C   UNL     1     -11.617  10.777  69.922  1.00  0.00    -0.331 A  
HETATM    5  S   UNL     1     -11.800  11.835  68.600  1.00  0.00    -0.257 SA 
HETATM    6  C   UNL     1     -10.330  10.321  70.037  1.00  0.00    -0.255 A  
ENDROOT
BRANCH   3   7
HETATM    7  C   UNL     1      -9.672  12.543  67.040  1.00  0.00    -0.213 C  
HETATM    8  C   UNL     1      -8.993  13.689  67.301  1.00  0.00    -0.226 C  
BRANCH   7   9
HETATM    9  C   UNL     1      -9.842  12.137  65.642  1.00  0.00    -0.237 A  
HETATM   10  C   UNL     1      -9.652  10.916  64.971  1.00  0.00    -0.299 A  
HETATM   11  C   UNL     1     -10.464  12.237  63.211  1.00  0.00    -0.252 A  
HETATM   12  C   UNL     1     -10.002  11.002  63.575  1.00  0.00    -0.421 A  
HETATM   13  S   UNL     1     -10.459  13.320  64.516  1.00  0.00    -0.378 SA 
HETATM   14  C   UNL     1      -9.175   9.602  65.516  1.00  0.00    -0.291 C  
ENDBRANCH   7   9
BRANCH   8  15
HETATM   15  C   UNL     1      -8.518  14.190  68.652  1.00  0.00    -0.120 C  
BRANCH  15  16
HETATM   16  C   UNL     1      -9.270  15.445  69.199  1.00  0.00    -0.242 C  
BRANCH  16  17
HETATM   17  N   UNL     1      -8.555  16.696  68.890  1.00  0.00    -0.251 NA 
HETATM   18  C   UNL     1      -7.304  16.546  68.165  1.00  0.00    -0.160 C  
HETATM   19  C   UNL     1      -7.476  16.750  66.667  1.00  0.00    -0.308 C  
HETATM   20  C   UNL     1      -7.868  18.190  66.400  1.00  0.00    -0.295 C  
HETATM   21  C   UNL     1      -9.106  18.616  67.195  1.00  0.00    -0.294 C  
HETATM   22  C   UNL     1     -10.388  18.734  66.387  1.00  0.00    -0.439 C  
HETATM   23  C   UNL     1      -9.374  17.860  68.523  1.00  0.00    -0.296 C  
HETATM   24  O   UNL     1     -10.519  17.904  65.333  1.00  0.00    -0.635 OA 
HETATM   25  O   UNL     1     -11.281  19.519  66.684  1.00  0.00    -0.229 OA 
ENDBRANCH  16  17
ENDBRANCH  15  16
ENDBRANCH   8  15
ENDBRANCH   3   7
TORSDOF 5
ENDMDL
MODEL       86
REMARK 921   NORMALIZED FREE ENERGY PREDICTED BY IDOCK:   -5.01 KCAL/MOL
REMARK 922        TOTAL FREE ENERGY PREDICTED BY IDOCK:   -7.97 KCAL/MOL
REMARK 923 INTER-LIGAND FREE ENERGY PREDICTED BY IDOCK:   -6.39 KCAL/MOL
REMARK 924 INTRA-LIGAND FREE ENERGY PREDICTED BY IDOCK:   -1.58 KCAL/MOL
REMARK 927      BINDING AFFINITY PREDICTED BY RF-SCORE:    0.00 PKD
ROOT
HETATM    1  C   UNL     1     -11.924  12.321  67.748  1.00  0.00    -0.229 C  
HETATM    2  C   UNL     1     -11.613  12.311  66.285  1.00  0.00    -0.446 A  
HETATM    3  C   UNL     1     -10.517  11.716  65.636  1.00  0.00    -0.268 A  
HETATM    4  C   UNL     1     -12.019  12.952  64.067  1.00  0.00    -0.451 A  
HETATM    5  S   UNL     1     -10.587  12.041  63.932  1.00  0.00    -0.446 SA 
HETATM    6  C   UNL     1     -12.465  13.015  65.362  1.00  0.00    -0.531 A  
ENDROOT
BRANCH   3   7
HETATM    7  C   UNL     1      -9.365  10.978  66.132  1.00  0.00    -0.214 C  
HETATM    8  C   UNL     1      -8.300  11.664  66.621  1.00  0.00    -0.154 C  
BRANCH   7   9
HETATM    9  C   UNL     1      -9.344   9.514  66.207  1.00  0.00    -0.188 A  
HETATM   10  C   UNL     1      -8.475   8.542  65.679  1.00  0.00    -0.170 A  
HETATM   11  C   UNL     1      -9.949   7.174  66.887  1.00  0.00    -0.224 A  
HETATM   12  C   UNL     1      -8.850   7.206  66.072  1.00  0.00    -0.154 A  
HETATM   13  S   UNL     1     -10.567   8.727  67.172  1.00  0.00    -0.149 SA 
HETATM   14  C   UNL     1      -7.257   8.728  64.823  1.00  0.00    -0.091 C  
ENDBRANCH   7   9
BRANCH   8  15
HETATM   15  C   UNL     1      -8.193  13.161  66.841  1.00  0.00     0.020 C  
BRANCH  15  16
HETATM   16  C   UNL     1      -8.402  13.634  68.315  1.00  0.00    -0.165 C  
BRANCH  16  17
HETATM   17  N   UNL     1      -8.692  15.076  68.396  1.00  0.00    -0.168 NA 
HETATM   18  C   UNL     1      -9.166  15.696  67.170  1.00  0.00    -0.212 C  
HETATM   19  C   UNL     1     -10.682  15.804  67.124  1.00  0.00    -0.312 C  
HETATM   20  C   UNL     1     -11.147  16.762  68.205  1.00  0.00    -0.254 C  
HETATM   21  C   UNL     1     -10.629  16.373  69.592  1.00  0.00    -0.307 C  
HETATM   22  C   UNL     1     -11.661  15.752  70.521  1.00  0.00    -0.377 C  
HETATM   23  C   UNL     1      -9.306  15.564  69.640  1.00  0.00    -0.223 C  
HETATM   24  O   UNL     1     -12.639  15.029  69.941  1.00  0.00    -0.259 OA 
HETATM   25  O   UNL     1     -11.602  15.870  71.739  1.00  0.00    -0.417 OA 
ENDBRANCH  16  17
ENDBRANCH  15  16
ENDBRANCH   8  15
ENDBRANCH   3   7
TORSDOF 5
ENDMDL
MODEL       87
REMARK 921   NORMALIZED FREE ENERGY PREDICTED BY IDOCK:   -4.99 KCAL/MOL
REMARK 922        TOTAL FREE ENERGY PREDICTED BY IDOCK:   -7.95 KCAL/MOL
REMARK 923 INTER-LIGAND FREE ENERGY PREDICTED BY IDOCK:   -6.53 KCAL/MOL
REMARK 924 INTRA-LIGAND FREE ENERGY PREDICTED BY IDOCK:   -1.42 KCAL/MOL
REMARK 927      BINDING AFFINITY PREDICTED BY RF-SCORE:    0.00 PKD
ROOT
HETATM    1  C   UNL     1     -12.044  14.357  66.384  1.00  0.00    -0.390 C  
HETATM    2  C   UNL     1     -11.622  14.714  67.774  1.00  0.00    -0.382 A  
HETATM    3  C   UNL     1     -10.509  15.473  68.174  1.00  0.00    -0.259 A  
HETATM    4  C   UNL     1     -11.827  14.593  70.106  1.00  0.00    -0.307 A  
HETATM    5  S   UNL     1     -10.433  15.550  69.906  1.00  0.00    -0.311 SA 
HETATM    6  C   UNL     1     -12.368  14.221  68.903  1.00  0.00    -0.116 A  
ENDROOT
BRANCH   3   7
HETATM    7  C   UNL     1      -9.434  16.107  67.426  1.00  0.00    -0.227 C  
HETATM    8  C   UNL     1      -8.499  15.329  66.823  1.00  0.00    -0.290 C  
BRANCH   7   9
HETATM    9  C   UNL     1      -9.368  17.557  67.223  1.00  0.00    -0.244 A  
HETATM   10  C   UNL     1      -8.506  18.554  67.715  1.00  0.00    -0.285 A  
HETATM   11  C   UNL     1      -9.867  19.840  66.302  1.00  0.00    -0.455 A  
HETATM   12  C   UNL     1      -8.821  19.857  67.184  1.00  0.00    -0.407 A  
HETATM   13  S   UNL     1     -10.510  18.281  66.118  1.00  0.00    -0.294 SA 
HETATM   14  C   UNL     1      -7.348  18.420  68.659  1.00  0.00    -0.311 C  
ENDBRANCH   7   9
BRANCH   8  15
HETATM   15  C   UNL     1      -8.491  13.816  66.717  1.00  0.00     0.007 C  
BRANCH  15  16
HETATM   16  C   UNL     1      -8.161  13.057  68.042  1.00  0.00    -0.157 C  
BRANCH  16  17
HETATM   17  N   UNL     1      -8.436  11.614  67.935  1.00  0.00    -0.141 NA 
HETATM   18  C   UNL     1      -9.485  11.104  68.803  1.00  0.00    -0.165 C  
HETATM   19  C   UNL     1     -10.825  11.001  68.092  1.00  0.00    -0.274 C  
HETATM   20  C   UNL     1     -10.732   9.953  66.999  1.00  0.00    -0.237 C  
HETATM   21  C   UNL     1      -9.574  10.218  66.032  1.00  0.00    -0.259 C  
HETATM   22  C   UNL     1      -9.978  10.756  64.668  1.00  0.00    -0.324 C  
HETATM   23  C   UNL     1      -8.369  11.019  66.592  1.00  0.00    -0.155 C  
HETATM   24  O   UNL     1     -11.081  11.528  64.624  1.00  0.00    -0.306 OA 
HETATM   25  O   UNL     1      -9.324  10.532  63.656  1.00  0.00    -0.236 OA 
ENDBRANCH  16  17
ENDBRANCH  15  16
ENDBRANCH   8  15
ENDBRANCH   3   7
TORSDOF 5
ENDMDL
MODEL       88
REMARK 921   NORMALIZED FREE ENERGY PREDICTED BY IDOCK:   -4.99 KCAL/MOL
REMARK 922        TOTAL FREE ENERGY PREDICTED BY IDOCK:   -7.95 KCAL/MOL
REMARK 923 INTER-LIGAND FREE ENERGY PREDICTED BY IDOCK:   -6.64 KCAL/MOL
REMARK 924 INTRA-LIGAND FREE ENERGY PREDICTED BY IDOCK:   -1.31 KCAL/MOL
REMARK 927      BINDING AFFINITY PREDICTED BY RF-SCORE:    0.00 PKD
ROOT
HETATM    1  C   UNL     1     -10.960  11.535  65.841  1.00  0.00    -0.301 C  
HETATM    2  C   UNL     1      -9.861  10.520  65.866  1.00  0.00    -0.291 A  
HETATM    3  C   UNL     1      -9.004  10.196  66.931  1.00  0.00    -0.132 A  
HETATM    4  C   UNL     1      -8.485   8.920  64.847  1.00  0.00    -0.178 A  
HETATM    5  S   UNL     1      -7.861   8.990  66.430  1.00  0.00    -0.100 SA 
HETATM    6  C   UNL     1      -9.546   9.771  64.678  1.00  0.00    -0.244 A  
ENDROOT
BRANCH   3   7
HETATM    7  C   UNL     1      -8.876  10.723  68.283  1.00  0.00    -0.139 C  
HETATM    8  C   UNL     1      -8.055  11.781  68.505  1.00  0.00    -0.140 C  
BRANCH   7   9
HETATM    9  C   UNL     1      -9.668  10.208  69.403  1.00  0.00    -0.229 A  
HETATM   10  C   UNL     1     -10.926  10.559  69.927  1.00  0.00    -0.359 A  
HETATM   11  C   UNL     1     -10.387   8.746  71.315  1.00  0.00    -0.261 A  
HETATM   12  C   UNL     1     -11.310   9.715  71.031  1.00  0.00    -0.444 A  
HETATM   13  S   UNL     1      -9.037   8.844  70.293  1.00  0.00    -0.198 SA 
HETATM   14  C   UNL     1     -11.869  11.635  69.478  1.00  0.00    -0.414 C  
ENDBRANCH   7   9
BRANCH   8  15
HETATM   15  C   UNL     1      -7.313  12.604  67.469  1.00  0.00    -0.151 C  
BRANCH  15  16
HETATM   16  C   UNL     1      -7.754  14.099  67.365  1.00  0.00    -0.169 C  
BRANCH  16  17
HETATM   17  N   UNL     1      -9.171  14.283  67.723  1.00  0.00    -0.189 NA 
HETATM   18  C   UNL     1      -9.422  14.961  68.984  1.00  0.00    -0.196 C  
HETATM   19  C   UNL     1      -9.695  16.445  68.799  1.00  0.00    -0.250 C  
HETATM   20  C   UNL     1     -10.996  16.623  68.038  1.00  0.00    -0.311 C  
HETATM   21  C   UNL     1     -11.007  15.856  66.713  1.00  0.00    -0.151 C  
HETATM   22  C   UNL     1     -10.844  16.710  65.466  1.00  0.00    -0.163 C  
HETATM   23  C   UNL     1     -10.100  14.600  66.628  1.00  0.00    -0.273 C  
HETATM   24  O   UNL     1     -10.099  17.826  65.589  1.00  0.00    -0.570 OA 
HETATM   25  O   UNL     1     -11.335  16.396  64.387  1.00  0.00    -0.784 OA 
ENDBRANCH  16  17
ENDBRANCH  15  16
ENDBRANCH   8  15
ENDBRANCH   3   7
TORSDOF 5
ENDMDL
MODEL       89
REMARK 921   NORMALIZED FREE ENERGY PREDICTED BY IDOCK:   -4.99 KCAL/MOL
REMARK 922        TOTAL FREE ENERGY PREDICTED BY IDOCK:   -7.94 KCAL/MOL
REMARK 923 INTER-LIGAND FREE ENERGY PREDICTED BY IDOCK:   -7.63 KCAL/MOL
REMARK 924 INTRA-LIGAND FREE ENERGY PREDICTED BY IDOCK:   -0.32 KCAL/MOL
REMARK 927      BINDING AFFINITY PREDICTED BY RF-SCORE:    0.00 PKD
ROOT
HETATM    1  C   UNL     1     -12.261  10.615  69.576  1.00  0.00    -0.230 C  
HETATM    2  C   UNL     1     -10.862  10.802  69.081  1.00  0.00    -0.281 A  
HETATM    3  C   UNL     1     -10.408  11.672  68.075  1.00  0.00    -0.192 A  
HETATM    4  C   UNL     1      -8.584  10.254  69.026  1.00  0.00    -0.162 A  
HETATM    5  S   UNL     1      -8.701  11.467  67.837  1.00  0.00    -0.150 SA 
HETATM    6  C   UNL     1      -9.795   9.998  69.616  1.00  0.00    -0.261 A  
ENDROOT
BRANCH   3   7
HETATM    7  C   UNL     1     -11.100  12.608  67.201  1.00  0.00    -0.321 C  
HETATM    8  C   UNL     1     -11.608  13.752  67.727  1.00  0.00    -0.381 C  
BRANCH   7   9
HETATM    9  C   UNL     1     -11.193  12.406  65.752  1.00  0.00    -0.333 A  
HETATM   10  C   UNL     1     -11.828  13.127  64.724  1.00  0.00    -0.413 A  
HETATM   11  C   UNL     1     -10.786  11.442  63.469  1.00  0.00    -0.381 A  
HETATM   12  C   UNL     1     -11.592  12.547  63.426  1.00  0.00    -0.547 A  
HETATM   13  S   UNL     1     -10.325  11.061  65.056  1.00  0.00    -0.284 SA 
HETATM   14  C   UNL     1     -12.657  14.374  64.818  1.00  0.00    -0.282 C  
ENDBRANCH   7   9
BRANCH   8  15
HETATM   15  C   UNL     1     -11.440  14.267  69.143  1.00  0.00    -0.330 C  
BRANCH  15  16
HETATM   16  C   UNL     1     -11.700  15.796  69.331  1.00  0.00    -0.370 C  
BRANCH  16  17
HETATM   17  N   UNL     1     -10.445  16.557  69.466  1.00  0.00    -0.308 NA 
HETATM   18  C   UNL     1      -9.221  15.794  69.286  1.00  0.00    -0.266 C  
HETATM   19  C   UNL     1      -8.668  15.912  67.874  1.00  0.00    -0.168 C  
HETATM   20  C   UNL     1      -8.231  17.344  67.627  1.00  0.00    -0.210 C  
HETATM   21  C   UNL     1      -9.349  18.352  67.904  1.00  0.00    -0.291 C  
HETATM   22  C   UNL     1      -9.998  18.959  66.670  1.00  0.00    -0.373 C  
HETATM   23  C   UNL     1     -10.433  17.925  68.928  1.00  0.00    -0.157 C  
HETATM   24  O   UNL     1     -10.052  18.182  65.571  1.00  0.00    -0.488 OA 
HETATM   25  O   UNL     1     -10.480  20.086  66.670  1.00  0.00    -0.449 OA 
ENDBRANCH  16  17
ENDBRANCH  15  16
ENDBRANCH   8  15
ENDBRANCH   3   7
TORSDOF 5
ENDMDL
MODEL       90
REMARK 921   NORMALIZED FREE ENERGY PREDICTED BY IDOCK:   -4.98 KCAL/MOL
REMARK 922        TOTAL FREE ENERGY PREDICTED BY IDOCK:   -7.94 KCAL/MOL
REMARK 923 INTER-LIGAND FREE ENERGY PREDICTED BY IDOCK:   -7.04 KCAL/MOL
REMARK 924 INTRA-LIGAND FREE ENERGY PREDICTED BY IDOCK:   -0.90 KCAL/MOL
REMARK 927      BINDING AFFINITY PREDICTED BY RF-SCORE:    0.00 PKD
ROOT
HETATM    1  C   UNL     1     -12.901  13.825  65.355  1.00  0.00    -0.455 C  
HETATM    2  C   UNL     1     -11.851  12.771  65.506  1.00  0.00    -0.466 A  
HETATM    3  C   UNL     1     -11.050  12.499  66.628  1.00  0.00    -0.283 A  
HETATM    4  C   UNL     1     -10.511  11.037  64.675  1.00  0.00    -0.329 A  
HETATM    5  S   UNL     1      -9.944  11.210  66.272  1.00  0.00    -0.228 SA 
HETATM    6  C   UNL     1     -11.524  11.915  64.395  1.00  0.00    -0.393 A  
ENDROOT
BRANCH   3   7
HETATM    7  C   UNL     1     -10.950  13.127  67.937  1.00  0.00    -0.271 C  
HETATM    8  C   UNL     1     -11.415  12.464  69.027  1.00  0.00    -0.352 C  
BRANCH   7   9
HETATM    9  C   UNL     1     -10.282  14.416  68.140  1.00  0.00    -0.232 A  
HETATM   10  C   UNL     1     -10.519  15.489  69.019  1.00  0.00    -0.231 A  
HETATM   11  C   UNL     1      -8.591  16.261  67.927  1.00  0.00    -0.173 A  
HETATM   12  C   UNL     1      -9.544  16.541  68.869  1.00  0.00    -0.261 A  
HETATM   13  S   UNL     1      -8.859  14.759  67.188  1.00  0.00    -0.227 SA 
HETATM   14  C   UNL     1     -11.595  15.643  70.052  1.00  0.00    -0.360 C  
ENDBRANCH   7   9
BRANCH   8  15
HETATM   15  C   UNL     1     -11.941  11.042  69.083  1.00  0.00    -0.394 C  
BRANCH  15  16
HETATM   16  C   UNL     1     -11.878  10.364  70.489  1.00  0.00    -0.337 C  
BRANCH  16  17
HETATM   17  N   UNL     1     -10.632   9.603  70.680  1.00  0.00    -0.299 NA 
HETATM   18  C   UNL     1     -10.654   8.609  71.741  1.00  0.00    -0.325 C  
HETATM   19  C   UNL     1     -10.952   7.212  71.219  1.00  0.00    -0.264 C  
HETATM   20  C   UNL     1      -9.808   6.756  70.332  1.00  0.00    -0.186 C  
HETATM   21  C   UNL     1      -9.509   7.750  69.207  1.00  0.00    -0.155 C  
HETATM   22  C   UNL     1      -9.974   7.325  67.823  1.00  0.00    -0.166 C  
HETATM   23  C   UNL     1      -9.885   9.233  69.470  1.00  0.00    -0.181 C  
HETATM   24  O   UNL     1     -11.080   6.558  67.766  1.00  0.00    -0.313 OA 
HETATM   25  O   UNL     1      -9.398   7.680  66.801  1.00  0.00    -0.154 OA 
ENDBRANCH  16  17
ENDBRANCH  15  16
ENDBRANCH   8  15
ENDBRANCH   3   7
TORSDOF 5
ENDMDL
MODEL       91
REMARK 921   NORMALIZED FREE ENERGY PREDICTED BY IDOCK:   -4.98 KCAL/MOL
REMARK 922        TOTAL FREE ENERGY PREDICTED BY IDOCK:   -7.93 KCAL/MOL
REMARK 923 INTER-LIGAND FREE ENERGY PREDICTED BY IDOCK:   -6.88 KCAL/MOL
REMARK 924 INTRA-LIGAND FREE ENERGY PREDICTED BY IDOCK:   -1.05 KCAL/MOL
REMARK 927      BINDING AFFINITY PREDICTED BY RF-SCORE:    0.00 PKD
ROOT
HETATM    1  C   UNL     1      -7.181   9.021  67.798  1.00  0.00    -0.083 C  
HETATM    2  C   UNL     1      -8.337   8.130  67.468  1.00  0.00    -0.123 A  
HETATM    3  C   UNL     1      -9.638   8.503  67.090  1.00  0.00    -0.178 A  
HETATM    4  C   UNL     1      -9.357   6.028  67.285  1.00  0.00    -0.113 A  
HETATM    5  S   UNL     1     -10.623   7.091  66.874  1.00  0.00    -0.260 SA 
HETATM    6  C   UNL     1      -8.198   6.701  67.571  1.00  0.00    -0.122 A  
ENDROOT
BRANCH   3   7
HETATM    7  C   UNL     1     -10.279   9.800  66.927  1.00  0.00    -0.310 C  
HETATM    8  C   UNL     1     -10.862  10.389  68.003  1.00  0.00    -0.319 C  
BRANCH   7   9
HETATM    9  C   UNL     1     -10.245  10.539  65.662  1.00  0.00    -0.246 A  
HETATM   10  C   UNL     1     -10.924  11.682  65.203  1.00  0.00    -0.326 A  
HETATM   11  C   UNL     1      -9.538  11.252  63.360  1.00  0.00    -0.333 A  
HETATM   12  C   UNL     1     -10.512  12.064  63.875  1.00  0.00    -0.440 A  
HETATM   13  S   UNL     1      -9.122  10.008  64.434  1.00  0.00    -0.266 SA 
HETATM   14  C   UNL     1     -11.953  12.516  65.907  1.00  0.00    -0.472 C  
ENDBRANCH   7   9
BRANCH   8  15
HETATM   15  C   UNL     1     -10.828   9.914  69.443  1.00  0.00    -0.265 C  
BRANCH  15  16
HETATM   16  C   UNL     1     -11.718  10.730  70.434  1.00  0.00    -0.351 C  
BRANCH  16  17
HETATM   17  N   UNL     1     -12.104   9.934  71.612  1.00  0.00    -0.398 NA 
HETATM   18  C   UNL     1     -13.530   9.709  71.783  1.00  0.00    -0.394 C  
HETATM   19  C   UNL     1     -13.973   8.362  71.232  1.00  0.00    -0.242 C  
HETATM   20  C   UNL     1     -13.340   7.254  72.053  1.00  0.00    -0.178 C  
HETATM   21  C   UNL     1     -11.816   7.383  72.131  1.00  0.00    -0.323 C  
HETATM   22  C   UNL     1     -11.036   6.394  71.279  1.00  0.00    -0.282 C  
HETATM   23  C   UNL     1     -11.229   8.810  71.974  1.00  0.00    -0.373 C  
HETATM   24  O   UNL     1     -11.618   5.992  70.132  1.00  0.00    -0.308 OA 
HETATM   25  O   UNL     1      -9.919   5.998  71.591  1.00  0.00    -0.176 OA 
ENDBRANCH  16  17
ENDBRANCH  15  16
ENDBRANCH   8  15
ENDBRANCH   3   7
TORSDOF 5
ENDMDL
MODEL       92
REMARK 921   NORMALIZED FREE ENERGY PREDICTED BY IDOCK:   -4.97 KCAL/MOL
REMARK 922        TOTAL FREE ENERGY PREDICTED BY IDOCK:   -7.92 KCAL/MOL
REMARK 923 INTER-LIGAND FREE ENERGY PREDICTED BY IDOCK:   -6.63 KCAL/MOL
REMARK 924 INTRA-LIGAND FREE ENERGY PREDICTED BY IDOCK:   -1.29 KCAL/MOL
REMARK 927      BINDING AFFINITY PREDICTED BY RF-SCORE:    0.00 PKD
ROOT
HETATM    1  C   UNL     1     -12.457  13.320  65.551  1.00  0.00    -0.531 C  
HETATM    2  C   UNL     1     -11.177  13.570  66.283  1.00  0.00    -0.310 A  
HETATM    3  C   UNL     1     -10.694  12.922  67.432  1.00  0.00    -0.237 A  
HETATM    4  C   UNL     1      -9.189  14.757  66.651  1.00  0.00    -0.275 A  
HETATM    5  S   UNL     1      -9.184  13.623  67.922  1.00  0.00    -0.211 SA 
HETATM    6  C   UNL     1     -10.293  14.621  65.850  1.00  0.00    -0.334 A  
ENDROOT
BRANCH   3   7
HETATM    7  C   UNL     1     -11.250  11.871  68.273  1.00  0.00    -0.317 C  
HETATM    8  C   UNL     1     -11.096  10.575  67.899  1.00  0.00    -0.367 C  
BRANCH   7   9
HETATM    9  C   UNL     1     -11.896  12.153  69.558  1.00  0.00    -0.321 A  
HETATM   10  C   UNL     1     -12.272  13.348  70.197  1.00  0.00    -0.385 A  
HETATM   11  C   UNL     1     -13.072  11.777  71.745  1.00  0.00    -0.375 A  
HETATM   12  C   UNL     1     -12.932  13.108  71.456  1.00  0.00    -0.412 A  
HETATM   13  S   UNL     1     -12.393  10.797  70.539  1.00  0.00    -0.388 SA 
HETATM   14  C   UNL     1     -12.096  14.764  69.733  1.00  0.00    -0.364 C  
ENDBRANCH   7   9
BRANCH   8  15
HETATM   15  C   UNL     1     -10.282  10.043  66.735  1.00  0.00    -0.295 C  
BRANCH  15  16
HETATM   16  C   UNL     1      -8.733  10.165  66.894  1.00  0.00    -0.129 C  
BRANCH  16  17
HETATM   17  N   UNL     1      -8.107   8.872  67.219  1.00  0.00    -0.104 NA 
HETATM   18  C   UNL     1      -7.578   8.748  68.568  1.00  0.00    -0.098 C  
HETATM   19  C   UNL     1      -8.551   8.055  69.509  1.00  0.00    -0.136 C  
HETATM   20  C   UNL     1      -8.734   6.615  69.068  1.00  0.00    -0.129 C  
HETATM   21  C   UNL     1      -9.159   6.503  67.601  1.00  0.00    -0.112 C  
HETATM   22  C   UNL     1     -10.618   6.141  67.373  1.00  0.00    -0.281 C  
HETATM   23  C   UNL     1      -8.739   7.667  66.664  1.00  0.00    -0.141 C  
HETATM   24  O   UNL     1     -11.500   6.571  68.297  1.00  0.00    -0.150 OA 
HETATM   25  O   UNL     1     -10.992   5.517  66.386  1.00  0.00    -0.232 OA 
ENDBRANCH  16  17
ENDBRANCH  15  16
ENDBRANCH   8  15
ENDBRANCH   3   7
TORSDOF 5
ENDMDL
MODEL       93
REMARK 921   NORMALIZED FREE ENERGY PREDICTED BY IDOCK:   -4.96 KCAL/MOL
REMARK 922        TOTAL FREE ENERGY PREDICTED BY IDOCK:   -7.92 KCAL/MOL
REMARK 923 INTER-LIGAND FREE ENERGY PREDICTED BY IDOCK:   -6.54 KCAL/MOL
REMARK 924 INTRA-LIGAND FREE ENERGY PREDICTED BY IDOCK:   -1.38 KCAL/MOL
REMARK 927      BINDING AFFINITY PREDICTED BY RF-SCORE:    0.00 PKD
ROOT
HETATM    1  C   UNL     1     -10.266   8.817  66.811  1.00  0.00    -0.354 C  
HETATM    2  C   UNL     1      -9.339   9.961  67.071  1.00  0.00    -0.175 A  
HETATM    3  C   UNL     1      -9.666  11.310  67.290  1.00  0.00    -0.174 A  
HETATM    4  C   UNL     1      -7.202  10.902  67.271  1.00  0.00    -0.098 A  
HETATM    5  S   UNL     1      -8.221  12.250  67.485  1.00  0.00    -0.181 SA 
HETATM    6  C   UNL     1      -7.915   9.750  67.067  1.00  0.00    -0.105 A  
ENDROOT
BRANCH   3   7
HETATM    7  C   UNL     1     -10.937  12.021  67.308  1.00  0.00    -0.313 C  
HETATM    8  C   UNL     1     -11.755  11.886  68.382  1.00  0.00    -0.387 C  
BRANCH   7   9
HETATM    9  C   UNL     1     -11.330  12.952  66.245  1.00  0.00    -0.323 A  
HETATM   10  C   UNL     1     -11.182  14.342  66.087  1.00  0.00    -0.331 A  
HETATM   11  C   UNL     1     -12.199  13.795  64.045  1.00  0.00    -0.380 A  
HETATM   12  C   UNL     1     -11.700  14.804  64.824  1.00  0.00    -0.422 A  
HETATM   13  S   UNL     1     -12.086  12.290  64.817  1.00  0.00    -0.321 SA 
HETATM   14  C   UNL     1     -10.560  15.338  67.021  1.00  0.00    -0.306 C  
ENDBRANCH   7   9
BRANCH   8  15
HETATM   15  C   UNL     1     -11.459  11.157  69.678  1.00  0.00    -0.383 C  
BRANCH  15  16
HETATM   16  C   UNL     1     -12.529  10.103  70.109  1.00  0.00    -0.036 C  
BRANCH  16  17
HETATM   17  N   UNL     1     -12.077   9.292  71.252  1.00  0.00    -0.319 NA 
HETATM   18  C   UNL     1     -12.602   7.938  71.314  1.00  0.00    -0.245 C  
HETATM   19  C   UNL     1     -11.639   6.917  70.728  1.00  0.00    -0.397 C  
HETATM   20  C   UNL     1     -10.393   6.852  71.590  1.00  0.00    -0.216 C  
HETATM   21  C   UNL     1      -9.744   8.225  71.784  1.00  0.00    -0.278 C  
HETATM   22  C   UNL     1      -8.468   8.458  70.990  1.00  0.00    -0.143 C  
HETATM   23  C   UNL     1     -10.679   9.458  71.676  1.00  0.00    -0.228 C  
HETATM   24  O   UNL     1      -8.372   7.831  69.801  1.00  0.00    -0.127 OA 
HETATM   25  O   UNL     1      -7.577   9.201  71.384  1.00  0.00    -0.293 OA 
ENDBRANCH  16  17
ENDBRANCH  15  16
ENDBRANCH   8  15
ENDBRANCH   3   7
TORSDOF 5
ENDMDL
MODEL       94
REMARK 921   NORMALIZED FREE ENERGY PREDICTED BY IDOCK:   -4.96 KCAL/MOL
REMARK 922        TOTAL FREE ENERGY PREDICTED BY IDOCK:   -7.91 KCAL/MOL
REMARK 923 INTER-LIGAND FREE ENERGY PREDICTED BY IDOCK:   -6.97 KCAL/MOL
REMARK 924 INTRA-LIGAND FREE ENERGY PREDICTED BY IDOCK:   -0.93 KCAL/MOL
REMARK 927      BINDING AFFINITY PREDICTED BY RF-SCORE:    0.00 PKD
ROOT
HETATM    1  C   UNL     1     -12.808  13.852  65.888  1.00  0.00    -0.387 C  
HETATM    2  C   UNL     1     -11.739  12.810  65.790  1.00  0.00    -0.449 A  
HETATM    3  C   UNL     1     -10.841  12.393  66.787  1.00  0.00    -0.248 A  
HETATM    4  C   UNL     1     -10.460  11.248  64.599  1.00  0.00    -0.325 A  
HETATM    5  S   UNL     1      -9.759  11.196  66.150  1.00  0.00    -0.228 SA 
HETATM    6  C   UNL     1     -11.503  12.135  64.540  1.00  0.00    -0.397 A  
ENDROOT
BRANCH   3   7
HETATM    7  C   UNL     1     -10.633  12.823  68.162  1.00  0.00    -0.242 C  
HETATM    8  C   UNL     1      -9.815  13.879  68.408  1.00  0.00    -0.229 C  
BRANCH   7   9
HETATM    9  C   UNL     1     -11.343  12.214  69.290  1.00  0.00    -0.266 A  
HETATM   10  C   UNL     1     -12.214  12.733  70.266  1.00  0.00    -0.351 A  
HETATM   11  C   UNL     1     -12.239  10.462  70.851  1.00  0.00    -0.383 A  
HETATM   12  C   UNL     1     -12.703  11.712  71.157  1.00  0.00    -0.426 A  
HETATM   13  S   UNL     1     -11.190  10.490  69.518  1.00  0.00    -0.291 SA 
HETATM   14  C   UNL     1     -12.683  14.145  70.458  1.00  0.00    -0.374 C  
ENDBRANCH   7   9
BRANCH   8  15
HETATM   15  C   UNL     1      -9.154  14.788  67.390  1.00  0.00    -0.202 C  
BRANCH  15  16
HETATM   16  C   UNL     1      -8.765  16.207  67.917  1.00  0.00    -0.174 C  
BRANCH  16  17
HETATM   17  N   UNL     1      -7.308  16.360  68.065  1.00  0.00    -0.133 NA 
HETATM   18  C   UNL     1      -6.540  16.324  66.832  1.00  0.00    -0.088 C  
HETATM   19  C   UNL     1      -6.225  17.717  66.306  1.00  0.00    -0.272 C  
HETATM   20  C   UNL     1      -5.298  18.421  67.279  1.00  0.00    -0.140 C  
HETATM   21  C   UNL     1      -5.857  18.445  68.704  1.00  0.00    -0.188 C  
HETATM   22  C   UNL     1      -6.401  19.788  69.165  1.00  0.00    -0.314 C  
HETATM   23  C   UNL     1      -6.838  17.306  69.087  1.00  0.00    -0.234 C  
HETATM   24  O   UNL     1      -6.941  20.580  68.218  1.00  0.00    -0.265 OA 
HETATM   25  O   UNL     1      -6.385  20.133  70.341  1.00  0.00    -0.366 OA 
ENDBRANCH  16  17
ENDBRANCH  15  16
ENDBRANCH   8  15
ENDBRANCH   3   7
TORSDOF 5
ENDMDL
MODEL       95
REMARK 921   NORMALIZED FREE ENERGY PREDICTED BY IDOCK:   -4.95 KCAL/MOL
REMARK 922        TOTAL FREE ENERGY PREDICTED BY IDOCK:   -7.90 KCAL/MOL
REMARK 923 INTER-LIGAND FREE ENERGY PREDICTED BY IDOCK:   -6.61 KCAL/MOL
REMARK 924 INTRA-LIGAND FREE ENERGY PREDICTED BY IDOCK:   -1.30 KCAL/MOL
REMARK 927      BINDING AFFINITY PREDICTED BY RF-SCORE:    0.00 PKD
ROOT
HETATM    1  C   UNL     1     -12.360   8.539  71.337  1.00  0.00    -0.332 C  
HETATM    2  C   UNL     1     -10.866   8.612  71.305  1.00  0.00    -0.327 A  
HETATM    3  C   UNL     1     -10.030   8.774  70.187  1.00  0.00    -0.184 A  
HETATM    4  C   UNL     1      -8.756   8.501  72.319  1.00  0.00    -0.190 A  
HETATM    5  S   UNL     1      -8.366   8.738  70.678  1.00  0.00    -0.172 SA 
HETATM    6  C   UNL     1     -10.111   8.460  72.521  1.00  0.00    -0.362 A  
ENDROOT
BRANCH   3   7
HETATM    7  C   UNL     1     -10.307   8.888  68.762  1.00  0.00    -0.232 C  
HETATM    8  C   UNL     1     -10.556  10.113  68.233  1.00  0.00    -0.262 C  
BRANCH   7   9
HETATM    9  C   UNL     1     -10.242   7.738  67.856  1.00  0.00    -0.206 A  
HETATM   10  C   UNL     1      -9.643   7.544  66.598  1.00  0.00    -0.263 A  
HETATM   11  C   UNL     1     -10.500   5.395  66.988  1.00  0.00    -0.257 A  
HETATM   12  C   UNL     1      -9.817   6.196  66.114  1.00  0.00    -0.007 A  
HETATM   13  S   UNL     1     -10.972   6.241  68.380  1.00  0.00    -0.273 SA 
HETATM   14  C   UNL     1      -8.869   8.518  65.760  1.00  0.00    -0.229 C  
ENDBRANCH   7   9
BRANCH   8  15
HETATM   15  C   UNL     1     -10.461  11.455  68.933  1.00  0.00    -0.219 C  
BRANCH  15  16
HETATM   16  C   UNL     1     -11.781  11.949  69.607  1.00  0.00    -0.343 C  
BRANCH  16  17
HETATM   17  N   UNL     1     -12.253  13.220  69.030  1.00  0.00    -0.213 NA 
HETATM   18  C   UNL     1     -12.120  14.389  69.884  1.00  0.00    -0.344 C  
HETATM   19  C   UNL     1     -10.861  15.187  69.581  1.00  0.00    -0.297 C  
HETATM   20  C   UNL     1     -10.966  15.777  68.188  1.00  0.00    -0.330 C  
HETATM   21  C   UNL     1     -11.256  14.716  67.124  1.00  0.00    -0.349 C  
HETATM   22  C   UNL     1     -10.077  14.343  66.239  1.00  0.00    -0.297 C  
HETATM   23  C   UNL     1     -11.998  13.439  67.599  1.00  0.00    -0.322 C  
HETATM   24  O   UNL     1      -8.854  14.416  66.798  1.00  0.00    -0.239 OA 
HETATM   25  O   UNL     1     -10.220  13.963  65.082  1.00  0.00    -0.359 OA 
ENDBRANCH  16  17
ENDBRANCH  15  16
ENDBRANCH   8  15
ENDBRANCH   3   7
TORSDOF 5
ENDMDL
MODEL       96
REMARK 921   NORMALIZED FREE ENERGY PREDICTED BY IDOCK:   -4.94 KCAL/MOL
REMARK 922        TOTAL FREE ENERGY PREDICTED BY IDOCK:   -7.88 KCAL/MOL
REMARK 923 INTER-LIGAND FREE ENERGY PREDICTED BY IDOCK:   -6.39 KCAL/MOL
REMARK 924 INTRA-LIGAND FREE ENERGY PREDICTED BY IDOCK:   -1.49 KCAL/MOL
REMARK 927      BINDING AFFINITY PREDICTED BY RF-SCORE:    0.00 PKD
ROOT
HETATM    1  C   UNL     1      -8.877   8.861  65.017  1.00  0.00    -0.183 C  
HETATM    2  C   UNL     1      -8.255   9.814  65.987  1.00  0.00    -0.117 A  
HETATM    3  C   UNL     1      -8.898  10.628  66.935  1.00  0.00    -0.138 A  
HETATM    4  C   UNL     1      -6.422  10.957  66.896  1.00  0.00    -0.097 A  
HETATM    5  S   UNL     1      -7.730  11.596  67.778  1.00  0.00    -0.136 SA 
HETATM    6  C   UNL     1      -6.830  10.019  65.985  1.00  0.00    -0.105 A  
ENDROOT
BRANCH   3   7
HETATM    7  C   UNL     1     -10.302  10.836  67.260  1.00  0.00    -0.262 C  
HETATM    8  C   UNL     1     -10.961   9.892  67.980  1.00  0.00    -0.269 C  
BRANCH   7   9
HETATM    9  C   UNL     1     -11.013  12.070  66.915  1.00  0.00    -0.281 A  
HETATM   10  C   UNL     1     -11.597  12.536  65.723  1.00  0.00    -0.439 A  
HETATM   11  C   UNL     1     -12.154  14.292  67.175  1.00  0.00    -0.377 A  
HETATM   12  C   UNL     1     -12.233  13.819  65.894  1.00  0.00    -0.501 A  
HETATM   13  S   UNL     1     -11.297  13.234  68.185  1.00  0.00    -0.310 SA 
HETATM   14  C   UNL     1     -11.650  11.878  64.376  1.00  0.00    -0.369 C  
ENDBRANCH   7   9
BRANCH   8  15
HETATM   15  C   UNL     1     -10.375   8.650  68.624  1.00  0.00    -0.219 C  
BRANCH  15  16
HETATM   16  C   UNL     1     -10.657   7.312  67.869  1.00  0.00    -0.202 C  
BRANCH  16  17
HETATM   17  N   UNL     1     -11.077   6.238  68.786  1.00  0.00    -0.361 NA 
HETATM   18  C   UNL     1     -10.263   5.035  68.765  1.00  0.00    -0.094 C  
HETATM   19  C   UNL     1      -9.221   5.021  69.873  1.00  0.00    -0.175 C  
HETATM   20  C   UNL     1      -9.922   4.949  71.217  1.00  0.00    -0.271 C  
HETATM   21  C   UNL     1     -10.955   6.065  71.397  1.00  0.00    -0.336 C  
HETATM   22  C   UNL     1     -10.541   7.188  72.335  1.00  0.00    -0.226 C  
HETATM   23  C   UNL     1     -11.584   6.647  70.104  1.00  0.00    -0.386 C  
HETATM   24  O   UNL     1      -9.226   7.475  72.393  1.00  0.00    -0.138 OA 
HETATM   25  O   UNL     1     -11.356   7.831  72.988  1.00  0.00    -0.399 OA 
ENDBRANCH  16  17
ENDBRANCH  15  16
ENDBRANCH   8  15
ENDBRANCH   3   7
TORSDOF 5
ENDMDL
MODEL       97
REMARK 921   NORMALIZED FREE ENERGY PREDICTED BY IDOCK:   -4.91 KCAL/MOL
REMARK 922        TOTAL FREE ENERGY PREDICTED BY IDOCK:   -7.84 KCAL/MOL
REMARK 923 INTER-LIGAND FREE ENERGY PREDICTED BY IDOCK:   -6.47 KCAL/MOL
REMARK 924 INTRA-LIGAND FREE ENERGY PREDICTED BY IDOCK:   -1.38 KCAL/MOL
REMARK 927      BINDING AFFINITY PREDICTED BY RF-SCORE:    0.00 PKD
ROOT
HETATM    1  C   UNL     1      -7.461  11.415  68.392  1.00  0.00    -0.111 C  
HETATM    2  C   UNL     1      -8.442  10.433  67.833  1.00  0.00    -0.114 A  
HETATM    3  C   UNL     1      -9.845  10.510  67.841  1.00  0.00    -0.160 A  
HETATM    4  C   UNL     1      -8.996   8.395  66.819  1.00  0.00    -0.145 A  
HETATM    5  S   UNL     1     -10.523   9.087  67.116  1.00  0.00    -0.227 SA 
HETATM    6  C   UNL     1      -7.976   9.208  67.237  1.00  0.00    -0.102 A  
ENDROOT
BRANCH   3   7
HETATM    7  C   UNL     1     -10.771  11.492  68.387  1.00  0.00    -0.241 C  
HETATM    8  C   UNL     1     -11.328  11.271  69.605  1.00  0.00    -0.359 C  
BRANCH   7   9
HETATM    9  C   UNL     1     -11.061  12.759  67.708  1.00  0.00    -0.253 A  
HETATM   10  C   UNL     1     -11.548  13.067  66.425  1.00  0.00    -0.413 A  
HETATM   11  C   UNL     1     -11.386  15.222  67.339  1.00  0.00    -0.284 A  
HETATM   12  C   UNL     1     -11.713  14.487  66.232  1.00  0.00    -0.364 A  
HETATM   13  S   UNL     1     -10.849  14.238  68.612  1.00  0.00    -0.261 SA 
HETATM   14  C   UNL     1     -11.917  12.139  65.306  1.00  0.00    -0.313 C  
ENDBRANCH   7   9
BRANCH   8  15
HETATM   15  C   UNL     1     -11.008  10.147  70.572  1.00  0.00    -0.380 C  
BRANCH  15  16
HETATM   16  C   UNL     1     -12.141   9.804  71.592  1.00  0.00    -0.394 C  
BRANCH  16  17
HETATM   17  N   UNL     1     -11.979   8.456  72.164  1.00  0.00    -0.350 NA 
HETATM   18  C   UNL     1     -12.734   7.399  71.512  1.00  0.00    -0.372 C  
HETATM   19  C   UNL     1     -11.897   6.629  70.501  1.00  0.00    -0.430 C  
HETATM   20  C   UNL     1     -10.797   5.880  71.229  1.00  0.00    -0.333 C  
HETATM   21  C   UNL     1      -9.950   6.800  72.112  1.00  0.00    -0.176 C  
HETATM   22  C   UNL     1      -8.565   7.123  71.573  1.00  0.00    -0.115 C  
HETATM   23  C   UNL     1     -10.637   8.089  72.637  1.00  0.00    -0.350 C  
HETATM   24  O   UNL     1      -8.432   7.168  70.233  1.00  0.00    -0.134 OA 
HETATM   25  O   UNL     1      -7.614   7.362  72.309  1.00  0.00    -0.084 OA 
ENDBRANCH  16  17
ENDBRANCH  15  16
ENDBRANCH   8  15
ENDBRANCH   3   7
TORSDOF 5
ENDMDL
MODEL       98
REMARK 921   NORMALIZED FREE ENERGY PREDICTED BY IDOCK:   -4.88 KCAL/MOL
REMARK 922        TOTAL FREE ENERGY PREDICTED BY IDOCK:   -7.81 KCAL/MOL
REMARK 923 INTER-LIGAND FREE ENERGY PREDICTED BY IDOCK:   -6.58 KCAL/MOL
REMARK 924 INTRA-LIGAND FREE ENERGY PREDICTED BY IDOCK:   -1.24 KCAL/MOL
REMARK 927      BINDING AFFINITY PREDICTED BY RF-SCORE:    0.00 PKD
ROOT
HETATM    1  C   UNL     1     -11.933  13.877  68.615  1.00  0.00    -0.401 C  
HETATM    2  C   UNL     1     -11.641  14.304  67.212  1.00  0.00    -0.401 A  
HETATM    3  C   UNL     1     -10.508  14.983  66.731  1.00  0.00    -0.283 A  
HETATM    4  C   UNL     1     -12.215  14.565  64.955  1.00  0.00    -0.402 A  
HETATM    5  S   UNL     1     -10.679  15.297  65.033  1.00  0.00    -0.412 SA 
HETATM    6  C   UNL     1     -12.608  14.073  66.171  1.00  0.00    -0.407 A  
ENDROOT
BRANCH   3   7
HETATM    7  C   UNL     1      -9.318  15.498  67.392  1.00  0.00    -0.211 C  
HETATM    8  C   UNL     1      -8.322  14.638  67.727  1.00  0.00    -0.168 C  
BRANCH   7   9
HETATM    9  C   UNL     1      -9.113  16.929  67.634  1.00  0.00    -0.223 A  
HETATM   10  C   UNL     1      -8.169  17.855  67.154  1.00  0.00    -0.228 A  
HETATM   11  C   UNL     1      -9.510  19.267  68.462  1.00  0.00    -0.389 A  
HETATM   12  C   UNL     1      -8.408  19.186  67.654  1.00  0.00    -0.321 A  
HETATM   13  S   UNL     1     -10.256  17.757  68.663  1.00  0.00    -0.358 SA 
HETATM   14  C   UNL     1      -7.019  17.632  66.216  1.00  0.00    -0.326 C  
ENDBRANCH   7   9
BRANCH   8  15
HETATM   15  C   UNL     1      -8.224  13.165  67.381  1.00  0.00    -0.187 C  
BRANCH  15  16
HETATM   16  C   UNL     1      -7.741  12.239  68.543  1.00  0.00    -0.118 C  
BRANCH  16  17
HETATM   17  N   UNL     1      -8.210  10.852  68.376  1.00  0.00    -0.126 NA 
HETATM   18  C   UNL     1      -7.513   9.850  69.164  1.00  0.00    -0.087 C  
HETATM   19  C   UNL     1      -8.247   9.514  70.453  1.00  0.00    -0.220 C  
HETATM   20  C   UNL     1      -9.566   8.844  70.118  1.00  0.00    -0.199 C  
HETATM   21  C   UNL     1     -10.418   9.680  69.160  1.00  0.00    -0.230 C  
HETATM   22  C   UNL     1     -11.610  10.381  69.793  1.00  0.00    -0.269 C  
HETATM   23  C   UNL     1      -9.658  10.652  68.219  1.00  0.00    -0.162 C  
HETATM   24  O   UNL     1     -11.475  10.762  71.079  1.00  0.00    -0.197 OA 
HETATM   25  O   UNL     1     -12.636  10.622  69.169  1.00  0.00    -0.252 OA 
ENDBRANCH  16  17
ENDBRANCH  15  16
ENDBRANCH   8  15
ENDBRANCH   3   7
TORSDOF 5
ENDMDL
MODEL       99
REMARK 921   NORMALIZED FREE ENERGY PREDICTED BY IDOCK:   -4.86 KCAL/MOL
REMARK 922        TOTAL FREE ENERGY PREDICTED BY IDOCK:   -7.78 KCAL/MOL
REMARK 923 INTER-LIGAND FREE ENERGY PREDICTED BY IDOCK:   -6.41 KCAL/MOL
REMARK 924 INTRA-LIGAND FREE ENERGY PREDICTED BY IDOCK:   -1.38 KCAL/MOL
REMARK 927      BINDING AFFINITY PREDICTED BY RF-SCORE:    0.00 PKD
ROOT
HETATM    1  C   UNL     1     -12.072  13.503  68.612  1.00  0.00    -0.303 C  
HETATM    2  C   UNL     1     -11.517  12.792  67.418  1.00  0.00    -0.396 A  
HETATM    3  C   UNL     1     -10.341  12.028  67.335  1.00  0.00    -0.207 A  
HETATM    4  C   UNL     1     -11.525  12.228  65.144  1.00  0.00    -0.341 A  
HETATM    5  S   UNL     1     -10.111  11.464  65.709  1.00  0.00    -0.257 SA 
HETATM    6  C   UNL     1     -12.183  12.891  66.146  1.00  0.00    -0.385 A  
ENDROOT
BRANCH   3   7
HETATM    7  C   UNL     1      -9.306  11.707  68.308  1.00  0.00    -0.191 C  
HETATM    8  C   UNL     1      -9.432  10.585  69.061  1.00  0.00    -0.211 C  
BRANCH   7   9
HETATM    9  C   UNL     1      -8.086  12.507  68.447  1.00  0.00    -0.136 A  
HETATM   10  C   UNL     1      -7.791  13.857  68.186  1.00  0.00    -0.147 A  
HETATM   11  C   UNL     1      -5.734  13.143  69.058  1.00  0.00    -0.076 A  
HETATM   12  C   UNL     1      -6.433  14.195  68.532  1.00  0.00    -0.096 A  
HETATM   13  S   UNL     1      -6.673  11.732  69.120  1.00  0.00    -0.106 SA 
HETATM   14  C   UNL     1      -8.687  14.931  67.642  1.00  0.00    -0.181 C  
ENDBRANCH   7   9
BRANCH   8  15
HETATM   15  C   UNL     1     -10.491   9.507  68.936  1.00  0.00    -0.235 C  
BRANCH  15  16
HETATM   16  C   UNL     1      -9.944   8.054  68.759  1.00  0.00    -0.189 C  
BRANCH  16  17
HETATM   17  N   UNL     1     -10.194   7.220  69.947  1.00  0.00    -0.201 NA 
HETATM   18  C   UNL     1      -9.222   7.344  71.022  1.00  0.00    -0.153 C  
HETATM   19  C   UNL     1      -9.677   8.312  72.104  1.00  0.00    -0.344 C  
HETATM   20  C   UNL     1     -10.901   7.745  72.799  1.00  0.00    -0.438 C  
HETATM   21  C   UNL     1     -12.022   7.398  71.816  1.00  0.00    -0.338 C  
HETATM   22  C   UNL     1     -13.199   8.360  71.806  1.00  0.00    -0.355 C  
HETATM   23  C   UNL     1     -11.594   7.055  70.364  1.00  0.00    -0.295 C  
HETATM   24  O   UNL     1     -12.929   9.650  72.088  1.00  0.00    -0.403 OA 
HETATM   25  O   UNL     1     -14.337   8.001  71.527  1.00  0.00    -0.424 OA 
ENDBRANCH  16  17
ENDBRANCH  15  16
ENDBRANCH   8  15
ENDBRANCH   3   7
TORSDOF 5
ENDMDL
MODEL      100
REMARK 921   NORMALIZED FREE ENERGY PREDICTED BY IDOCK:   -4.85 KCAL/MOL
REMARK 922        TOTAL FREE ENERGY PREDICTED BY IDOCK:   -7.77 KCAL/MOL
REMARK 923 INTER-LIGAND FREE ENERGY PREDICTED BY IDOCK:   -6.81 KCAL/MOL
REMARK 924 INTRA-LIGAND FREE ENERGY PREDICTED BY IDOCK:   -0.95 KCAL/MOL
REMARK 927      BINDING AFFINITY PREDICTED BY RF-SCORE:    0.00 PKD
ROOT
HETATM    1  C   UNL     1      -8.547  13.378  68.271  1.00  0.00    -0.169 C  
HETATM    2  C   UNL     1      -9.792  13.730  67.519  1.00  0.00    -0.230 A  
HETATM    3  C   UNL     1     -11.103  13.284  67.757  1.00  0.00    -0.265 A  
HETATM    4  C   UNL     1     -10.933  14.775  65.759  1.00  0.00    -0.334 A  
HETATM    5  S   UNL     1     -12.180  13.941  66.565  1.00  0.00    -0.408 SA 
HETATM    6  C   UNL     1      -9.719  14.589  66.366  1.00  0.00    -0.314 A  
ENDROOT
BRANCH   3   7
HETATM    7  C   UNL     1     -11.665  12.363  68.734  1.00  0.00    -0.379 C  
HETATM    8  C   UNL     1     -11.605  11.028  68.494  1.00  0.00    -0.380 C  
BRANCH   7   9
HETATM    9  C   UNL     1     -12.216  12.817  70.014  1.00  0.00    -0.209 A  
HETATM   10  C   UNL     1     -12.426  14.094  70.566  1.00  0.00    -0.431 A  
HETATM   11  C   UNL     1     -13.328  12.750  72.265  1.00  0.00    -0.458 A  
HETATM   12  C   UNL     1     -13.052  14.029  71.864  1.00  0.00    -0.467 A  
HETATM   13  S   UNL     1     -12.820  11.608  71.120  1.00  0.00    -0.201 SA 
HETATM   14  C   UNL     1     -12.111  15.439  69.982  1.00  0.00    -0.388 C  
ENDBRANCH   7   9
BRANCH   8  15
HETATM   15  C   UNL     1     -10.894  10.329  67.352  1.00  0.00    -0.336 C  
BRANCH  15  16
HETATM   16  C   UNL     1      -9.951   9.156  67.773  1.00  0.00    -0.189 C  
BRANCH  16  17
HETATM   17  N   UNL     1     -10.705   7.940  68.122  1.00  0.00    -0.103 NA 
HETATM   18  C   UNL     1     -10.853   6.961  67.057  1.00  0.00    -0.366 C  
HETATM   19  C   UNL     1      -9.814   5.853  67.141  1.00  0.00    -0.162 C  
HETATM   20  C   UNL     1     -10.049   5.042  68.402  1.00  0.00    -0.176 C  
HETATM   21  C   UNL     1     -10.079   5.913  69.660  1.00  0.00    -0.260 C  
HETATM   22  C   UNL     1      -8.842   5.826  70.540  1.00  0.00    -0.139 C  
HETATM   23  C   UNL     1     -10.503   7.394  69.472  1.00  0.00    -0.232 C  
HETATM   24  O   UNL     1      -7.671   5.585  69.917  1.00  0.00    -0.078 OA 
HETATM   25  O   UNL     1      -8.887   5.995  71.753  1.00  0.00    -0.138 OA 
ENDBRANCH  16  17
ENDBRANCH  15  16
ENDBRANCH   8  15
ENDBRANCH   3   7
TORSDOF 5
ENDMDL
MODEL      101
REMARK 921   NORMALIZED FREE ENERGY PREDICTED BY IDOCK:   -4.85 KCAL/MOL
REMARK 922        TOTAL FREE ENERGY PREDICTED BY IDOCK:   -7.77 KCAL/MOL
REMARK 923 INTER-LIGAND FREE ENERGY PREDICTED BY IDOCK:   -5.97 KCAL/MOL
REMARK 924 INTRA-LIGAND FREE ENERGY PREDICTED BY IDOCK:   -1.79 KCAL/MOL
REMARK 927      BINDING AFFINITY PREDICTED BY RF-SCORE:    0.00 PKD
ROOT
HETATM    1  C   UNL     1     -11.953  15.014  68.757  1.00  0.00    -0.282 C  
HETATM    2  C   UNL     1     -10.512  14.665  68.563  1.00  0.00    -0.247 A  
HETATM    3  C   UNL     1      -9.971  13.558  67.888  1.00  0.00    -0.245 A  
HETATM    4  C   UNL     1      -8.222  15.010  68.925  1.00  0.00    -0.178 A  
HETATM    5  S   UNL     1      -8.239  13.581  67.998  1.00  0.00    -0.176 SA 
HETATM    6  C   UNL     1      -9.486  15.488  69.150  1.00  0.00    -0.246 A  
ENDROOT
BRANCH   3   7
HETATM    7  C   UNL     1     -10.586  12.424  67.213  1.00  0.00    -0.246 C  
HETATM    8  C   UNL     1     -11.043  11.382  67.953  1.00  0.00    -0.320 C  
BRANCH   7   9
HETATM    9  C   UNL     1     -10.810  12.401  65.765  1.00  0.00    -0.276 A  
HETATM   10  C   UNL     1     -10.130  11.781  64.701  1.00  0.00    -0.310 A  
HETATM   11  C   UNL     1     -11.910  12.772  63.537  1.00  0.00    -0.546 A  
HETATM   12  C   UNL     1     -10.772  12.019  63.432  1.00  0.00    -0.475 A  
HETATM   13  S   UNL     1     -12.215  13.231  65.141  1.00  0.00    -0.470 SA 
HETATM   14  C   UNL     1      -8.896  10.928  64.737  1.00  0.00    -0.111 C  
ENDBRANCH   7   9
BRANCH   8  15
HETATM   15  C   UNL     1     -11.114  11.289  69.465  1.00  0.00    -0.299 C  
BRANCH  15  16
HETATM   16  C   UNL     1     -11.769   9.984  70.022  1.00  0.00    -0.175 C  
BRANCH  16  17
HETATM   17  N   UNL     1     -10.766   8.952  70.335  1.00  0.00    -0.219 NA 
HETATM   18  C   UNL     1     -10.902   7.699  69.612  1.00  0.00    -0.191 C  
HETATM   19  C   UNL     1      -9.996   7.634  68.392  1.00  0.00    -0.192 C  
HETATM   20  C   UNL     1      -8.548   7.625  68.845  1.00  0.00    -0.129 C  
HETATM   21  C   UNL     1      -8.214   8.806  69.760  1.00  0.00    -0.117 C  
HETATM   22  C   UNL     1      -7.393   9.913  69.118  1.00  0.00    -0.083 C  
HETATM   23  C   UNL     1      -9.390   9.410  70.573  1.00  0.00    -0.262 C  
HETATM   24  O   UNL     1      -7.576  10.116  67.799  1.00  0.00    -0.089 OA 
HETATM   25  O   UNL     1      -6.622  10.615  69.762  1.00  0.00    -0.088 OA 
ENDBRANCH  16  17
ENDBRANCH  15  16
ENDBRANCH   8  15
ENDBRANCH   3   7
TORSDOF 5
ENDMDL
MODEL      102
REMARK 921   NORMALIZED FREE ENERGY PREDICTED BY IDOCK:   -4.81 KCAL/MOL
REMARK 922        TOTAL FREE ENERGY PREDICTED BY IDOCK:   -7.72 KCAL/MOL
REMARK 923 INTER-LIGAND FREE ENERGY PREDICTED BY IDOCK:   -6.46 KCAL/MOL
REMARK 924 INTRA-LIGAND FREE ENERGY PREDICTED BY IDOCK:   -1.26 KCAL/MOL
REMARK 927      BINDING AFFINITY PREDICTED BY RF-SCORE:    0.00 PKD
ROOT
HETATM    1  C   UNL     1     -12.266  13.839  68.489  1.00  0.00    -0.194 C  
HETATM    2  C   UNL     1     -11.766  13.460  67.131  1.00  0.00    -0.424 A  
HETATM    3  C   UNL     1     -10.532  12.879  66.793  1.00  0.00    -0.254 A  
HETATM    4  C   UNL     1     -11.951  13.373  64.796  1.00  0.00    -0.390 A  
HETATM    5  S   UNL     1     -10.415  12.691  65.071  1.00  0.00    -0.317 SA 
HETATM    6  C   UNL     1     -12.567  13.733  65.966  1.00  0.00    -0.458 A  
ENDROOT
BRANCH   3   7
HETATM    7  C   UNL     1      -9.375  12.497  67.590  1.00  0.00    -0.189 C  
HETATM    8  C   UNL     1      -8.574  13.467  68.100  1.00  0.00    -0.173 C  
BRANCH   7   9
HETATM    9  C   UNL     1      -9.089  11.103  67.939  1.00  0.00    -0.150 A  
HETATM   10  C   UNL     1      -8.204  10.146  67.409  1.00  0.00    -0.114 A  
HETATM   11  C   UNL     1      -9.122   8.925  69.190  1.00  0.00    -0.141 A  
HETATM   12  C   UNL     1      -8.251   8.900  68.135  1.00  0.00    -0.114 A  
HETATM   13  S   UNL     1      -9.918  10.417  69.315  1.00  0.00    -0.219 SA 
HETATM   14  C   UNL     1      -7.255  10.274  66.255  1.00  0.00    -0.117 C  
ENDBRANCH   7   9
BRANCH   8  15
HETATM   15  C   UNL     1      -8.798  14.966  68.050  1.00  0.00    -0.167 C  
BRANCH  15  16
HETATM   16  C   UNL     1      -7.734  15.773  67.238  1.00  0.00    -0.199 C  
BRANCH  16  17
HETATM   17  N   UNL     1      -8.357  16.676  66.255  1.00  0.00    -0.315 NA 
HETATM   18  C   UNL     1      -9.779  16.476  66.026  1.00  0.00    -0.301 C  
HETATM   19  C   UNL     1     -10.636  17.431  66.843  1.00  0.00    -0.216 C  
HETATM   20  C   UNL     1     -10.397  18.851  66.364  1.00  0.00    -0.503 C  
HETATM   21  C   UNL     1      -8.914  19.232  66.384  1.00  0.00    -0.375 C  
HETATM   22  C   UNL     1      -8.499  20.168  67.508  1.00  0.00    -0.335 C  
HETATM   23  C   UNL     1      -7.895  18.071  66.245  1.00  0.00    -0.253 C  
HETATM   24  O   UNL     1      -9.181  20.064  68.665  1.00  0.00    -0.194 OA 
HETATM   25  O   UNL     1      -7.571  20.961  67.393  1.00  0.00    -0.345 OA 
ENDBRANCH  16  17
ENDBRANCH  15  16
ENDBRANCH   8  15
ENDBRANCH   3   7
TORSDOF 5
ENDMDL
MODEL      103
REMARK 921   NORMALIZED FREE ENERGY PREDICTED BY IDOCK:   -4.81 KCAL/MOL
REMARK 922        TOTAL FREE ENERGY PREDICTED BY IDOCK:   -7.72 KCAL/MOL
REMARK 923 INTER-LIGAND FREE ENERGY PREDICTED BY IDOCK:   -6.32 KCAL/MOL
REMARK 924 INTRA-LIGAND FREE ENERGY PREDICTED BY IDOCK:   -1.40 KCAL/MOL
REMARK 927      BINDING AFFINITY PREDICTED BY RF-SCORE:    0.00 PKD
ROOT
HETATM    1  C   UNL     1      -7.931   6.571  64.320  1.00  0.00    -0.095 C  
HETATM    2  C   UNL     1      -7.198   7.143  65.491  1.00  0.00    -0.070 A  
HETATM    3  C   UNL     1      -7.723   7.882  66.566  1.00  0.00    -0.097 A  
HETATM    4  C   UNL     1      -5.241   7.625  66.687  1.00  0.00    -0.024 A  
HETATM    5  S   UNL     1      -6.446   8.366  67.636  1.00  0.00    -0.058 SA 
HETATM    6  C   UNL     1      -5.768   7.006  65.584  1.00  0.00    -0.032 A  
ENDROOT
BRANCH   3   7
HETATM    7  C   UNL     1      -9.069   8.343  66.875  1.00  0.00    -0.179 C  
HETATM    8  C   UNL     1      -9.573   9.410  66.204  1.00  0.00    -0.311 C  
BRANCH   7   9
HETATM    9  C   UNL     1      -9.939   7.643  67.825  1.00  0.00    -0.174 A  
HETATM   10  C   UNL     1     -10.585   6.394  67.790  1.00  0.00    -0.331 A  
HETATM   11  C   UNL     1     -11.190   7.117  69.938  1.00  0.00    -0.208 A  
HETATM   12  C   UNL     1     -11.308   6.121  69.007  1.00  0.00    -0.257 A  
HETATM   13  S   UNL     1     -10.245   8.404  69.367  1.00  0.00    -0.210 SA 
HETATM   14  C   UNL     1     -10.589   5.363  66.700  1.00  0.00    -0.359 C  
ENDBRANCH   7   9
BRANCH   8  15
HETATM   15  C   UNL     1      -8.941  10.146  65.038  1.00  0.00    -0.227 C  
BRANCH  15  16
HETATM   16  C   UNL     1      -9.936  10.613  63.928  1.00  0.00    -0.326 C  
BRANCH  16  17
HETATM   17  N   UNL     1     -10.347  12.016  64.109  1.00  0.00    -0.319 NA 
HETATM   18  C   UNL     1     -11.615  12.387  63.503  1.00  0.00    -0.497 C  
HETATM   19  C   UNL     1     -12.765  12.346  64.497  1.00  0.00    -0.404 C  
HETATM   20  C   UNL     1     -12.552  13.415  65.552  1.00  0.00    -0.520 C  
HETATM   21  C   UNL     1     -11.186  13.300  66.233  1.00  0.00    -0.321 C  
HETATM   22  C   UNL     1     -11.209  12.741  67.647  1.00  0.00    -0.280 C  
HETATM   23  C   UNL     1     -10.051  12.635  65.409  1.00  0.00    -0.261 C  
HETATM   24  O   UNL     1     -12.177  11.847  67.928  1.00  0.00    -0.508 OA 
HETATM   25  O   UNL     1     -10.376  13.055  68.490  1.00  0.00    -0.250 OA 
ENDBRANCH  16  17
ENDBRANCH  15  16
ENDBRANCH   8  15
ENDBRANCH   3   7
TORSDOF 5
ENDMDL
MODEL      104
REMARK 921   NORMALIZED FREE ENERGY PREDICTED BY IDOCK:   -4.79 KCAL/MOL
REMARK 922        TOTAL FREE ENERGY PREDICTED BY IDOCK:   -7.69 KCAL/MOL
REMARK 923 INTER-LIGAND FREE ENERGY PREDICTED BY IDOCK:   -5.97 KCAL/MOL
REMARK 924 INTRA-LIGAND FREE ENERGY PREDICTED BY IDOCK:   -1.71 KCAL/MOL
REMARK 927      BINDING AFFINITY PREDICTED BY RF-SCORE:    0.00 PKD
ROOT
HETATM    1  C   UNL     1      -7.884  14.916  69.813  1.00  0.00     0.045 C  
HETATM    2  C   UNL     1      -9.209  15.566  69.570  1.00  0.00    -0.265 A  
HETATM    3  C   UNL     1      -9.570  16.436  68.527  1.00  0.00    -0.229 A  
HETATM    4  C   UNL     1     -11.420  16.068  70.165  1.00  0.00    -0.344 A  
HETATM    5  S   UNL     1     -11.211  16.961  68.729  1.00  0.00     0.096 SA 
HETATM    6  C   UNL     1     -10.291  15.367  70.499  1.00  0.00    -0.040 A  
ENDROOT
BRANCH   3   7
HETATM    7  C   UNL     1      -8.820  16.993  67.410  1.00  0.00    -0.210 C  
HETATM    8  C   UNL     1      -8.656  16.249  66.287  1.00  0.00    -0.374 C  
BRANCH   7   9
HETATM    9  C   UNL     1      -8.307  18.366  67.417  1.00  0.00    -0.252 A  
HETATM   10  C   UNL     1      -8.887  19.606  67.091  1.00  0.00    -0.374 A  
HETATM   11  C   UNL     1      -6.766  20.312  67.801  1.00  0.00    -0.279 A  
HETATM   12  C   UNL     1      -7.979  20.705  67.306  1.00  0.00    -0.327 A  
HETATM   13  S   UNL     1      -6.678  18.628  67.988  1.00  0.00    -0.223 SA 
HETATM   14  C   UNL     1     -10.272  19.899  66.595  1.00  0.00    -0.609 C  
ENDBRANCH   7   9
BRANCH   8  15
HETATM   15  C   UNL     1      -9.278  14.901  65.977  1.00  0.00    -0.210 C  
BRANCH  15  16
HETATM   16  C   UNL     1      -8.422  13.661  66.391  1.00  0.00     0.519 C  
BRANCH  16  17
HETATM   17  N   UNL     1      -9.235  12.437  66.490  1.00  0.00    -0.229 NA 
HETATM   18  C   UNL     1      -9.731  12.112  67.817  1.00  0.00    -0.197 C  
HETATM   19  C   UNL     1     -11.158  12.592  68.035  1.00  0.00    -0.288 C  
HETATM   20  C   UNL     1     -12.089  11.827  67.113  1.00  0.00     0.292 C  
HETATM   21  C   UNL     1     -11.660  11.913  65.646  1.00  0.00    -0.275 C  
HETATM   22  C   UNL     1     -12.505  12.828  64.774  1.00  0.00    -0.472 C  
HETATM   23  C   UNL     1     -10.151  12.153  65.375  1.00  0.00    -0.255 C  
HETATM   24  O   UNL     1     -13.055  13.900  65.378  1.00  0.00    -0.752 OA 
HETATM   25  O   UNL     1     -12.661  12.631  63.575  1.00  0.00    -0.719 OA 
ENDBRANCH  16  17
ENDBRANCH  15  16
ENDBRANCH   8  15
ENDBRANCH   3   7
TORSDOF 5
ENDMDL
MODEL      105
REMARK 921   NORMALIZED FREE ENERGY PREDICTED BY IDOCK:   -4.77 KCAL/MOL
REMARK 922        TOTAL FREE ENERGY PREDICTED BY IDOCK:   -7.66 KCAL/MOL
REMARK 923 INTER-LIGAND FREE ENERGY PREDICTED BY IDOCK:   -6.64 KCAL/MOL
REMARK 924 INTRA-LIGAND FREE ENERGY PREDICTED BY IDOCK:   -1.02 KCAL/MOL
REMARK 927      BINDING AFFINITY PREDICTED BY RF-SCORE:    0.00 PKD
ROOT
HETATM    1  C   UNL     1      -7.756  10.416  69.585  1.00  0.00    -0.152 C  
HETATM    2  C   UNL     1      -8.634   9.739  68.582  1.00  0.00    -0.121 A  
HETATM    3  C   UNL     1      -9.949   9.272  68.756  1.00  0.00    -0.181 A  
HETATM    4  C   UNL     1      -9.039   8.783  66.481  1.00  0.00    -0.162 A  
HETATM    5  S   UNL     1     -10.507   8.508  67.301  1.00  0.00    -0.257 SA 
HETATM    6  C   UNL     1      -8.133   9.448  67.264  1.00  0.00    -0.110 A  
ENDROOT
BRANCH   3   7
HETATM    7  C   UNL     1     -10.841   9.259  69.906  1.00  0.00    -0.252 C  
HETATM    8  C   UNL     1     -11.530  10.385  70.222  1.00  0.00    -0.406 C  
BRANCH   7   9
HETATM    9  C   UNL     1     -11.095   8.046  70.689  1.00  0.00    -0.262 A  
HETATM   10  C   UNL     1     -12.228   7.564  71.368  1.00  0.00    -0.363 A  
HETATM   11  C   UNL     1     -10.743   5.784  71.723  1.00  0.00    -0.249 A  
HETATM   12  C   UNL     1     -11.998   6.272  71.965  1.00  0.00    -0.353 A  
HETATM   13  S   UNL     1      -9.811   6.867  70.809  1.00  0.00    -0.181 SA 
HETATM   14  C   UNL     1     -13.581   8.197  71.515  1.00  0.00    -0.338 C  
ENDBRANCH   7   9
BRANCH   8  15
HETATM   15  C   UNL     1     -11.590  11.679  69.432  1.00  0.00    -0.392 C  
BRANCH  15  16
HETATM   16  C   UNL     1     -12.101  12.922  70.228  1.00  0.00    -0.302 C  
BRANCH  16  17
HETATM   17  N   UNL     1     -12.383  14.066  69.344  1.00  0.00    -0.287 NA 
HETATM   18  C   UNL     1     -11.941  15.364  69.829  1.00  0.00    -0.358 C  
HETATM   19  C   UNL     1     -10.594  15.769  69.251  1.00  0.00    -0.244 C  
HETATM   20  C   UNL     1     -10.735  15.980  67.755  1.00  0.00    -0.323 C  
HETATM   21  C   UNL     1     -11.333  14.761  67.047  1.00  0.00    -0.358 C  
HETATM   22  C   UNL     1     -10.348  13.928  66.242  1.00  0.00    -0.293 C  
HETATM   23  C   UNL     1     -12.248  13.841  67.898  1.00  0.00    -0.159 C  
HETATM   24  O   UNL     1      -9.080  13.886  66.695  1.00  0.00    -0.247 OA 
HETATM   25  O   UNL     1     -10.684  13.296  65.247  1.00  0.00    -0.294 OA 
ENDBRANCH  16  17
ENDBRANCH  15  16
ENDBRANCH   8  15
ENDBRANCH   3   7
TORSDOF 5
ENDMDL
MODEL      106
REMARK 921   NORMALIZED FREE ENERGY PREDICTED BY IDOCK:   -4.76 KCAL/MOL
REMARK 922        TOTAL FREE ENERGY PREDICTED BY IDOCK:   -7.66 KCAL/MOL
REMARK 923 INTER-LIGAND FREE ENERGY PREDICTED BY IDOCK:   -6.35 KCAL/MOL
REMARK 924 INTRA-LIGAND FREE ENERGY PREDICTED BY IDOCK:   -1.31 KCAL/MOL
REMARK 927      BINDING AFFINITY PREDICTED BY RF-SCORE:    0.00 PKD
ROOT
HETATM    1  C   UNL     1      -6.965  10.357  66.640  1.00  0.00    -0.111 C  
HETATM    2  C   UNL     1      -7.720  10.408  65.350  1.00  0.00    -0.136 A  
HETATM    3  C   UNL     1      -9.095  10.626  65.158  1.00  0.00    -0.201 A  
HETATM    4  C   UNL     1      -7.875  10.198  63.021  1.00  0.00    -0.149 A  
HETATM    5  S   UNL     1      -9.484  10.531  63.470  1.00  0.00    -0.333 SA 
HETATM    6  C   UNL     1      -7.038  10.166  64.105  1.00  0.00    -0.100 A  
ENDROOT
BRANCH   3   7
HETATM    7  C   UNL     1     -10.195  10.835  66.089  1.00  0.00    -0.308 C  
HETATM    8  C   UNL     1     -10.644   9.789  66.828  1.00  0.00    -0.208 C  
BRANCH   7   9
HETATM    9  C   UNL     1     -10.782  12.157  66.326  1.00  0.00    -0.261 A  
HETATM   10  C   UNL     1     -10.416  13.231  67.158  1.00  0.00    -0.248 A  
HETATM   11  C   UNL     1     -12.279  14.158  66.074  1.00  0.00    -0.443 A  
HETATM   12  C   UNL     1     -11.298  14.362  67.007  1.00  0.00    -0.357 A  
HETATM   13  S   UNL     1     -12.184  12.610  65.389  1.00  0.00    -0.406 SA 
HETATM   14  C   UNL     1      -9.265  13.336  68.115  1.00  0.00    -0.212 C  
ENDBRANCH   7   9
BRANCH   8  15
HETATM   15  C   UNL     1     -10.050   8.395  66.906  1.00  0.00    -0.364 C  
BRANCH  15  16
HETATM   16  C   UNL     1     -10.886   7.360  67.725  1.00  0.00    -0.116 C  
BRANCH  16  17
HETATM   17  N   UNL     1     -10.287   7.087  69.043  1.00  0.00    -0.194 NA 
HETATM   18  C   UNL     1      -8.904   7.502  69.208  1.00  0.00    -0.136 C  
HETATM   19  C   UNL     1      -8.784   8.858  69.886  1.00  0.00    -0.140 C  
HETATM   20  C   UNL     1      -9.293   8.752  71.311  1.00  0.00    -0.319 C  
HETATM   21  C   UNL     1     -10.713   8.185  71.384  1.00  0.00    -0.280 C  
HETATM   22  C   UNL     1     -11.802   9.199  71.694  1.00  0.00    -0.372 C  
HETATM   23  C   UNL     1     -11.154   7.260  70.218  1.00  0.00    -0.266 C  
HETATM   24  O   UNL     1     -11.603  10.456  71.253  1.00  0.00    -0.311 OA 
HETATM   25  O   UNL     1     -12.830   8.896  72.289  1.00  0.00    -0.378 OA 
ENDBRANCH  16  17
ENDBRANCH  15  16
ENDBRANCH   8  15
ENDBRANCH   3   7
TORSDOF 5
ENDMDL
MODEL      107
REMARK 921   NORMALIZED FREE ENERGY PREDICTED BY IDOCK:   -4.76 KCAL/MOL
REMARK 922        TOTAL FREE ENERGY PREDICTED BY IDOCK:   -7.65 KCAL/MOL
REMARK 923 INTER-LIGAND FREE ENERGY PREDICTED BY IDOCK:   -6.73 KCAL/MOL
REMARK 924 INTRA-LIGAND FREE ENERGY PREDICTED BY IDOCK:   -0.92 KCAL/MOL
REMARK 927      BINDING AFFINITY PREDICTED BY RF-SCORE:    0.00 PKD
ROOT
HETATM    1  C   UNL     1     -10.096   5.947  66.580  1.00  0.00    -0.229 C  
HETATM    2  C   UNL     1      -8.947   6.277  67.480  1.00  0.00    -0.108 A  
HETATM    3  C   UNL     1      -8.917   7.193  68.546  1.00  0.00    -0.127 A  
HETATM    4  C   UNL     1      -6.706   6.102  68.141  1.00  0.00    -0.064 A  
HETATM    5  S   UNL     1      -7.326   7.249  69.237  1.00  0.00    -0.088 SA 
HETATM    6  C   UNL     1      -7.664   5.660  67.268  1.00  0.00    -0.101 A  
ENDROOT
BRANCH   3   7
HETATM    7  C   UNL     1      -9.917   8.101  69.089  1.00  0.00    -0.192 C  
HETATM    8  C   UNL     1     -10.107   9.307  68.496  1.00  0.00    -0.211 C  
BRANCH   7   9
HETATM    9  C   UNL     1     -10.793   7.727  70.203  1.00  0.00    -0.244 A  
HETATM   10  C   UNL     1     -11.084   6.497  70.820  1.00  0.00    -0.354 A  
HETATM   11  C   UNL     1     -12.354   7.946  72.158  1.00  0.00    -0.291 A  
HETATM   12  C   UNL     1     -11.992   6.646  71.930  1.00  0.00    -0.386 A  
HETATM   13  S   UNL     1     -11.644   9.003  71.038  1.00  0.00    -0.312 SA 
HETATM   14  C   UNL     1     -10.568   5.128  70.488  1.00  0.00    -0.221 C  
ENDBRANCH   7   9
BRANCH   8  15
HETATM   15  C   UNL     1      -9.473   9.812  67.213  1.00  0.00    -0.183 C  
BRANCH  15  16
HETATM   16  C   UNL     1      -9.076  11.323  67.216  1.00  0.00    -0.156 C  
BRANCH  16  17
HETATM   17  N   UNL     1     -10.177  12.182  67.685  1.00  0.00    -0.195 NA 
HETATM   18  C   UNL     1      -9.798  13.520  68.108  1.00  0.00    -0.237 C  
HETATM   19  C   UNL     1     -10.000  14.553  67.010  1.00  0.00    -0.255 C  
HETATM   20  C   UNL     1     -11.482  14.683  66.713  1.00  0.00    -0.371 C  
HETATM   21  C   UNL     1     -12.131  13.338  66.378  1.00  0.00    -0.454 C  
HETATM   22  C   UNL     1     -12.455  13.121  64.908  1.00  0.00    -0.433 C  
HETATM   23  C   UNL     1     -11.458  12.073  66.973  1.00  0.00    -0.338 C  
HETATM   24  O   UNL     1     -11.640  13.715  64.014  1.00  0.00    -0.378 OA 
HETATM   25  O   UNL     1     -13.389  12.418  64.539  1.00  0.00    -0.800 OA 
ENDBRANCH  16  17
ENDBRANCH  15  16
ENDBRANCH   8  15
ENDBRANCH   3   7
TORSDOF 5
ENDMDL
MODEL      108
REMARK 921   NORMALIZED FREE ENERGY PREDICTED BY IDOCK:   -4.75 KCAL/MOL
REMARK 922        TOTAL FREE ENERGY PREDICTED BY IDOCK:   -7.64 KCAL/MOL
REMARK 923 INTER-LIGAND FREE ENERGY PREDICTED BY IDOCK:   -5.63 KCAL/MOL
REMARK 924 INTRA-LIGAND FREE ENERGY PREDICTED BY IDOCK:   -2.01 KCAL/MOL
REMARK 927      BINDING AFFINITY PREDICTED BY RF-SCORE:    0.00 PKD
ROOT
HETATM    1  C   UNL     1     -10.227   9.453  67.301  1.00  0.00    -0.308 C  
HETATM    2  C   UNL     1     -10.469   8.054  67.773  1.00  0.00    -0.280 A  
HETATM    3  C   UNL     1     -10.621   7.598  69.093  1.00  0.00    -0.186 A  
HETATM    4  C   UNL     1     -10.696   5.749  67.415  1.00  0.00    -0.248 A  
HETATM    5  S   UNL     1     -10.822   5.875  69.109  1.00  0.00    -0.303 SA 
HETATM    6  C   UNL     1     -10.518   6.972  66.824  1.00  0.00    -0.297 A  
ENDROOT
BRANCH   3   7
HETATM    7  C   UNL     1     -10.569   8.280  70.379  1.00  0.00    -0.231 C  
HETATM    8  C   UNL     1      -9.372   8.425  71.003  1.00  0.00    -0.211 C  
BRANCH   7   9
HETATM    9  C   UNL     1     -11.751   8.896  70.988  1.00  0.00    -0.289 A  
HETATM   10  C   UNL     1     -12.292  10.193  70.928  1.00  0.00    -0.461 A  
HETATM   11  C   UNL     1     -13.906   9.129  72.258  1.00  0.00    -0.463 A  
HETATM   12  C   UNL     1     -13.520  10.306  71.676  1.00  0.00    -0.360 A  
HETATM   13  S   UNL     1     -12.798   7.882  71.950  1.00  0.00    -0.281 SA 
HETATM   14  C   UNL     1     -11.778  11.398  70.198  1.00  0.00    -0.414 C  
ENDBRANCH   7   9
BRANCH   8  15
HETATM   15  C   UNL     1      -8.003   8.063  70.461  1.00  0.00    -0.096 C  
BRANCH  15  16
HETATM   16  C   UNL     1      -6.796   8.515  71.346  1.00  0.00    -0.076 C  
BRANCH  16  17
HETATM   17  N   UNL     1      -6.522   7.562  72.435  1.00  0.00    -0.053 NA 
HETATM   18  C   UNL     1      -6.715   8.070  73.783  1.00  0.00    -0.115 C  
HETATM   19  C   UNL     1      -8.077   7.703  74.350  1.00  0.00    -0.256 C  
HETATM   20  C   UNL     1      -8.157   6.199  74.526  1.00  0.00    -0.119 C  
HETATM   21  C   UNL     1      -7.838   5.442  73.234  1.00  0.00    -0.104 C  
HETATM   22  C   UNL     1      -9.037   4.832  72.524  1.00  0.00    -0.128 C  
HETATM   23  C   UNL     1      -6.918   6.164  72.213  1.00  0.00    -0.075 C  
HETATM   24  O   UNL     1     -10.210   5.483  72.649  1.00  0.00    -0.178 OA 
HETATM   25  O   UNL     1      -8.949   3.816  71.844  1.00  0.00    -0.100 OA 
ENDBRANCH  16  17
ENDBRANCH  15  16
ENDBRANCH   8  15
ENDBRANCH   3   7
TORSDOF 5
ENDMDL
MODEL      109
REMARK 921   NORMALIZED FREE ENERGY PREDICTED BY IDOCK:   -4.73 KCAL/MOL
REMARK 922        TOTAL FREE ENERGY PREDICTED BY IDOCK:   -7.61 KCAL/MOL
REMARK 923 INTER-LIGAND FREE ENERGY PREDICTED BY IDOCK:   -6.54 KCAL/MOL
REMARK 924 INTRA-LIGAND FREE ENERGY PREDICTED BY IDOCK:   -1.07 KCAL/MOL
REMARK 927      BINDING AFFINITY PREDICTED BY RF-SCORE:    0.00 PKD
ROOT
HETATM    1  C   UNL     1     -14.403   6.983  71.937  1.00  0.00    -0.423 C  
HETATM    2  C   UNL     1     -13.380   8.023  71.605  1.00  0.00    -0.364 A  
HETATM    3  C   UNL     1     -12.013   7.839  71.335  1.00  0.00    -0.306 A  
HETATM    4  C   UNL     1     -12.691  10.243  71.311  1.00  0.00    -0.421 A  
HETATM    5  S   UNL     1     -11.249   9.373  71.063  1.00  0.00    -0.374 SA 
HETATM    6  C   UNL     1     -13.748   9.414  71.582  1.00  0.00    -0.393 A  
ENDROOT
BRANCH   3   7
HETATM    7  C   UNL     1     -11.167   6.654  71.318  1.00  0.00    -0.329 C  
HETATM    8  C   UNL     1     -10.942   6.019  70.139  1.00  0.00    -0.429 C  
BRANCH   7   9
HETATM    9  C   UNL     1     -10.473   6.169  72.514  1.00  0.00    -0.201 A  
HETATM   10  C   UNL     1      -9.545   6.762  73.389  1.00  0.00    -0.195 A  
HETATM   11  C   UNL     1      -9.824   4.677  74.427  1.00  0.00    -0.172 A  
HETATM   12  C   UNL     1      -9.177   5.882  74.471  1.00  0.00    -0.144 A  
HETATM   13  S   UNL     1     -10.853   4.562  73.084  1.00  0.00    -0.262 SA 
HETATM   14  C   UNL     1      -8.947   8.137  73.341  1.00  0.00    -0.313 C  
ENDBRANCH   7   9
BRANCH   8  15
HETATM   15  C   UNL     1     -11.375   6.466  68.756  1.00  0.00    -0.252 C  
BRANCH  15  16
HETATM   16  C   UNL     1     -10.214   6.881  67.796  1.00  0.00    -0.180 C  
BRANCH  16  17
HETATM   17  N   UNL     1      -9.733   8.246  68.070  1.00  0.00    -0.157 NA 
HETATM   18  C   UNL     1      -8.320   8.365  68.392  1.00  0.00    -0.131 C  
HETATM   19  C   UNL     1      -7.481   8.747  67.182  1.00  0.00    -0.088 C  
HETATM   20  C   UNL     1      -7.860  10.146  66.733  1.00  0.00    -0.108 C  
HETATM   21  C   UNL     1      -9.362  10.289  66.473  1.00  0.00    -0.200 C  
HETATM   22  C   UNL     1      -9.766  10.345  65.008  1.00  0.00    -0.300 C  
HETATM   23  C   UNL     1     -10.298   9.329  67.253  1.00  0.00    -0.265 C  
HETATM   24  O   UNL     1      -8.997   9.657  64.141  1.00  0.00    -0.227 OA 
HETATM   25  O   UNL     1     -10.756  10.956  64.623  1.00  0.00    -0.308 OA 
ENDBRANCH  16  17
ENDBRANCH  15  16
ENDBRANCH   8  15
ENDBRANCH   3   7
TORSDOF 5
ENDMDL
MODEL      110
REMARK 921   NORMALIZED FREE ENERGY PREDICTED BY IDOCK:   -4.73 KCAL/MOL
REMARK 922        TOTAL FREE ENERGY PREDICTED BY IDOCK:   -7.61 KCAL/MOL
REMARK 923 INTER-LIGAND FREE ENERGY PREDICTED BY IDOCK:   -6.21 KCAL/MOL
REMARK 924 INTRA-LIGAND FREE ENERGY PREDICTED BY IDOCK:   -1.40 KCAL/MOL
REMARK 927      BINDING AFFINITY PREDICTED BY RF-SCORE:    0.00 PKD
ROOT
HETATM    1  C   UNL     1     -10.982   6.289  67.121  1.00  0.00    -0.453 C  
HETATM    2  C   UNL     1      -9.604   6.705  66.716  1.00  0.00    -0.207 A  
HETATM    3  C   UNL     1      -8.871   7.822  67.155  1.00  0.00    -0.125 A  
HETATM    4  C   UNL     1      -7.659   6.486  65.427  1.00  0.00    -0.089 A  
HETATM    5  S   UNL     1      -7.342   7.889  66.338  1.00  0.00    -0.088 SA 
HETATM    6  C   UNL     1      -8.885   5.950  65.724  1.00  0.00    -0.145 A  
ENDROOT
BRANCH   3   7
HETATM    7  C   UNL     1      -9.191   8.906  68.072  1.00  0.00    -0.147 C  
HETATM    8  C   UNL     1      -9.777  10.031  67.587  1.00  0.00    -0.185 C  
BRANCH   7   9
HETATM    9  C   UNL     1      -8.984   8.797  69.519  1.00  0.00    -0.145 A  
HETATM   10  C   UNL     1      -9.868   8.760  70.612  1.00  0.00    -0.237 A  
HETATM   11  C   UNL     1      -7.820   8.485  71.723  1.00  0.00    -0.120 A  
HETATM   12  C   UNL     1      -9.177   8.594  71.866  1.00  0.00    -0.345 A  
HETATM   13  S   UNL     1      -7.347   8.608  70.099  1.00  0.00    -0.056 SA 
HETATM   14  C   UNL     1     -11.366   8.845  70.618  1.00  0.00    -0.299 C  
ENDBRANCH   7   9
BRANCH   8  15
HETATM   15  C   UNL     1     -10.276  10.273  66.176  1.00  0.00    -0.285 C  
BRANCH  15  16
HETATM   16  C   UNL     1      -9.356  11.171  65.288  1.00  0.00    -0.219 C  
BRANCH  16  17
HETATM   17  N   UNL     1      -9.916  12.520  65.098  1.00  0.00    -0.236 NA 
HETATM   18  C   UNL     1     -11.143  12.591  64.321  1.00  0.00    -0.356 C  
HETATM   19  C   UNL     1     -12.383  12.639  65.201  1.00  0.00    -0.547 C  
HETATM   20  C   UNL     1     -12.387  13.937  65.987  1.00  0.00    -0.511 C  
HETATM   21  C   UNL     1     -11.096  14.142  66.783  1.00  0.00    -0.314 C  
HETATM   22  C   UNL     1     -11.215  13.918  68.283  1.00  0.00    -0.272 C  
HETATM   23  C   UNL     1      -9.822  13.447  66.235  1.00  0.00    -0.290 C  
HETATM   24  O   UNL     1     -12.117  13.003  68.689  1.00  0.00    -0.295 OA 
HETATM   25  O   UNL     1     -10.511  14.512  69.092  1.00  0.00    -0.242 OA 
ENDBRANCH  16  17
ENDBRANCH  15  16
ENDBRANCH   8  15
ENDBRANCH   3   7
TORSDOF 5
ENDMDL
MODEL      111
REMARK 921   NORMALIZED FREE ENERGY PREDICTED BY IDOCK:   -4.73 KCAL/MOL
REMARK 922        TOTAL FREE ENERGY PREDICTED BY IDOCK:   -7.61 KCAL/MOL
REMARK 923 INTER-LIGAND FREE ENERGY PREDICTED BY IDOCK:   -6.71 KCAL/MOL
REMARK 924 INTRA-LIGAND FREE ENERGY PREDICTED BY IDOCK:   -0.90 KCAL/MOL
REMARK 927      BINDING AFFINITY PREDICTED BY RF-SCORE:    0.00 PKD
ROOT
HETATM    1  C   UNL     1     -11.023   6.902  67.173  1.00  0.00    -0.427 C  
HETATM    2  C   UNL     1      -9.888   7.730  67.687  1.00  0.00    -0.208 A  
HETATM    3  C   UNL     1      -9.770   8.357  68.939  1.00  0.00    -0.167 A  
HETATM    4  C   UNL     1      -7.827   8.817  67.437  1.00  0.00    -0.098 A  
HETATM    5  S   UNL     1      -8.283   9.247  69.021  1.00  0.00    -0.114 SA 
HETATM    6  C   UNL     1      -8.757   8.007  66.840  1.00  0.00    -0.136 A  
ENDROOT
BRANCH   3   7
HETATM    7  C   UNL     1     -10.665   8.439  70.084  1.00  0.00    -0.238 C  
HETATM    8  C   UNL     1     -11.556   9.461  70.155  1.00  0.00    -0.117 C  
BRANCH   7   9
HETATM    9  C   UNL     1     -10.704   7.408  71.124  1.00  0.00    -0.231 A  
HETATM   10  C   UNL     1     -10.590   6.006  71.087  1.00  0.00    -0.303 A  
HETATM   11  C   UNL     1     -10.774   6.349  73.401  1.00  0.00    -0.262 A  
HETATM   12  C   UNL     1     -10.647   5.420  72.404  1.00  0.00    -0.276 A  
HETATM   13  S   UNL     1     -10.859   7.926  72.785  1.00  0.00    -0.379 SA 
HETATM   14  C   UNL     1     -10.403   5.104  69.903  1.00  0.00    -0.347 C  
ENDBRANCH   7   9
BRANCH   8  15
HETATM   15  C   UNL     1     -11.839  10.510  69.097  1.00  0.00    -0.218 C  
BRANCH  15  16
HETATM   16  C   UNL     1     -11.060  11.854  69.265  1.00  0.00    -0.203 C  
BRANCH  16  17
HETATM   17  N   UNL     1     -11.828  13.005  68.762  1.00  0.00    -0.318 NA 
HETATM   18  C   UNL     1     -11.924  14.143  69.661  1.00  0.00    -0.336 C  
HETATM   19  C   UNL     1     -10.890  15.214  69.350  1.00  0.00    -0.265 C  
HETATM   20  C   UNL     1     -11.185  15.814  67.988  1.00  0.00    -0.338 C  
HETATM   21  C   UNL     1     -11.276  14.752  66.889  1.00  0.00    -0.347 C  
HETATM   22  C   UNL     1     -10.083  14.686  65.949  1.00  0.00    -0.320 C  
HETATM   23  C   UNL     1     -11.692  13.325  67.333  1.00  0.00    -0.373 C  
HETATM   24  O   UNL     1      -8.884  15.014  66.468  1.00  0.00    -0.273 OA 
HETATM   25  O   UNL     1     -10.187  14.325  64.782  1.00  0.00    -0.412 OA 
ENDBRANCH  16  17
ENDBRANCH  15  16
ENDBRANCH   8  15
ENDBRANCH   3   7
TORSDOF 5
ENDMDL
MODEL      112
REMARK 921   NORMALIZED FREE ENERGY PREDICTED BY IDOCK:   -4.71 KCAL/MOL
REMARK 922        TOTAL FREE ENERGY PREDICTED BY IDOCK:   -7.59 KCAL/MOL
REMARK 923 INTER-LIGAND FREE ENERGY PREDICTED BY IDOCK:   -6.76 KCAL/MOL
REMARK 924 INTRA-LIGAND FREE ENERGY PREDICTED BY IDOCK:   -0.83 KCAL/MOL
REMARK 927      BINDING AFFINITY PREDICTED BY RF-SCORE:    0.00 PKD
ROOT
HETATM    1  C   UNL     1     -10.763   5.838  69.600  1.00  0.00    -0.416 C  
HETATM    2  C   UNL     1     -11.285   7.039  70.322  1.00  0.00    -0.339 A  
HETATM    3  C   UNL     1     -10.694   8.309  70.432  1.00  0.00    -0.232 A  
HETATM    4  C   UNL     1     -12.834   8.123  71.707  1.00  0.00    -0.333 A  
HETATM    5  S   UNL     1     -11.675   9.338  71.428  1.00  0.00    -0.388 SA 
HETATM    6  C   UNL     1     -12.518   6.956  71.062  1.00  0.00    -0.364 A  
ENDROOT
BRANCH   3   7
HETATM    7  C   UNL     1      -9.436   8.852  69.940  1.00  0.00    -0.177 C  
HETATM    8  C   UNL     1      -9.408   9.462  68.727  1.00  0.00    -0.146 C  
BRANCH   7   9
HETATM    9  C   UNL     1      -8.211   8.845  70.744  1.00  0.00    -0.171 A  
HETATM   10  C   UNL     1      -7.091   9.695  70.789  1.00  0.00    -0.080 A  
HETATM   11  C   UNL     1      -6.545   8.194  72.508  1.00  0.00    -0.082 A  
HETATM   12  C   UNL     1      -6.143   9.294  71.799  1.00  0.00    -0.021 A  
HETATM   13  S   UNL     1      -8.039   7.606  71.963  1.00  0.00    -0.107 SA 
HETATM   14  C   UNL     1      -6.798  10.917  69.969  1.00  0.00    -0.093 C  
ENDBRANCH   7   9
BRANCH   8  15
HETATM   15  C   UNL     1     -10.588   9.774  67.827  1.00  0.00    -0.320 C  
BRANCH  15  16
HETATM   16  C   UNL     1     -10.354   9.509  66.305  1.00  0.00    -0.156 C  
BRANCH  16  17
HETATM   17  N   UNL     1      -9.713  10.655  65.638  1.00  0.00    -0.215 NA 
HETATM   18  C   UNL     1      -9.584  10.554  64.194  1.00  0.00    -0.313 C  
HETATM   19  C   UNL     1     -10.706  11.274  63.461  1.00  0.00    -0.408 C  
HETATM   20  C   UNL     1     -10.597  12.764  63.721  1.00  0.00    -0.370 C  
HETATM   21  C   UNL     1     -10.566  13.096  65.216  1.00  0.00    -0.325 C  
HETATM   22  C   UNL     1     -11.850  13.688  65.777  1.00  0.00    -0.371 C  
HETATM   23  C   UNL     1     -10.023  11.992  66.162  1.00  0.00    -0.231 C  
HETATM   24  O   UNL     1     -13.001  13.293  65.199  1.00  0.00    -0.705 OA 
HETATM   25  O   UNL     1     -11.854  14.463  66.726  1.00  0.00    -0.396 OA 
ENDBRANCH  16  17
ENDBRANCH  15  16
ENDBRANCH   8  15
ENDBRANCH   3   7
TORSDOF 5
ENDMDL
MODEL      113
REMARK 921   NORMALIZED FREE ENERGY PREDICTED BY IDOCK:   -4.71 KCAL/MOL
REMARK 922        TOTAL FREE ENERGY PREDICTED BY IDOCK:   -7.59 KCAL/MOL
REMARK 923 INTER-LIGAND FREE ENERGY PREDICTED BY IDOCK:   -7.01 KCAL/MOL
REMARK 924 INTRA-LIGAND FREE ENERGY PREDICTED BY IDOCK:   -0.58 KCAL/MOL
REMARK 927      BINDING AFFINITY PREDICTED BY RF-SCORE:    0.00 PKD
ROOT
HETATM    1  C   UNL     1      -7.679  11.209  67.889  1.00  0.00    -0.105 C  
HETATM    2  C   UNL     1      -8.661  10.092  67.726  1.00  0.00    -0.118 A  
HETATM    3  C   UNL     1     -10.023  10.178  67.391  1.00  0.00    -0.195 A  
HETATM    4  C   UNL     1      -9.278   7.834  67.827  1.00  0.00    -0.136 A  
HETATM    5  S   UNL     1     -10.736   8.596  67.385  1.00  0.00    -0.029 SA 
HETATM    6  C   UNL     1      -8.254   8.733  67.969  1.00  0.00    -0.118 A  
ENDROOT
BRANCH   3   7
HETATM    7  C   UNL     1     -10.901  11.310  67.134  1.00  0.00    -0.321 C  
HETATM    8  C   UNL     1     -11.450  11.974  68.183  1.00  0.00    -0.383 C  
BRANCH   7   9
HETATM    9  C   UNL     1     -11.149  11.820  65.782  1.00  0.00    -0.297 A  
HETATM   10  C   UNL     1     -10.669  11.442  64.514  1.00  0.00    -0.391 A  
HETATM   11  C   UNL     1     -12.155  13.153  63.906  1.00  0.00    -0.470 A  
HETATM   12  C   UNL     1     -11.250  12.230  63.455  1.00  0.00    -0.535 A  
HETATM   13  S   UNL     1     -12.304  13.116  65.595  1.00  0.00    -0.428 SA 
HETATM   14  C   UNL     1      -9.695  10.359  64.157  1.00  0.00    -0.387 C  
ENDBRANCH   7   9
BRANCH   8  15
HETATM   15  C   UNL     1     -11.163  11.761  69.657  1.00  0.00    -0.225 C  
BRANCH  15  16
HETATM   16  C   UNL     1     -12.374  12.007  70.614  1.00  0.00    -0.304 C  
BRANCH  16  17
HETATM   17  N   UNL     1     -12.804  13.415  70.610  1.00  0.00    -0.151 NA 
HETATM   18  C   UNL     1     -12.915  14.046  71.915  1.00  0.00    -0.360 C  
HETATM   19  C   UNL     1     -11.674  14.848  72.277  1.00  0.00    -0.333 C  
HETATM   20  C   UNL     1     -11.543  16.023  71.327  1.00  0.00    -0.506 C  
HETATM   21  C   UNL     1     -11.553  15.591  69.858  1.00  0.00    -0.348 C  
HETATM   22  C   UNL     1     -10.203  15.633  69.160  1.00  0.00    -0.233 C  
HETATM   23  C   UNL     1     -12.291  14.267  69.527  1.00  0.00    -0.230 C  
HETATM   24  O   UNL     1      -9.119  15.394  69.923  1.00  0.00    -0.184 OA 
HETATM   25  O   UNL     1     -10.094  15.842  67.957  1.00  0.00    -0.225 OA 
ENDBRANCH  16  17
ENDBRANCH  15  16
ENDBRANCH   8  15
ENDBRANCH   3   7
TORSDOF 5
ENDMDL
MODEL      114
REMARK 921   NORMALIZED FREE ENERGY PREDICTED BY IDOCK:   -4.70 KCAL/MOL
REMARK 922        TOTAL FREE ENERGY PREDICTED BY IDOCK:   -7.58 KCAL/MOL
REMARK 923 INTER-LIGAND FREE ENERGY PREDICTED BY IDOCK:   -6.39 KCAL/MOL
REMARK 924 INTRA-LIGAND FREE ENERGY PREDICTED BY IDOCK:   -1.19 KCAL/MOL
REMARK 927      BINDING AFFINITY PREDICTED BY RF-SCORE:    0.00 PKD
ROOT
HETATM    1  C   UNL     1      -6.916  10.439  68.425  1.00  0.00    -0.069 C  
HETATM    2  C   UNL     1      -8.307   9.903  68.307  1.00  0.00    -0.110 A  
HETATM    3  C   UNL     1      -9.309  10.283  67.399  1.00  0.00    -0.145 A  
HETATM    4  C   UNL     1     -10.082   8.551  69.024  1.00  0.00    -0.199 A  
HETATM    5  S   UNL     1     -10.767   9.397  67.714  1.00  0.00    -0.167 SA 
HETATM    6  C   UNL     1      -8.774   8.902  69.231  1.00  0.00    -0.138 A  
ENDROOT
BRANCH   3   7
HETATM    7  C   UNL     1      -9.349  11.288  66.345  1.00  0.00    -0.210 C  
HETATM    8  C   UNL     1      -9.488  12.595  66.683  1.00  0.00    -0.244 C  
BRANCH   7   9
HETATM    9  C   UNL     1      -9.155  10.950  64.932  1.00  0.00    -0.182 A  
HETATM   10  C   UNL     1      -9.889  11.245  63.769  1.00  0.00    -0.361 A  
HETATM   11  C   UNL     1      -8.081  10.076  62.837  1.00  0.00    -0.143 A  
HETATM   12  C   UNL     1      -9.260  10.721  62.581  1.00  0.00    -0.349 A  
HETATM   13  S   UNL     1      -7.720  10.057  64.494  1.00  0.00    -0.141 SA 
HETATM   14  C   UNL     1     -11.166  12.018  63.628  1.00  0.00    -0.528 C  
ENDBRANCH   7   9
BRANCH   8  15
HETATM   15  C   UNL     1      -9.488  13.190  68.078  1.00  0.00    -0.220 C  
BRANCH  15  16
HETATM   16  C   UNL     1     -10.901  13.483  68.678  1.00  0.00    -0.259 C  
BRANCH  16  17
HETATM   17  N   UNL     1     -11.133  14.926  68.865  1.00  0.00    -0.244 NA 
HETATM   18  C   UNL     1     -10.270  15.584  69.833  1.00  0.00    -0.295 C  
HETATM   19  C   UNL     1      -9.083  16.272  69.176  1.00  0.00    -0.230 C  
HETATM   20  C   UNL     1      -9.583  17.415  68.313  1.00  0.00    -0.292 C  
HETATM   21  C   UNL     1     -10.635  16.964  67.296  1.00  0.00    -0.270 C  
HETATM   22  C   UNL     1     -10.149  16.869  65.858  1.00  0.00    -0.283 C  
HETATM   23  C   UNL     1     -11.468  15.709  67.668  1.00  0.00    -0.167 C  
HETATM   24  O   UNL     1      -8.855  16.542  65.677  1.00  0.00    -0.428 OA 
HETATM   25  O   UNL     1     -10.894  17.048  64.902  1.00  0.00    -0.717 OA 
ENDBRANCH  16  17
ENDBRANCH  15  16
ENDBRANCH   8  15
ENDBRANCH   3   7
TORSDOF 5
ENDMDL
MODEL      115
REMARK 921   NORMALIZED FREE ENERGY PREDICTED BY IDOCK:   -4.69 KCAL/MOL
REMARK 922        TOTAL FREE ENERGY PREDICTED BY IDOCK:   -7.56 KCAL/MOL
REMARK 923 INTER-LIGAND FREE ENERGY PREDICTED BY IDOCK:   -6.38 KCAL/MOL
REMARK 924 INTRA-LIGAND FREE ENERGY PREDICTED BY IDOCK:   -1.18 KCAL/MOL
REMARK 927      BINDING AFFINITY PREDICTED BY RF-SCORE:    0.00 PKD
ROOT
HETATM    1  C   UNL     1      -7.688   9.656  70.005  1.00  0.00    -0.162 C  
HETATM    2  C   UNL     1      -8.988   9.060  70.443  1.00  0.00    -0.235 A  
HETATM    3  C   UNL     1     -10.091   8.705  69.648  1.00  0.00    -0.201 A  
HETATM    4  C   UNL     1     -10.493   8.329  72.085  1.00  0.00    -0.301 A  
HETATM    5  S   UNL     1     -11.378   8.107  70.646  1.00  0.00    -0.213 SA 
HETATM    6  C   UNL     1      -9.242   8.832  71.842  1.00  0.00    -0.320 A  
ENDROOT
BRANCH   3   7
HETATM    7  C   UNL     1     -10.346   8.816  68.219  1.00  0.00    -0.252 C  
HETATM    8  C   UNL     1     -10.949   9.934  67.739  1.00  0.00    -0.278 C  
BRANCH   7   9
HETATM    9  C   UNL     1      -9.898   7.801  67.261  1.00  0.00    -0.189 A  
HETATM   10  C   UNL     1      -8.799   7.731  66.385  1.00  0.00    -0.180 A  
HETATM   11  C   UNL     1      -9.775   5.632  65.999  1.00  0.00    -0.051 A  
HETATM   12  C   UNL     1      -8.758   6.484  65.662  1.00  0.00    -0.102 A  
HETATM   13  S   UNL     1     -10.810   6.315  67.156  1.00  0.00    -0.379 SA 
HETATM   14  C   UNL     1      -7.715   8.740  66.148  1.00  0.00    -0.101 C  
ENDBRANCH   7   9
BRANCH   8  15
HETATM   15  C   UNL     1     -11.299  11.193  68.509  1.00  0.00    -0.348 C  
BRANCH  15  16
HETATM   16  C   UNL     1     -10.539  12.482  68.059  1.00  0.00    -0.223 C  
BRANCH  16  17
HETATM   17  N   UNL     1     -11.306  13.705  68.352  1.00  0.00    -0.275 NA 
HETATM   18  C   UNL     1     -11.047  14.318  69.644  1.00  0.00    -0.175 C  
HETATM   19  C   UNL     1     -10.042  15.456  69.554  1.00  0.00    -0.278 C  
HETATM   20  C   UNL     1     -10.639  16.588  68.740  1.00  0.00    -0.322 C  
HETATM   21  C   UNL     1     -11.124  16.124  67.363  1.00  0.00    -0.134 C  
HETATM   22  C   UNL     1     -10.243  16.532  66.193  1.00  0.00    -0.346 C  
HETATM   23  C   UNL     1     -11.533  14.633  67.235  1.00  0.00    -0.372 C  
HETATM   24  O   UNL     1      -8.923  16.642  66.438  1.00  0.00    -0.248 OA 
HETATM   25  O   UNL     1     -10.693  16.725  65.069  1.00  0.00    -0.692 OA 
ENDBRANCH  16  17
ENDBRANCH  15  16
ENDBRANCH   8  15
ENDBRANCH   3   7
TORSDOF 5
ENDMDL
MODEL      116
REMARK 921   NORMALIZED FREE ENERGY PREDICTED BY IDOCK:   -4.68 KCAL/MOL
REMARK 922        TOTAL FREE ENERGY PREDICTED BY IDOCK:   -7.55 KCAL/MOL
REMARK 923 INTER-LIGAND FREE ENERGY PREDICTED BY IDOCK:   -7.56 KCAL/MOL
REMARK 924 INTRA-LIGAND FREE ENERGY PREDICTED BY IDOCK:    0.00 KCAL/MOL
REMARK 927      BINDING AFFINITY PREDICTED BY RF-SCORE:    0.00 PKD
ROOT
HETATM    1  C   UNL     1     -12.735  11.024  71.761  1.00  0.00    -0.408 C  
HETATM    2  C   UNL     1     -12.733   9.545  71.540  1.00  0.00    -0.461 A  
HETATM    3  C   UNL     1     -11.655   8.725  71.164  1.00  0.00    -0.289 A  
HETATM    4  C   UNL     1     -13.801   7.464  71.380  1.00  0.00    -0.328 A  
HETATM    5  S   UNL     1     -12.189   7.084  70.983  1.00  0.00    -0.338 SA 
HETATM    6  C   UNL     1     -13.957   8.796  71.661  1.00  0.00    -0.450 A  
ENDROOT
BRANCH   3   7
HETATM    7  C   UNL     1     -10.264   9.017  70.850  1.00  0.00    -0.324 C  
HETATM    8  C   UNL     1      -9.976   9.770  69.758  1.00  0.00    -0.265 C  
BRANCH   7   9
HETATM    9  C   UNL     1      -9.159   8.601  71.720  1.00  0.00    -0.247 A  
HETATM   10  C   UNL     1      -7.792   8.929  71.753  1.00  0.00    -0.026 A  
HETATM   11  C   UNL     1      -7.929   7.523  73.626  1.00  0.00    -0.129 A  
HETATM   12  C   UNL     1      -7.105   8.288  72.847  1.00  0.00    -0.129 A  
HETATM   13  S   UNL     1      -9.525   7.531  73.051  1.00  0.00    -0.228 SA 
HETATM   14  C   UNL     1      -7.016   9.838  70.846  1.00  0.00     0.007 C  
ENDBRANCH   7   9
BRANCH   8  15
HETATM   15  C   UNL     1     -10.957  10.482  68.847  1.00  0.00    -0.291 C  
BRANCH  15  16
HETATM   16  C   UNL     1     -10.316  11.250  67.647  1.00  0.00    -0.184 C  
BRANCH  16  17
HETATM   17  N   UNL     1     -11.053  12.483  67.323  1.00  0.00    -0.261 NA 
HETATM   18  C   UNL     1     -10.270  13.708  67.330  1.00  0.00    -0.246 C  
HETATM   19  C   UNL     1      -9.802  14.104  65.938  1.00  0.00    -0.312 C  
HETATM   20  C   UNL     1     -11.007  14.460  65.088  1.00  0.00    -0.380 C  
HETATM   21  C   UNL     1     -12.052  13.342  65.058  1.00  0.00    -0.436 C  
HETATM   22  C   UNL     1     -12.114  12.544  63.765  1.00  0.00    -0.529 C  
HETATM   23  C   UNL     1     -12.086  12.389  66.282  1.00  0.00    -0.180 C  
HETATM   24  O   UNL     1     -10.959  12.402  63.086  1.00  0.00    -0.374 OA 
HETATM   25  O   UNL     1     -13.149  12.024  63.364  1.00  0.00    -0.747 OA 
ENDBRANCH  16  17
ENDBRANCH  15  16
ENDBRANCH   8  15
ENDBRANCH   3   7
TORSDOF 5
ENDMDL
MODEL      117
REMARK 921   NORMALIZED FREE ENERGY PREDICTED BY IDOCK:   -4.67 KCAL/MOL
REMARK 922        TOTAL FREE ENERGY PREDICTED BY IDOCK:   -7.54 KCAL/MOL
REMARK 923 INTER-LIGAND FREE ENERGY PREDICTED BY IDOCK:   -6.46 KCAL/MOL
REMARK 924 INTRA-LIGAND FREE ENERGY PREDICTED BY IDOCK:   -1.07 KCAL/MOL
REMARK 927      BINDING AFFINITY PREDICTED BY RF-SCORE:    0.00 PKD
ROOT
HETATM    1  C   UNL     1     -11.142   6.142  68.798  1.00  0.00    -0.398 C  
HETATM    2  C   UNL     1     -11.172   7.060  69.979  1.00  0.00    -0.310 A  
HETATM    3  C   UNL     1     -10.407   8.219  70.195  1.00  0.00    -0.212 A  
HETATM    4  C   UNL     1     -11.905   7.674  72.119  1.00  0.00    -0.309 A  
HETATM    5  S   UNL     1     -10.777   8.895  71.750  1.00  0.00    -0.363 SA 
HETATM    6  C   UNL     1     -12.029   6.768  71.098  1.00  0.00    -0.421 A  
ENDROOT
BRANCH   3   7
HETATM    7  C   UNL     1      -9.366   8.869  69.412  1.00  0.00    -0.153 C  
HETATM    8  C   UNL     1      -9.693   9.925  68.624  1.00  0.00    -0.163 C  
BRANCH   7   9
HETATM    9  C   UNL     1      -7.955   8.482  69.507  1.00  0.00    -0.106 A  
HETATM   10  C   UNL     1      -7.253   7.325  69.124  1.00  0.00    -0.085 A  
HETATM   11  C   UNL     1      -5.484   8.640  69.928  1.00  0.00    -0.029 A  
HETATM   12  C   UNL     1      -5.839   7.434  69.388  1.00  0.00    -0.026 A  
HETATM   13  S   UNL     1      -6.829   9.647  70.157  1.00  0.00    -0.113 SA 
HETATM   14  C   UNL     1      -7.774   6.071  68.486  1.00  0.00    -0.095 C  
ENDBRANCH   7   9
BRANCH   8  15
HETATM   15  C   UNL     1     -11.034  10.627  68.537  1.00  0.00    -0.296 C  
BRANCH  15  16
HETATM   16  C   UNL     1     -11.255  11.485  67.250  1.00  0.00    -0.301 C  
BRANCH  16  17
HETATM   17  N   UNL     1     -12.024  12.710  67.528  1.00  0.00    -0.429 NA 
HETATM   18  C   UNL     1     -11.898  13.244  68.874  1.00  0.00    -0.327 C  
HETATM   19  C   UNL     1     -10.864  14.356  68.961  1.00  0.00    -0.267 C  
HETATM   20  C   UNL     1     -11.343  15.548  68.153  1.00  0.00    -0.348 C  
HETATM   21  C   UNL     1     -11.682  15.175  66.707  1.00  0.00    -0.070 C  
HETATM   22  C   UNL     1     -10.668  15.623  65.666  1.00  0.00    -0.364 C  
HETATM   23  C   UNL     1     -12.106  13.705  66.448  1.00  0.00    -0.433 C  
HETATM   24  O   UNL     1      -9.381  15.682  66.061  1.00  0.00    -0.318 OA 
HETATM   25  O   UNL     1     -10.986  15.890  64.513  1.00  0.00    -0.527 OA 
ENDBRANCH  16  17
ENDBRANCH  15  16
ENDBRANCH   8  15
ENDBRANCH   3   7
TORSDOF 5
ENDMDL
MODEL      118
REMARK 921   NORMALIZED FREE ENERGY PREDICTED BY IDOCK:   -4.66 KCAL/MOL
REMARK 922        TOTAL FREE ENERGY PREDICTED BY IDOCK:   -7.52 KCAL/MOL
REMARK 923 INTER-LIGAND FREE ENERGY PREDICTED BY IDOCK:   -6.69 KCAL/MOL
REMARK 924 INTRA-LIGAND FREE ENERGY PREDICTED BY IDOCK:   -0.83 KCAL/MOL
REMARK 927      BINDING AFFINITY PREDICTED BY RF-SCORE:    0.00 PKD
ROOT
HETATM    1  C   UNL     1     -11.140   9.998  71.155  1.00  0.00    -0.270 C  
HETATM    2  C   UNL     1     -11.164   8.555  70.764  1.00  0.00    -0.289 A  
HETATM    3  C   UNL     1     -10.249   7.861  69.953  1.00  0.00    -0.210 A  
HETATM    4  C   UNL     1     -12.152   6.430  70.709  1.00  0.00    -0.094 A  
HETATM    5  S   UNL     1     -10.757   6.214  69.757  1.00  0.00    -0.346 SA 
HETATM    6  C   UNL     1     -12.249   7.710  71.189  1.00  0.00    -0.310 A  
ENDROOT
BRANCH   3   7
HETATM    7  C   UNL     1      -9.056   8.286  69.235  1.00  0.00    -0.151 C  
HETATM    8  C   UNL     1      -9.189   8.867  68.016  1.00  0.00    -0.147 C  
BRANCH   7   9
HETATM    9  C   UNL     1      -7.714   8.189  69.817  1.00  0.00    -0.100 A  
HETATM   10  C   UNL     1      -6.773   7.146  69.884  1.00  0.00    -0.048 A  
HETATM   11  C   UNL     1      -5.560   8.868  70.918  1.00  0.00    -0.034 A  
HETATM   12  C   UNL     1      -5.551   7.555  70.532  1.00  0.00    -0.023 A  
HETATM   13  S   UNL     1      -7.032   9.624  70.543  1.00  0.00    -0.118 SA 
HETATM   14  C   UNL     1      -6.881   5.742  69.368  1.00  0.00    -0.062 C  
ENDBRANCH   7   9
BRANCH   8  15
HETATM   15  C   UNL     1     -10.479   9.263  67.322  1.00  0.00    -0.334 C  
BRANCH  15  16
HETATM   16  C   UNL     1     -10.776  10.796  67.292  1.00  0.00    -0.274 C  
BRANCH  16  17
HETATM   17  N   UNL     1      -9.974  11.495  66.273  1.00  0.00    -0.213 NA 
HETATM   18  C   UNL     1      -9.202  10.643  65.383  1.00  0.00    -0.193 C  
HETATM   19  C   UNL     1      -9.915  10.389  64.064  1.00  0.00    -0.305 C  
HETATM   20  C   UNL     1     -10.026  11.693  63.296  1.00  0.00    -0.442 C  
HETATM   21  C   UNL     1     -10.692  12.800  64.118  1.00  0.00    -0.441 C  
HETATM   22  C   UNL     1     -12.124  13.129  63.725  1.00  0.00    -0.495 C  
HETATM   23  C   UNL     1     -10.568  12.692  65.661  1.00  0.00    -0.273 C  
HETATM   24  O   UNL     1     -12.865  12.116  63.237  1.00  0.00    -0.735 OA 
HETATM   25  O   UNL     1     -12.602  14.248  63.869  1.00  0.00    -0.787 OA 
ENDBRANCH  16  17
ENDBRANCH  15  16
ENDBRANCH   8  15
ENDBRANCH   3   7
TORSDOF 5
ENDMDL
MODEL      119
REMARK 921   NORMALIZED FREE ENERGY PREDICTED BY IDOCK:   -4.66 KCAL/MOL
REMARK 922        TOTAL FREE ENERGY PREDICTED BY IDOCK:   -7.52 KCAL/MOL
REMARK 923 INTER-LIGAND FREE ENERGY PREDICTED BY IDOCK:   -6.33 KCAL/MOL
REMARK 924 INTRA-LIGAND FREE ENERGY PREDICTED BY IDOCK:   -1.19 KCAL/MOL
REMARK 927      BINDING AFFINITY PREDICTED BY RF-SCORE:    0.00 PKD
ROOT
HETATM    1  C   UNL     1     -11.946   6.782  70.181  1.00  0.00    -0.244 C  
HETATM    2  C   UNL     1     -10.783   7.670  70.494  1.00  0.00    -0.241 A  
HETATM    3  C   UNL     1     -10.043   8.473  69.610  1.00  0.00    -0.202 A  
HETATM    4  C   UNL     1      -9.171   8.549  71.950  1.00  0.00    -0.255 A  
HETATM    5  S   UNL     1      -8.757   9.267  70.462  1.00  0.00    -0.235 SA 
HETATM    6  C   UNL     1     -10.265   7.732  71.836  1.00  0.00    -0.250 A  
ENDROOT
BRANCH   3   7
HETATM    7  C   UNL     1     -10.126   8.683  68.172  1.00  0.00    -0.236 C  
HETATM    8  C   UNL     1     -10.899   9.691  67.693  1.00  0.00    -0.276 C  
BRANCH   7   9
HETATM    9  C   UNL     1      -9.334   7.901  67.218  1.00  0.00    -0.148 A  
HETATM   10  C   UNL     1      -9.535   6.650  66.607  1.00  0.00    -0.201 A  
HETATM   11  C   UNL     1      -7.521   7.292  65.590  1.00  0.00    -0.085 A  
HETATM   12  C   UNL     1      -8.475   6.316  65.688  1.00  0.00    -0.148 A  
HETATM   13  S   UNL     1      -7.855   8.604  66.611  1.00  0.00    -0.097 SA 
HETATM   14  C   UNL     1     -10.673   5.688  66.776  1.00  0.00    -0.358 C  
ENDBRANCH   7   9
BRANCH   8  15
HETATM   15  C   UNL     1     -11.627  10.752  68.496  1.00  0.00    -0.325 C  
BRANCH  15  16
HETATM   16  C   UNL     1     -10.947  12.159  68.512  1.00  0.00    -0.238 C  
BRANCH  16  17
HETATM   17  N   UNL     1     -11.920  13.241  68.741  1.00  0.00    -0.328 NA 
HETATM   18  C   UNL     1     -12.332  13.439  70.120  1.00  0.00    -0.252 C  
HETATM   19  C   UNL     1     -11.548  14.550  70.803  1.00  0.00    -0.260 C  
HETATM   20  C   UNL     1     -11.878  15.875  70.143  1.00  0.00    -0.327 C  
HETATM   21  C   UNL     1     -11.653  15.844  68.629  1.00  0.00    -0.383 C  
HETATM   22  C   UNL     1     -10.415  16.581  68.141  1.00  0.00    -0.313 C  
HETATM   23  C   UNL     1     -11.763  14.460  67.936  1.00  0.00    -0.356 C  
HETATM   24  O   UNL     1      -9.359  16.610  68.978  1.00  0.00    -0.260 OA 
HETATM   25  O   UNL     1     -10.355  17.102  67.033  1.00  0.00    -0.309 OA 
ENDBRANCH  16  17
ENDBRANCH  15  16
ENDBRANCH   8  15
ENDBRANCH   3   7
TORSDOF 5
ENDMDL
MODEL      120
REMARK 921   NORMALIZED FREE ENERGY PREDICTED BY IDOCK:   -4.64 KCAL/MOL
REMARK 922        TOTAL FREE ENERGY PREDICTED BY IDOCK:   -7.50 KCAL/MOL
REMARK 923 INTER-LIGAND FREE ENERGY PREDICTED BY IDOCK:   -6.39 KCAL/MOL
REMARK 924 INTRA-LIGAND FREE ENERGY PREDICTED BY IDOCK:   -1.11 KCAL/MOL
REMARK 927      BINDING AFFINITY PREDICTED BY RF-SCORE:    0.00 PKD
ROOT
HETATM    1  C   UNL     1     -10.496  17.684  68.286  1.00  0.00    -0.376 C  
HETATM    2  C   UNL     1     -10.847  16.323  68.796  1.00  0.00    -0.317 A  
HETATM    3  C   UNL     1     -10.297  15.087  68.417  1.00  0.00    -0.231 A  
HETATM    4  C   UNL     1     -12.136  14.856  70.093  1.00  0.00    -0.327 A  
HETATM    5  S   UNL     1     -11.090  13.797  69.264  1.00  0.00    -0.163 SA 
HETATM    6  C   UNL     1     -11.902  16.165  69.764  1.00  0.00    -0.132 A  
ENDROOT
BRANCH   3   7
HETATM    7  C   UNL     1      -9.282  14.723  67.439  1.00  0.00    -0.200 C  
HETATM    8  C   UNL     1      -9.650  14.523  66.147  1.00  0.00    -0.325 C  
BRANCH   7   9
HETATM    9  C   UNL     1      -7.858  14.648  67.776  1.00  0.00    -0.154 A  
HETATM   10  C   UNL     1      -6.774  15.517  67.550  1.00  0.00    -0.220 A  
HETATM   11  C   UNL     1      -5.706  13.828  68.780  1.00  0.00    -0.084 A  
HETATM   12  C   UNL     1      -5.549  15.018  68.123  1.00  0.00    -0.131 A  
HETATM   13  S   UNL     1      -7.307  13.272  68.699  1.00  0.00    -0.077 SA 
HETATM   14  C   UNL     1      -6.755  16.838  66.841  1.00  0.00    -0.256 C  
ENDBRANCH   7   9
BRANCH   8  15
HETATM   15  C   UNL     1     -11.018  14.756  65.534  1.00  0.00    -0.350 C  
BRANCH  15  16
HETATM   16  C   UNL     1     -12.171  13.883  66.126  1.00  0.00    -0.464 C  
BRANCH  16  17
HETATM   17  N   UNL     1     -12.193  12.529  65.546  1.00  0.00    -0.597 NA 
HETATM   18  C   UNL     1     -12.127  12.462  64.095  1.00  0.00    -0.453 C  
HETATM   19  C   UNL     1     -10.713  12.217  63.591  1.00  0.00    -0.518 C  
HETATM   20  C   UNL     1     -10.259  10.837  64.029  1.00  0.00    -0.390 C  
HETATM   21  C   UNL     1     -10.385  10.633  65.541  1.00  0.00    -0.297 C  
HETATM   22  C   UNL     1      -9.075  10.665  66.312  1.00  0.00    -0.167 C  
HETATM   23  C   UNL     1     -11.460  11.481  66.270  1.00  0.00    -0.049 C  
HETATM   24  O   UNL     1      -8.101  11.456  65.820  1.00  0.00     0.020 OA 
HETATM   25  O   UNL     1      -8.909  10.032  67.349  1.00  0.00    -0.128 OA 
ENDBRANCH  16  17
ENDBRANCH  15  16
ENDBRANCH   8  15
ENDBRANCH   3   7
TORSDOF 5
ENDMDL
MODEL      121
REMARK 921   NORMALIZED FREE ENERGY PREDICTED BY IDOCK:   -4.63 KCAL/MOL
REMARK 922        TOTAL FREE ENERGY PREDICTED BY IDOCK:   -7.48 KCAL/MOL
REMARK 923 INTER-LIGAND FREE ENERGY PREDICTED BY IDOCK:   -6.37 KCAL/MOL
REMARK 924 INTRA-LIGAND FREE ENERGY PREDICTED BY IDOCK:   -1.11 KCAL/MOL
REMARK 927      BINDING AFFINITY PREDICTED BY RF-SCORE:    0.00 PKD
ROOT
HETATM    1  C   UNL     1      -8.281   9.269  67.472  1.00  0.00    -0.114 C  
HETATM    2  C   UNL     1      -9.306   8.234  67.812  1.00  0.00    -0.153 A  
HETATM    3  C   UNL     1     -10.077   8.129  68.982  1.00  0.00    -0.205 A  
HETATM    4  C   UNL     1     -10.492   6.260  67.377  1.00  0.00    -0.248 A  
HETATM    5  S   UNL     1     -11.081   6.715  68.909  1.00  0.00    -0.208 SA 
HETATM    6  C   UNL     1      -9.564   7.149  66.902  1.00  0.00    -0.216 A  
ENDROOT
BRANCH   3   7
HETATM    7  C   UNL     1     -10.121   8.921  70.203  1.00  0.00    -0.212 C  
HETATM    8  C   UNL     1     -10.760  10.119  70.192  1.00  0.00    -0.355 C  
BRANCH   7   9
HETATM    9  C   UNL     1      -9.576   8.434  71.473  1.00  0.00    -0.208 A  
HETATM   10  C   UNL     1     -10.177   7.962  72.654  1.00  0.00    -0.361 A  
HETATM   11  C   UNL     1      -7.912   7.674  73.195  1.00  0.00    -0.117 A  
HETATM   12  C   UNL     1      -9.202   7.545  73.632  1.00  0.00    -0.320 A  
HETATM   13  S   UNL     1      -7.840   8.321  71.629  1.00  0.00    -0.124 SA 
HETATM   14  C   UNL     1     -11.634   7.828  72.985  1.00  0.00    -0.182 C  
ENDBRANCH   7   9
BRANCH   8  15
HETATM   15  C   UNL     1     -11.575  10.717  69.061  1.00  0.00    -0.332 C  
BRANCH  15  16
HETATM   16  C   UNL     1     -10.812  11.739  68.158  1.00  0.00    -0.217 C  
BRANCH  16  17
HETATM   17  N   UNL     1     -11.481  13.050  68.123  1.00  0.00    -0.297 NA 
HETATM   18  C   UNL     1     -10.753  14.148  68.737  1.00  0.00    -0.256 C  
HETATM   19  C   UNL     1      -9.977  14.969  67.719  1.00  0.00    -0.229 C  
HETATM   20  C   UNL     1     -10.953  15.669  66.792  1.00  0.00    -0.230 C  
HETATM   21  C   UNL     1     -11.933  14.694  66.134  1.00  0.00    -0.250 C  
HETATM   22  C   UNL     1     -11.666  14.395  64.667  1.00  0.00    -0.430 C  
HETATM   23  C   UNL     1     -12.235  13.382  66.905  1.00  0.00    -0.289 C  
HETATM   24  O   UNL     1     -10.379  14.426  64.268  1.00  0.00    -0.066 OA 
HETATM   25  O   UNL     1     -12.563  14.108  63.882  1.00  0.00    -0.752 OA 
ENDBRANCH  16  17
ENDBRANCH  15  16
ENDBRANCH   8  15
ENDBRANCH   3   7
TORSDOF 5
ENDMDL
MODEL      122
REMARK 921   NORMALIZED FREE ENERGY PREDICTED BY IDOCK:   -4.60 KCAL/MOL
REMARK 922        TOTAL FREE ENERGY PREDICTED BY IDOCK:   -7.45 KCAL/MOL
REMARK 923 INTER-LIGAND FREE ENERGY PREDICTED BY IDOCK:   -5.62 KCAL/MOL
REMARK 924 INTRA-LIGAND FREE ENERGY PREDICTED BY IDOCK:   -1.83 KCAL/MOL
REMARK 927      BINDING AFFINITY PREDICTED BY RF-SCORE:    0.00 PKD
ROOT
HETATM    1  C   UNL     1      -7.304  11.357  67.688  1.00  0.00    -0.102 C  
HETATM    2  C   UNL     1      -8.717  10.987  68.006  1.00  0.00    -0.138 A  
HETATM    3  C   UNL     1      -9.835  11.022  67.155  1.00  0.00    -0.184 A  
HETATM    4  C   UNL     1     -10.411  10.320  69.483  1.00  0.00    -0.242 A  
HETATM    5  S   UNL     1     -11.261  10.548  68.024  1.00  0.00    -0.242 SA 
HETATM    6  C   UNL     1      -9.073  10.577  69.340  1.00  0.00    -0.123 A  
ENDROOT
BRANCH   3   7
HETATM    7  C   UNL     1     -10.000  11.433  65.768  1.00  0.00    -0.271 C  
HETATM    8  C   UNL     1      -9.678  10.564  64.777  1.00  0.00    -0.365 C  
BRANCH   7   9
HETATM    9  C   UNL     1     -10.587  12.725  65.398  1.00  0.00    -0.287 A  
HETATM   10  C   UNL     1     -10.263  14.053  65.728  1.00  0.00    -0.343 A  
HETATM   11  C   UNL     1     -12.046  14.415  64.248  1.00  0.00    -0.436 A  
HETATM   12  C   UNL     1     -11.122  15.004  65.068  1.00  0.00    -0.421 A  
HETATM   13  S   UNL     1     -11.925  12.724  64.276  1.00  0.00    -0.439 SA 
HETATM   14  C   UNL     1      -9.172  14.565  66.622  1.00  0.00    -0.290 C  
ENDBRANCH   7   9
BRANCH   8  15
HETATM   15  C   UNL     1      -9.263   9.112  64.926  1.00  0.00    -0.135 C  
BRANCH  15  16
HETATM   16  C   UNL     1      -7.735   8.835  64.754  1.00  0.00    -0.113 C  
BRANCH  16  17
HETATM   17  N   UNL     1      -7.320   7.591  65.425  1.00  0.00    -0.069 NA 
HETATM   18  C   UNL     1      -6.690   7.755  66.725  1.00  0.00    -0.067 C  
HETATM   19  C   UNL     1      -7.672   7.569  67.871  1.00  0.00    -0.116 C  
HETATM   20  C   UNL     1      -8.152   6.130  67.890  1.00  0.00    -0.114 C  
HETATM   21  C   UNL     1      -8.734   5.690  66.544  1.00  0.00    -0.121 C  
HETATM   22  C   UNL     1     -10.249   5.577  66.496  1.00  0.00    -0.228 C  
HETATM   23  C   UNL     1      -8.209   6.429  65.284  1.00  0.00    -0.137 C  
HETATM   24  O   UNL     1     -10.944   6.419  67.285  1.00  0.00    -0.342 OA 
HETATM   25  O   UNL     1     -10.825   4.784  65.759  1.00  0.00    -0.295 OA 
ENDBRANCH  16  17
ENDBRANCH  15  16
ENDBRANCH   8  15
ENDBRANCH   3   7
TORSDOF 5
ENDMDL
MODEL      123
REMARK 921   NORMALIZED FREE ENERGY PREDICTED BY IDOCK:   -4.60 KCAL/MOL
REMARK 922        TOTAL FREE ENERGY PREDICTED BY IDOCK:   -7.45 KCAL/MOL
REMARK 923 INTER-LIGAND FREE ENERGY PREDICTED BY IDOCK:   -5.81 KCAL/MOL
REMARK 924 INTRA-LIGAND FREE ENERGY PREDICTED BY IDOCK:   -1.64 KCAL/MOL
REMARK 927      BINDING AFFINITY PREDICTED BY RF-SCORE:    0.00 PKD
ROOT
HETATM    1  C   UNL     1      -8.410  10.715  68.976  1.00  0.00    -0.153 C  
HETATM    2  C   UNL     1      -7.769   9.376  68.792  1.00  0.00    -0.080 A  
HETATM    3  C   UNL     1      -8.119   8.366  67.879  1.00  0.00    -0.123 A  
HETATM    4  C   UNL     1      -6.238   7.703  69.384  1.00  0.00    -0.034 A  
HETATM    5  S   UNL     1      -7.100   6.980  68.106  1.00  0.00    -0.088 SA 
HETATM    6  C   UNL     1      -6.682   8.973  69.646  1.00  0.00    -0.046 A  
ENDROOT
BRANCH   3   7
HETATM    7  C   UNL     1      -9.176   8.267  66.883  1.00  0.00    -0.197 C  
HETATM    8  C   UNL     1     -10.418   7.883  67.273  1.00  0.00    -0.390 C  
BRANCH   7   9
HETATM    9  C   UNL     1      -8.973   8.650  65.483  1.00  0.00    -0.158 A  
HETATM   10  C   UNL     1      -9.422   9.739  64.714  1.00  0.00    -0.318 A  
HETATM   11  C   UNL     1      -8.081   8.639  63.135  1.00  0.00    -0.170 A  
HETATM   12  C   UNL     1      -8.909   9.704  63.367  1.00  0.00    -0.251 A  
HETATM   13  S   UNL     1      -7.927   7.650  64.504  1.00  0.00    -0.103 SA 
HETATM   14  C   UNL     1     -10.305  10.882  65.120  1.00  0.00    -0.344 C  
ENDBRANCH   7   9
BRANCH   8  15
HETATM   15  C   UNL     1     -10.907   7.650  68.689  1.00  0.00    -0.013 C  
BRANCH  15  16
HETATM   16  C   UNL     1     -10.847   6.168  69.179  1.00  0.00    -0.351 C  
BRANCH  16  17
HETATM   17  N   UNL     1     -10.927   6.068  70.647  1.00  0.00    -0.302 NA 
HETATM   18  C   UNL     1      -9.660   6.143  71.355  1.00  0.00    -0.159 C  
HETATM   19  C   UNL     1      -9.368   7.544  71.871  1.00  0.00    -0.171 C  
HETATM   20  C   UNL     1     -10.389   7.908  72.934  1.00  0.00    -0.413 C  
HETATM   21  C   UNL     1     -11.829   7.755  72.437  1.00  0.00    -0.371 C  
HETATM   22  C   UNL     1     -12.553   9.056  72.133  1.00  0.00    -0.391 C  
HETATM   23  C   UNL     1     -12.067   6.726  71.300  1.00  0.00    -0.370 C  
HETATM   24  O   UNL     1     -11.797  10.082  71.694  1.00  0.00    -0.365 OA 
HETATM   25  O   UNL     1     -13.768   9.173  72.246  1.00  0.00    -0.443 OA 
ENDBRANCH  16  17
ENDBRANCH  15  16
ENDBRANCH   8  15
ENDBRANCH   3   7
TORSDOF 5
ENDMDL
MODEL      124
REMARK 921   NORMALIZED FREE ENERGY PREDICTED BY IDOCK:   -4.58 KCAL/MOL
REMARK 922        TOTAL FREE ENERGY PREDICTED BY IDOCK:   -7.42 KCAL/MOL
REMARK 923 INTER-LIGAND FREE ENERGY PREDICTED BY IDOCK:   -6.36 KCAL/MOL
REMARK 924 INTRA-LIGAND FREE ENERGY PREDICTED BY IDOCK:   -1.07 KCAL/MOL
REMARK 927      BINDING AFFINITY PREDICTED BY RF-SCORE:    0.00 PKD
ROOT
HETATM    1  C   UNL     1     -10.678  14.710  65.283  1.00  0.00    -0.396 C  
HETATM    2  C   UNL     1     -10.831  14.103  66.642  1.00  0.00    -0.299 A  
HETATM    3  C   UNL     1     -10.024  13.128  67.252  1.00  0.00    -0.230 A  
HETATM    4  C   UNL     1     -11.972  13.797  68.666  1.00  0.00    -0.366 A  
HETATM    5  S   UNL     1     -10.662  12.719  68.813  1.00  0.00    -0.173 SA 
HETATM    6  C   UNL     1     -11.944  14.475  67.476  1.00  0.00    -0.358 A  
ENDROOT
BRANCH   3   7
HETATM    7  C   UNL     1      -8.854  12.394  66.792  1.00  0.00    -0.189 C  
HETATM    8  C   UNL     1      -7.619  12.820  67.161  1.00  0.00    -0.050 C  
BRANCH   7   9
HETATM    9  C   UNL     1      -8.960  11.156  66.014  1.00  0.00    -0.200 A  
HETATM   10  C   UNL     1      -9.549  10.854  64.772  1.00  0.00    -0.301 A  
HETATM   11  C   UNL     1      -8.613   8.771  65.309  1.00  0.00    -0.187 A  
HETATM   12  C   UNL     1      -9.349   9.477  64.396  1.00  0.00    -0.120 A  
HETATM   13  S   UNL     1      -8.177   9.727  66.640  1.00  0.00    -0.121 SA 
HETATM   14  C   UNL     1     -10.299  11.756  63.838  1.00  0.00    -0.428 C  
ENDBRANCH   7   9
BRANCH   8  15
HETATM   15  C   UNL     1      -7.283  13.936  68.131  1.00  0.00    -0.120 C  
BRANCH  15  16
HETATM   16  C   UNL     1      -7.061  15.339  67.481  1.00  0.00    -0.196 C  
BRANCH  16  17
HETATM   17  N   UNL     1      -7.251  16.433  68.449  1.00  0.00    -0.152 NA 
HETATM   18  C   UNL     1      -6.098  17.291  68.668  1.00  0.00    -0.165 C  
HETATM   19  C   UNL     1      -6.155  18.562  67.835  1.00  0.00    -0.187 C  
HETATM   20  C   UNL     1      -7.321  19.413  68.301  1.00  0.00    -0.343 C  
HETATM   21  C   UNL     1      -8.646  18.645  68.290  1.00  0.00    -0.347 C  
HETATM   22  C   UNL     1      -9.597  19.005  67.160  1.00  0.00    -0.312 C  
HETATM   23  C   UNL     1      -8.559  17.104  68.450  1.00  0.00    -0.246 C  
HETATM   24  O   UNL     1      -9.037  19.394  65.998  1.00  0.00    -0.414 OA 
HETATM   25  O   UNL     1     -10.815  18.922  67.276  1.00  0.00    -0.458 OA 
ENDBRANCH  16  17
ENDBRANCH  15  16
ENDBRANCH   8  15
ENDBRANCH   3   7
TORSDOF 5
ENDMDL
MODEL      125
REMARK 921   NORMALIZED FREE ENERGY PREDICTED BY IDOCK:   -4.58 KCAL/MOL
REMARK 922        TOTAL FREE ENERGY PREDICTED BY IDOCK:   -7.42 KCAL/MOL
REMARK 923 INTER-LIGAND FREE ENERGY PREDICTED BY IDOCK:   -6.29 KCAL/MOL
REMARK 924 INTRA-LIGAND FREE ENERGY PREDICTED BY IDOCK:   -1.13 KCAL/MOL
REMARK 927      BINDING AFFINITY PREDICTED BY RF-SCORE:    0.00 PKD
ROOT
HETATM    1  C   UNL     1     -10.591  13.486  64.912  1.00  0.00    -0.409 C  
HETATM    2  C   UNL     1     -10.783  13.710  66.378  1.00  0.00    -0.281 A  
HETATM    3  C   UNL     1      -9.802  13.755  67.384  1.00  0.00    -0.238 A  
HETATM    4  C   UNL     1     -12.120  14.007  68.280  1.00  0.00    -0.277 A  
HETATM    5  S   UNL     1     -10.548  13.984  68.934  1.00  0.00    -0.193 SA 
HETATM    6  C   UNL     1     -12.109  13.860  66.918  1.00  0.00    -0.467 A  
ENDROOT
BRANCH   3   7
HETATM    7  C   UNL     1      -8.357  13.582  67.353  1.00  0.00    -0.199 C  
HETATM    8  C   UNL     1      -7.563  14.669  67.181  1.00  0.00    -0.078 C  
BRANCH   7   9
HETATM    9  C   UNL     1      -7.718  12.284  67.591  1.00  0.00    -0.144 A  
HETATM   10  C   UNL     1      -7.644  11.101  66.834  1.00  0.00    -0.145 A  
HETATM   11  C   UNL     1      -6.316  10.502  68.672  1.00  0.00    -0.047 A  
HETATM   12  C   UNL     1      -6.847  10.089  67.481  1.00  0.00    -0.081 A  
HETATM   13  S   UNL     1      -6.783  12.088  69.053  1.00  0.00    -0.098 SA 
HETATM   14  C   UNL     1      -8.248  10.797  65.494  1.00  0.00    -0.104 C  
ENDBRANCH   7   9
BRANCH   8  15
HETATM   15  C   UNL     1      -7.992  16.123  67.133  1.00  0.00    -0.232 C  
BRANCH  15  16
HETATM   16  C   UNL     1      -8.864  16.520  65.899  1.00  0.00    -0.113 C  
BRANCH  16  17
HETATM   17  N   UNL     1      -9.137  17.967  65.858  1.00  0.00    -0.492 NA 
HETATM   18  C   UNL     1     -10.432  18.381  66.372  1.00  0.00    -0.383 C  
HETATM   19  C   UNL     1     -10.358  18.846  67.819  1.00  0.00    -0.490 C  
HETATM   20  C   UNL     1      -9.527  20.113  67.895  1.00  0.00    -0.438 C  
HETATM   21  C   UNL     1      -8.143  19.943  67.263  1.00  0.00    -0.341 C  
HETATM   22  C   UNL     1      -6.989  19.829  68.247  1.00  0.00    -0.298 C  
HETATM   23  C   UNL     1      -8.012  18.867  66.153  1.00  0.00    -0.235 C  
HETATM   24  O   UNL     1      -7.261  19.254  69.435  1.00  0.00    -0.308 OA 
HETATM   25  O   UNL     1      -5.856  20.209  67.975  1.00  0.00    -0.205 OA 
ENDBRANCH  16  17
ENDBRANCH  15  16
ENDBRANCH   8  15
ENDBRANCH   3   7
TORSDOF 5
ENDMDL
MODEL      126
REMARK 921   NORMALIZED FREE ENERGY PREDICTED BY IDOCK:   -4.57 KCAL/MOL
REMARK 922        TOTAL FREE ENERGY PREDICTED BY IDOCK:   -7.41 KCAL/MOL
REMARK 923 INTER-LIGAND FREE ENERGY PREDICTED BY IDOCK:   -5.93 KCAL/MOL
REMARK 924 INTRA-LIGAND FREE ENERGY PREDICTED BY IDOCK:   -1.48 KCAL/MOL
REMARK 927      BINDING AFFINITY PREDICTED BY RF-SCORE:    0.00 PKD
ROOT
HETATM    1  C   UNL     1      -8.238   9.753  69.511  1.00  0.00    -0.146 C  
HETATM    2  C   UNL     1      -9.656  10.202  69.350  1.00  0.00    -0.249 A  
HETATM    3  C   UNL     1     -10.226  10.904  68.275  1.00  0.00    -0.173 A  
HETATM    4  C   UNL     1     -11.850  10.480  70.126  1.00  0.00    -0.320 A  
HETATM    5  S   UNL     1     -11.898  11.236  68.600  1.00  0.00    -0.245 SA 
HETATM    6  C   UNL     1     -10.610   9.967  70.403  1.00  0.00    -0.364 A  
ENDROOT
BRANCH   3   7
HETATM    7  C   UNL     1      -9.665  11.430  67.039  1.00  0.00    -0.210 C  
HETATM    8  C   UNL     1      -9.497  10.596  65.981  1.00  0.00    -0.233 C  
BRANCH   7   9
HETATM    9  C   UNL     1      -9.355  12.852  66.861  1.00  0.00    -0.240 A  
HETATM   10  C   UNL     1      -9.900  13.855  66.039  1.00  0.00    -0.306 A  
HETATM   11  C   UNL     1      -8.314  15.108  67.230  1.00  0.00    -0.201 A  
HETATM   12  C   UNL     1      -9.278  15.137  66.259  1.00  0.00    -0.336 A  
HETATM   13  S   UNL     1      -8.115  13.551  67.872  1.00  0.00    -0.182 SA 
HETATM   14  C   UNL     1     -11.009  13.753  65.034  1.00  0.00    -0.359 C  
ENDBRANCH   7   9
BRANCH   8  15
HETATM   15  C   UNL     1      -9.945   9.152  65.867  1.00  0.00    -0.232 C  
BRANCH  15  16
HETATM   16  C   UNL     1      -8.890   8.089  66.314  1.00  0.00    -0.162 C  
BRANCH  16  17
HETATM   17  N   UNL     1      -9.489   6.754  66.484  1.00  0.00    -0.165 NA 
HETATM   18  C   UNL     1      -8.566   5.634  66.410  1.00  0.00    -0.123 C  
HETATM   19  C   UNL     1      -8.117   5.163  67.785  1.00  0.00    -0.099 C  
HETATM   20  C   UNL     1      -9.308   4.591  68.531  1.00  0.00    -0.198 C  
HETATM   21  C   UNL     1     -10.479   5.573  68.603  1.00  0.00    -0.240 C  
HETATM   22  C   UNL     1     -10.694   6.231  69.957  1.00  0.00    -0.285 C  
HETATM   23  C   UNL     1     -10.572   6.630  67.470  1.00  0.00    -0.281 C  
HETATM   24  O   UNL     1      -9.596   6.439  70.710  1.00  0.00    -0.177 OA 
HETATM   25  O   UNL     1     -11.800   6.588  70.344  1.00  0.00    -0.400 OA 
ENDBRANCH  16  17
ENDBRANCH  15  16
ENDBRANCH   8  15
ENDBRANCH   3   7
TORSDOF 5
ENDMDL
MODEL      127
REMARK 921   NORMALIZED FREE ENERGY PREDICTED BY IDOCK:   -4.57 KCAL/MOL
REMARK 922        TOTAL FREE ENERGY PREDICTED BY IDOCK:   -7.40 KCAL/MOL
REMARK 923 INTER-LIGAND FREE ENERGY PREDICTED BY IDOCK:   -5.98 KCAL/MOL
REMARK 924 INTRA-LIGAND FREE ENERGY PREDICTED BY IDOCK:   -1.42 KCAL/MOL
REMARK 927      BINDING AFFINITY PREDICTED BY RF-SCORE:    0.00 PKD
ROOT
HETATM    1  C   UNL     1     -10.581   7.171  67.088  1.00  0.00    -0.417 C  
HETATM    2  C   UNL     1      -9.317   7.754  67.637  1.00  0.00    -0.160 A  
HETATM    3  C   UNL     1      -9.112   8.351  68.893  1.00  0.00    -0.147 A  
HETATM    4  C   UNL     1      -7.072   8.401  67.452  1.00  0.00    -0.080 A  
HETATM    5  S   UNL     1      -7.479   8.922  69.022  1.00  0.00    -0.075 SA 
HETATM    6  C   UNL     1      -8.129   7.792  66.826  1.00  0.00    -0.115 A  
ENDROOT
BRANCH   3   7
HETATM    7  C   UNL     1     -10.007   8.618  70.011  1.00  0.00    -0.191 C  
HETATM    8  C   UNL     1     -10.622   9.825  70.091  1.00  0.00    -0.337 C  
BRANCH   7   9
HETATM    9  C   UNL     1     -10.339   7.599  71.011  1.00  0.00    -0.202 A  
HETATM   10  C   UNL     1      -9.649   7.095  72.128  1.00  0.00    -0.160 A  
HETATM   11  C   UNL     1     -11.660   5.900  72.305  1.00  0.00    -0.282 A  
HETATM   12  C   UNL     1     -10.422   6.111  72.847  1.00  0.00    -0.238 A  
HETATM   13  S   UNL     1     -11.910   6.843  70.918  1.00  0.00    -0.380 SA 
HETATM   14  C   UNL     1      -8.288   7.460  72.642  1.00  0.00    -0.131 C  
ENDBRANCH   7   9
BRANCH   8  15
HETATM   15  C   UNL     1     -10.597  10.941  69.064  1.00  0.00    -0.248 C  
BRANCH  15  16
HETATM   16  C   UNL     1     -11.814  11.920  69.115  1.00  0.00    -0.311 C  
BRANCH  16  17
HETATM   17  N   UNL     1     -11.891  12.767  67.912  1.00  0.00    -0.356 NA 
HETATM   18  C   UNL     1     -11.277  14.080  68.023  1.00  0.00    -0.279 C  
HETATM   19  C   UNL     1      -9.866  14.108  67.458  1.00  0.00    -0.235 C  
HETATM   20  C   UNL     1      -9.921  13.870  65.961  1.00  0.00    -0.325 C  
HETATM   21  C   UNL     1     -10.671  12.585  65.601  1.00  0.00    -0.297 C  
HETATM   22  C   UNL     1      -9.794  11.424  65.159  1.00  0.00    -0.260 C  
HETATM   23  C   UNL     1     -11.741  12.096  66.613  1.00  0.00    -0.313 C  
HETATM   24  O   UNL     1      -8.562  11.354  65.701  1.00  0.00    -0.097 OA 
HETATM   25  O   UNL     1     -10.185  10.569  64.372  1.00  0.00    -0.346 OA 
ENDBRANCH  16  17
ENDBRANCH  15  16
ENDBRANCH   8  15
ENDBRANCH   3   7
TORSDOF 5
ENDMDL
MODEL      128
REMARK 921   NORMALIZED FREE ENERGY PREDICTED BY IDOCK:   -4.56 KCAL/MOL
REMARK 922        TOTAL FREE ENERGY PREDICTED BY IDOCK:   -7.40 KCAL/MOL
REMARK 923 INTER-LIGAND FREE ENERGY PREDICTED BY IDOCK:   -6.33 KCAL/MOL
REMARK 924 INTRA-LIGAND FREE ENERGY PREDICTED BY IDOCK:   -1.07 KCAL/MOL
REMARK 927      BINDING AFFINITY PREDICTED BY RF-SCORE:    0.00 PKD
ROOT
HETATM    1  C   UNL     1      -6.106  11.289  66.459  1.00  0.00    -0.139 C  
HETATM    2  C   UNL     1      -7.322  10.624  65.897  1.00  0.00    -0.128 A  
HETATM    3  C   UNL     1      -8.671  10.931  66.145  1.00  0.00    -0.184 A  
HETATM    4  C   UNL     1      -8.387   8.964  64.631  1.00  0.00    -0.170 A  
HETATM    5  S   UNL     1      -9.700   9.824  65.293  1.00  0.00    -0.244 SA 
HETATM    6  C   UNL     1      -7.184   9.491  65.020  1.00  0.00    -0.110 A  
ENDROOT
BRANCH   3   7
HETATM    7  C   UNL     1      -9.311  11.917  67.004  1.00  0.00    -0.188 C  
HETATM    8  C   UNL     1      -9.449  11.652  68.328  1.00  0.00    -0.191 C  
BRANCH   7   9
HETATM    9  C   UNL     1      -9.737  13.229  66.509  1.00  0.00    -0.273 A  
HETATM   10  C   UNL     1     -10.810  13.645  65.699  1.00  0.00    -0.280 A  
HETATM   11  C   UNL     1      -9.834  15.720  66.196  1.00  0.00    -0.315 A  
HETATM   12  C   UNL     1     -10.836  15.076  65.523  1.00  0.00    -0.360 A  
HETATM   13  S   UNL     1      -8.829  14.631  67.021  1.00  0.00    -0.244 SA 
HETATM   14  C   UNL     1     -11.882  12.818  65.055  1.00  0.00    -0.423 C  
ENDBRANCH   7   9
BRANCH   8  15
HETATM   15  C   UNL     1      -8.893  10.464  69.091  1.00  0.00    -0.180 C  
BRANCH  15  16
HETATM   16  C   UNL     1      -9.954   9.413  69.552  1.00  0.00    -0.191 C  
BRANCH  16  17
HETATM   17  N   UNL     1     -10.478   9.710  70.896  1.00  0.00    -0.306 NA 
HETATM   18  C   UNL     1     -11.805  10.300  70.941  1.00  0.00    -0.377 C  
HETATM   19  C   UNL     1     -12.891   9.264  71.189  1.00  0.00    -0.285 C  
HETATM   20  C   UNL     1     -12.717   8.680  72.578  1.00  0.00    -0.357 C  
HETATM   21  C   UNL     1     -11.310   8.121  72.805  1.00  0.00    -0.406 C  
HETATM   22  C   UNL     1     -11.205   6.604  72.795  1.00  0.00    -0.227 C  
HETATM   23  C   UNL     1     -10.168   8.746  71.961  1.00  0.00    -0.331 C  
HETATM   24  O   UNL     1     -12.072   5.942  72.003  1.00  0.00    -0.214 OA 
HETATM   25  O   UNL     1     -10.359   6.001  73.445  1.00  0.00    -0.204 OA 
ENDBRANCH  16  17
ENDBRANCH  15  16
ENDBRANCH   8  15
ENDBRANCH   3   7
TORSDOF 5
ENDMDL
MODEL      129
REMARK 921   NORMALIZED FREE ENERGY PREDICTED BY IDOCK:   -4.55 KCAL/MOL
REMARK 922        TOTAL FREE ENERGY PREDICTED BY IDOCK:   -7.38 KCAL/MOL
REMARK 923 INTER-LIGAND FREE ENERGY PREDICTED BY IDOCK:   -5.92 KCAL/MOL
REMARK 924 INTRA-LIGAND FREE ENERGY PREDICTED BY IDOCK:   -1.46 KCAL/MOL
REMARK 927      BINDING AFFINITY PREDICTED BY RF-SCORE:    0.00 PKD
ROOT
HETATM    1  C   UNL     1      -8.265   9.047  68.447  1.00  0.00    -0.116 C  
HETATM    2  C   UNL     1      -9.429   8.126  68.624  1.00  0.00    -0.147 A  
HETATM    3  C   UNL     1     -10.281   8.008  69.735  1.00  0.00    -0.206 A  
HETATM    4  C   UNL     1     -10.818   6.372  67.926  1.00  0.00    -0.322 A  
HETATM    5  S   UNL     1     -11.443   6.749  69.464  1.00  0.00    -0.124 SA 
HETATM    6  C   UNL     1      -9.760   7.176  67.593  1.00  0.00    -0.172 A  
ENDROOT
BRANCH   3   7
HETATM    7  C   UNL     1     -10.305   8.677  71.028  1.00  0.00    -0.275 C  
HETATM    8  C   UNL     1     -11.002   9.833  71.162  1.00  0.00    -0.386 C  
BRANCH   7   9
HETATM    9  C   UNL     1      -9.674   8.102  72.220  1.00  0.00    -0.254 A  
HETATM   10  C   UNL     1      -8.360   8.142  72.722  1.00  0.00    -0.240 A  
HETATM   11  C   UNL     1      -9.419   6.924  74.424  1.00  0.00    -0.224 A  
HETATM   12  C   UNL     1      -8.236   7.448  73.980  1.00  0.00    -0.198 A  
HETATM   13  S   UNL     1     -10.688   7.223  73.339  1.00  0.00    -0.304 SA 
HETATM   14  C   UNL     1      -7.148   8.808  72.141  1.00  0.00    -0.007 C  
ENDBRANCH   7   9
BRANCH   8  15
HETATM   15  C   UNL     1     -11.901  10.490  70.132  1.00  0.00    -0.404 C  
BRANCH  15  16
HETATM   16  C   UNL     1     -11.814  12.049  70.069  1.00  0.00    -0.314 C  
BRANCH  16  17
HETATM   17  N   UNL     1     -12.145  12.568  68.731  1.00  0.00    -0.206 NA 
HETATM   18  C   UNL     1     -11.987  14.001  68.552  1.00  0.00    -0.348 C  
HETATM   19  C   UNL     1     -10.653  14.362  67.917  1.00  0.00    -0.240 C  
HETATM   20  C   UNL     1     -10.612  13.822  66.499  1.00  0.00    -0.279 C  
HETATM   21  C   UNL     1     -10.904  12.321  66.437  1.00  0.00    -0.299 C  
HETATM   22  C   UNL     1      -9.695  11.434  66.182  1.00  0.00    -0.219 C  
HETATM   23  C   UNL     1     -11.772  11.732  67.581  1.00  0.00    -0.250 C  
HETATM   24  O   UNL     1      -8.513  11.869  66.661  1.00  0.00    -0.185 OA 
HETATM   25  O   UNL     1      -9.781  10.359  65.599  1.00  0.00    -0.204 OA 
ENDBRANCH  16  17
ENDBRANCH  15  16
ENDBRANCH   8  15
ENDBRANCH   3   7
TORSDOF 5
ENDMDL
MODEL      130
REMARK 921   NORMALIZED FREE ENERGY PREDICTED BY IDOCK:   -4.54 KCAL/MOL
REMARK 922        TOTAL FREE ENERGY PREDICTED BY IDOCK:   -7.37 KCAL/MOL
REMARK 923 INTER-LIGAND FREE ENERGY PREDICTED BY IDOCK:   -6.31 KCAL/MOL
REMARK 924 INTRA-LIGAND FREE ENERGY PREDICTED BY IDOCK:   -1.06 KCAL/MOL
REMARK 927      BINDING AFFINITY PREDICTED BY RF-SCORE:    0.00 PKD
ROOT
HETATM    1  C   UNL     1      -9.957  16.328  66.186  1.00  0.00    -0.355 C  
HETATM    2  C   UNL     1     -10.844  15.183  65.813  1.00  0.00    -0.358 A  
HETATM    3  C   UNL     1     -11.172  14.054  66.583  1.00  0.00    -0.323 A  
HETATM    4  C   UNL     1     -12.183  13.996  64.300  1.00  0.00    -0.418 A  
HETATM    5  S   UNL     1     -12.194  12.988  65.672  1.00  0.00    -0.447 SA 
HETATM    6  C   UNL     1     -11.440  15.129  64.504  1.00  0.00    -0.319 A  
ENDROOT
BRANCH   3   7
HETATM    7  C   UNL     1     -10.763  13.620  67.912  1.00  0.00    -0.257 C  
HETATM    8  C   UNL     1      -9.613  12.913  68.052  1.00  0.00    -0.221 C  
BRANCH   7   9
HETATM    9  C   UNL     1     -11.503  13.993  69.121  1.00  0.00    -0.296 A  
HETATM   10  C   UNL     1     -12.071  13.242  70.165  1.00  0.00    -0.403 A  
HETATM   11  C   UNL     1     -12.533  15.416  70.916  1.00  0.00    -0.418 A  
HETATM   12  C   UNL     1     -12.668  14.079  71.176  1.00  0.00    -0.436 A  
HETATM   13  S   UNL     1     -11.723  15.694  69.453  1.00  0.00    -0.379 SA 
HETATM   14  C   UNL     1     -12.104  11.753  70.348  1.00  0.00    -0.440 C  
ENDBRANCH   7   9
BRANCH   8  15
HETATM   15  C   UNL     1      -8.587  12.602  66.979  1.00  0.00    -0.181 C  
BRANCH  15  16
HETATM   16  C   UNL     1      -8.740  11.206  66.295  1.00  0.00    -0.182 C  
BRANCH  16  17
HETATM   17  N   UNL     1      -7.453  10.690  65.799  1.00  0.00    -0.141 NA 
HETATM   18  C   UNL     1      -6.493  10.300  66.819  1.00  0.00    -0.073 C  
HETATM   19  C   UNL     1      -6.523   8.805  67.101  1.00  0.00    -0.061 C  
HETATM   20  C   UNL     1      -6.052   8.055  65.869  1.00  0.00    -0.038 C  
HETATM   21  C   UNL     1      -6.848   8.431  64.616  1.00  0.00    -0.069 C  
HETATM   22  C   UNL     1      -7.851   7.389  64.146  1.00  0.00    -0.120 C  
HETATM   23  C   UNL     1      -7.491   9.844  64.598  1.00  0.00    -0.140 C  
HETATM   24  O   UNL     1      -8.418   6.622  65.097  1.00  0.00    -0.122 OA 
HETATM   25  O   UNL     1      -8.160   7.262  62.967  1.00  0.00    -0.118 OA 
ENDBRANCH  16  17
ENDBRANCH  15  16
ENDBRANCH   8  15
ENDBRANCH   3   7
TORSDOF 5
ENDMDL
MODEL      131
REMARK 921   NORMALIZED FREE ENERGY PREDICTED BY IDOCK:   -4.54 KCAL/MOL
REMARK 922        TOTAL FREE ENERGY PREDICTED BY IDOCK:   -7.36 KCAL/MOL
REMARK 923 INTER-LIGAND FREE ENERGY PREDICTED BY IDOCK:   -6.27 KCAL/MOL
REMARK 924 INTRA-LIGAND FREE ENERGY PREDICTED BY IDOCK:   -1.09 KCAL/MOL
REMARK 927      BINDING AFFINITY PREDICTED BY RF-SCORE:    0.00 PKD
ROOT
HETATM    1  C   UNL     1     -10.887   6.555  68.052  1.00  0.00    -0.372 C  
HETATM    2  C   UNL     1      -9.481   7.066  68.067  1.00  0.00    -0.126 A  
HETATM    3  C   UNL     1      -8.930   8.064  68.889  1.00  0.00    -0.141 A  
HETATM    4  C   UNL     1      -7.294   7.161  67.231  1.00  0.00    -0.091 A  
HETATM    5  S   UNL     1      -7.267   8.328  68.472  1.00  0.00    -0.090 SA 
HETATM    6  C   UNL     1      -8.520   6.560  67.123  1.00  0.00    -0.112 A  
ENDROOT
BRANCH   3   7
HETATM    7  C   UNL     1      -9.506   8.912  69.923  1.00  0.00    -0.177 C  
HETATM    8  C   UNL     1      -9.858  10.186  69.613  1.00  0.00    -0.254 C  
BRANCH   7   9
HETATM    9  C   UNL     1      -9.803   8.416  71.270  1.00  0.00    -0.198 A  
HETATM   10  C   UNL     1     -10.994   8.008  71.898  1.00  0.00    -0.321 A  
HETATM   11  C   UNL     1      -9.451   7.583  73.613  1.00  0.00    -0.284 A  
HETATM   12  C   UNL     1     -10.768   7.548  73.246  1.00  0.00    -0.437 A  
HETATM   13  S   UNL     1      -8.468   8.192  72.372  1.00  0.00    -0.193 SA 
HETATM   14  C   UNL     1     -12.390   7.978  71.349  1.00  0.00    -0.328 C  
ENDBRANCH   7   9
BRANCH   8  15
HETATM   15  C   UNL     1      -9.843  10.837  68.243  1.00  0.00    -0.177 C  
BRANCH  15  16
HETATM   16  C   UNL     1      -8.778  11.964  68.052  1.00  0.00    -0.173 C  
BRANCH  16  17
HETATM   17  N   UNL     1      -9.332  13.135  67.351  1.00  0.00    -0.205 NA 
HETATM   18  C   UNL     1     -10.312  12.847  66.316  1.00  0.00    -0.268 C  
HETATM   19  C   UNL     1     -11.741  12.979  66.820  1.00  0.00    -0.440 C  
HETATM   20  C   UNL     1     -12.015  14.429  67.171  1.00  0.00    -0.419 C  
HETATM   21  C   UNL     1     -10.991  14.995  68.159  1.00  0.00    -0.281 C  
HETATM   22  C   UNL     1     -11.491  15.169  69.584  1.00  0.00    -0.293 C  
HETATM   23  C   UNL     1      -9.585  14.337  68.157  1.00  0.00    -0.218 C  
HETATM   24  O   UNL     1     -12.423  14.294  70.010  1.00  0.00    -0.338 OA 
HETATM   25  O   UNL     1     -11.054  16.037  70.331  1.00  0.00    -0.336 OA 
ENDBRANCH  16  17
ENDBRANCH  15  16
ENDBRANCH   8  15
ENDBRANCH   3   7
TORSDOF 5
ENDMDL
MODEL      132
REMARK 921   NORMALIZED FREE ENERGY PREDICTED BY IDOCK:   -4.52 KCAL/MOL
REMARK 922        TOTAL FREE ENERGY PREDICTED BY IDOCK:   -7.35 KCAL/MOL
REMARK 923 INTER-LIGAND FREE ENERGY PREDICTED BY IDOCK:   -6.32 KCAL/MOL
REMARK 924 INTRA-LIGAND FREE ENERGY PREDICTED BY IDOCK:   -1.03 KCAL/MOL
REMARK 927      BINDING AFFINITY PREDICTED BY RF-SCORE:    0.00 PKD
ROOT
HETATM    1  C   UNL     1      -9.798  16.210  66.056  1.00  0.00    -0.375 C  
HETATM    2  C   UNL     1     -10.831  15.160  65.798  1.00  0.00    -0.358 A  
HETATM    3  C   UNL     1     -11.182  14.071  66.614  1.00  0.00    -0.323 A  
HETATM    4  C   UNL     1     -12.442  14.111  64.457  1.00  0.00    -0.322 A  
HETATM    5  S   UNL     1     -12.401  13.112  65.836  1.00  0.00    -0.326 SA 
HETATM    6  C   UNL     1     -11.571  15.164  64.563  1.00  0.00    -0.330 A  
ENDROOT
BRANCH   3   7
HETATM    7  C   UNL     1     -10.674  13.600  67.895  1.00  0.00    -0.257 C  
HETATM    8  C   UNL     1      -9.800  12.563  67.919  1.00  0.00    -0.207 C  
BRANCH   7   9
HETATM    9  C   UNL     1     -11.004  14.263  69.161  1.00  0.00    -0.261 A  
HETATM   10  C   UNL     1     -10.532  15.434  69.779  1.00  0.00    -0.303 A  
HETATM   11  C   UNL     1     -12.175  14.783  71.321  1.00  0.00    -0.333 A  
HETATM   12  C   UNL     1     -11.208  15.704  71.023  1.00  0.00    -0.411 A  
HETATM   13  S   UNL     1     -12.270  13.567  70.142  1.00  0.00    -0.298 SA 
HETATM   14  C   UNL     1      -9.479  16.393  69.306  1.00  0.00    -0.182 C  
ENDBRANCH   7   9
BRANCH   8  15
HETATM   15  C   UNL     1      -9.157  11.873  66.730  1.00  0.00    -0.197 C  
BRANCH  15  16
HETATM   16  C   UNL     1      -9.757  10.478  66.365  1.00  0.00    -0.198 C  
BRANCH  16  17
HETATM   17  N   UNL     1      -8.801   9.384  66.611  1.00  0.00    -0.133 NA 
HETATM   18  C   UNL     1      -8.084   9.443  67.874  1.00  0.00    -0.103 C  
HETATM   19  C   UNL     1      -8.729   8.577  68.945  1.00  0.00    -0.131 C  
HETATM   20  C   UNL     1      -8.616   7.118  68.543  1.00  0.00    -0.124 C  
HETATM   21  C   UNL     1      -9.191   6.850  67.150  1.00  0.00    -0.153 C  
HETATM   22  C   UNL     1     -10.537   6.143  67.127  1.00  0.00    -0.305 C  
HETATM   23  C   UNL     1      -9.192   8.042  66.156  1.00  0.00    -0.163 C  
HETATM   24  O   UNL     1     -11.367   6.387  68.161  1.00  0.00    -0.266 OA 
HETATM   25  O   UNL     1     -10.877   5.409  66.206  1.00  0.00    -0.260 OA 
ENDBRANCH  16  17
ENDBRANCH  15  16
ENDBRANCH   8  15
ENDBRANCH   3   7
TORSDOF 5
ENDMDL
MODEL      133
REMARK 921   NORMALIZED FREE ENERGY PREDICTED BY IDOCK:   -4.52 KCAL/MOL
REMARK 922        TOTAL FREE ENERGY PREDICTED BY IDOCK:   -7.34 KCAL/MOL
REMARK 923 INTER-LIGAND FREE ENERGY PREDICTED BY IDOCK:   -6.06 KCAL/MOL
REMARK 924 INTRA-LIGAND FREE ENERGY PREDICTED BY IDOCK:   -1.28 KCAL/MOL
REMARK 927      BINDING AFFINITY PREDICTED BY RF-SCORE:    0.00 PKD
ROOT
HETATM    1  C   UNL     1      -8.223   8.696  66.775  1.00  0.00    -0.108 C  
HETATM    2  C   UNL     1      -9.249   7.832  67.437  1.00  0.00    -0.156 A  
HETATM    3  C   UNL     1      -9.553   7.742  68.806  1.00  0.00    -0.154 A  
HETATM    4  C   UNL     1     -10.891   6.160  67.409  1.00  0.00    -0.343 A  
HETATM    5  S   UNL     1     -10.784   6.546  69.064  1.00  0.00    -0.306 SA 
HETATM    6  C   UNL     1     -10.033   6.914  66.652  1.00  0.00    -0.211 A  
ENDROOT
BRANCH   3   7
HETATM    7  C   UNL     1      -8.992   8.393  69.981  1.00  0.00    -0.138 C  
HETATM    8  C   UNL     1      -9.416   9.639  70.312  1.00  0.00    -0.300 C  
BRANCH   7   9
HETATM    9  C   UNL     1      -8.048   7.717  70.876  1.00  0.00    -0.102 A  
HETATM   10  C   UNL     1      -6.882   6.966  70.645  1.00  0.00    -0.058 A  
HETATM   11  C   UNL     1      -6.915   6.973  72.991  1.00  0.00    -0.073 A  
HETATM   12  C   UNL     1      -6.257   6.538  71.872  1.00  0.00    -0.042 A  
HETATM   13  S   UNL     1      -8.300   7.869  72.597  1.00  0.00    -0.162 SA 
HETATM   14  C   UNL     1      -6.237   6.598  69.341  1.00  0.00    -0.034 C  
ENDBRANCH   7   9
BRANCH   8  15
HETATM   15  C   UNL     1     -10.533  10.434  69.664  1.00  0.00    -0.279 C  
BRANCH  15  16
HETATM   16  C   UNL     1     -10.078  11.444  68.561  1.00  0.00    -0.206 C  
BRANCH  16  17
HETATM   17  N   UNL     1     -10.974  12.610  68.478  1.00  0.00    -0.249 NA 
HETATM   18  C   UNL     1     -10.346  13.905  68.685  1.00  0.00    -0.237 C  
HETATM   19  C   UNL     1      -9.992  14.592  67.375  1.00  0.00    -0.231 C  
HETATM   20  C   UNL     1     -11.268  14.934  66.629  1.00  0.00    -0.340 C  
HETATM   21  C   UNL     1     -12.171  13.714  66.425  1.00  0.00    -0.472 C  
HETATM   22  C   UNL     1     -12.193  13.151  65.013  1.00  0.00    -0.440 C  
HETATM   23  C   UNL     1     -12.034  12.566  67.460  1.00  0.00    -0.219 C  
HETATM   24  O   UNL     1     -11.061  13.278  64.293  1.00  0.00    -0.367 OA 
HETATM   25  O   UNL     1     -13.174  12.581  64.550  1.00  0.00    -0.832 OA 
ENDBRANCH  16  17
ENDBRANCH  15  16
ENDBRANCH   8  15
ENDBRANCH   3   7
TORSDOF 5
ENDMDL
MODEL      134
REMARK 921   NORMALIZED FREE ENERGY PREDICTED BY IDOCK:   -4.51 KCAL/MOL
REMARK 922        TOTAL FREE ENERGY PREDICTED BY IDOCK:   -7.32 KCAL/MOL
REMARK 923 INTER-LIGAND FREE ENERGY PREDICTED BY IDOCK:   -5.99 KCAL/MOL
REMARK 924 INTRA-LIGAND FREE ENERGY PREDICTED BY IDOCK:   -1.33 KCAL/MOL
REMARK 927      BINDING AFFINITY PREDICTED BY RF-SCORE:    0.00 PKD
ROOT
HETATM    1  C   UNL     1      -8.720   9.075  70.700  1.00  0.00    -0.251 C  
HETATM    2  C   UNL     1      -9.923   9.724  70.093  1.00  0.00    -0.315 A  
HETATM    3  C   UNL     1     -10.048  10.295  68.815  1.00  0.00    -0.187 A  
HETATM    4  C   UNL     1     -12.125  10.521  70.185  1.00  0.00    -0.300 A  
HETATM    5  S   UNL     1     -11.635  10.968  68.616  1.00  0.00    -0.299 SA 
HETATM    6  C   UNL     1     -11.132   9.863  70.862  1.00  0.00    -0.418 A  
ENDROOT
BRANCH   3   7
HETATM    7  C   UNL     1      -9.103  10.471  67.722  1.00  0.00    -0.140 C  
HETATM    8  C   UNL     1      -8.517  11.682  67.542  1.00  0.00    -0.150 C  
BRANCH   7   9
HETATM    9  C   UNL     1      -8.690   9.362  66.856  1.00  0.00    -0.127 A  
HETATM   10  C   UNL     1      -9.270   8.117  66.555  1.00  0.00    -0.237 A  
HETATM   11  C   UNL     1      -7.383   8.046  65.162  1.00  0.00    -0.074 A  
HETATM   12  C   UNL     1      -8.495   7.374  65.592  1.00  0.00    -0.137 A  
HETATM   13  S   UNL     1      -7.229   9.556  65.920  1.00  0.00    -0.099 SA 
HETATM   14  C   UNL     1     -10.543   7.516  67.075  1.00  0.00    -0.409 C  
ENDBRANCH   7   9
BRANCH   8  15
HETATM   15  C   UNL     1      -8.628  12.900  68.439  1.00  0.00    -0.120 C  
BRANCH  15  16
HETATM   16  C   UNL     1      -7.474  13.943  68.291  1.00  0.00    -0.118 C  
BRANCH  16  17
HETATM   17  N   UNL     1      -7.987  15.312  68.109  1.00  0.00    -0.125 NA 
HETATM   18  C   UNL     1      -7.968  15.819  66.747  1.00  0.00    -0.238 C  
HETATM   19  C   UNL     1      -9.311  15.657  66.050  1.00  0.00    -0.384 C  
HETATM   20  C   UNL     1     -10.340  16.534  66.739  1.00  0.00    -0.296 C  
HETATM   21  C   UNL     1     -10.424  16.264  68.243  1.00  0.00    -0.284 C  
HETATM   22  C   UNL     1     -11.649  15.486  68.696  1.00  0.00    -0.368 C  
HETATM   23  C   UNL     1      -9.147  15.703  68.923  1.00  0.00    -0.217 C  
HETATM   24  O   UNL     1     -12.155  14.591  67.824  1.00  0.00    -0.338 OA 
HETATM   25  O   UNL     1     -12.145  15.631  69.808  1.00  0.00    -0.361 OA 
ENDBRANCH  16  17
ENDBRANCH  15  16
ENDBRANCH   8  15
ENDBRANCH   3   7
TORSDOF 5
ENDMDL
MODEL      135
REMARK 921   NORMALIZED FREE ENERGY PREDICTED BY IDOCK:   -4.50 KCAL/MOL
REMARK 922        TOTAL FREE ENERGY PREDICTED BY IDOCK:   -7.31 KCAL/MOL
REMARK 923 INTER-LIGAND FREE ENERGY PREDICTED BY IDOCK:   -6.09 KCAL/MOL
REMARK 924 INTRA-LIGAND FREE ENERGY PREDICTED BY IDOCK:   -1.23 KCAL/MOL
REMARK 927      BINDING AFFINITY PREDICTED BY RF-SCORE:    0.00 PKD
ROOT
HETATM    1  C   UNL     1      -7.907   7.120  64.411  1.00  0.00    -0.115 C  
HETATM    2  C   UNL     1      -7.342   7.619  65.703  1.00  0.00    -0.073 A  
HETATM    3  C   UNL     1      -7.911   7.542  66.985  1.00  0.00    -0.116 A  
HETATM    4  C   UNL     1      -5.727   8.754  66.965  1.00  0.00    -0.045 A  
HETATM    5  S   UNL     1      -6.879   8.322  68.142  1.00  0.00    -0.070 SA 
HETATM    6  C   UNL     1      -6.083   8.318  65.716  1.00  0.00    -0.045 A  
ENDROOT
BRANCH   3   7
HETATM    7  C   UNL     1      -9.179   7.012  67.466  1.00  0.00    -0.128 C  
HETATM    8  C   UNL     1     -10.311   7.740  67.286  1.00  0.00    -0.371 C  
BRANCH   7   9
HETATM    9  C   UNL     1      -9.296   5.678  68.062  1.00  0.00    -0.108 A  
HETATM   10  C   UNL     1      -9.327   4.384  67.512  1.00  0.00    -0.183 A  
HETATM   11  C   UNL     1      -9.415   3.868  69.799  1.00  0.00    -0.193 A  
HETATM   12  C   UNL     1      -9.409   3.363  68.527  1.00  0.00    -0.231 A  
HETATM   13  S   UNL     1      -9.353   5.562  69.804  1.00  0.00    -0.148 SA 
HETATM   14  C   UNL     1      -9.264   3.967  66.073  1.00  0.00    -0.153 C  
ENDBRANCH   7   9
BRANCH   8  15
HETATM   15  C   UNL     1     -10.458   9.034  66.509  1.00  0.00    -0.192 C  
BRANCH  15  16
HETATM   16  C   UNL     1      -9.977  10.319  67.257  1.00  0.00    -0.190 C  
BRANCH  16  17
HETATM   17  N   UNL     1      -9.575  11.384  66.323  1.00  0.00    -0.207 NA 
HETATM   18  C   UNL     1      -8.923  10.940  65.101  1.00  0.00    -0.180 C  
HETATM   19  C   UNL     1      -9.891  10.838  63.933  1.00  0.00    -0.389 C  
HETATM   20  C   UNL     1     -10.397  12.224  63.580  1.00  0.00    -0.443 C  
HETATM   21  C   UNL     1     -11.006  12.948  64.784  1.00  0.00    -0.344 C  
HETATM   22  C   UNL     1     -12.524  13.038  64.789  1.00  0.00    -0.427 C  
HETATM   23  C   UNL     1     -10.486  12.529  66.184  1.00  0.00    -0.249 C  
HETATM   24  O   UNL     1     -13.192  12.022  64.207  1.00  0.00    -0.710 OA 
HETATM   25  O   UNL     1     -13.124  13.966  65.318  1.00  0.00    -0.777 OA 
ENDBRANCH  16  17
ENDBRANCH  15  16
ENDBRANCH   8  15
ENDBRANCH   3   7
TORSDOF 5
ENDMDL
MODEL      136
REMARK 921   NORMALIZED FREE ENERGY PREDICTED BY IDOCK:   -4.50 KCAL/MOL
REMARK 922        TOTAL FREE ENERGY PREDICTED BY IDOCK:   -7.31 KCAL/MOL
REMARK 923 INTER-LIGAND FREE ENERGY PREDICTED BY IDOCK:   -6.44 KCAL/MOL
REMARK 924 INTRA-LIGAND FREE ENERGY PREDICTED BY IDOCK:   -0.87 KCAL/MOL
REMARK 927      BINDING AFFINITY PREDICTED BY RF-SCORE:    0.00 PKD
ROOT
HETATM    1  C   UNL     1     -11.664  12.252  68.627  1.00  0.00    -0.377 C  
HETATM    2  C   UNL     1     -11.408  12.798  67.259  1.00  0.00    -0.364 A  
HETATM    3  C   UNL     1     -10.172  12.998  66.622  1.00  0.00    -0.257 A  
HETATM    4  C   UNL     1     -12.108  13.762  65.240  1.00  0.00    -0.407 A  
HETATM    5  S   UNL     1     -10.415  13.712  65.059  1.00  0.00    -0.396 SA 
HETATM    6  C   UNL     1     -12.508  13.243  66.443  1.00  0.00    -0.231 A  
ENDROOT
BRANCH   3   7
HETATM    7  C   UNL     1      -8.798  12.785  67.056  1.00  0.00    -0.213 C  
HETATM    8  C   UNL     1      -8.086  13.835  67.538  1.00  0.00    -0.192 C  
BRANCH   7   9
HETATM    9  C   UNL     1      -8.179  11.456  67.075  1.00  0.00    -0.160 A  
HETATM   10  C   UNL     1      -8.694  10.158  66.909  1.00  0.00    -0.135 A  
HETATM   11  C   UNL     1      -6.411   9.674  67.145  1.00  0.00    -0.070 A  
HETATM   12  C   UNL     1      -7.663   9.151  66.967  1.00  0.00    -0.098 A  
HETATM   13  S   UNL     1      -6.447  11.364  67.277  1.00  0.00    -0.110 SA 
HETATM   14  C   UNL     1     -10.111   9.727  66.668  1.00  0.00    -0.303 C  
ENDBRANCH   7   9
BRANCH   8  15
HETATM   15  C   UNL     1      -8.589  15.240  67.810  1.00  0.00    -0.163 C  
BRANCH  15  16
HETATM   16  C   UNL     1      -8.062  15.892  69.129  1.00  0.00    -0.239 C  
BRANCH  16  17
HETATM   17  N   UNL     1      -7.678  17.300  68.933  1.00  0.00    -0.249 NA 
HETATM   18  C   UNL     1      -6.508  17.526  68.101  1.00  0.00    -0.178 C  
HETATM   19  C   UNL     1      -6.876  17.848  66.661  1.00  0.00    -0.238 C  
HETATM   20  C   UNL     1      -7.603  19.179  66.616  1.00  0.00    -0.255 C  
HETATM   21  C   UNL     1      -8.814  19.215  67.552  1.00  0.00    -0.329 C  
HETATM   22  C   UNL     1     -10.168  19.120  66.867  1.00  0.00    -0.395 C  
HETATM   23  C   UNL     1      -8.768  18.275  68.786  1.00  0.00    -0.218 C  
HETATM   24  O   UNL     1     -10.221  18.404  65.727  1.00  0.00    -0.571 OA 
HETATM   25  O   UNL     1     -11.176  19.639  67.332  1.00  0.00    -0.293 OA 
ENDBRANCH  16  17
ENDBRANCH  15  16
ENDBRANCH   8  15
ENDBRANCH   3   7
TORSDOF 5
ENDMDL
MODEL      137
REMARK 921   NORMALIZED FREE ENERGY PREDICTED BY IDOCK:   -4.49 KCAL/MOL
REMARK 922        TOTAL FREE ENERGY PREDICTED BY IDOCK:   -7.30 KCAL/MOL
REMARK 923 INTER-LIGAND FREE ENERGY PREDICTED BY IDOCK:   -6.10 KCAL/MOL
REMARK 924 INTRA-LIGAND FREE ENERGY PREDICTED BY IDOCK:   -1.20 KCAL/MOL
REMARK 927      BINDING AFFINITY PREDICTED BY RF-SCORE:    0.00 PKD
ROOT
HETATM    1  C   UNL     1     -11.917  12.617  65.785  1.00  0.00    -0.503 C  
HETATM    2  C   UNL     1     -10.734  11.737  65.533  1.00  0.00    -0.329 A  
HETATM    3  C   UNL     1      -9.556  11.630  66.292  1.00  0.00    -0.221 A  
HETATM    4  C   UNL     1      -9.527  10.191  64.250  1.00  0.00    -0.305 A  
HETATM    5  S   UNL     1      -8.465  10.507  65.543  1.00  0.00    -0.172 SA 
HETATM    6  C   UNL     1     -10.696  10.897  64.364  1.00  0.00    -0.250 A  
ENDROOT
BRANCH   3   7
HETATM    7  C   UNL     1      -9.095  12.316  67.490  1.00  0.00    -0.182 C  
HETATM    8  C   UNL     1      -9.312  11.746  68.703  1.00  0.00    -0.096 C  
BRANCH   7   9
HETATM    9  C   UNL     1      -8.324  13.561  67.434  1.00  0.00    -0.194 A  
HETATM   10  C   UNL     1      -6.979  13.868  67.709  1.00  0.00    -0.181 A  
HETATM   11  C   UNL     1      -7.744  15.963  66.984  1.00  0.00    -0.233 A  
HETATM   12  C   UNL     1      -6.674  15.254  67.457  1.00  0.00    -0.197 A  
HETATM   13  S   UNL     1      -9.134  14.999  66.862  1.00  0.00    -0.262 SA 
HETATM   14  C   UNL     1      -5.882  12.962  68.186  1.00  0.00    -0.088 C  
ENDBRANCH   7   9
BRANCH   8  15
HETATM   15  C   UNL     1      -9.888  10.372  68.984  1.00  0.00    -0.222 C  
BRANCH  15  16
HETATM   16  C   UNL     1     -11.299  10.366  69.656  1.00  0.00    -0.272 C  
BRANCH  16  17
HETATM   17  N   UNL     1     -11.245   9.903  71.053  1.00  0.00    -0.363 NA 
HETATM   18  C   UNL     1     -12.490   9.388  71.597  1.00  0.00    -0.378 C  
HETATM   19  C   UNL     1     -12.570   7.871  71.523  1.00  0.00    -0.343 C  
HETATM   20  C   UNL     1     -11.513   7.270  72.429  1.00  0.00    -0.327 C  
HETATM   21  C   UNL     1     -10.110   7.797  72.121  1.00  0.00    -0.265 C  
HETATM   22  C   UNL     1      -9.196   6.825  71.391  1.00  0.00    -0.153 C  
HETATM   23  C   UNL     1     -10.022   9.206  71.477  1.00  0.00    -0.287 C  
HETATM   24  O   UNL     1      -9.787   5.955  70.549  1.00  0.00    -0.173 OA 
HETATM   25  O   UNL     1      -7.978   6.841  71.529  1.00  0.00    -0.101 OA 
ENDBRANCH  16  17
ENDBRANCH  15  16
ENDBRANCH   8  15
ENDBRANCH   3   7
TORSDOF 5
ENDMDL
MODEL      138
REMARK 921   NORMALIZED FREE ENERGY PREDICTED BY IDOCK:   -4.49 KCAL/MOL
REMARK 922        TOTAL FREE ENERGY PREDICTED BY IDOCK:   -7.30 KCAL/MOL
REMARK 923 INTER-LIGAND FREE ENERGY PREDICTED BY IDOCK:   -6.11 KCAL/MOL
REMARK 924 INTRA-LIGAND FREE ENERGY PREDICTED BY IDOCK:   -1.18 KCAL/MOL
REMARK 927      BINDING AFFINITY PREDICTED BY RF-SCORE:    0.00 PKD
ROOT
HETATM    1  C   UNL     1     -12.407  12.495  64.890  1.00  0.00    -0.539 C  
HETATM    2  C   UNL     1     -11.152  11.720  65.138  1.00  0.00    -0.341 A  
HETATM    3  C   UNL     1     -10.362  11.699  66.300  1.00  0.00    -0.235 A  
HETATM    4  C   UNL     1      -9.415  10.300  64.459  1.00  0.00    -0.298 A  
HETATM    5  S   UNL     1      -8.976  10.683  66.059  1.00  0.00    -0.178 SA 
HETATM    6  C   UNL     1     -10.589  10.905  64.093  1.00  0.00    -0.327 A  
ENDROOT
BRANCH   3   7
HETATM    7  C   UNL     1     -10.466  12.402  67.571  1.00  0.00    -0.229 C  
HETATM    8  C   UNL     1     -10.662  11.687  68.708  1.00  0.00    -0.254 C  
BRANCH   7   9
HETATM    9  C   UNL     1     -10.279  13.852  67.683  1.00  0.00    -0.242 A  
HETATM   10  C   UNL     1      -9.168  14.691  67.486  1.00  0.00    -0.192 A  
HETATM   11  C   UNL     1     -10.814  16.287  67.981  1.00  0.00    -0.339 A  
HETATM   12  C   UNL     1      -9.496  16.082  67.676  1.00  0.00    -0.216 A  
HETATM   13  S   UNL     1     -11.673  14.828  68.076  1.00  0.00    -0.304 SA 
HETATM   14  C   UNL     1      -7.765  14.327  67.099  1.00  0.00    -0.046 C  
ENDBRANCH   7   9
BRANCH   8  15
HETATM   15  C   UNL     1     -10.668  10.178  68.856  1.00  0.00    -0.249 C  
BRANCH  15  16
HETATM   16  C   UNL     1     -10.804   9.653  70.321  1.00  0.00    -0.285 C  
BRANCH  16  17
HETATM   17  N   UNL     1     -10.110   8.368  70.514  1.00  0.00    -0.188 NA 
HETATM   18  C   UNL     1     -10.959   7.233  70.838  1.00  0.00    -0.253 C  
HETATM   19  C   UNL     1     -11.303   6.401  69.612  1.00  0.00    -0.479 C  
HETATM   20  C   UNL     1     -10.040   5.755  69.076  1.00  0.00    -0.249 C  
HETATM   21  C   UNL     1      -8.934   6.776  68.798  1.00  0.00    -0.130 C  
HETATM   22  C   UNL     1      -8.693   7.090  67.330  1.00  0.00    -0.120 C  
HETATM   23  C   UNL     1      -8.970   8.086  69.629  1.00  0.00    -0.145 C  
HETATM   24  O   UNL     1      -9.761   7.017  66.512  1.00  0.00    -0.177 OA 
HETATM   25  O   UNL     1      -7.594   7.423  66.902  1.00  0.00    -0.097 OA 
ENDBRANCH  16  17
ENDBRANCH  15  16
ENDBRANCH   8  15
ENDBRANCH   3   7
TORSDOF 5
ENDMDL
MODEL      139
REMARK 921   NORMALIZED FREE ENERGY PREDICTED BY IDOCK:   -4.48 KCAL/MOL
REMARK 922        TOTAL FREE ENERGY PREDICTED BY IDOCK:   -7.29 KCAL/MOL
REMARK 923 INTER-LIGAND FREE ENERGY PREDICTED BY IDOCK:   -5.80 KCAL/MOL
REMARK 924 INTRA-LIGAND FREE ENERGY PREDICTED BY IDOCK:   -1.49 KCAL/MOL
REMARK 927      BINDING AFFINITY PREDICTED BY RF-SCORE:    0.00 PKD
ROOT
HETATM    1  C   UNL     1      -7.187   8.170  67.993  1.00  0.00    -0.094 C  
HETATM    2  C   UNL     1      -8.481   7.486  67.685  1.00  0.00    -0.117 A  
HETATM    3  C   UNL     1      -9.737   8.072  67.454  1.00  0.00    -0.166 A  
HETATM    4  C   UNL     1      -9.808   5.575  67.402  1.00  0.00    -0.148 A  
HETATM    5  S   UNL     1     -10.931   6.839  67.198  1.00  0.00    -0.318 SA 
HETATM    6  C   UNL     1      -8.545   6.049  67.648  1.00  0.00    -0.106 A  
ENDROOT
BRANCH   3   7
HETATM    7  C   UNL     1     -10.192   9.455  67.464  1.00  0.00    -0.288 C  
HETATM    8  C   UNL     1     -10.529  10.032  68.645  1.00  0.00    -0.228 C  
BRANCH   7   9
HETATM    9  C   UNL     1     -10.218  10.281  66.253  1.00  0.00    -0.221 A  
HETATM   10  C   UNL     1      -9.634  10.134  64.982  1.00  0.00    -0.362 A  
HETATM   11  C   UNL     1     -10.840  12.120  64.659  1.00  0.00    -0.306 A  
HETATM   12  C   UNL     1      -9.993  11.208  64.090  1.00  0.00    -0.369 A  
HETATM   13  S   UNL     1     -11.195  11.729  66.271  1.00  0.00    -0.273 SA 
HETATM   14  C   UNL     1      -8.747   9.037  64.471  1.00  0.00    -0.153 C  
ENDBRANCH   7   9
BRANCH   8  15
HETATM   15  C   UNL     1     -10.374   9.443  70.034  1.00  0.00    -0.265 C  
BRANCH  15  16
HETATM   16  C   UNL     1     -11.706   9.008  70.726  1.00  0.00    -0.242 C  
BRANCH  16  17
HETATM   17  N   UNL     1     -11.492   7.928  71.705  1.00  0.00    -0.258 NA 
HETATM   18  C   UNL     1     -11.433   6.582  71.160  1.00  0.00    -0.326 C  
HETATM   19  C   UNL     1     -10.004   6.111  70.936  1.00  0.00    -0.223 C  
HETATM   20  C   UNL     1      -9.305   5.980  72.276  1.00  0.00    -0.149 C  
HETATM   21  C   UNL     1      -9.374   7.268  73.100  1.00  0.00    -0.216 C  
HETATM   22  C   UNL     1      -8.082   8.066  73.167  1.00  0.00    -0.176 C  
HETATM   23  C   UNL     1     -10.575   8.210  72.819  1.00  0.00    -0.316 C  
HETATM   24  O   UNL     1      -7.272   7.999  72.093  1.00  0.00    -0.072 OA 
HETATM   25  O   UNL     1      -7.793   8.765  74.132  1.00  0.00    -0.405 OA 
ENDBRANCH  16  17
ENDBRANCH  15  16
ENDBRANCH   8  15
ENDBRANCH   3   7
TORSDOF 5
ENDMDL
MODEL      140
REMARK 921   NORMALIZED FREE ENERGY PREDICTED BY IDOCK:   -4.46 KCAL/MOL
REMARK 922        TOTAL FREE ENERGY PREDICTED BY IDOCK:   -7.27 KCAL/MOL
REMARK 923 INTER-LIGAND FREE ENERGY PREDICTED BY IDOCK:   -5.89 KCAL/MOL
REMARK 924 INTRA-LIGAND FREE ENERGY PREDICTED BY IDOCK:   -1.38 KCAL/MOL
REMARK 927      BINDING AFFINITY PREDICTED BY RF-SCORE:    0.00 PKD
ROOT
HETATM    1  C   UNL     1     -12.144  12.780  67.854  1.00  0.00    -0.187 C  
HETATM    2  C   UNL     1     -11.613  12.435  66.499  1.00  0.00    -0.447 A  
HETATM    3  C   UNL     1     -10.405  11.791  66.180  1.00  0.00    -0.230 A  
HETATM    4  C   UNL     1     -11.704  12.474  64.158  1.00  0.00    -0.399 A  
HETATM    5  S   UNL     1     -10.228  11.679  64.457  1.00  0.00    -0.311 SA 
HETATM    6  C   UNL     1     -12.345  12.817  65.320  1.00  0.00    -0.546 A  
ENDROOT
BRANCH   3   7
HETATM    7  C   UNL     1      -9.310  11.296  67.001  1.00  0.00    -0.183 C  
HETATM    8  C   UNL     1      -8.315  12.147  67.360  1.00  0.00    -0.174 C  
BRANCH   7   9
HETATM    9  C   UNL     1      -9.282   9.929  67.530  1.00  0.00    -0.134 A  
HETATM   10  C   UNL     1      -9.080   8.674  66.928  1.00  0.00    -0.175 A  
HETATM   11  C   UNL     1      -9.282   8.032  69.175  1.00  0.00    -0.151 A  
HETATM   12  C   UNL     1      -9.098   7.600  67.890  1.00  0.00    -0.134 A  
HETATM   13  S   UNL     1      -9.466   9.716  69.253  1.00  0.00    -0.191 SA 
HETATM   14  C   UNL     1      -8.838   8.347  65.484  1.00  0.00    -0.172 C  
ENDBRANCH   7   9
BRANCH   8  15
HETATM   15  C   UNL     1      -8.250  13.642  67.113  1.00  0.00    -0.123 C  
BRANCH  15  16
HETATM   16  C   UNL     1      -6.914  14.331  67.542  1.00  0.00    -0.155 C  
BRANCH  16  17
HETATM   17  N   UNL     1      -7.143  15.437  68.488  1.00  0.00    -0.111 NA 
HETATM   18  C   UNL     1      -6.448  16.678  68.188  1.00  0.00    -0.136 C  
HETATM   19  C   UNL     1      -7.329  17.669  67.443  1.00  0.00    -0.202 C  
HETATM   20  C   UNL     1      -8.462  18.110  68.350  1.00  0.00    -0.311 C  
HETATM   21  C   UNL     1      -9.256  16.927  68.910  1.00  0.00    -0.229 C  
HETATM   22  C   UNL     1     -10.625  16.708  68.285  1.00  0.00    -0.338 C  
HETATM   23  C   UNL     1      -8.500  15.578  69.035  1.00  0.00    -0.229 C  
HETATM   24  O   UNL     1     -10.762  17.057  66.991  1.00  0.00    -0.265 OA 
HETATM   25  O   UNL     1     -11.558  16.213  68.906  1.00  0.00    -0.357 OA 
ENDBRANCH  16  17
ENDBRANCH  15  16
ENDBRANCH   8  15
ENDBRANCH   3   7
TORSDOF 5
ENDMDL
MODEL      141
REMARK 921   NORMALIZED FREE ENERGY PREDICTED BY IDOCK:   -4.46 KCAL/MOL
REMARK 922        TOTAL FREE ENERGY PREDICTED BY IDOCK:   -7.26 KCAL/MOL
REMARK 923 INTER-LIGAND FREE ENERGY PREDICTED BY IDOCK:   -6.00 KCAL/MOL
REMARK 924 INTRA-LIGAND FREE ENERGY PREDICTED BY IDOCK:   -1.27 KCAL/MOL
REMARK 927      BINDING AFFINITY PREDICTED BY RF-SCORE:    0.00 PKD
ROOT
HETATM    1  C   UNL     1     -13.021  13.844  65.310  1.00  0.00    -0.341 C  
HETATM    2  C   UNL     1     -11.944  12.822  65.126  1.00  0.00    -0.466 A  
HETATM    3  C   UNL     1     -10.862  12.539  65.977  1.00  0.00    -0.276 A  
HETATM    4  C   UNL     1     -10.840  11.164  63.892  1.00  0.00    -0.274 A  
HETATM    5  S   UNL     1      -9.865  11.301  65.281  1.00  0.00    -0.259 SA 
HETATM    6  C   UNL     1     -11.912  12.016  63.934  1.00  0.00    -0.542 A  
ENDROOT
BRANCH   3   7
HETATM    7  C   UNL     1     -10.424  13.125  67.236  1.00  0.00    -0.243 C  
HETATM    8  C   UNL     1     -10.888  12.610  68.403  1.00  0.00    -0.268 C  
BRANCH   7   9
HETATM    9  C   UNL     1      -9.429  14.200  67.296  1.00  0.00    -0.229 A  
HETATM   10  C   UNL     1      -8.056  14.216  67.605  1.00  0.00    -0.188 A  
HETATM   11  C   UNL     1      -8.390  16.475  67.068  1.00  0.00    -0.190 A  
HETATM   12  C   UNL     1      -7.486  15.535  67.481  1.00  0.00    -0.209 A  
HETATM   13  S   UNL     1      -9.935  15.811  66.852  1.00  0.00    -0.250 SA 
HETATM   14  C   UNL     1      -7.164  13.078  68.005  1.00  0.00    -0.119 C  
ENDBRANCH   7   9
BRANCH   8  15
HETATM   15  C   UNL     1     -11.746  11.373  68.586  1.00  0.00    -0.394 C  
BRANCH  15  16
HETATM   16  C   UNL     1     -11.238  10.363  69.664  1.00  0.00    -0.277 C  
BRANCH  16  17
HETATM   17  N   UNL     1     -10.621   9.171  69.057  1.00  0.00    -0.220 NA 
HETATM   18  C   UNL     1      -9.282   9.356  68.521  1.00  0.00    -0.131 C  
HETATM   19  C   UNL     1      -8.203   8.919  69.500  1.00  0.00    -0.107 C  
HETATM   20  C   UNL     1      -8.295   7.419  69.708  1.00  0.00    -0.134 C  
HETATM   21  C   UNL     1      -9.694   6.975  70.143  1.00  0.00    -0.176 C  
HETATM   22  C   UNL     1      -9.829   6.594  71.610  1.00  0.00    -0.166 C  
HETATM   23  C   UNL     1     -10.878   7.881  69.711  1.00  0.00    -0.202 C  
HETATM   24  O   UNL     1      -9.029   7.242  72.479  1.00  0.00    -0.125 OA 
HETATM   25  O   UNL     1     -10.641   5.764  71.999  1.00  0.00    -0.211 OA 
ENDBRANCH  16  17
ENDBRANCH  15  16
ENDBRANCH   8  15
ENDBRANCH   3   7
TORSDOF 5
ENDMDL
MODEL      142
REMARK 921   NORMALIZED FREE ENERGY PREDICTED BY IDOCK:   -4.45 KCAL/MOL
REMARK 922        TOTAL FREE ENERGY PREDICTED BY IDOCK:   -7.26 KCAL/MOL
REMARK 923 INTER-LIGAND FREE ENERGY PREDICTED BY IDOCK:   -5.83 KCAL/MOL
REMARK 924 INTRA-LIGAND FREE ENERGY PREDICTED BY IDOCK:   -1.43 KCAL/MOL
REMARK 927      BINDING AFFINITY PREDICTED BY RF-SCORE:    0.00 PKD
ROOT
HETATM    1  C   UNL     1      -7.838   7.721  71.044  1.00  0.00    -0.089 C  
HETATM    2  C   UNL     1      -9.319   7.819  71.229  1.00  0.00    -0.171 A  
HETATM    3  C   UNL     1     -10.318   6.997  70.680  1.00  0.00    -0.207 A  
HETATM    4  C   UNL     1     -11.248   8.868  72.049  1.00  0.00    -0.352 A  
HETATM    5  S   UNL     1     -11.887   7.567  71.155  1.00  0.00    -0.299 SA 
HETATM    6  C   UNL     1      -9.878   8.887  72.016  1.00  0.00    -0.325 A  
ENDROOT
BRANCH   3   7
HETATM    7  C   UNL     1     -10.264   5.859  69.774  1.00  0.00    -0.281 C  
HETATM    8  C   UNL     1     -10.450   6.061  68.445  1.00  0.00    -0.290 C  
BRANCH   7   9
HETATM    9  C   UNL     1      -9.927   4.508  70.232  1.00  0.00    -0.218 A  
HETATM   10  C   UNL     1     -10.024   3.869  71.481  1.00  0.00    -0.209 A  
HETATM   11  C   UNL     1      -9.224   2.097  70.168  1.00  0.00    -0.113 A  
HETATM   12  C   UNL     1      -9.602   2.491  71.423  1.00  0.00    -0.225 A  
HETATM   13  S   UNL     1      -9.336   3.367  69.049  1.00  0.00    -0.144 SA 
HETATM   14  C   UNL     1     -10.511   4.420  72.789  1.00  0.00    -0.253 C  
ENDBRANCH   7   9
BRANCH   8  15
HETATM   15  C   UNL     1     -10.594   7.390  67.728  1.00  0.00    -0.278 C  
BRANCH  15  16
HETATM   16  C   UNL     1      -9.514   7.679  66.637  1.00  0.00    -0.198 C  
BRANCH  16  17
HETATM   17  N   UNL     1      -8.826   8.961  66.867  1.00  0.00    -0.125 NA 
HETATM   18  C   UNL     1      -8.478   9.715  65.674  1.00  0.00    -0.132 C  
HETATM   19  C   UNL     1      -9.504  10.789  65.348  1.00  0.00    -0.258 C  
HETATM   20  C   UNL     1      -9.495  11.838  66.443  1.00  0.00    -0.234 C  
HETATM   21  C   UNL     1      -9.703  11.232  67.834  1.00  0.00    -0.185 C  
HETATM   22  C   UNL     1     -11.078  11.457  68.442  1.00  0.00    -0.242 C  
HETATM   23  C   UNL     1      -9.265   9.756  68.023  1.00  0.00    -0.124 C  
HETATM   24  O   UNL     1     -12.114  11.538  67.584  1.00  0.00    -0.623 OA 
HETATM   25  O   UNL     1     -11.256  11.531  69.653  1.00  0.00    -0.251 OA 
ENDBRANCH  16  17
ENDBRANCH  15  16
ENDBRANCH   8  15
ENDBRANCH   3   7
TORSDOF 5
ENDMDL
MODEL      143
REMARK 921   NORMALIZED FREE ENERGY PREDICTED BY IDOCK:   -4.44 KCAL/MOL
REMARK 922        TOTAL FREE ENERGY PREDICTED BY IDOCK:   -7.23 KCAL/MOL
REMARK 923 INTER-LIGAND FREE ENERGY PREDICTED BY IDOCK:   -6.15 KCAL/MOL
REMARK 924 INTRA-LIGAND FREE ENERGY PREDICTED BY IDOCK:   -1.09 KCAL/MOL
REMARK 927      BINDING AFFINITY PREDICTED BY RF-SCORE:    0.00 PKD
ROOT
HETATM    1  C   UNL     1     -11.925  13.860  68.271  1.00  0.00    -0.392 C  
HETATM    2  C   UNL     1     -11.546  13.072  67.058  1.00  0.00    -0.413 A  
HETATM    3  C   UNL     1     -10.476  12.173  66.908  1.00  0.00    -0.225 A  
HETATM    4  C   UNL     1     -11.788  12.477  64.804  1.00  0.00    -0.383 A  
HETATM    5  S   UNL     1     -10.435  11.562  65.285  1.00  0.00    -0.293 SA 
HETATM    6  C   UNL     1     -12.289  13.228  65.835  1.00  0.00    -0.479 A  
ENDROOT
BRANCH   3   7
HETATM    7  C   UNL     1      -9.417  11.748  67.812  1.00  0.00    -0.181 C  
HETATM    8  C   UNL     1      -9.631  10.687  68.631  1.00  0.00    -0.179 C  
BRANCH   7   9
HETATM    9  C   UNL     1      -8.089  12.370  67.812  1.00  0.00    -0.162 A  
HETATM   10  C   UNL     1      -7.638  13.661  67.482  1.00  0.00    -0.180 A  
HETATM   11  C   UNL     1      -5.625  12.681  68.182  1.00  0.00    -0.076 A  
HETATM   12  C   UNL     1      -6.219  13.811  67.689  1.00  0.00    -0.119 A  
HETATM   13  S   UNL     1      -6.739  11.417  68.376  1.00  0.00    -0.069 SA 
HETATM   14  C   UNL     1      -8.424  14.840  66.990  1.00  0.00    -0.250 C  
ENDBRANCH   7   9
BRANCH   8  15
HETATM   15  C   UNL     1     -10.836   9.766  68.647  1.00  0.00    -0.223 C  
BRANCH  15  16
HETATM   16  C   UNL     1     -10.524   8.266  68.951  1.00  0.00    -0.191 C  
BRANCH  16  17
HETATM   17  N   UNL     1     -11.151   7.815  70.205  1.00  0.00    -0.255 NA 
HETATM   18  C   UNL     1     -11.559   6.420  70.242  1.00  0.00    -0.383 C  
HETATM   19  C   UNL     1     -10.523   5.532  70.914  1.00  0.00    -0.319 C  
HETATM   20  C   UNL     1     -10.418   5.908  72.380  1.00  0.00    -0.246 C  
HETATM   21  C   UNL     1     -10.131   7.398  72.582  1.00  0.00    -0.255 C  
HETATM   22  C   UNL     1      -8.709   7.736  73.000  1.00  0.00    -0.185 C  
HETATM   23  C   UNL     1     -10.604   8.356  71.457  1.00  0.00    -0.241 C  
HETATM   24  O   UNL     1      -7.736   6.919  72.550  1.00  0.00    -0.094 OA 
HETATM   25  O   UNL     1      -8.442   8.715  73.687  1.00  0.00    -0.353 OA 
ENDBRANCH  16  17
ENDBRANCH  15  16
ENDBRANCH   8  15
ENDBRANCH   3   7
TORSDOF 5
ENDMDL
MODEL      144
REMARK 921   NORMALIZED FREE ENERGY PREDICTED BY IDOCK:   -4.43 KCAL/MOL
REMARK 922        TOTAL FREE ENERGY PREDICTED BY IDOCK:   -7.22 KCAL/MOL
REMARK 923 INTER-LIGAND FREE ENERGY PREDICTED BY IDOCK:   -6.07 KCAL/MOL
REMARK 924 INTRA-LIGAND FREE ENERGY PREDICTED BY IDOCK:   -1.16 KCAL/MOL
REMARK 927      BINDING AFFINITY PREDICTED BY RF-SCORE:    0.00 PKD
ROOT
HETATM    1  C   UNL     1      -8.684   6.130  69.545  1.00  0.00    -0.130 C  
HETATM    2  C   UNL     1      -8.432   6.648  70.925  1.00  0.00    -0.133 A  
HETATM    3  C   UNL     1      -9.044   7.737  71.568  1.00  0.00    -0.133 A  
HETATM    4  C   UNL     1      -7.275   6.659  72.963  1.00  0.00    -0.080 A  
HETATM    5  S   UNL     1      -8.356   7.962  73.145  1.00  0.00    -0.198 SA 
HETATM    6  C   UNL     1      -7.419   6.041  71.749  1.00  0.00    -0.095 A  
ENDROOT
BRANCH   3   7
HETATM    7  C   UNL     1     -10.048   8.697  71.131  1.00  0.00    -0.290 C  
HETATM    8  C   UNL     1      -9.663   9.766  70.389  1.00  0.00    -0.244 C  
BRANCH   7   9
HETATM    9  C   UNL     1     -11.479   8.506  71.386  1.00  0.00    -0.287 A  
HETATM   10  C   UNL     1     -12.243   7.386  71.762  1.00  0.00    -0.359 A  
HETATM   11  C   UNL     1     -13.909   9.037  71.732  1.00  0.00    -0.399 A  
HETATM   12  C   UNL     1     -13.636   7.712  71.941  1.00  0.00    -0.321 A  
HETATM   13  S   UNL     1     -12.520   9.904  71.292  1.00  0.00    -0.412 SA 
HETATM   14  C   UNL     1     -11.794   5.975  72.006  1.00  0.00    -0.284 C  
ENDBRANCH   7   9
BRANCH   8  15
HETATM   15  C   UNL     1      -8.282  10.047  69.827  1.00  0.00    -0.191 C  
BRANCH  15  16
HETATM   16  C   UNL     1      -8.210  11.212  68.789  1.00  0.00    -0.135 C  
BRANCH  16  17
HETATM   17  N   UNL     1      -8.148  10.714  67.404  1.00  0.00    -0.111 NA 
HETATM   18  C   UNL     1      -8.570   9.337  67.207  1.00  0.00    -0.125 C  
HETATM   19  C   UNL     1     -10.018   9.236  66.750  1.00  0.00    -0.312 C  
HETATM   20  C   UNL     1     -10.149   9.846  65.368  1.00  0.00    -0.270 C  
HETATM   21  C   UNL     1      -9.616  11.280  65.308  1.00  0.00    -0.265 C  
HETATM   22  C   UNL     1     -10.678  12.366  65.246  1.00  0.00    -0.287 C  
HETATM   23  C   UNL     1      -8.519  11.657  66.339  1.00  0.00    -0.114 C  
HETATM   24  O   UNL     1     -11.844  12.109  65.868  1.00  0.00    -0.504 OA 
HETATM   25  O   UNL     1     -10.485  13.440  64.687  1.00  0.00    -0.385 OA 
ENDBRANCH  16  17
ENDBRANCH  15  16
ENDBRANCH   8  15
ENDBRANCH   3   7
TORSDOF 5
ENDMDL
MODEL      145
REMARK 921   NORMALIZED FREE ENERGY PREDICTED BY IDOCK:   -4.41 KCAL/MOL
REMARK 922        TOTAL FREE ENERGY PREDICTED BY IDOCK:   -7.20 KCAL/MOL
REMARK 923 INTER-LIGAND FREE ENERGY PREDICTED BY IDOCK:   -6.20 KCAL/MOL
REMARK 924 INTRA-LIGAND FREE ENERGY PREDICTED BY IDOCK:   -1.01 KCAL/MOL
REMARK 927      BINDING AFFINITY PREDICTED BY RF-SCORE:    0.00 PKD
ROOT
HETATM    1  C   UNL     1      -7.714  12.269  67.941  1.00  0.00    -0.133 C  
HETATM    2  C   UNL     1      -8.257  11.028  67.308  1.00  0.00    -0.125 A  
HETATM    3  C   UNL     1      -9.601  10.692  67.071  1.00  0.00    -0.169 A  
HETATM    4  C   UNL     1      -8.017   8.886  66.387  1.00  0.00    -0.103 A  
HETATM    5  S   UNL     1      -9.705   9.112  66.363  1.00  0.00    -0.281 SA 
HETATM    6  C   UNL     1      -7.364   9.974  66.903  1.00  0.00    -0.092 A  
ENDROOT
BRANCH   3   7
HETATM    7  C   UNL     1     -10.851  11.378  67.369  1.00  0.00    -0.301 C  
HETATM    8  C   UNL     1     -11.399  11.248  68.604  1.00  0.00    -0.336 C  
BRANCH   7   9
HETATM    9  C   UNL     1     -11.499  12.278  66.411  1.00  0.00    -0.378 A  
HETATM   10  C   UNL     1     -11.957  13.605  66.504  1.00  0.00    -0.465 A  
HETATM   11  C   UNL     1     -12.420  13.161  64.248  1.00  0.00    -0.288 A  
HETATM   12  C   UNL     1     -12.493  14.085  65.255  1.00  0.00    -0.495 A  
HETATM   13  S   UNL     1     -11.741  11.701  64.781  1.00  0.00     0.048 SA 
HETATM   14  C   UNL     1     -11.931  14.533  67.683  1.00  0.00    -0.355 C  
ENDBRANCH   7   9
BRANCH   8  15
HETATM   15  C   UNL     1     -10.796  10.551  69.809  1.00  0.00    -0.335 C  
BRANCH  15  16
HETATM   16  C   UNL     1     -11.828   9.921  70.800  1.00  0.00    -0.330 C  
BRANCH  16  17
HETATM   17  N   UNL     1     -11.527   8.507  71.085  1.00  0.00    -0.269 NA 
HETATM   18  C   UNL     1     -11.136   7.701  69.940  1.00  0.00    -0.150 C  
HETATM   19  C   UNL     1      -9.626   7.575  69.811  1.00  0.00    -0.163 C  
HETATM   20  C   UNL     1      -9.085   6.795  70.994  1.00  0.00    -0.156 C  
HETATM   21  C   UNL     1      -9.510   7.399  72.335  1.00  0.00    -0.189 C  
HETATM   22  C   UNL     1      -8.419   8.149  73.084  1.00  0.00    -0.216 C  
HETATM   23  C   UNL     1     -10.829   8.215  72.345  1.00  0.00    -0.339 C  
HETATM   24  O   UNL     1      -7.485   8.766  72.334  1.00  0.00    -0.324 OA 
HETATM   25  O   UNL     1      -8.395   8.223  74.307  1.00  0.00    -0.253 OA 
ENDBRANCH  16  17
ENDBRANCH  15  16
ENDBRANCH   8  15
ENDBRANCH   3   7
TORSDOF 5
ENDMDL
MODEL      146
REMARK 921   NORMALIZED FREE ENERGY PREDICTED BY IDOCK:   -4.40 KCAL/MOL
REMARK 922        TOTAL FREE ENERGY PREDICTED BY IDOCK:   -7.19 KCAL/MOL
REMARK 923 INTER-LIGAND FREE ENERGY PREDICTED BY IDOCK:   -5.91 KCAL/MOL
REMARK 924 INTRA-LIGAND FREE ENERGY PREDICTED BY IDOCK:   -1.28 KCAL/MOL
REMARK 927      BINDING AFFINITY PREDICTED BY RF-SCORE:    0.00 PKD
ROOT
HETATM    1  C   UNL     1      -7.556  11.809  68.242  1.00  0.00    -0.122 C  
HETATM    2  C   UNL     1      -7.686  11.117  66.922  1.00  0.00    -0.148 A  
HETATM    3  C   UNL     1      -8.860  10.831  66.205  1.00  0.00    -0.173 A  
HETATM    4  C   UNL     1      -6.804   9.957  65.087  1.00  0.00    -0.124 A  
HETATM    5  S   UNL     1      -8.474   9.959  64.755  1.00  0.00    -0.186 SA 
HETATM    6  C   UNL     1      -6.515  10.607  66.258  1.00  0.00    -0.126 A  
ENDROOT
BRANCH   3   7
HETATM    7  C   UNL     1     -10.268  11.065  66.493  1.00  0.00    -0.280 C  
HETATM    8  C   UNL     1     -10.913  10.239  67.356  1.00  0.00    -0.317 C  
BRANCH   7   9
HETATM    9  C   UNL     1     -10.997  12.216  65.954  1.00  0.00    -0.292 A  
HETATM   10  C   UNL     1     -11.464  12.535  64.665  1.00  0.00    -0.377 A  
HETATM   11  C   UNL     1     -12.275  14.377  65.871  1.00  0.00    -0.341 A  
HETATM   12  C   UNL     1     -12.182  13.786  64.640  1.00  0.00    -0.440 A  
HETATM   13  S   UNL     1     -11.485  13.470  67.067  1.00  0.00    -0.359 SA 
HETATM   14  C   UNL     1     -11.327  11.755  63.391  1.00  0.00    -0.437 C  
ENDBRANCH   7   9
BRANCH   8  15
HETATM   15  C   UNL     1     -10.308   9.127  68.191  1.00  0.00    -0.263 C  
BRANCH  15  16
HETATM   16  C   UNL     1     -10.246   9.406  69.727  1.00  0.00    -0.220 C  
BRANCH  16  17
HETATM   17  N   UNL     1     -10.075   8.167  70.506  1.00  0.00    -0.191 NA 
HETATM   18  C   UNL     1     -11.301   7.505  70.918  1.00  0.00    -0.277 C  
HETATM   19  C   UNL     1     -11.694   6.377  69.975  1.00  0.00    -0.345 C  
HETATM   20  C   UNL     1     -10.654   5.275  70.054  1.00  0.00    -0.300 C  
HETATM   21  C   UNL     1      -9.236   5.790  69.792  1.00  0.00    -0.161 C  
HETATM   22  C   UNL     1      -8.655   5.434  68.433  1.00  0.00    -0.095 C  
HETATM   23  C   UNL     1      -8.966   7.283  70.119  1.00  0.00    -0.148 C  
HETATM   24  O   UNL     1      -9.528   5.322  67.412  1.00  0.00    -0.119 OA 
HETATM   25  O   UNL     1      -7.452   5.284  68.253  1.00  0.00    -0.074 OA 
ENDBRANCH  16  17
ENDBRANCH  15  16
ENDBRANCH   8  15
ENDBRANCH   3   7
TORSDOF 5
ENDMDL
MODEL      147
REMARK 921   NORMALIZED FREE ENERGY PREDICTED BY IDOCK:   -4.40 KCAL/MOL
REMARK 922        TOTAL FREE ENERGY PREDICTED BY IDOCK:   -7.19 KCAL/MOL
REMARK 923 INTER-LIGAND FREE ENERGY PREDICTED BY IDOCK:   -6.11 KCAL/MOL
REMARK 924 INTRA-LIGAND FREE ENERGY PREDICTED BY IDOCK:   -1.08 KCAL/MOL
REMARK 927      BINDING AFFINITY PREDICTED BY RF-SCORE:    0.00 PKD
ROOT
HETATM    1  C   UNL     1     -11.595   8.848  70.460  1.00  0.00    -0.189 C  
HETATM    2  C   UNL     1     -10.141   8.582  70.690  1.00  0.00    -0.225 A  
HETATM    3  C   UNL     1      -9.150   8.298  69.735  1.00  0.00    -0.147 A  
HETATM    4  C   UNL     1      -8.282   8.245  72.077  1.00  0.00    -0.160 A  
HETATM    5  S   UNL     1      -7.630   8.011  70.521  1.00  0.00    -0.078 SA 
HETATM    6  C   UNL     1      -9.617   8.549  72.030  1.00  0.00    -0.371 A  
ENDROOT
BRANCH   3   7
HETATM    7  C   UNL     1      -9.197   8.144  68.288  1.00  0.00    -0.134 C  
HETATM    8  C   UNL     1      -9.042   9.239  67.500  1.00  0.00    -0.133 C  
BRANCH   7   9
HETATM    9  C   UNL     1      -9.317   6.833  67.642  1.00  0.00    -0.120 A  
HETATM   10  C   UNL     1      -8.388   5.815  67.364  1.00  0.00    -0.104 A  
HETATM   11  C   UNL     1     -10.357   4.808  66.581  1.00  0.00    -0.214 A  
HETATM   12  C   UNL     1      -9.005   4.669  66.743  1.00  0.00    -0.112 A  
HETATM   13  S   UNL     1     -10.906   6.313  67.137  1.00  0.00    -0.379 SA 
HETATM   14  C   UNL     1      -6.914   5.778  67.645  1.00  0.00    -0.066 C  
ENDBRANCH   7   9
BRANCH   8  15
HETATM   15  C   UNL     1      -8.692  10.647  67.941  1.00  0.00    -0.127 C  
BRANCH  15  16
HETATM   16  C   UNL     1      -9.218  11.786  67.010  1.00  0.00    -0.187 C  
BRANCH  16  17
HETATM   17  N   UNL     1     -10.649  12.061  67.228  1.00  0.00    -0.217 NA 
HETATM   18  C   UNL     1     -10.967  12.872  68.391  1.00  0.00    -0.258 C  
HETATM   19  C   UNL     1     -11.154  14.340  68.039  1.00  0.00    -0.286 C  
HETATM   20  C   UNL     1     -12.380  14.490  67.158  1.00  0.00    -0.031 C  
HETATM   21  C   UNL     1     -12.322  13.593  65.918  1.00  0.00    -0.516 C  
HETATM   22  C   UNL     1     -12.021  14.309  64.611  1.00  0.00    -0.455 C  
HETATM   23  C   UNL     1     -11.471  12.301  66.033  1.00  0.00    -0.381 C  
HETATM   24  O   UNL     1     -11.236  15.402  64.687  1.00  0.00    -0.407 OA 
HETATM   25  O   UNL     1     -12.438  13.907  63.531  1.00  0.00    -0.810 OA 
ENDBRANCH  16  17
ENDBRANCH  15  16
ENDBRANCH   8  15
ENDBRANCH   3   7
TORSDOF 5
ENDMDL
MODEL      148
REMARK 921   NORMALIZED FREE ENERGY PREDICTED BY IDOCK:   -4.38 KCAL/MOL
REMARK 922        TOTAL FREE ENERGY PREDICTED BY IDOCK:   -7.16 KCAL/MOL
REMARK 923 INTER-LIGAND FREE ENERGY PREDICTED BY IDOCK:   -6.10 KCAL/MOL
REMARK 924 INTRA-LIGAND FREE ENERGY PREDICTED BY IDOCK:   -1.06 KCAL/MOL
REMARK 927      BINDING AFFINITY PREDICTED BY RF-SCORE:    0.00 PKD
ROOT
HETATM    1  C   UNL     1     -11.117   6.205  68.775  1.00  0.00    -0.398 C  
HETATM    2  C   UNL     1     -11.244   6.905  70.091  1.00  0.00    -0.361 A  
HETATM    3  C   UNL     1     -10.286   7.698  70.746  1.00  0.00    -0.203 A  
HETATM    4  C   UNL     1     -12.388   7.424  72.069  1.00  0.00    -0.266 A  
HETATM    5  S   UNL     1     -10.905   8.235  72.276  1.00  0.00    -0.357 SA 
HETATM    6  C   UNL     1     -12.446   6.764  70.870  1.00  0.00    -0.270 A  
ENDROOT
BRANCH   3   7
HETATM    7  C   UNL     1      -8.918   8.064  70.410  1.00  0.00    -0.146 C  
HETATM    8  C   UNL     1      -8.690   9.213  69.724  1.00  0.00    -0.155 C  
BRANCH   7   9
HETATM    9  C   UNL     1      -7.764   7.281  70.861  1.00  0.00    -0.092 A  
HETATM   10  C   UNL     1      -6.924   7.375  71.985  1.00  0.00    -0.062 A  
HETATM   11  C   UNL     1      -6.039   5.458  70.963  1.00  0.00    -0.029 A  
HETATM   12  C   UNL     1      -5.934   6.327  72.015  1.00  0.00    -0.037 A  
HETATM   13  S   UNL     1      -7.295   5.893  69.910  1.00  0.00    -0.076 SA 
HETATM   14  C   UNL     1      -6.954   8.372  73.106  1.00  0.00    -0.111 C  
ENDBRANCH   7   9
BRANCH   8  15
HETATM   15  C   UNL     1      -9.704  10.277  69.349  1.00  0.00    -0.242 C  
BRANCH  15  16
HETATM   16  C   UNL     1     -10.167  10.258  67.857  1.00  0.00    -0.183 C  
BRANCH  16  17
HETATM   17  N   UNL     1     -11.390  11.053  67.648  1.00  0.00    -0.434 NA 
HETATM   18  C   UNL     1     -11.995  11.608  68.848  1.00  0.00    -0.292 C  
HETATM   19  C   UNL     1     -11.583  13.052  69.088  1.00  0.00    -0.368 C  
HETATM   20  C   UNL     1     -12.139  13.923  67.977  1.00  0.00    -0.318 C  
HETATM   21  C   UNL     1     -11.737  13.423  66.587  1.00  0.00    -0.428 C  
HETATM   22  C   UNL     1     -10.662  14.240  65.889  1.00  0.00    -0.303 C  
HETATM   23  C   UNL     1     -11.434  11.907  66.453  1.00  0.00    -0.304 C  
HETATM   24  O   UNL     1      -9.748  14.838  66.678  1.00  0.00    -0.245 OA 
HETATM   25  O   UNL     1     -10.598  14.334  64.668  1.00  0.00    -0.421 OA 
ENDBRANCH  16  17
ENDBRANCH  15  16
ENDBRANCH   8  15
ENDBRANCH   3   7
TORSDOF 5
ENDMDL
MODEL      149
REMARK 921   NORMALIZED FREE ENERGY PREDICTED BY IDOCK:   -4.37 KCAL/MOL
REMARK 922        TOTAL FREE ENERGY PREDICTED BY IDOCK:   -7.15 KCAL/MOL
REMARK 923 INTER-LIGAND FREE ENERGY PREDICTED BY IDOCK:   -6.11 KCAL/MOL
REMARK 924 INTRA-LIGAND FREE ENERGY PREDICTED BY IDOCK:   -1.04 KCAL/MOL
REMARK 927      BINDING AFFINITY PREDICTED BY RF-SCORE:    0.00 PKD
ROOT
HETATM    1  C   UNL     1      -9.879   9.647  65.585  1.00  0.00    -0.369 C  
HETATM    2  C   UNL     1      -8.696   9.796  66.489  1.00  0.00    -0.139 A  
HETATM    3  C   UNL     1      -8.625  10.471  67.719  1.00  0.00    -0.118 A  
HETATM    4  C   UNL     1      -6.430   9.511  67.013  1.00  0.00    -0.067 A  
HETATM    5  S   UNL     1      -7.009  10.400  68.346  1.00  0.00    -0.070 SA 
HETATM    6  C   UNL     1      -7.421   9.249  66.104  1.00  0.00    -0.096 A  
ENDROOT
BRANCH   3   7
HETATM    7  C   UNL     1      -9.605  11.236  68.477  1.00  0.00    -0.199 C  
HETATM    8  C   UNL     1      -9.716  12.571  68.257  1.00  0.00    -0.220 C  
BRANCH   7   9
HETATM    9  C   UNL     1     -10.543  10.604  69.410  1.00  0.00    -0.239 A  
HETATM   10  C   UNL     1     -11.666  11.082  70.108  1.00  0.00    -0.442 A  
HETATM   11  C   UNL     1     -11.699   8.828  70.758  1.00  0.00    -0.219 A  
HETATM   12  C   UNL     1     -12.305  10.049  70.886  1.00  0.00    -0.438 A  
HETATM   13  S   UNL     1     -10.346   8.900  69.738  1.00  0.00    -0.213 SA 
HETATM   14  C   UNL     1     -12.256  12.461  70.118  1.00  0.00    -0.303 C  
ENDBRANCH   7   9
BRANCH   8  15
HETATM   15  C   UNL     1      -9.008  13.390  67.195  1.00  0.00    -0.227 C  
BRANCH  15  16
HETATM   16  C   UNL     1      -7.637  14.001  67.628  1.00  0.00    -0.179 C  
BRANCH  16  17
HETATM   17  N   UNL     1      -7.738  15.445  67.904  1.00  0.00    -0.125 NA 
HETATM   18  C   UNL     1      -7.818  16.307  66.736  1.00  0.00    -0.265 C  
HETATM   19  C   UNL     1      -9.251  16.683  66.393  1.00  0.00    -0.318 C  
HETATM   20  C   UNL     1      -9.823  17.542  67.505  1.00  0.00    -0.293 C  
HETATM   21  C   UNL     1      -9.706  16.874  68.878  1.00  0.00    -0.256 C  
HETATM   22  C   UNL     1     -11.003  16.316  69.441  1.00  0.00    -0.337 C  
HETATM   23  C   UNL     1      -8.555  15.848  69.057  1.00  0.00    -0.239 C  
HETATM   24  O   UNL     1     -11.906  15.864  68.549  1.00  0.00    -0.366 OA 
HETATM   25  O   UNL     1     -11.218  16.245  70.646  1.00  0.00    -0.371 OA 
ENDBRANCH  16  17
ENDBRANCH  15  16
ENDBRANCH   8  15
ENDBRANCH   3   7
TORSDOF 5
ENDMDL
MODEL      150
REMARK 921   NORMALIZED FREE ENERGY PREDICTED BY IDOCK:   -4.36 KCAL/MOL
REMARK 922        TOTAL FREE ENERGY PREDICTED BY IDOCK:   -7.13 KCAL/MOL
REMARK 923 INTER-LIGAND FREE ENERGY PREDICTED BY IDOCK:   -5.98 KCAL/MOL
REMARK 924 INTRA-LIGAND FREE ENERGY PREDICTED BY IDOCK:   -1.15 KCAL/MOL
REMARK 927      BINDING AFFINITY PREDICTED BY RF-SCORE:    0.00 PKD
ROOT
HETATM    1  C   UNL     1     -12.358  13.230  66.074  1.00  0.00    -0.449 C  
HETATM    2  C   UNL     1     -11.060  13.529  66.755  1.00  0.00    -0.311 A  
HETATM    3  C   UNL     1     -10.714  13.304  68.098  1.00  0.00    -0.249 A  
HETATM    4  C   UNL     1      -8.894  14.423  66.803  1.00  0.00    -0.200 A  
HETATM    5  S   UNL     1      -9.106  13.882  68.404  1.00  0.00    -0.154 SA 
HETATM    6  C   UNL     1      -9.996  14.172  66.029  1.00  0.00    -0.340 A  
ENDROOT
BRANCH   3   7
HETATM    7  C   UNL     1     -11.458  12.764  69.227  1.00  0.00    -0.349 C  
HETATM    8  C   UNL     1     -11.370  11.439  69.505  1.00  0.00    -0.357 C  
BRANCH   7   9
HETATM    9  C   UNL     1     -12.235  13.615  70.133  1.00  0.00    -0.342 A  
HETATM   10  C   UNL     1     -12.530  14.991  70.136  1.00  0.00    -0.356 A  
HETATM   11  C   UNL     1     -13.750  14.298  72.016  1.00  0.00    -0.450 A  
HETATM   12  C   UNL     1     -13.389  15.361  71.234  1.00  0.00    -0.598 A  
HETATM   13  S   UNL     1     -13.049  12.852  71.476  1.00  0.00    -0.214 SA 
HETATM   14  C   UNL     1     -12.096  16.052  69.169  1.00  0.00    -0.065 C  
ENDBRANCH   7   9
BRANCH   8  15
HETATM   15  C   UNL     1     -10.464  10.418  68.842  1.00  0.00    -0.232 C  
BRANCH  15  16
HETATM   16  C   UNL     1     -10.999   9.826  67.499  1.00  0.00    -0.138 C  
BRANCH  16  17
HETATM   17  N   UNL     1      -9.905   9.467  66.579  1.00  0.00    -0.237 NA 
HETATM   18  C   UNL     1      -8.876  10.477  66.397  1.00  0.00    -0.153 C  
HETATM   19  C   UNL     1      -7.665  10.235  67.286  1.00  0.00    -0.095 C  
HETATM   20  C   UNL     1      -6.980   8.951  66.858  1.00  0.00    -0.078 C  
HETATM   21  C   UNL     1      -7.937   7.757  66.836  1.00  0.00    -0.112 C  
HETATM   22  C   UNL     1      -7.773   6.771  67.982  1.00  0.00    -0.112 C  
HETATM   23  C   UNL     1      -9.439   8.073  66.609  1.00  0.00    -0.212 C  
HETATM   24  O   UNL     1      -7.355   7.275  69.159  1.00  0.00    -0.083 OA 
HETATM   25  O   UNL     1      -8.033   5.579  67.863  1.00  0.00    -0.096 OA 
ENDBRANCH  16  17
ENDBRANCH  15  16
ENDBRANCH   8  15
ENDBRANCH   3   7
TORSDOF 5
ENDMDL
MODEL      151
REMARK 921   NORMALIZED FREE ENERGY PREDICTED BY IDOCK:   -4.35 KCAL/MOL
REMARK 922        TOTAL FREE ENERGY PREDICTED BY IDOCK:   -7.12 KCAL/MOL
REMARK 923 INTER-LIGAND FREE ENERGY PREDICTED BY IDOCK:   -7.53 KCAL/MOL
REMARK 924 INTRA-LIGAND FREE ENERGY PREDICTED BY IDOCK:    0.40 KCAL/MOL
REMARK 927      BINDING AFFINITY PREDICTED BY RF-SCORE:    0.00 PKD
ROOT
HETATM    1  C   UNL     1     -11.260   6.104  70.112  1.00  0.00    -0.452 C  
HETATM    2  C   UNL     1     -11.722   7.399  70.702  1.00  0.00    -0.270 A  
HETATM    3  C   UNL     1     -11.250   8.694  70.428  1.00  0.00    -0.218 A  
HETATM    4  C   UNL     1     -13.018   8.660  72.193  1.00  0.00    -0.387 A  
HETATM    5  S   UNL     1     -12.078   9.852  71.421  1.00  0.00    -0.420 SA 
HETATM    6  C   UNL     1     -12.741   7.404  71.719  1.00  0.00    -0.367 A  
ENDROOT
BRANCH   3   7
HETATM    7  C   UNL     1     -10.196   9.190  69.555  1.00  0.00    -0.208 C  
HETATM    8  C   UNL     1     -10.332  10.414  68.983  1.00  0.00    -0.232 C  
BRANCH   7   9
HETATM    9  C   UNL     1      -8.947   8.455  69.338  1.00  0.00    -0.153 A  
HETATM   10  C   UNL     1      -7.902   8.068  70.196  1.00  0.00    -0.099 A  
HETATM   11  C   UNL     1      -7.172   7.099  68.189  1.00  0.00    -0.095 A  
HETATM   12  C   UNL     1      -6.889   7.304  69.512  1.00  0.00    -0.050 A  
HETATM   13  S   UNL     1      -8.629   7.838  67.735  1.00  0.00    -0.120 SA 
HETATM   14  C   UNL     1      -7.742   8.327  71.665  1.00  0.00    -0.122 C  
ENDBRANCH   7   9
BRANCH   8  15
HETATM   15  C   UNL     1     -11.428  11.431  69.237  1.00  0.00    -0.370 C  
BRANCH  15  16
HETATM   16  C   UNL     1     -11.778  12.350  68.023  1.00  0.00    -0.356 C  
BRANCH  16  17
HETATM   17  N   UNL     1     -10.664  12.445  67.063  1.00  0.00    -0.235 NA 
HETATM   18  C   UNL     1     -10.595  11.387  66.069  1.00  0.00    -0.266 C  
HETATM   19  C   UNL     1     -11.234  11.791  64.749  1.00  0.00    -0.333 C  
HETATM   20  C   UNL     1     -10.427  12.914  64.126  1.00  0.00    -0.429 C  
HETATM   21  C   UNL     1     -10.246  14.101  65.076  1.00  0.00    -0.399 C  
HETATM   22  C   UNL     1     -11.092  15.323  64.757  1.00  0.00    -0.394 C  
HETATM   23  C   UNL     1     -10.300  13.790  66.596  1.00  0.00    -0.279 C  
HETATM   24  O   UNL     1     -12.290  15.098  64.185  1.00  0.00    -0.636 OA 
HETATM   25  O   UNL     1     -10.728  16.462  65.030  1.00  0.00    -0.638 OA 
ENDBRANCH  16  17
ENDBRANCH  15  16
ENDBRANCH   8  15
ENDBRANCH   3   7
TORSDOF 5
ENDMDL
MODEL      152
REMARK 921   NORMALIZED FREE ENERGY PREDICTED BY IDOCK:   -4.35 KCAL/MOL
REMARK 922        TOTAL FREE ENERGY PREDICTED BY IDOCK:   -7.12 KCAL/MOL
REMARK 923 INTER-LIGAND FREE ENERGY PREDICTED BY IDOCK:   -5.76 KCAL/MOL
REMARK 924 INTRA-LIGAND FREE ENERGY PREDICTED BY IDOCK:   -1.36 KCAL/MOL
REMARK 927      BINDING AFFINITY PREDICTED BY RF-SCORE:    0.00 PKD
ROOT
HETATM    1  C   UNL     1      -8.069   8.675  63.922  1.00  0.00    -0.163 C  
HETATM    2  C   UNL     1      -7.566   9.247  65.210  1.00  0.00    -0.099 A  
HETATM    3  C   UNL     1      -8.298   9.539  66.373  1.00  0.00    -0.119 A  
HETATM    4  C   UNL     1      -5.889  10.171  66.560  1.00  0.00    -0.060 A  
HETATM    5  S   UNL     1      -7.258  10.244  67.570  1.00  0.00    -0.088 SA 
HETATM    6  C   UNL     1      -6.181   9.617  65.342  1.00  0.00    -0.071 A  
ENDROOT
BRANCH   3   7
HETATM    7  C   UNL     1      -9.713   9.423  66.698  1.00  0.00    -0.280 C  
HETATM    8  C   UNL     1     -10.607  10.218  66.055  1.00  0.00    -0.111 C  
BRANCH   7   9
HETATM    9  C   UNL     1     -10.223   8.416  67.632  1.00  0.00    -0.236 A  
HETATM   10  C   UNL     1     -10.420   8.415  69.025  1.00  0.00    -0.216 A  
HETATM   11  C   UNL     1     -11.256   6.291  68.485  1.00  0.00    -0.209 A  
HETATM   12  C   UNL     1     -11.001   7.181  69.492  1.00  0.00    -0.214 A  
HETATM   13  S   UNL     1     -10.781   6.897  66.974  1.00  0.00    -0.336 SA 
HETATM   14  C   UNL     1     -10.133   9.501  70.020  1.00  0.00    -0.279 C  
ENDBRANCH   7   9
BRANCH   8  15
HETATM   15  C   UNL     1     -10.332  11.169  64.906  1.00  0.00    -0.375 C  
BRANCH  15  16
HETATM   16  C   UNL     1     -11.574  11.963  64.388  1.00  0.00    -0.292 C  
BRANCH  16  17
HETATM   17  N   UNL     1     -11.472  13.403  64.683  1.00  0.00    -0.334 NA 
HETATM   18  C   UNL     1     -12.610  13.989  65.371  1.00  0.00    -0.505 C  
HETATM   19  C   UNL     1     -12.395  14.078  66.874  1.00  0.00    -0.321 C  
HETATM   20  C   UNL     1     -11.269  15.053  67.161  1.00  0.00    -0.336 C  
HETATM   21  C   UNL     1      -9.984  14.701  66.405  1.00  0.00    -0.296 C  
HETATM   22  C   UNL     1      -8.880  14.088  67.251  1.00  0.00    -0.218 C  
HETATM   23  C   UNL     1     -10.151  13.910  65.081  1.00  0.00    -0.303 C  
HETATM   24  O   UNL     1      -9.267  13.340  68.303  1.00  0.00    -0.206 OA 
HETATM   25  O   UNL     1      -7.692  14.234  66.985  1.00  0.00    -0.090 OA 
ENDBRANCH  16  17
ENDBRANCH  15  16
ENDBRANCH   8  15
ENDBRANCH   3   7
TORSDOF 5
ENDMDL
MODEL      153
REMARK 921   NORMALIZED FREE ENERGY PREDICTED BY IDOCK:   -4.34 KCAL/MOL
REMARK 922        TOTAL FREE ENERGY PREDICTED BY IDOCK:   -7.11 KCAL/MOL
REMARK 923 INTER-LIGAND FREE ENERGY PREDICTED BY IDOCK:   -5.83 KCAL/MOL
REMARK 924 INTRA-LIGAND FREE ENERGY PREDICTED BY IDOCK:   -1.28 KCAL/MOL
REMARK 927      BINDING AFFINITY PREDICTED BY RF-SCORE:    0.00 PKD
ROOT
HETATM    1  C   UNL     1     -12.972  14.113  65.177  1.00  0.00    -0.207 C  
HETATM    2  C   UNL     1     -11.879  13.130  64.897  1.00  0.00    -0.399 A  
HETATM    3  C   UNL     1     -10.693  12.923  65.621  1.00  0.00    -0.274 A  
HETATM    4  C   UNL     1     -10.853  11.478  63.589  1.00  0.00    -0.415 A  
HETATM    5  S   UNL     1      -9.729  11.704  64.848  1.00  0.00    -0.162 SA 
HETATM    6  C   UNL     1     -11.951  12.286  63.733  1.00  0.00    -0.609 A  
ENDROOT
BRANCH   3   7
HETATM    7  C   UNL     1     -10.137  13.570  66.801  1.00  0.00    -0.268 C  
HETATM    8  C   UNL     1     -10.398  13.049  68.026  1.00  0.00    -0.237 C  
BRANCH   7   9
HETATM    9  C   UNL     1      -9.230  14.718  66.711  1.00  0.00    -0.260 A  
HETATM   10  C   UNL     1      -9.382  16.021  66.203  1.00  0.00    -0.377 A  
HETATM   11  C   UNL     1      -7.191  16.150  67.030  1.00  0.00    -0.221 A  
HETATM   12  C   UNL     1      -8.195  16.819  66.385  1.00  0.00    -0.349 A  
HETATM   13  S   UNL     1      -7.634  14.555  67.401  1.00  0.00    -0.137 SA 
HETATM   14  C   UNL     1     -10.580  16.646  65.551  1.00  0.00    -0.273 C  
ENDBRANCH   7   9
BRANCH   8  15
HETATM   15  C   UNL     1     -11.124  11.754  68.340  1.00  0.00    -0.286 C  
BRANCH  15  16
HETATM   16  C   UNL     1     -10.211  10.575  68.808  1.00  0.00    -0.190 C  
BRANCH  16  17
HETATM   17  N   UNL     1     -10.777   9.263  68.450  1.00  0.00    -0.185 NA 
HETATM   18  C   UNL     1     -10.975   9.027  67.029  1.00  0.00     0.209 C  
HETATM   19  C   UNL     1      -9.826   8.248  66.407  1.00  0.00    -0.283 C  
HETATM   20  C   UNL     1      -9.792   6.851  66.996  1.00  0.00    -0.228 C  
HETATM   21  C   UNL     1      -9.731   6.863  68.526  1.00  0.00    -0.138 C  
HETATM   22  C   UNL     1      -8.378   6.512  69.125  1.00  0.00    -0.119 C  
HETATM   23  C   UNL     1     -10.328   8.106  69.237  1.00  0.00    -0.217 C  
HETATM   24  O   UNL     1      -7.291   6.853  68.406  1.00  0.00    -0.088 OA 
HETATM   25  O   UNL     1      -8.266   5.972  70.220  1.00  0.00    -0.115 OA 
ENDBRANCH  16  17
ENDBRANCH  15  16
ENDBRANCH   8  15
ENDBRANCH   3   7
TORSDOF 5
ENDMDL
MODEL      154
REMARK 921   NORMALIZED FREE ENERGY PREDICTED BY IDOCK:   -4.34 KCAL/MOL
REMARK 922        TOTAL FREE ENERGY PREDICTED BY IDOCK:   -7.11 KCAL/MOL
REMARK 923 INTER-LIGAND FREE ENERGY PREDICTED BY IDOCK:   -5.91 KCAL/MOL
REMARK 924 INTRA-LIGAND FREE ENERGY PREDICTED BY IDOCK:   -1.19 KCAL/MOL
REMARK 927      BINDING AFFINITY PREDICTED BY RF-SCORE:    0.00 PKD
ROOT
HETATM    1  C   UNL     1     -11.035  12.108  66.228  1.00  0.00    -0.332 C  
HETATM    2  C   UNL     1     -10.167  10.893  66.152  1.00  0.00    -0.304 A  
HETATM    3  C   UNL     1      -9.429  10.289  67.185  1.00  0.00    -0.158 A  
HETATM    4  C   UNL     1      -9.112   9.160  64.979  1.00  0.00    -0.156 A  
HETATM    5  S   UNL     1      -8.539   8.934  66.567  1.00  0.00    -0.128 SA 
HETATM    6  C   UNL     1      -9.972  10.223  64.893  1.00  0.00    -0.393 A  
ENDROOT
BRANCH   3   7
HETATM    7  C   UNL     1      -9.240  10.633  68.587  1.00  0.00    -0.181 C  
HETATM    8  C   UNL     1      -8.172  11.391  68.944  1.00  0.00    -0.054 C  
BRANCH   7   9
HETATM    9  C   UNL     1     -10.211  10.266  69.622  1.00  0.00    -0.235 A  
HETATM   10  C   UNL     1     -10.157   9.379  70.713  1.00  0.00    -0.366 A  
HETATM   11  C   UNL     1     -12.301  10.282  71.014  1.00  0.00    -0.381 A  
HETATM   12  C   UNL     1     -11.372   9.396  71.488  1.00  0.00    -0.464 A  
HETATM   13  S   UNL     1     -11.754  11.084  69.624  1.00  0.00    -0.360 SA 
HETATM   14  C   UNL     1      -9.033   8.486  71.150  1.00  0.00    -0.232 C  
ENDBRANCH   7   9
BRANCH   8  15
HETATM   15  C   UNL     1      -7.168  12.059  68.023  1.00  0.00    -0.096 C  
BRANCH  15  16
HETATM   16  C   UNL     1      -7.576  13.478  67.512  1.00  0.00    -0.167 C  
BRANCH  16  17
HETATM   17  N   UNL     1      -7.649  14.460  68.607  1.00  0.00    -0.127 NA 
HETATM   18  C   UNL     1      -6.432  15.212  68.864  1.00  0.00    -0.098 C  
HETATM   19  C   UNL     1      -6.438  16.573  68.186  1.00  0.00    -0.141 C  
HETATM   20  C   UNL     1      -7.523  17.435  68.805  1.00  0.00    -0.258 C  
HETATM   21  C   UNL     1      -8.896  16.758  68.773  1.00  0.00    -0.258 C  
HETATM   22  C   UNL     1      -9.868  17.308  67.741  1.00  0.00    -0.281 C  
HETATM   23  C   UNL     1      -8.907  15.206  68.751  1.00  0.00    -0.196 C  
HETATM   24  O   UNL     1      -9.332  17.795  66.605  1.00  0.00    -0.271 OA 
HETATM   25  O   UNL     1     -11.082  17.288  67.908  1.00  0.00    -0.276 OA 
ENDBRANCH  16  17
ENDBRANCH  15  16
ENDBRANCH   8  15
ENDBRANCH   3   7
TORSDOF 5
ENDMDL
MODEL      155
REMARK 921   NORMALIZED FREE ENERGY PREDICTED BY IDOCK:   -4.33 KCAL/MOL
REMARK 922        TOTAL FREE ENERGY PREDICTED BY IDOCK:   -7.09 KCAL/MOL
REMARK 923 INTER-LIGAND FREE ENERGY PREDICTED BY IDOCK:   -5.76 KCAL/MOL
REMARK 924 INTRA-LIGAND FREE ENERGY PREDICTED BY IDOCK:   -1.33 KCAL/MOL
REMARK 927      BINDING AFFINITY PREDICTED BY RF-SCORE:    0.00 PKD
ROOT
HETATM    1  C   UNL     1     -11.737  12.163  67.850  1.00  0.00    -0.403 C  
HETATM    2  C   UNL     1     -10.775  11.614  66.845  1.00  0.00    -0.295 A  
HETATM    3  C   UNL     1      -9.390  11.423  66.986  1.00  0.00    -0.174 A  
HETATM    4  C   UNL     1     -10.225  10.816  64.711  1.00  0.00    -0.334 A  
HETATM    5  S   UNL     1      -8.720  10.811  65.507  1.00  0.00    -0.170 SA 
HETATM    6  C   UNL     1     -11.233  11.255  65.528  1.00  0.00    -0.069 A  
ENDROOT
BRANCH   3   7
HETATM    7  C   UNL     1      -8.466  11.703  68.075  1.00  0.00    -0.151 C  
HETATM    8  C   UNL     1      -7.912  12.939  68.172  1.00  0.00    -0.153 C  
BRANCH   7   9
HETATM    9  C   UNL     1      -8.176  10.726  69.129  1.00  0.00    -0.120 A  
HETATM   10  C   UNL     1      -8.977   9.800  69.822  1.00  0.00    -0.239 A  
HETATM   11  C   UNL     1      -6.877   9.311  70.747  1.00  0.00    -0.100 A  
HETATM   12  C   UNL     1      -8.212   9.010  70.755  1.00  0.00    -0.213 A  
HETATM   13  S   UNL     1      -6.519  10.558  69.655  1.00  0.00    -0.100 SA 
HETATM   14  C   UNL     1     -10.448   9.541  69.692  1.00  0.00    -0.239 C  
ENDBRANCH   7   9
BRANCH   8  15
HETATM   15  C   UNL     1      -8.233  14.159  67.330  1.00  0.00    -0.200 C  
BRANCH  15  16
HETATM   16  C   UNL     1      -7.164  15.298  67.373  1.00  0.00    -0.204 C  
BRANCH  16  17
HETATM   17  N   UNL     1      -7.765  16.608  67.677  1.00  0.00    -0.162 NA 
HETATM   18  C   UNL     1      -8.089  17.436  66.527  1.00  0.00    -0.277 C  
HETATM   19  C   UNL     1      -9.550  17.314  66.120  1.00  0.00    -0.224 C  
HETATM   20  C   UNL     1     -10.425  17.881  67.222  1.00  0.00    -0.373 C  
HETATM   21  C   UNL     1     -10.141  17.240  68.582  1.00  0.00    -0.341 C  
HETATM   22  C   UNL     1     -11.189  16.250  69.066  1.00  0.00    -0.326 C  
HETATM   23  C   UNL     1      -8.716  16.662  68.796  1.00  0.00    -0.260 C  
HETATM   24  O   UNL     1     -11.846  15.553  68.119  1.00  0.00    -0.301 OA 
HETATM   25  O   UNL     1     -11.414  16.063  70.256  1.00  0.00    -0.337 OA 
ENDBRANCH  16  17
ENDBRANCH  15  16
ENDBRANCH   8  15
ENDBRANCH   3   7
TORSDOF 5
ENDMDL
MODEL      156
REMARK 921   NORMALIZED FREE ENERGY PREDICTED BY IDOCK:   -4.33 KCAL/MOL
REMARK 922        TOTAL FREE ENERGY PREDICTED BY IDOCK:   -7.09 KCAL/MOL
REMARK 923 INTER-LIGAND FREE ENERGY PREDICTED BY IDOCK:   -5.91 KCAL/MOL
REMARK 924 INTRA-LIGAND FREE ENERGY PREDICTED BY IDOCK:   -1.18 KCAL/MOL
REMARK 927      BINDING AFFINITY PREDICTED BY RF-SCORE:    0.00 PKD
ROOT
HETATM    1  C   UNL     1      -8.492  12.653  68.699  1.00  0.00     0.043 C  
HETATM    2  C   UNL     1      -7.740  11.508  68.098  1.00  0.00    -0.120 A  
HETATM    3  C   UNL     1      -8.207  10.546  67.187  1.00  0.00    -0.123 A  
HETATM    4  C   UNL     1      -5.841  10.150  67.885  1.00  0.00    -0.041 A  
HETATM    5  S   UNL     1      -6.956   9.394  66.843  1.00  0.00    -0.082 SA 
HETATM    6  C   UNL     1      -6.375  11.262  68.483  1.00  0.00    -0.047 A  
ENDROOT
BRANCH   3   7
HETATM    7  C   UNL     1      -9.510  10.325  66.575  1.00  0.00    -0.212 C  
HETATM    8  C   UNL     1     -10.480   9.700  67.290  1.00  0.00    -0.323 C  
BRANCH   7   9
HETATM    9  C   UNL     1      -9.845  10.832  65.241  1.00  0.00    -0.272 A  
HETATM   10  C   UNL     1      -9.522  10.396  63.943  1.00  0.00    -0.354 A  
HETATM   11  C   UNL     1     -10.918  12.213  63.438  1.00  0.00    -0.412 A  
HETATM   12  C   UNL     1     -10.138  11.213  62.925  1.00  0.00    -0.235 A  
HETATM   13  S   UNL     1     -10.906  12.215  65.134  1.00  0.00    -0.311 SA 
HETATM   14  C   UNL     1      -8.677   9.232  63.520  1.00  0.00    -0.188 C  
ENDBRANCH   7   9
BRANCH   8  15
HETATM   15  C   UNL     1     -10.426   9.290  68.749  1.00  0.00    -0.233 C  
BRANCH  15  16
HETATM   16  C   UNL     1      -9.540   8.040  69.057  1.00  0.00    -0.156 C  
BRANCH  16  17
HETATM   17  N   UNL     1     -10.043   7.278  70.213  1.00  0.00    -0.191 NA 
HETATM   18  C   UNL     1      -9.199   7.294  71.396  1.00  0.00    -0.142 C  
HETATM   19  C   UNL     1      -9.642   8.340  72.408  1.00  0.00    -0.364 C  
HETATM   20  C   UNL     1     -11.006   7.963  72.953  1.00  0.00    -0.452 C  
HETATM   21  C   UNL     1     -12.039   7.748  71.843  1.00  0.00    -0.341 C  
HETATM   22  C   UNL     1     -13.062   8.861  71.683  1.00  0.00    -0.357 C  
HETATM   23  C   UNL     1     -11.492   7.315  70.457  1.00  0.00    -0.279 C  
HETATM   24  O   UNL     1     -12.652  10.108  71.987  1.00  0.00    -0.376 OA 
HETATM   25  O   UNL     1     -14.197   8.654  71.270  1.00  0.00    -0.336 OA 
ENDBRANCH  16  17
ENDBRANCH  15  16
ENDBRANCH   8  15
ENDBRANCH   3   7
TORSDOF 5
ENDMDL
MODEL      157
REMARK 921   NORMALIZED FREE ENERGY PREDICTED BY IDOCK:   -4.32 KCAL/MOL
REMARK 922        TOTAL FREE ENERGY PREDICTED BY IDOCK:   -7.08 KCAL/MOL
REMARK 923 INTER-LIGAND FREE ENERGY PREDICTED BY IDOCK:   -5.81 KCAL/MOL
REMARK 924 INTRA-LIGAND FREE ENERGY PREDICTED BY IDOCK:   -1.27 KCAL/MOL
REMARK 927      BINDING AFFINITY PREDICTED BY RF-SCORE:    0.00 PKD
ROOT
HETATM    1  C   UNL     1     -10.013   9.504  66.110  1.00  0.00    -0.342 C  
HETATM    2  C   UNL     1      -9.043   9.908  67.174  1.00  0.00    -0.154 A  
HETATM    3  C   UNL     1      -9.257   9.977  68.562  1.00  0.00    -0.141 A  
HETATM    4  C   UNL     1      -6.967  10.721  67.895  1.00  0.00    -0.073 A  
HETATM    5  S   UNL     1      -7.827  10.559  69.356  1.00  0.00    -0.120 SA 
HETATM    6  C   UNL     1      -7.717  10.338  66.815  1.00  0.00    -0.111 A  
ENDROOT
BRANCH   3   7
HETATM    7  C   UNL     1     -10.429   9.727  69.388  1.00  0.00    -0.241 C  
HETATM    8  C   UNL     1     -11.428  10.646  69.415  1.00  0.00    -0.356 C  
BRANCH   7   9
HETATM    9  C   UNL     1     -10.614   8.475  70.127  1.00  0.00    -0.232 A  
HETATM   10  C   UNL     1     -10.749   7.135  69.722  1.00  0.00    -0.257 A  
HETATM   11  C   UNL     1     -10.794   6.871  72.052  1.00  0.00    -0.225 A  
HETATM   12  C   UNL     1     -10.865   6.235  70.843  1.00  0.00    -0.329 A  
HETATM   13  S   UNL     1     -10.620   8.549  71.872  1.00  0.00    -0.349 SA 
HETATM   14  C   UNL     1     -10.763   6.565  68.334  1.00  0.00    -0.339 C  
ENDBRANCH   7   9
BRANCH   8  15
HETATM   15  C   UNL     1     -11.548  11.899  68.569  1.00  0.00    -0.375 C  
BRANCH  15  16
HETATM   16  C   UNL     1     -10.540  13.040  68.922  1.00  0.00    -0.127 C  
BRANCH  16  17
HETATM   17  N   UNL     1     -10.209  13.867  67.749  1.00  0.00    -0.234 NA 
HETATM   18  C   UNL     1     -10.936  15.120  67.634  1.00  0.00    -0.308 C  
HETATM   19  C   UNL     1     -10.147  16.299  68.181  1.00  0.00    -0.244 C  
HETATM   20  C   UNL     1      -8.919  16.523  67.318  1.00  0.00    -0.212 C  
HETATM   21  C   UNL     1      -8.065  15.260  67.179  1.00  0.00    -0.248 C  
HETATM   22  C   UNL     1      -6.774  15.257  67.984  1.00  0.00    -0.144 C  
HETATM   23  C   UNL     1      -8.799  13.902  67.334  1.00  0.00    -0.207 C  
HETATM   24  O   UNL     1      -6.784  15.937  69.147  1.00  0.00    -0.141 OA 
HETATM   25  O   UNL     1      -5.776  14.645  67.619  1.00  0.00    -0.305 OA 
ENDBRANCH  16  17
ENDBRANCH  15  16
ENDBRANCH   8  15
ENDBRANCH   3   7
TORSDOF 5
ENDMDL
MODEL      158
REMARK 921   NORMALIZED FREE ENERGY PREDICTED BY IDOCK:   -4.32 KCAL/MOL
REMARK 922        TOTAL FREE ENERGY PREDICTED BY IDOCK:   -7.08 KCAL/MOL
REMARK 923 INTER-LIGAND FREE ENERGY PREDICTED BY IDOCK:   -5.92 KCAL/MOL
REMARK 924 INTRA-LIGAND FREE ENERGY PREDICTED BY IDOCK:   -1.16 KCAL/MOL
REMARK 927      BINDING AFFINITY PREDICTED BY RF-SCORE:    0.00 PKD
ROOT
HETATM    1  C   UNL     1      -8.031  11.136  66.967  1.00  0.00    -0.145 C  
HETATM    2  C   UNL     1      -7.737  10.537  68.306  1.00  0.00    -0.101 A  
HETATM    3  C   UNL     1      -8.522   9.634  69.042  1.00  0.00    -0.131 A  
HETATM    4  C   UNL     1      -6.445  10.319  70.249  1.00  0.00    -0.137 A  
HETATM    5  S   UNL     1      -7.763   9.288  70.564  1.00  0.00    -0.156 SA 
HETATM    6  C   UNL     1      -6.545  10.915  69.019  1.00  0.00    -0.061 A  
ENDROOT
BRANCH   3   7
HETATM    7  C   UNL     1      -9.823   9.031  68.789  1.00  0.00    -0.180 C  
HETATM    8  C   UNL     1     -10.946   9.722  69.112  1.00  0.00    -0.205 C  
BRANCH   7   9
HETATM    9  C   UNL     1      -9.970   7.738  68.115  1.00  0.00    -0.178 A  
HETATM   10  C   UNL     1     -10.632   6.546  68.465  1.00  0.00    -0.291 A  
HETATM   11  C   UNL     1      -9.835   5.971  66.335  1.00  0.00    -0.110 A  
HETATM   12  C   UNL     1     -10.529   5.543  67.434  1.00  0.00    -0.284 A  
HETATM   13  S   UNL     1      -9.271   7.559  66.525  1.00  0.00    -0.169 SA 
HETATM   14  C   UNL     1     -11.409   6.227  69.707  1.00  0.00    -0.506 C  
ENDBRANCH   7   9
BRANCH   8  15
HETATM   15  C   UNL     1     -11.036  11.151  69.612  1.00  0.00    -0.297 C  
BRANCH  15  16
HETATM   16  C   UNL     1     -11.113  12.243  68.498  1.00  0.00    -0.249 C  
BRANCH  16  17
HETATM   17  N   UNL     1     -12.061  13.317  68.842  1.00  0.00    -0.287 NA 
HETATM   18  C   UNL     1     -12.391  13.441  70.252  1.00  0.00    -0.284 C  
HETATM   19  C   UNL     1     -11.558  14.506  70.949  1.00  0.00    -0.243 C  
HETATM   20  C   UNL     1     -11.913  15.868  70.382  1.00  0.00    -0.336 C  
HETATM   21  C   UNL     1     -11.775  15.921  68.858  1.00  0.00    -0.376 C  
HETATM   22  C   UNL     1     -10.560  16.675  68.342  1.00  0.00    -0.343 C  
HETATM   23  C   UNL     1     -11.939  14.578  68.098  1.00  0.00    -0.261 C  
HETATM   24  O   UNL     1      -9.458  16.650  69.116  1.00  0.00    -0.252 OA 
HETATM   25  O   UNL     1     -10.559  17.256  67.262  1.00  0.00    -0.338 OA 
ENDBRANCH  16  17
ENDBRANCH  15  16
ENDBRANCH   8  15
ENDBRANCH   3   7
TORSDOF 5
ENDMDL
MODEL      159
REMARK 921   NORMALIZED FREE ENERGY PREDICTED BY IDOCK:   -4.29 KCAL/MOL
REMARK 922        TOTAL FREE ENERGY PREDICTED BY IDOCK:   -7.04 KCAL/MOL
REMARK 923 INTER-LIGAND FREE ENERGY PREDICTED BY IDOCK:   -5.95 KCAL/MOL
REMARK 924 INTRA-LIGAND FREE ENERGY PREDICTED BY IDOCK:   -1.09 KCAL/MOL
REMARK 927      BINDING AFFINITY PREDICTED BY RF-SCORE:    0.00 PKD
ROOT
HETATM    1  C   UNL     1      -8.132   8.340  62.608  1.00  0.00    -0.172 C  
HETATM    2  C   UNL     1      -7.280   8.686  63.788  1.00  0.00    -0.097 A  
HETATM    3  C   UNL     1      -7.566   8.491  65.150  1.00  0.00    -0.094 A  
HETATM    4  C   UNL     1      -5.379   9.639  64.773  1.00  0.00    -0.056 A  
HETATM    5  S   UNL     1      -6.274   9.118  66.125  1.00  0.00    -0.064 SA 
HETATM    6  C   UNL     1      -6.015   9.346  63.595  1.00  0.00    -0.090 A  
ENDROOT
BRANCH   3   7
HETATM    7  C   UNL     1      -8.727   7.950  65.842  1.00  0.00    -0.180 C  
HETATM    8  C   UNL     1      -9.755   8.778  66.157  1.00  0.00    -0.320 C  
BRANCH   7   9
HETATM    9  C   UNL     1      -8.868   6.520  66.136  1.00  0.00    -0.150 A  
HETATM   10  C   UNL     1      -8.016   5.416  65.949  1.00  0.00    -0.106 A  
HETATM   11  C   UNL     1      -9.825   4.372  67.018  1.00  0.00    -0.194 A  
HETATM   12  C   UNL     1      -8.593   4.193  66.450  1.00  0.00    -0.113 A  
HETATM   13  S   UNL     1     -10.327   5.990  66.936  1.00  0.00    -0.266 SA 
HETATM   14  C   UNL     1      -6.645   5.373  65.343  1.00  0.00    -0.040 C  
ENDBRANCH   7   9
BRANCH   8  15
HETATM   15  C   UNL     1      -9.919  10.232  65.761  1.00  0.00    -0.337 C  
BRANCH  15  16
HETATM   16  C   UNL     1      -9.602  11.269  66.887  1.00  0.00    -0.191 C  
BRANCH  16  17
HETATM   17  N   UNL     1     -10.806  11.999  67.320  1.00  0.00    -0.235 NA 
HETATM   18  C   UNL     1     -10.612  12.953  68.400  1.00  0.00    -0.253 C  
HETATM   19  C   UNL     1     -10.428  14.374  67.890  1.00  0.00    -0.239 C  
HETATM   20  C   UNL     1     -11.713  14.841  67.234  1.00  0.00    -0.366 C  
HETATM   21  C   UNL     1     -12.191  13.883  66.138  1.00  0.00    -0.498 C  
HETATM   22  C   UNL     1     -11.978  14.369  64.713  1.00  0.00    -0.447 C  
HETATM   23  C   UNL     1     -11.756  12.400  66.273  1.00  0.00    -0.395 C  
HETATM   24  O   UNL     1     -10.908  15.158  64.496  1.00  0.00    -0.312 OA 
HETATM   25  O   UNL     1     -12.717  14.041  63.792  1.00  0.00    -0.734 OA 
ENDBRANCH  16  17
ENDBRANCH  15  16
ENDBRANCH   8  15
ENDBRANCH   3   7
TORSDOF 5
ENDMDL
MODEL      160
REMARK 921   NORMALIZED FREE ENERGY PREDICTED BY IDOCK:   -4.27 KCAL/MOL
REMARK 922        TOTAL FREE ENERGY PREDICTED BY IDOCK:   -7.01 KCAL/MOL
REMARK 923 INTER-LIGAND FREE ENERGY PREDICTED BY IDOCK:   -5.89 KCAL/MOL
REMARK 924 INTRA-LIGAND FREE ENERGY PREDICTED BY IDOCK:   -1.13 KCAL/MOL
REMARK 927      BINDING AFFINITY PREDICTED BY RF-SCORE:    0.00 PKD
ROOT
HETATM    1  C   UNL     1     -11.625  12.463  68.030  1.00  0.00    -0.403 C  
HETATM    2  C   UNL     1     -10.761  11.841  66.980  1.00  0.00    -0.286 A  
HETATM    3  C   UNL     1      -9.415  11.451  67.084  1.00  0.00    -0.175 A  
HETATM    4  C   UNL     1     -10.354  11.092  64.797  1.00  0.00    -0.325 A  
HETATM    5  S   UNL     1      -8.855  10.833  65.562  1.00  0.00    -0.184 SA 
HETATM    6  C   UNL     1     -11.281  11.622  65.655  1.00  0.00    -0.275 A  
ENDROOT
BRANCH   3   7
HETATM    7  C   UNL     1      -8.448  11.540  68.169  1.00  0.00    -0.154 C  
HETATM    8  C   UNL     1      -7.798  12.713  68.381  1.00  0.00    -0.136 C  
BRANCH   7   9
HETATM    9  C   UNL     1      -8.212  10.434  69.101  1.00  0.00    -0.157 A  
HETATM   10  C   UNL     1      -9.068   9.669  69.915  1.00  0.00    -0.250 A  
HETATM   11  C   UNL     1      -7.019   8.615  70.356  1.00  0.00    -0.043 A  
HETATM   12  C   UNL     1      -8.358   8.641  70.636  1.00  0.00    -0.157 A  
HETATM   13  S   UNL     1      -6.581   9.830  69.258  1.00  0.00    -0.054 SA 
HETATM   14  C   UNL     1     -10.553   9.781  70.091  1.00  0.00    -0.337 C  
ENDBRANCH   7   9
BRANCH   8  15
HETATM   15  C   UNL     1      -8.041  14.039  67.686  1.00  0.00    -0.180 C  
BRANCH  15  16
HETATM   16  C   UNL     1      -6.950  15.130  67.932  1.00  0.00    -0.151 C  
BRANCH  16  17
HETATM   17  N   UNL     1      -7.433  16.203  68.818  1.00  0.00    -0.176 NA 
HETATM   18  C   UNL     1      -6.404  17.021  69.439  1.00  0.00    -0.236 C  
HETATM   19  C   UNL     1      -6.155  18.314  68.678  1.00  0.00    -0.204 C  
HETATM   20  C   UNL     1      -7.393  19.186  68.756  1.00  0.00    -0.372 C  
HETATM   21  C   UNL     1      -8.652  18.458  68.276  1.00  0.00    -0.321 C  
HETATM   22  C   UNL     1      -9.161  18.876  66.905  1.00  0.00    -0.303 C  
HETATM   23  C   UNL     1      -8.652  16.912  68.403  1.00  0.00    -0.240 C  
HETATM   24  O   UNL     1      -8.236  19.278  66.012  1.00  0.00    -0.392 OA 
HETATM   25  O   UNL     1     -10.348  18.825  66.604  1.00  0.00    -0.374 OA 
ENDBRANCH  16  17
ENDBRANCH  15  16
ENDBRANCH   8  15
ENDBRANCH   3   7
TORSDOF 5
ENDMDL
MODEL      161
REMARK 921   NORMALIZED FREE ENERGY PREDICTED BY IDOCK:   -4.26 KCAL/MOL
REMARK 922        TOTAL FREE ENERGY PREDICTED BY IDOCK:   -7.01 KCAL/MOL
REMARK 923 INTER-LIGAND FREE ENERGY PREDICTED BY IDOCK:   -5.62 KCAL/MOL
REMARK 924 INTRA-LIGAND FREE ENERGY PREDICTED BY IDOCK:   -1.39 KCAL/MOL
REMARK 927      BINDING AFFINITY PREDICTED BY RF-SCORE:    0.00 PKD
ROOT
HETATM    1  C   UNL     1      -7.222   9.440  65.704  1.00  0.00    -0.091 C  
HETATM    2  C   UNL     1      -7.265   9.727  67.172  1.00  0.00    -0.087 A  
HETATM    3  C   UNL     1      -8.268   9.384  68.093  1.00  0.00    -0.118 A  
HETATM    4  C   UNL     1      -6.417  10.707  69.125  1.00  0.00    -0.056 A  
HETATM    5  S   UNL     1      -7.869   9.999  69.666  1.00  0.00    -0.177 SA 
HETATM    6  C   UNL     1      -6.208  10.486  67.789  1.00  0.00    -0.055 A  
ENDROOT
BRANCH   3   7
HETATM    7  C   UNL     1      -9.546   8.701  67.944  1.00  0.00    -0.173 C  
HETATM    8  C   UNL     1     -10.578   9.351  67.349  1.00  0.00    -0.326 C  
BRANCH   7   9
HETATM    9  C   UNL     1      -9.737   7.301  68.335  1.00  0.00    -0.148 A  
HETATM   10  C   UNL     1      -9.476   6.082  67.683  1.00  0.00    -0.112 A  
HETATM   11  C   UNL     1     -10.260   5.292  69.748  1.00  0.00    -0.294 A  
HETATM   12  C   UNL     1      -9.798   4.944  68.508  1.00  0.00    -0.208 A  
HETATM   13  S   UNL     1     -10.348   6.975  69.938  1.00  0.00    -0.217 SA 
HETATM   14  C   UNL     1      -8.913   5.845  66.313  1.00  0.00    -0.153 C  
ENDBRANCH   7   9
BRANCH   8  15
HETATM   15  C   UNL     1     -10.545  10.712  66.680  1.00  0.00    -0.276 C  
BRANCH  15  16
HETATM   16  C   UNL     1     -10.499  10.685  65.118  1.00  0.00    -0.201 C  
BRANCH  16  17
HETATM   17  N   UNL     1     -10.601  12.036  64.539  1.00  0.00    -0.294 NA 
HETATM   18  C   UNL     1     -11.811  12.309  63.781  1.00  0.00    -0.498 C  
HETATM   19  C   UNL     1     -12.865  13.025  64.612  1.00  0.00    -0.279 C  
HETATM   20  C   UNL     1     -12.358  14.407  64.978  1.00  0.00    -0.401 C  
HETATM   21  C   UNL     1     -10.995  14.365  65.673  1.00  0.00    -0.314 C  
HETATM   22  C   UNL     1     -11.020  14.620  67.172  1.00  0.00    -0.316 C  
HETATM   23  C   UNL     1     -10.086  13.149  65.349  1.00  0.00    -0.248 C  
HETATM   24  O   UNL     1     -12.125  14.224  67.834  1.00  0.00    -0.345 OA 
HETATM   25  O   UNL     1     -10.079  15.132  67.766  1.00  0.00    -0.228 OA 
ENDBRANCH  16  17
ENDBRANCH  15  16
ENDBRANCH   8  15
ENDBRANCH   3   7
TORSDOF 5
ENDMDL
MODEL      162
REMARK 921   NORMALIZED FREE ENERGY PREDICTED BY IDOCK:   -4.21 KCAL/MOL
REMARK 922        TOTAL FREE ENERGY PREDICTED BY IDOCK:   -6.94 KCAL/MOL
REMARK 923 INTER-LIGAND FREE ENERGY PREDICTED BY IDOCK:   -5.53 KCAL/MOL
REMARK 924 INTRA-LIGAND FREE ENERGY PREDICTED BY IDOCK:   -1.41 KCAL/MOL
REMARK 927      BINDING AFFINITY PREDICTED BY RF-SCORE:    0.00 PKD
ROOT
HETATM    1  C   UNL     1     -10.885   8.282  72.492  1.00  0.00    -0.421 C  
HETATM    2  C   UNL     1      -9.653   8.681  71.745  1.00  0.00    -0.360 A  
HETATM    3  C   UNL     1      -9.535   9.022  70.386  1.00  0.00    -0.210 A  
HETATM    4  C   UNL     1      -7.342   9.037  71.583  1.00  0.00     0.050 A  
HETATM    5  S   UNL     1      -7.876   9.353  69.997  1.00  0.00    -0.151 SA 
HETATM    6  C   UNL     1      -8.378   8.699  72.413  1.00  0.00    -0.100 A  
ENDROOT
BRANCH   3   7
HETATM    7  C   UNL     1     -10.502   9.073  69.300  1.00  0.00    -0.238 C  
HETATM    8  C   UNL     1     -11.347  10.132  69.214  1.00  0.00    -0.211 C  
BRANCH   7   9
HETATM    9  C   UNL     1     -10.543   8.062  68.238  1.00  0.00    -0.101 A  
HETATM   10  C   UNL     1     -10.164   8.082  66.884  1.00  0.00    -0.385 A  
HETATM   11  C   UNL     1     -10.840   5.845  67.095  1.00  0.00    -0.285 A  
HETATM   12  C   UNL     1     -10.357   6.803  66.246  1.00  0.00     0.190 A  
HETATM   13  S   UNL     1     -11.100   6.460  68.654  1.00  0.00    -0.240 SA 
HETATM   14  C   UNL     1      -9.593   9.212  66.079  1.00  0.00    -0.342 C  
ENDBRANCH   7   9
BRANCH   8  15
HETATM   15  C   UNL     1     -11.338  11.387  70.066  1.00  0.00    -0.260 C  
BRANCH  15  16
HETATM   16  C   UNL     1     -12.400  11.421  71.212  1.00  0.00    -0.239 C  
BRANCH  16  17
HETATM   17  N   UNL     1     -13.137  12.696  71.244  1.00  0.00    -0.219 NA 
HETATM   18  C   UNL     1     -13.263  13.320  72.551  1.00  0.00    -0.379 C  
HETATM   19  C   UNL     1     -12.207  14.390  72.784  1.00  0.00    -0.102 C  
HETATM   20  C   UNL     1     -12.437  15.539  71.821  1.00  0.00    -0.474 C  
HETATM   21  C   UNL     1     -12.489  15.076  70.362  1.00  0.00    -0.407 C  
HETATM   22  C   UNL     1     -11.257  15.402  69.533  1.00  0.00    -0.285 C  
HETATM   23  C   UNL     1     -12.935  13.611  70.112  1.00  0.00     0.253 C  
HETATM   24  O   UNL     1     -10.079  15.434  70.186  1.00  0.00    -0.281 OA 
HETATM   25  O   UNL     1     -11.313  15.598  68.324  1.00  0.00    -0.334 OA 
ENDBRANCH  16  17
ENDBRANCH  15  16
ENDBRANCH   8  15
ENDBRANCH   3   7
TORSDOF 5
ENDMDL
MODEL      163
REMARK 921   NORMALIZED FREE ENERGY PREDICTED BY IDOCK:   -4.19 KCAL/MOL
REMARK 922        TOTAL FREE ENERGY PREDICTED BY IDOCK:   -6.92 KCAL/MOL
REMARK 923 INTER-LIGAND FREE ENERGY PREDICTED BY IDOCK:   -5.95 KCAL/MOL
REMARK 924 INTRA-LIGAND FREE ENERGY PREDICTED BY IDOCK:   -0.97 KCAL/MOL
REMARK 927      BINDING AFFINITY PREDICTED BY RF-SCORE:    0.00 PKD
ROOT
HETATM    1  C   UNL     1     -10.536   8.177  66.914  1.00  0.00    -0.379 C  
HETATM    2  C   UNL     1      -9.134   8.630  66.655  1.00  0.00    -0.203 A  
HETATM    3  C   UNL     1      -8.349   9.505  67.426  1.00  0.00    -0.125 A  
HETATM    4  C   UNL     1      -7.191   8.740  65.349  1.00  0.00    -0.084 A  
HETATM    5  S   UNL     1      -6.811   9.753  66.663  1.00  0.00    -0.085 SA 
HETATM    6  C   UNL     1      -8.445   8.201  65.466  1.00  0.00    -0.174 A  
ENDROOT
BRANCH   3   7
HETATM    7  C   UNL     1      -8.621  10.249  68.647  1.00  0.00    -0.128 C  
HETATM    8  C   UNL     1      -8.777  11.596  68.580  1.00  0.00    -0.083 C  
BRANCH   7   9
HETATM    9  C   UNL     1      -8.820   9.589  69.941  1.00  0.00    -0.211 A  
HETATM   10  C   UNL     1      -9.967   9.311  70.706  1.00  0.00    -0.357 A  
HETATM   11  C   UNL     1      -8.321   8.303  72.040  1.00  0.00    -0.165 A  
HETATM   12  C   UNL     1      -9.654   8.585  71.912  1.00  0.00    -0.353 A  
HETATM   13  S   UNL     1      -7.420   8.923  70.744  1.00  0.00    -0.111 SA 
HETATM   14  C   UNL     1     -11.401   9.645  70.416  1.00  0.00    -0.337 C  
ENDBRANCH   7   9
BRANCH   8  15
HETATM   15  C   UNL     1      -8.829  12.455  67.331  1.00  0.00    -0.188 C  
BRANCH  15  16
HETATM   16  C   UNL     1      -8.466  13.960  67.543  1.00  0.00    -0.196 C  
BRANCH  16  17
HETATM   17  N   UNL     1      -9.461  14.859  66.933  1.00  0.00    -0.227 NA 
HETATM   18  C   UNL     1     -10.606  15.191  67.765  1.00  0.00    -0.264 C  
HETATM   19  C   UNL     1     -10.435  16.524  68.478  1.00  0.00    -0.302 C  
HETATM   20  C   UNL     1     -10.409  17.640  67.452  1.00  0.00    -0.360 C  
HETATM   21  C   UNL     1      -9.349  17.415  66.370  1.00  0.00    -0.272 C  
HETATM   22  C   UNL     1      -8.109  18.288  66.484  1.00  0.00    -0.269 C  
HETATM   23  C   UNL     1      -8.949  15.944  66.084  1.00  0.00    -0.341 C  
HETATM   24  O   UNL     1      -7.735  18.648  67.727  1.00  0.00    -0.233 OA 
HETATM   25  O   UNL     1      -7.455  18.628  65.505  1.00  0.00    -0.505 OA 
ENDBRANCH  16  17
ENDBRANCH  15  16
ENDBRANCH   8  15
ENDBRANCH   3   7
TORSDOF 5
ENDMDL
MODEL      164
REMARK 921   NORMALIZED FREE ENERGY PREDICTED BY IDOCK:   -4.19 KCAL/MOL
REMARK 922        TOTAL FREE ENERGY PREDICTED BY IDOCK:   -6.92 KCAL/MOL
REMARK 923 INTER-LIGAND FREE ENERGY PREDICTED BY IDOCK:   -5.50 KCAL/MOL
REMARK 924 INTRA-LIGAND FREE ENERGY PREDICTED BY IDOCK:   -1.41 KCAL/MOL
REMARK 927      BINDING AFFINITY PREDICTED BY RF-SCORE:    0.00 PKD
ROOT
HETATM    1  C   UNL     1     -11.338   6.221  69.096  1.00  0.00    -0.358 C  
HETATM    2  C   UNL     1     -11.378   6.838  70.458  1.00  0.00    -0.394 A  
HETATM    3  C   UNL     1     -10.303   7.095  71.325  1.00  0.00    -0.198 A  
HETATM    4  C   UNL     1     -12.514   7.704  72.316  1.00  0.00    -0.151 A  
HETATM    5  S   UNL     1     -10.886   7.769  72.814  1.00  0.00    -0.398 SA 
HETATM    6  C   UNL     1     -12.640   7.199  71.049  1.00  0.00    -0.335 A  
ENDROOT
BRANCH   3   7
HETATM    7  C   UNL     1      -8.873   6.840  71.219  1.00  0.00    -0.136 C  
HETATM    8  C   UNL     1      -8.055   7.831  70.783  1.00  0.00    -0.102 C  
BRANCH   7   9
HETATM    9  C   UNL     1      -8.268   5.576  71.650  1.00  0.00    -0.119 A  
HETATM   10  C   UNL     1      -8.462   4.239  71.256  1.00  0.00    -0.111 A  
HETATM   11  C   UNL     1      -6.735   3.968  72.821  1.00  0.00    -0.042 A  
HETATM   12  C   UNL     1      -7.581   3.334  71.952  1.00  0.00    -0.053 A  
HETATM   13  S   UNL     1      -6.997   5.643  72.846  1.00  0.00    -0.085 SA 
HETATM   14  C   UNL     1      -9.410   3.683  70.236  1.00  0.00    -0.241 C  
ENDBRANCH   7   9
BRANCH   8  15
HETATM   15  C   UNL     1      -8.429   9.272  70.493  1.00  0.00    -0.251 C  
BRANCH  15  16
HETATM   16  C   UNL     1      -8.572   9.630  68.979  1.00  0.00    -0.133 C  
BRANCH  16  17
HETATM   17  N   UNL     1      -9.982   9.771  68.576  1.00  0.00    -0.156 NA 
HETATM   18  C   UNL     1     -10.865  10.369  69.563  1.00  0.00    -0.255 C  
HETATM   19  C   UNL     1     -11.071  11.858  69.329  1.00  0.00    -0.264 C  
HETATM   20  C   UNL     1     -11.815  12.060  68.023  1.00  0.00    -0.338 C  
HETATM   21  C   UNL     1     -11.122  11.372  66.843  1.00  0.00    -0.356 C  
HETATM   22  C   UNL     1     -10.388  12.301  65.889  1.00  0.00    -0.252 C  
HETATM   23  C   UNL     1     -10.243  10.138  67.176  1.00  0.00    -0.225 C  
HETATM   24  O   UNL     1      -9.857  13.419  66.421  1.00  0.00    -0.283 OA 
HETATM   25  O   UNL     1     -10.252  12.044  64.698  1.00  0.00    -0.267 OA 
ENDBRANCH  16  17
ENDBRANCH  15  16
ENDBRANCH   8  15
ENDBRANCH   3   7
TORSDOF 5
ENDMDL
MODEL      165
REMARK 921   NORMALIZED FREE ENERGY PREDICTED BY IDOCK:   -4.19 KCAL/MOL
REMARK 922        TOTAL FREE ENERGY PREDICTED BY IDOCK:   -6.92 KCAL/MOL
REMARK 923 INTER-LIGAND FREE ENERGY PREDICTED BY IDOCK:   -5.46 KCAL/MOL
REMARK 924 INTRA-LIGAND FREE ENERGY PREDICTED BY IDOCK:   -1.45 KCAL/MOL
REMARK 927      BINDING AFFINITY PREDICTED BY RF-SCORE:    0.00 PKD
ROOT
HETATM    1  C   UNL     1     -10.603   5.177  68.037  1.00  0.00    -0.011 C  
HETATM    2  C   UNL     1      -9.164   5.512  68.269  1.00  0.00    -0.118 A  
HETATM    3  C   UNL     1      -8.631   6.601  68.980  1.00  0.00    -0.130 A  
HETATM    4  C   UNL     1      -6.869   5.161  67.948  1.00  0.00    -0.060 A  
HETATM    5  S   UNL     1      -6.897   6.569  68.905  1.00  0.00    -0.072 SA 
HETATM    6  C   UNL     1      -8.131   4.696  67.686  1.00  0.00    -0.100 A  
ENDROOT
BRANCH   3   7
HETATM    7  C   UNL     1      -9.252   7.724  69.667  1.00  0.00    -0.153 C  
HETATM    8  C   UNL     1      -9.548   8.847  68.965  1.00  0.00    -0.158 C  
BRANCH   7   9
HETATM    9  C   UNL     1      -9.654   7.656  71.075  1.00  0.00    -0.163 A  
HETATM   10  C   UNL     1     -10.867   7.332  71.709  1.00  0.00    -0.251 A  
HETATM   11  C   UNL     1      -9.495   7.673  73.581  1.00  0.00    -0.282 A  
HETATM   12  C   UNL     1     -10.755   7.362  73.146  1.00  0.00    -0.436 A  
HETATM   13  S   UNL     1      -8.437   7.964  72.289  1.00  0.00    -0.154 SA 
HETATM   14  C   UNL     1     -12.184   6.958  71.095  1.00  0.00    -0.428 C  
ENDBRANCH   7   9
BRANCH   8  15
HETATM   15  C   UNL     1      -9.422   9.056  67.468  1.00  0.00    -0.168 C  
BRANCH  15  16
HETATM   16  C   UNL     1      -8.044   9.613  66.986  1.00  0.00    -0.113 C  
BRANCH  16  17
HETATM   17  N   UNL     1      -8.197  10.803  66.132  1.00  0.00    -0.160 NA 
HETATM   18  C   UNL     1      -8.587  10.547  64.755  1.00  0.00    -0.166 C  
HETATM   19  C   UNL     1     -10.085  10.699  64.540  1.00  0.00    -0.421 C  
HETATM   20  C   UNL     1     -10.476  12.149  64.754  1.00  0.00    -0.332 C  
HETATM   21  C   UNL     1     -10.023  12.682  66.116  1.00  0.00    -0.269 C  
HETATM   22  C   UNL     1     -11.126  12.846  67.149  1.00  0.00    -0.275 C  
HETATM   23  C   UNL     1      -8.784  11.999  66.753  1.00  0.00    -0.192 C  
HETATM   24  O   UNL     1     -12.158  11.982  67.075  1.00  0.00    -0.603 OA 
HETATM   25  O   UNL     1     -11.078  13.696  68.031  1.00  0.00    -0.247 OA 
ENDBRANCH  16  17
ENDBRANCH  15  16
ENDBRANCH   8  15
ENDBRANCH   3   7
TORSDOF 5
ENDMDL
MODEL      166
REMARK 921   NORMALIZED FREE ENERGY PREDICTED BY IDOCK:   -4.18 KCAL/MOL
REMARK 922        TOTAL FREE ENERGY PREDICTED BY IDOCK:   -6.91 KCAL/MOL
REMARK 923 INTER-LIGAND FREE ENERGY PREDICTED BY IDOCK:   -6.36 KCAL/MOL
REMARK 924 INTRA-LIGAND FREE ENERGY PREDICTED BY IDOCK:   -0.54 KCAL/MOL
REMARK 927      BINDING AFFINITY PREDICTED BY RF-SCORE:    0.00 PKD
ROOT
HETATM    1  C   UNL     1      -5.702  16.683  66.887  1.00  0.00    -0.116 C  
HETATM    2  C   UNL     1      -6.734  15.949  67.682  1.00  0.00    -0.195 A  
HETATM    3  C   UNL     1      -8.133  16.040  67.580  1.00  0.00    -0.149 A  
HETATM    4  C   UNL     1      -7.392  14.497  69.400  1.00  0.00    -0.098 A  
HETATM    5  S   UNL     1      -8.884  15.024  68.770  1.00  0.00    -0.198 SA 
HETATM    6  C   UNL     1      -6.331  15.053  68.734  1.00  0.00    -0.082 A  
ENDROOT
BRANCH   3   7
HETATM    7  C   UNL     1      -9.006  16.851  66.743  1.00  0.00    -0.264 C  
HETATM    8  C   UNL     1      -9.843  16.235  65.870  1.00  0.00    -0.365 C  
BRANCH   7   9
HETATM    9  C   UNL     1      -9.079  18.309  66.867  1.00  0.00    -0.282 A  
HETATM   10  C   UNL     1      -8.298  19.355  66.342  1.00  0.00    -0.342 A  
HETATM   11  C   UNL     1      -9.940  20.589  67.476  1.00  0.00    -0.356 A  
HETATM   12  C   UNL     1      -8.803  20.653  66.717  1.00  0.00    -0.159 A  
HETATM   13  S   UNL     1     -10.405  18.987  67.780  1.00  0.00    -0.423 SA 
HETATM   14  C   UNL     1      -7.081  19.278  65.468  1.00  0.00    -0.216 C  
ENDBRANCH   7   9
BRANCH   8  15
HETATM   15  C   UNL     1     -10.091  14.745  65.728  1.00  0.00    -0.364 C  
BRANCH  15  16
HETATM   16  C   UNL     1     -11.454  14.239  66.299  1.00  0.00    -0.357 C  
BRANCH  16  17
HETATM   17  N   UNL     1     -11.652  12.799  66.061  1.00  0.00    -0.361 NA 
HETATM   18  C   UNL     1     -10.939  12.242  64.923  1.00  0.00    -0.302 C  
HETATM   19  C   UNL     1      -9.629  11.583  65.327  1.00  0.00    -0.244 C  
HETATM   20  C   UNL     1      -9.925  10.368  66.187  1.00  0.00    -0.290 C  
HETATM   21  C   UNL     1     -10.807  10.706  67.392  1.00  0.00    -0.353 C  
HETATM   22  C   UNL     1     -10.089  10.747  68.731  1.00  0.00    -0.191 C  
HETATM   23  C   UNL     1     -11.745  11.934  67.246  1.00  0.00    -0.247 C  
HETATM   24  O   UNL     1      -8.798  11.132  68.715  1.00  0.00    -0.162 OA 
HETATM   25  O   UNL     1     -10.653  10.475  69.786  1.00  0.00    -0.247 OA 
ENDBRANCH  16  17
ENDBRANCH  15  16
ENDBRANCH   8  15
ENDBRANCH   3   7
TORSDOF 5
ENDMDL
MODEL      167
REMARK 921   NORMALIZED FREE ENERGY PREDICTED BY IDOCK:   -4.18 KCAL/MOL
REMARK 922        TOTAL FREE ENERGY PREDICTED BY IDOCK:   -6.91 KCAL/MOL
REMARK 923 INTER-LIGAND FREE ENERGY PREDICTED BY IDOCK:   -5.63 KCAL/MOL
REMARK 924 INTRA-LIGAND FREE ENERGY PREDICTED BY IDOCK:   -1.27 KCAL/MOL
REMARK 927      BINDING AFFINITY PREDICTED BY RF-SCORE:    0.00 PKD
ROOT
HETATM    1  C   UNL     1     -12.206   9.622  71.026  1.00  0.00    -0.409 C  
HETATM    2  C   UNL     1     -10.735   9.644  70.756  1.00  0.00    -0.401 A  
HETATM    3  C   UNL     1     -10.053  10.311  69.724  1.00  0.00    -0.203 A  
HETATM    4  C   UNL     1      -8.533   8.960  71.176  1.00  0.00    -0.198 A  
HETATM    5  S   UNL     1      -8.354   9.970  69.816  1.00  0.00    -0.139 SA 
HETATM    6  C   UNL     1      -9.839   8.875  71.580  1.00  0.00    -0.387 A  
ENDROOT
BRANCH   3   7
HETATM    7  C   UNL     1     -10.513  11.133  68.614  1.00  0.00    -0.220 C  
HETATM    8  C   UNL     1     -10.828  10.537  67.436  1.00  0.00    -0.349 C  
BRANCH   7   9
HETATM    9  C   UNL     1     -10.735  12.576  68.746  1.00  0.00    -0.202 A  
HETATM   10  C   UNL     1     -10.180  13.693  68.096  1.00  0.00    -0.247 A  
HETATM   11  C   UNL     1     -11.744  14.754  69.486  1.00  0.00    -0.321 A  
HETATM   12  C   UNL     1     -10.764  14.931  68.547  1.00  0.00    -0.245 A  
HETATM   13  S   UNL     1     -11.961  13.115  69.867  1.00  0.00    -0.269 SA 
HETATM   14  C   UNL     1      -9.124  13.738  67.031  1.00  0.00    -0.253 C  
ENDBRANCH   7   9
BRANCH   8  15
HETATM   15  C   UNL     1     -10.882   9.050  67.143  1.00  0.00    -0.079 C  
BRANCH  15  16
HETATM   16  C   UNL     1      -9.669   8.485  66.336  1.00  0.00    -0.258 C  
BRANCH  16  17
HETATM   17  N   UNL     1      -9.027   7.352  67.024  1.00  0.00    -0.126 NA 
HETATM   18  C   UNL     1      -9.724   6.848  68.197  1.00  0.00    -0.131 C  
HETATM   19  C   UNL     1     -10.591   5.640  67.879  1.00  0.00    -0.266 C  
HETATM   20  C   UNL     1      -9.703   4.480  67.471  1.00  0.00    -0.213 C  
HETATM   21  C   UNL     1      -8.760   4.843  66.320  1.00  0.00    -0.115 C  
HETATM   22  C   UNL     1      -9.137   4.265  64.965  1.00  0.00    -0.146 C  
HETATM   23  C   UNL     1      -8.377   6.340  66.180  1.00  0.00    -0.130 C  
HETATM   24  O   UNL     1     -10.451   4.087  64.727  1.00  0.00    -0.237 OA 
HETATM   25  O   UNL     1      -8.299   3.998  64.111  1.00  0.00    -0.090 OA 
ENDBRANCH  16  17
ENDBRANCH  15  16
ENDBRANCH   8  15
ENDBRANCH   3   7
TORSDOF 5
ENDMDL
MODEL      168
REMARK 921   NORMALIZED FREE ENERGY PREDICTED BY IDOCK:   -4.18 KCAL/MOL
REMARK 922        TOTAL FREE ENERGY PREDICTED BY IDOCK:   -6.90 KCAL/MOL
REMARK 923 INTER-LIGAND FREE ENERGY PREDICTED BY IDOCK:   -5.28 KCAL/MOL
REMARK 924 INTRA-LIGAND FREE ENERGY PREDICTED BY IDOCK:   -1.62 KCAL/MOL
REMARK 927      BINDING AFFINITY PREDICTED BY RF-SCORE:    0.00 PKD
ROOT
HETATM    1  C   UNL     1     -10.163  10.477  69.393  1.00  0.00    -0.245 C  
HETATM    2  C   UNL     1     -11.145   9.953  70.392  1.00  0.00    -0.382 A  
HETATM    3  C   UNL     1     -11.043   8.795  71.182  1.00  0.00    -0.276 A  
HETATM    4  C   UNL     1     -13.206  10.002  71.506  1.00  0.00    -0.401 A  
HETATM    5  S   UNL     1     -12.478   8.599  72.139  1.00  0.00    -0.399 SA 
HETATM    6  C   UNL     1     -12.397  10.633  70.598  1.00  0.00    -0.462 A  
ENDROOT
BRANCH   3   7
HETATM    7  C   UNL     1     -10.028   7.756  71.274  1.00  0.00    -0.199 C  
HETATM    8  C   UNL     1     -10.152   6.640  70.511  1.00  0.00    -0.209 C  
BRANCH   7   9
HETATM    9  C   UNL     1      -8.825   7.906  72.098  1.00  0.00    -0.146 A  
HETATM   10  C   UNL     1      -7.511   8.317  71.808  1.00  0.00    -0.112 A  
HETATM   11  C   UNL     1      -7.344   7.994  74.125  1.00  0.00    -0.166 A  
HETATM   12  C   UNL     1      -6.677   8.346  72.983  1.00  0.00    -0.106 A  
HETATM   13  S   UNL     1      -8.962   7.594  73.811  1.00  0.00    -0.268 SA 
HETATM   14  C   UNL     1      -6.919   8.728  70.492  1.00  0.00    -0.048 C  
ENDBRANCH   7   9
BRANCH   8  15
HETATM   15  C   UNL     1     -11.188   6.371  69.437  1.00  0.00    -0.459 C  
BRANCH  15  16
HETATM   16  C   UNL     1     -10.761   5.342  68.342  1.00  0.00    -0.001 C  
BRANCH  16  17
HETATM   17  N   UNL     1     -10.589   5.978  67.024  1.00  0.00    -0.279 NA 
HETATM   18  C   UNL     1     -10.566   7.432  67.022  1.00  0.00    -0.344 C  
HETATM   19  C   UNL     1      -9.151   7.988  67.024  1.00  0.00    -0.170 C  
HETATM   20  C   UNL     1      -8.468   7.622  65.719  1.00  0.00    -0.153 C  
HETATM   21  C   UNL     1      -8.506   6.117  65.442  1.00  0.00    -0.138 C  
HETATM   22  C   UNL     1      -7.190   5.385  65.654  1.00  0.00    -0.068 C  
HETATM   23  C   UNL     1      -9.675   5.321  66.080  1.00  0.00    -0.161 C  
HETATM   24  O   UNL     1      -6.372   5.872  66.607  1.00  0.00    -0.038 OA 
HETATM   25  O   UNL     1      -6.889   4.381  65.018  1.00  0.00    -0.047 OA 
ENDBRANCH  16  17
ENDBRANCH  15  16
ENDBRANCH   8  15
ENDBRANCH   3   7
TORSDOF 5
ENDMDL
MODEL      169
REMARK 921   NORMALIZED FREE ENERGY PREDICTED BY IDOCK:   -4.18 KCAL/MOL
REMARK 922        TOTAL FREE ENERGY PREDICTED BY IDOCK:   -6.90 KCAL/MOL
REMARK 923 INTER-LIGAND FREE ENERGY PREDICTED BY IDOCK:   -5.34 KCAL/MOL
REMARK 924 INTRA-LIGAND FREE ENERGY PREDICTED BY IDOCK:   -1.56 KCAL/MOL
REMARK 927      BINDING AFFINITY PREDICTED BY RF-SCORE:    0.00 PKD
ROOT
HETATM    1  C   UNL     1     -10.954   8.340  70.823  1.00  0.00    -0.266 C  
HETATM    2  C   UNL     1      -9.478   8.129  70.710  1.00  0.00    -0.180 A  
HETATM    3  C   UNL     1      -8.690   8.119  69.546  1.00  0.00    -0.142 A  
HETATM    4  C   UNL     1      -7.373   7.628  71.611  1.00  0.00    -0.068 A  
HETATM    5  S   UNL     1      -7.038   7.772  69.947  1.00  0.00    -0.063 SA 
HETATM    6  C   UNL     1      -8.697   7.846  71.886  1.00  0.00    -0.168 A  
ENDROOT
BRANCH   3   7
HETATM    7  C   UNL     1      -9.020   8.272  68.136  1.00  0.00    -0.139 C  
HETATM    8  C   UNL     1      -8.960   9.506  67.572  1.00  0.00    -0.133 C  
BRANCH   7   9
HETATM    9  C   UNL     1      -9.332   7.128  67.275  1.00  0.00    -0.134 A  
HETATM   10  C   UNL     1      -8.765   6.645  66.082  1.00  0.00    -0.154 A  
HETATM   11  C   UNL     1     -10.399   5.004  66.461  1.00  0.00    -0.284 A  
HETATM   12  C   UNL     1      -9.402   5.434  65.627  1.00  0.00    -0.098 A  
HETATM   13  S   UNL     1     -10.611   6.050  67.779  1.00  0.00    -0.279 SA 
HETATM   14  C   UNL     1      -7.622   7.202  65.286  1.00  0.00    -0.103 C  
ENDBRANCH   7   9
BRANCH   8  15
HETATM   15  C   UNL     1      -8.455  10.785  68.211  1.00  0.00    -0.130 C  
BRANCH  15  16
HETATM   16  C   UNL     1      -8.014  11.901  67.210  1.00  0.00    -0.171 C  
BRANCH  16  17
HETATM   17  N   UNL     1      -9.038  12.951  67.067  1.00  0.00    -0.222 NA 
HETATM   18  C   UNL     1      -9.737  12.982  65.793  1.00  0.00    -0.145 C  
HETATM   19  C   UNL     1     -11.072  12.255  65.848  1.00  0.00    -0.360 C  
HETATM   20  C   UNL     1     -12.008  12.997  66.783  1.00  0.00    -0.434 C  
HETATM   21  C   UNL     1     -11.400  13.209  68.172  1.00  0.00    -0.328 C  
HETATM   22  C   UNL     1     -11.959  12.317  69.269  1.00  0.00    -0.253 C  
HETATM   23  C   UNL     1      -9.851  13.256  68.253  1.00  0.00    -0.231 C  
HETATM   24  O   UNL     1     -12.378  11.091  68.899  1.00  0.00    -0.516 OA 
HETATM   25  O   UNL     1     -12.005  12.672  70.442  1.00  0.00    -0.338 OA 
ENDBRANCH  16  17
ENDBRANCH  15  16
ENDBRANCH   8  15
ENDBRANCH   3   7
TORSDOF 5
ENDMDL
MODEL      170
REMARK 921   NORMALIZED FREE ENERGY PREDICTED BY IDOCK:   -4.15 KCAL/MOL
REMARK 922        TOTAL FREE ENERGY PREDICTED BY IDOCK:   -6.87 KCAL/MOL
REMARK 923 INTER-LIGAND FREE ENERGY PREDICTED BY IDOCK:   -5.25 KCAL/MOL
REMARK 924 INTRA-LIGAND FREE ENERGY PREDICTED BY IDOCK:   -1.62 KCAL/MOL
REMARK 927      BINDING AFFINITY PREDICTED BY RF-SCORE:    0.00 PKD
ROOT
HETATM    1  C   UNL     1      -7.809  12.200  68.155  1.00  0.00    -0.147 C  
HETATM    2  C   UNL     1      -7.789  11.355  66.921  1.00  0.00    -0.158 A  
HETATM    3  C   UNL     1      -8.883  10.850  66.198  1.00  0.00    -0.186 A  
HETATM    4  C   UNL     1      -6.684  10.114  65.268  1.00  0.00    -0.122 A  
HETATM    5  S   UNL     1      -8.324   9.876  64.875  1.00  0.00    -0.162 SA 
HETATM    6  C   UNL     1      -6.534  10.921  66.365  1.00  0.00    -0.130 A  
ENDROOT
BRANCH   3   7
HETATM    7  C   UNL     1     -10.321  10.942  66.403  1.00  0.00    -0.306 C  
HETATM    8  C   UNL     1     -10.947   9.988  67.138  1.00  0.00    -0.177 C  
BRANCH   7   9
HETATM    9  C   UNL     1     -11.112  12.076  65.917  1.00  0.00    -0.324 A  
HETATM   10  C   UNL     1     -11.708  13.174  66.564  1.00  0.00    -0.433 A  
HETATM   11  C   UNL     1     -12.230  13.672  64.331  1.00  0.00    -0.390 A  
HETATM   12  C   UNL     1     -12.355  14.068  65.635  1.00  0.00    -0.502 A  
HETATM   13  S   UNL     1     -11.369  12.217  64.195  1.00  0.00    -0.412 SA 
HETATM   14  C   UNL     1     -11.726  13.514  68.025  1.00  0.00    -0.394 C  
ENDBRANCH   7   9
BRANCH   8  15
HETATM   15  C   UNL     1     -10.303   8.853  67.912  1.00  0.00    -0.286 C  
BRANCH  15  16
HETATM   16  C   UNL     1     -10.689   8.775  69.424  1.00  0.00    -0.169 C  
BRANCH  16  17
HETATM   17  N   UNL     1      -9.758   7.927  70.189  1.00  0.00    -0.179 NA 
HETATM   18  C   UNL     1     -10.120   6.523  70.289  1.00  0.00    -0.179 C  
HETATM   19  C   UNL     1      -9.409   5.667  69.252  1.00  0.00    -0.150 C  
HETATM   20  C   UNL     1      -7.919   5.669  69.538  1.00  0.00    -0.092 C  
HETATM   21  C   UNL     1      -7.343   7.085  69.623  1.00  0.00    -0.086 C  
HETATM   22  C   UNL     1      -6.517   7.524  68.424  1.00  0.00    -0.045 C  
HETATM   23  C   UNL     1      -8.324   8.212  70.043  1.00  0.00    -0.122 C  
HETATM   24  O   UNL     1      -6.867   7.012  67.228  1.00  0.00    -0.064 OA 
HETATM   25  O   UNL     1      -5.595   8.326  68.521  1.00  0.00    -0.035 OA 
ENDBRANCH  16  17
ENDBRANCH  15  16
ENDBRANCH   8  15
ENDBRANCH   3   7
TORSDOF 5
ENDMDL
MODEL      171
REMARK 921   NORMALIZED FREE ENERGY PREDICTED BY IDOCK:   -4.15 KCAL/MOL
REMARK 922        TOTAL FREE ENERGY PREDICTED BY IDOCK:   -6.86 KCAL/MOL
REMARK 923 INTER-LIGAND FREE ENERGY PREDICTED BY IDOCK:   -4.92 KCAL/MOL
REMARK 924 INTRA-LIGAND FREE ENERGY PREDICTED BY IDOCK:   -1.94 KCAL/MOL
REMARK 927      BINDING AFFINITY PREDICTED BY RF-SCORE:    0.00 PKD
ROOT
HETATM    1  C   UNL     1     -11.785  11.553  68.331  1.00  0.00    -0.372 C  
HETATM    2  C   UNL     1     -11.597  10.775  69.594  1.00  0.00    -0.388 A  
HETATM    3  C   UNL     1     -10.510   9.961  69.957  1.00  0.00    -0.284 A  
HETATM    4  C   UNL     1     -12.329   9.969  71.669  1.00  0.00    -0.394 A  
HETATM    5  S   UNL     1     -10.803   9.232  71.505  1.00  0.00    -0.333 SA 
HETATM    6  C   UNL     1     -12.630  10.766  70.596  1.00  0.00    -0.446 A  
ENDROOT
BRANCH   3   7
HETATM    7  C   UNL     1      -9.285   9.593  69.263  1.00  0.00    -0.186 C  
HETATM    8  C   UNL     1      -9.313   8.574  68.366  1.00  0.00    -0.137 C  
BRANCH   7   9
HETATM    9  C   UNL     1      -8.034  10.339  69.429  1.00  0.00    -0.159 A  
HETATM   10  C   UNL     1      -7.537  11.516  68.841  1.00  0.00    -0.102 A  
HETATM   11  C   UNL     1      -5.802  11.037  70.346  1.00  0.00    -0.137 A  
HETATM   12  C   UNL     1      -6.249  11.889  69.372  1.00  0.00    -0.108 A  
HETATM   13  S   UNL     1      -6.892   9.766  70.619  1.00  0.00    -0.064 SA 
HETATM   14  C   UNL     1      -8.168  12.391  67.799  1.00  0.00    -0.163 C  
ENDBRANCH   7   9
BRANCH   8  15
HETATM   15  C   UNL     1     -10.530   7.811  67.879  1.00  0.00    -0.263 C  
BRANCH  15  16
HETATM   16  C   UNL     1     -10.241   6.707  66.812  1.00  0.00    -0.195 C  
BRANCH  16  17
HETATM   17  N   UNL     1      -9.922   5.410  67.432  1.00  0.00    -0.154 NA 
HETATM   18  C   UNL     1      -8.614   4.862  67.115  1.00  0.00    -0.104 C  
HETATM   19  C   UNL     1      -7.582   5.171  68.189  1.00  0.00    -0.080 C  
HETATM   20  C   UNL     1      -7.964   4.454  69.470  1.00  0.00    -0.060 C  
HETATM   21  C   UNL     1      -9.391   4.779  69.918  1.00  0.00    -0.207 C  
HETATM   22  C   UNL     1      -9.501   5.720  71.107  1.00  0.00    -0.158 C  
HETATM   23  C   UNL     1     -10.392   5.195  68.808  1.00  0.00    -0.092 C  
HETATM   24  O   UNL     1      -8.528   6.643  71.240  1.00  0.00    -0.124 OA 
HETATM   25  O   UNL     1     -10.437   5.673  71.897  1.00  0.00    -0.211 OA 
ENDBRANCH  16  17
ENDBRANCH  15  16
ENDBRANCH   8  15
ENDBRANCH   3   7
TORSDOF 5
ENDMDL
MODEL      172
REMARK 921   NORMALIZED FREE ENERGY PREDICTED BY IDOCK:   -4.14 KCAL/MOL
REMARK 922        TOTAL FREE ENERGY PREDICTED BY IDOCK:   -6.85 KCAL/MOL
REMARK 923 INTER-LIGAND FREE ENERGY PREDICTED BY IDOCK:   -5.32 KCAL/MOL
REMARK 924 INTRA-LIGAND FREE ENERGY PREDICTED BY IDOCK:   -1.54 KCAL/MOL
REMARK 927      BINDING AFFINITY PREDICTED BY RF-SCORE:    0.00 PKD
ROOT
HETATM    1  C   UNL     1      -7.982   8.701  70.669  1.00  0.00    -0.113 C  
HETATM    2  C   UNL     1      -8.681   8.695  69.347  1.00  0.00    -0.139 A  
HETATM    3  C   UNL     1     -10.028   8.396  69.079  1.00  0.00    -0.190 A  
HETATM    4  C   UNL     1      -8.713   8.881  67.011  1.00  0.00    -0.123 A  
HETATM    5  S   UNL     1     -10.327   8.475  67.372  1.00  0.00    -0.291 SA 
HETATM    6  C   UNL     1      -7.945   8.974  68.141  1.00  0.00    -0.101 A  
ENDROOT
BRANCH   3   7
HETATM    7  C   UNL     1     -11.131   7.985  69.936  1.00  0.00    -0.108 C  
HETATM    8  C   UNL     1     -11.414   6.663  70.062  1.00  0.00    -0.434 C  
BRANCH   7   9
HETATM    9  C   UNL     1     -11.897   8.941  70.741  1.00  0.00    -0.194 A  
HETATM   10  C   UNL     1     -12.128  10.323  70.622  1.00  0.00    -0.433 A  
HETATM   11  C   UNL     1     -13.439   9.842  72.507  1.00  0.00    -0.156 A  
HETATM   12  C   UNL     1     -13.004  10.820  71.654  1.00  0.00    -0.581 A  
HETATM   13  S   UNL     1     -12.788   8.327  72.111  1.00  0.00    -0.288 SA 
HETATM   14  C   UNL     1     -11.614  11.281  69.588  1.00  0.00    -0.401 C  
ENDBRANCH   7   9
BRANCH   8  15
HETATM   15  C   UNL     1     -10.625   5.496  69.500  1.00  0.00    -0.366 C  
BRANCH  15  16
HETATM   16  C   UNL     1      -9.328   5.127  70.289  1.00  0.00    -0.156 C  
BRANCH  16  17
HETATM   17  N   UNL     1      -8.336   4.450  69.437  1.00  0.00    -0.073 NA 
HETATM   18  C   UNL     1      -8.379   2.997  69.448  1.00  0.00    -0.059 C  
HETATM   19  C   UNL     1      -9.171   2.433  68.278  1.00  0.00    -0.255 C  
HETATM   20  C   UNL     1      -8.448   2.754  66.984  1.00  0.00    -0.105 C  
HETATM   21  C   UNL     1      -8.163   4.251  66.830  1.00  0.00    -0.101 C  
HETATM   22  C   UNL     1      -9.046   4.982  65.831  1.00  0.00    -0.150 C  
HETATM   23  C   UNL     1      -8.036   5.073  68.140  1.00  0.00    -0.087 C  
HETATM   24  O   UNL     1     -10.303   4.518  65.682  1.00  0.00    -0.260 OA 
HETATM   25  O   UNL     1      -8.658   5.963  65.208  1.00  0.00    -0.153 OA 
ENDBRANCH  16  17
ENDBRANCH  15  16
ENDBRANCH   8  15
ENDBRANCH   3   7
TORSDOF 5
ENDMDL
MODEL      173
REMARK 921   NORMALIZED FREE ENERGY PREDICTED BY IDOCK:   -4.14 KCAL/MOL
REMARK 922        TOTAL FREE ENERGY PREDICTED BY IDOCK:   -6.85 KCAL/MOL
REMARK 923 INTER-LIGAND FREE ENERGY PREDICTED BY IDOCK:   -7.00 KCAL/MOL
REMARK 924 INTRA-LIGAND FREE ENERGY PREDICTED BY IDOCK:    0.15 KCAL/MOL
REMARK 927      BINDING AFFINITY PREDICTED BY RF-SCORE:    0.00 PKD
ROOT
HETATM    1  C   UNL     1     -10.537  15.620  69.886  1.00  0.00    -0.328 C  
HETATM    2  C   UNL     1      -9.364  15.255  69.033  1.00  0.00    -0.231 A  
HETATM    3  C   UNL     1      -9.349  14.462  67.873  1.00  0.00    -0.203 A  
HETATM    4  C   UNL     1      -7.071  15.234  68.549  1.00  0.00    -0.110 A  
HETATM    5  S   UNL     1      -7.724  14.293  67.289  1.00  0.00    -0.033 SA 
HETATM    6  C   UNL     1      -8.042  15.690  69.401  1.00  0.00    -0.227 A  
ENDROOT
BRANCH   3   7
HETATM    7  C   UNL     1     -10.396  13.742  67.162  1.00  0.00    -0.261 C  
HETATM    8  C   UNL     1     -11.123  14.393  66.219  1.00  0.00    -0.331 C  
BRANCH   7   9
HETATM    9  C   UNL     1     -10.639  12.310  67.364  1.00  0.00    -0.222 A  
HETATM   10  C   UNL     1     -10.648  11.209  66.489  1.00  0.00    -0.314 A  
HETATM   11  C   UNL     1     -11.048  10.124  68.530  1.00  0.00    -0.214 A  
HETATM   12  C   UNL     1     -10.899   9.968  67.179  1.00  0.00    -0.240 A  
HETATM   13  S   UNL     1     -10.924  11.751  68.994  1.00  0.00    -0.209 SA 
HETATM   14  C   UNL     1     -10.417  11.177  65.007  1.00  0.00    -0.357 C  
ENDBRANCH   7   9
BRANCH   8  15
HETATM   15  C   UNL     1     -10.902  15.799  65.696  1.00  0.00    -0.316 C  
BRANCH  15  16
HETATM   16  C   UNL     1     -10.345  16.819  66.741  1.00  0.00    -0.293 C  
BRANCH  16  17
HETATM   17  N   UNL     1      -9.625  17.931  66.097  1.00  0.00    -0.501 NA 
HETATM   18  C   UNL     1     -10.372  19.170  65.956  1.00  0.00    -0.463 C  
HETATM   19  C   UNL     1     -10.072  20.157  67.074  1.00  0.00    -0.599 C  
HETATM   20  C   UNL     1      -8.626  20.603  66.972  1.00  0.00    -0.269 C  
HETATM   21  C   UNL     1      -7.650  19.424  66.955  1.00  0.00    -0.264 C  
HETATM   22  C   UNL     1      -6.877  19.202  68.246  1.00  0.00    -0.254 C  
HETATM   23  C   UNL     1      -8.198  18.075  66.417  1.00  0.00    -0.255 C  
HETATM   24  O   UNL     1      -7.499  19.543  69.391  1.00  0.00    -0.318 OA 
HETATM   25  O   UNL     1      -5.754  18.710  68.261  1.00  0.00    -0.186 OA 
ENDBRANCH  16  17
ENDBRANCH  15  16
ENDBRANCH   8  15
ENDBRANCH   3   7
TORSDOF 5
ENDMDL
MODEL      174
REMARK 921   NORMALIZED FREE ENERGY PREDICTED BY IDOCK:   -4.14 KCAL/MOL
REMARK 922        TOTAL FREE ENERGY PREDICTED BY IDOCK:   -6.85 KCAL/MOL
REMARK 923 INTER-LIGAND FREE ENERGY PREDICTED BY IDOCK:   -5.20 KCAL/MOL
REMARK 924 INTRA-LIGAND FREE ENERGY PREDICTED BY IDOCK:   -1.65 KCAL/MOL
REMARK 927      BINDING AFFINITY PREDICTED BY RF-SCORE:    0.00 PKD
ROOT
HETATM    1  C   UNL     1     -11.997  15.057  68.857  1.00  0.00    -0.287 C  
HETATM    2  C   UNL     1     -10.561  14.762  68.561  1.00  0.00    -0.248 A  
HETATM    3  C   UNL     1     -10.034  13.726  67.770  1.00  0.00    -0.242 A  
HETATM    4  C   UNL     1      -8.263  15.136  68.828  1.00  0.00    -0.169 A  
HETATM    5  S   UNL     1      -8.300  13.785  67.791  1.00  0.00    -0.196 SA 
HETATM    6  C   UNL     1      -9.523  15.562  69.157  1.00  0.00    -0.246 A  
ENDROOT
BRANCH   3   7
HETATM    7  C   UNL     1     -10.660  12.634  67.039  1.00  0.00    -0.255 C  
HETATM    8  C   UNL     1     -10.822  11.434  67.653  1.00  0.00    -0.286 C  
BRANCH   7   9
HETATM    9  C   UNL     1     -11.204  12.805  65.689  1.00  0.00    -0.301 A  
HETATM   10  C   UNL     1     -11.393  13.932  64.869  1.00  0.00    -0.349 A  
HETATM   11  C   UNL     1     -12.119  12.235  63.420  1.00  0.00    -0.516 A  
HETATM   12  C   UNL     1     -11.931  13.582  63.578  1.00  0.00    -0.388 A  
HETATM   13  S   UNL     1     -11.686  11.372  64.814  1.00  0.00     0.341 SA 
HETATM   14  C   UNL     1     -11.093  15.373  65.159  1.00  0.00    -0.402 C  
ENDBRANCH   7   9
BRANCH   8  15
HETATM   15  C   UNL     1     -10.536  11.097  69.104  1.00  0.00    -0.211 C  
BRANCH  15  16
HETATM   16  C   UNL     1     -10.993   9.674  69.560  1.00  0.00    -0.208 C  
BRANCH  16  17
HETATM   17  N   UNL     1      -9.925   8.673  69.397  1.00  0.00    -0.192 NA 
HETATM   18  C   UNL     1     -10.239   7.548  68.533  1.00  0.00    -0.197 C  
HETATM   19  C   UNL     1      -9.716   7.742  67.118  1.00  0.00    -0.243 C  
HETATM   20  C   UNL     1      -8.200   7.754  67.143  1.00  0.00    -0.118 C  
HETATM   21  C   UNL     1      -7.640   8.790  68.121  1.00  0.00    -0.097 C  
HETATM   22  C   UNL     1      -7.053  10.038  67.481  1.00  0.00    -0.087 C  
HETATM   23  C   UNL     1      -8.546   9.175  69.321  1.00  0.00    -0.137 C  
HETATM   24  O   UNL     1      -7.607  10.441  66.320  1.00  0.00    -0.114 OA 
HETATM   25  O   UNL     1      -6.142  10.675  67.998  1.00  0.00    -0.047 OA 
ENDBRANCH  16  17
ENDBRANCH  15  16
ENDBRANCH   8  15
ENDBRANCH   3   7
TORSDOF 5
ENDMDL
MODEL      175
REMARK 921   NORMALIZED FREE ENERGY PREDICTED BY IDOCK:   -4.14 KCAL/MOL
REMARK 922        TOTAL FREE ENERGY PREDICTED BY IDOCK:   -6.84 KCAL/MOL
REMARK 923 INTER-LIGAND FREE ENERGY PREDICTED BY IDOCK:   -5.74 KCAL/MOL
REMARK 924 INTRA-LIGAND FREE ENERGY PREDICTED BY IDOCK:   -1.10 KCAL/MOL
REMARK 927      BINDING AFFINITY PREDICTED BY RF-SCORE:    0.00 PKD
ROOT
HETATM    1  C   UNL     1     -11.222   6.198  66.906  1.00  0.00    -0.157 C  
HETATM    2  C   UNL     1     -10.662   6.634  68.223  1.00  0.00    -0.317 A  
HETATM    3  C   UNL     1      -9.443   7.286  68.474  1.00  0.00    -0.140 A  
HETATM    4  C   UNL     1     -10.711   6.766  70.563  1.00  0.00    -0.238 A  
HETATM    5  S   UNL     1      -9.233   7.520  70.180  1.00  0.00    -0.153 SA 
HETATM    6  C   UNL     1     -11.376   6.347  69.440  1.00  0.00    -0.443 A  
ENDROOT
BRANCH   3   7
HETATM    7  C   UNL     1      -8.358   7.708  67.600  1.00  0.00    -0.118 C  
HETATM    8  C   UNL     1      -8.264   9.015  67.246  1.00  0.00    -0.103 C  
BRANCH   7   9
HETATM    9  C   UNL     1      -7.306   6.789  67.155  1.00  0.00    -0.086 A  
HETATM   10  C   UNL     1      -7.088   6.096  65.950  1.00  0.00    -0.070 A  
HETATM   11  C   UNL     1      -5.171   5.466  67.147  1.00  0.00    -0.005 A  
HETATM   12  C   UNL     1      -5.864   5.334  65.975  1.00  0.00    -0.018 A  
HETATM   13  S   UNL     1      -5.980   6.474  68.246  1.00  0.00    -0.022 SA 
HETATM   14  C   UNL     1      -7.924   6.080  64.705  1.00  0.00    -0.130 C  
ENDBRANCH   7   9
BRANCH   8  15
HETATM   15  C   UNL     1      -9.104  10.170  67.758  1.00  0.00    -0.135 C  
BRANCH  15  16
HETATM   16  C   UNL     1     -10.047  10.828  66.700  1.00  0.00    -0.218 C  
BRANCH  16  17
HETATM   17  N   UNL     1     -11.000  11.766  67.318  1.00  0.00    -0.251 NA 
HETATM   18  C   UNL     1     -10.500  12.517  68.458  1.00  0.00    -0.231 C  
HETATM   19  C   UNL     1     -10.012  13.903  68.068  1.00  0.00    -0.241 C  
HETATM   20  C   UNL     1     -11.189  14.732  67.589  1.00  0.00    -0.332 C  
HETATM   21  C   UNL     1     -11.966  14.046  66.462  1.00  0.00    -0.470 C  
HETATM   22  C   UNL     1     -11.747  14.628  65.074  1.00  0.00    -0.385 C  
HETATM   23  C   UNL     1     -11.899  12.496  66.413  1.00  0.00    -0.381 C  
HETATM   24  O   UNL     1     -10.536  15.163  64.826  1.00  0.00    -0.368 OA 
HETATM   25  O   UNL     1     -12.610  14.592  64.205  1.00  0.00    -0.730 OA 
ENDBRANCH  16  17
ENDBRANCH  15  16
ENDBRANCH   8  15
ENDBRANCH   3   7
TORSDOF 5
ENDMDL
MODEL      176
REMARK 921   NORMALIZED FREE ENERGY PREDICTED BY IDOCK:   -4.10 KCAL/MOL
REMARK 922        TOTAL FREE ENERGY PREDICTED BY IDOCK:   -6.80 KCAL/MOL
REMARK 923 INTER-LIGAND FREE ENERGY PREDICTED BY IDOCK:   -5.62 KCAL/MOL
REMARK 924 INTRA-LIGAND FREE ENERGY PREDICTED BY IDOCK:   -1.18 KCAL/MOL
REMARK 927      BINDING AFFINITY PREDICTED BY RF-SCORE:    0.00 PKD
ROOT
HETATM    1  C   UNL     1     -11.158   8.787  71.129  1.00  0.00    -0.340 C  
HETATM    2  C   UNL     1      -9.713   8.549  71.435  1.00  0.00    -0.287 A  
HETATM    3  C   UNL     1      -8.644   8.431  70.532  1.00  0.00    -0.134 A  
HETATM    4  C   UNL     1      -7.946   8.102  72.908  1.00  0.00    -0.156 A  
HETATM    5  S   UNL     1      -7.173   8.099  71.391  1.00  0.00    -0.081 SA 
HETATM    6  C   UNL     1      -9.287   8.359  72.797  1.00  0.00    -0.312 A  
ENDROOT
BRANCH   3   7
HETATM    7  C   UNL     1      -8.578   8.466  69.078  1.00  0.00    -0.131 C  
HETATM    8  C   UNL     1      -8.448   9.663  68.451  1.00  0.00    -0.118 C  
BRANCH   7   9
HETATM    9  C   UNL     1      -8.560   7.247  68.264  1.00  0.00    -0.123 A  
HETATM   10  C   UNL     1      -9.576   6.481  67.665  1.00  0.00    -0.131 A  
HETATM   11  C   UNL     1      -7.681   5.319  66.916  1.00  0.00    -0.096 A  
HETATM   12  C   UNL     1      -9.049   5.372  66.909  1.00  0.00    -0.114 A  
HETATM   13  S   UNL     1      -7.007   6.567  67.845  1.00  0.00    -0.082 SA 
HETATM   14  C   UNL     1     -11.062   6.687  67.704  1.00  0.00    -0.357 C  
ENDBRANCH   7   9
BRANCH   8  15
HETATM   15  C   UNL     1      -8.230  11.020  69.093  1.00  0.00    -0.052 C  
BRANCH  15  16
HETATM   16  C   UNL     1      -8.724  12.241  68.254  1.00  0.00    -0.178 C  
BRANCH  16  17
HETATM   17  N   UNL     1     -10.192  12.271  68.133  1.00  0.00    -0.206 NA 
HETATM   18  C   UNL     1     -10.847  13.450  68.674  1.00  0.00    -0.263 C  
HETATM   19  C   UNL     1     -11.143  14.489  67.604  1.00  0.00    -0.314 C  
HETATM   20  C   UNL     1     -12.167  13.931  66.634  1.00  0.00    -0.465 C  
HETATM   21  C   UNL     1     -11.737  12.586  66.041  1.00  0.00    -0.472 C  
HETATM   22  C   UNL     1     -11.264  12.635  64.597  1.00  0.00    -0.310 C  
HETATM   23  C   UNL     1     -10.771  11.725  66.897  1.00  0.00    -0.250 C  
HETATM   24  O   UNL     1     -10.659  13.770  64.196  1.00  0.00    -0.264 OA 
HETATM   25  O   UNL     1     -11.391  11.685  63.833  1.00  0.00    -0.382 OA 
ENDBRANCH  16  17
ENDBRANCH  15  16
ENDBRANCH   8  15
ENDBRANCH   3   7
TORSDOF 5
ENDMDL
MODEL      177
REMARK 921   NORMALIZED FREE ENERGY PREDICTED BY IDOCK:   -4.09 KCAL/MOL
REMARK 922        TOTAL FREE ENERGY PREDICTED BY IDOCK:   -6.79 KCAL/MOL
REMARK 923 INTER-LIGAND FREE ENERGY PREDICTED BY IDOCK:   -6.48 KCAL/MOL
REMARK 924 INTRA-LIGAND FREE ENERGY PREDICTED BY IDOCK:   -0.31 KCAL/MOL
REMARK 927      BINDING AFFINITY PREDICTED BY RF-SCORE:    0.00 PKD
ROOT
HETATM    1  C   UNL     1      -9.653   9.453  67.365  1.00  0.00    -0.184 C  
HETATM    2  C   UNL     1     -10.171   8.166  67.921  1.00  0.00    -0.274 A  
HETATM    3  C   UNL     1     -10.552   7.884  69.245  1.00  0.00    -0.188 A  
HETATM    4  C   UNL     1     -10.724   5.895  67.743  1.00  0.00    -0.265 A  
HETATM    5  S   UNL     1     -11.030   6.222  69.386  1.00  0.00    -0.403 SA 
HETATM    6  C   UNL     1     -10.281   7.006  67.075  1.00  0.00    -0.330 A  
ENDROOT
BRANCH   3   7
HETATM    7  C   UNL     1     -10.545   8.686  70.459  1.00  0.00    -0.248 C  
HETATM    8  C   UNL     1     -11.119   9.916  70.443  1.00  0.00    -0.382 C  
BRANCH   7   9
HETATM    9  C   UNL     1     -10.018   8.180  71.730  1.00  0.00    -0.201 A  
HETATM   10  C   UNL     1      -8.739   8.208  72.314  1.00  0.00    -0.243 A  
HETATM   11  C   UNL     1      -9.957   7.166  74.027  1.00  0.00    -0.272 A  
HETATM   12  C   UNL     1      -8.726   7.608  73.625  1.00  0.00    -0.283 A  
HETATM   13  S   UNL     1     -11.139   7.430  72.840  1.00  0.00    -0.334 SA 
HETATM   14  C   UNL     1      -7.463   8.779  71.769  1.00  0.00    -0.080 C  
ENDBRANCH   7   9
BRANCH   8  15
HETATM   15  C   UNL     1     -11.909  10.548  69.313  1.00  0.00    -0.242 C  
BRANCH  15  16
HETATM   16  C   UNL     1     -11.815  12.106  69.224  1.00  0.00    -0.313 C  
BRANCH  16  17
HETATM   17  N   UNL     1     -11.121  12.548  68.002  1.00  0.00    -0.230 NA 
HETATM   18  C   UNL     1     -11.970  13.092  66.956  1.00  0.00    -0.355 C  
HETATM   19  C   UNL     1     -12.027  14.612  66.988  1.00  0.00    -0.301 C  
HETATM   20  C   UNL     1     -10.656  15.170  66.656  1.00  0.00    -0.304 C  
HETATM   21  C   UNL     1      -9.560  14.606  67.563  1.00  0.00    -0.206 C  
HETATM   22  C   UNL     1      -9.042  15.560  68.628  1.00  0.00    -0.202 C  
HETATM   23  C   UNL     1      -9.817  13.203  68.176  1.00  0.00    -0.228 C  
HETATM   24  O   UNL     1      -9.920  16.458  69.115  1.00  0.00    -0.252 OA 
HETATM   25  O   UNL     1      -7.894  15.506  69.054  1.00  0.00    -0.165 OA 
ENDBRANCH  16  17
ENDBRANCH  15  16
ENDBRANCH   8  15
ENDBRANCH   3   7
TORSDOF 5
ENDMDL
MODEL      178
REMARK 921   NORMALIZED FREE ENERGY PREDICTED BY IDOCK:   -4.08 KCAL/MOL
REMARK 922        TOTAL FREE ENERGY PREDICTED BY IDOCK:   -6.78 KCAL/MOL
REMARK 923 INTER-LIGAND FREE ENERGY PREDICTED BY IDOCK:   -6.33 KCAL/MOL
REMARK 924 INTRA-LIGAND FREE ENERGY PREDICTED BY IDOCK:   -0.45 KCAL/MOL
REMARK 927      BINDING AFFINITY PREDICTED BY RF-SCORE:    0.00 PKD
ROOT
HETATM    1  C   UNL     1      -6.542  10.487  70.435  1.00  0.00    -0.103 C  
HETATM    2  C   UNL     1      -6.941   9.559  69.332  1.00  0.00    -0.050 A  
HETATM    3  C   UNL     1      -8.147   8.852  69.188  1.00  0.00    -0.117 A  
HETATM    4  C   UNL     1      -6.510   8.359  67.366  1.00  0.00    -0.058 A  
HETATM    5  S   UNL     1      -8.091   7.865  67.762  1.00  0.00    -0.130 SA 
HETATM    6  C   UNL     1      -6.016   9.262  68.270  1.00  0.00    -0.045 A  
ENDROOT
BRANCH   3   7
HETATM    7  C   UNL     1      -9.336   8.759  70.023  1.00  0.00    -0.175 C  
HETATM    8  C   UNL     1     -10.336   9.660  69.852  1.00  0.00    -0.282 C  
BRANCH   7   9
HETATM    9  C   UNL     1      -9.535   7.671  70.986  1.00  0.00    -0.159 A  
HETATM   10  C   UNL     1     -10.636   6.850  71.288  1.00  0.00    -0.244 A  
HETATM   11  C   UNL     1      -9.028   5.939  72.732  1.00  0.00    -0.123 A  
HETATM   12  C   UNL     1     -10.325   5.873  72.302  1.00  0.00    -0.236 A  
HETATM   13  S   UNL     1      -8.170   7.181  71.959  1.00  0.00    -0.099 SA 
HETATM   14  C   UNL     1     -12.013   6.860  70.692  1.00  0.00    -0.400 C  
ENDBRANCH   7   9
BRANCH   8  15
HETATM   15  C   UNL     1     -10.441  10.726  68.779  1.00  0.00    -0.221 C  
BRANCH  15  16
HETATM   16  C   UNL     1     -10.364  10.202  67.309  1.00  0.00    -0.237 C  
BRANCH  16  17
HETATM   17  N   UNL     1      -9.811  11.212  66.390  1.00  0.00    -0.205 NA 
HETATM   18  C   UNL     1      -9.229  10.698  65.161  1.00  0.00    -0.207 C  
HETATM   19  C   UNL     1     -10.202  10.756  63.993  1.00  0.00    -0.390 C  
HETATM   20  C   UNL     1     -10.501  12.206  63.662  1.00  0.00    -0.495 C  
HETATM   21  C   UNL     1     -10.999  12.991  64.878  1.00  0.00    -0.329 C  
HETATM   22  C   UNL     1     -12.488  13.299  64.887  1.00  0.00    -0.409 C  
HETATM   23  C   UNL     1     -10.547  12.479  66.271  1.00  0.00    -0.248 C  
HETATM   24  O   UNL     1     -13.296  12.401  64.290  1.00  0.00    -0.716 OA 
HETATM   25  O   UNL     1     -12.949  14.296  65.432  1.00  0.00    -0.654 OA 
ENDBRANCH  16  17
ENDBRANCH  15  16
ENDBRANCH   8  15
ENDBRANCH   3   7
TORSDOF 5
ENDMDL
MODEL      179
REMARK 921   NORMALIZED FREE ENERGY PREDICTED BY IDOCK:   -4.06 KCAL/MOL
REMARK 922        TOTAL FREE ENERGY PREDICTED BY IDOCK:   -6.75 KCAL/MOL
REMARK 923 INTER-LIGAND FREE ENERGY PREDICTED BY IDOCK:   -5.97 KCAL/MOL
REMARK 924 INTRA-LIGAND FREE ENERGY PREDICTED BY IDOCK:   -0.78 KCAL/MOL
REMARK 927      BINDING AFFINITY PREDICTED BY RF-SCORE:    0.00 PKD
ROOT
HETATM    1  C   UNL     1      -8.900  15.524  68.570  1.00  0.00    -0.186 C  
HETATM    2  C   UNL     1     -10.085  15.049  67.791  1.00  0.00    -0.234 A  
HETATM    3  C   UNL     1     -11.134  14.222  68.226  1.00  0.00    -0.258 A  
HETATM    4  C   UNL     1     -11.330  14.847  65.815  1.00  0.00    -0.314 A  
HETATM    5  S   UNL     1     -12.234  13.917  66.919  1.00  0.00    -0.300 SA 
HETATM    6  C   UNL     1     -10.220  15.398  66.401  1.00  0.00    -0.296 A  
ENDROOT
BRANCH   3   7
HETATM    7  C   UNL     1     -11.399  13.558  69.495  1.00  0.00    -0.265 C  
HETATM    8  C   UNL     1     -10.915  12.307  69.700  1.00  0.00     0.087 C  
BRANCH   7   9
HETATM    9  C   UNL     1     -12.096  14.225  70.598  1.00  0.00    -0.346 A  
HETATM   10  C   UNL     1     -12.862  13.744  71.676  1.00  0.00    -0.438 A  
HETATM   11  C   UNL     1     -12.878  16.043  72.145  1.00  0.00    -0.351 A  
HETATM   12  C   UNL     1     -13.311  14.806  72.541  1.00  0.00    -0.529 A  
HETATM   13  S   UNL     1     -11.959  15.961  70.722  1.00  0.00    -0.329 SA 
HETATM   14  C   UNL     1     -13.224  12.330  72.021  1.00  0.00    -0.508 C  
ENDBRANCH   7   9
BRANCH   8  15
HETATM   15  C   UNL     1      -9.991  11.517  68.793  1.00  0.00    -0.169 C  
BRANCH  15  16
HETATM   16  C   UNL     1     -10.648  10.295  68.074  1.00  0.00    -0.231 C  
BRANCH  16  17
HETATM   17  N   UNL     1      -9.807   9.780  66.980  1.00  0.00    -0.182 NA 
HETATM   18  C   UNL     1      -8.424  10.227  66.982  1.00  0.00    -0.129 C  
HETATM   19  C   UNL     1      -7.491   9.217  67.632  1.00  0.00    -0.088 C  
HETATM   20  C   UNL     1      -7.453   7.957  66.789  1.00  0.00    -0.090 C  
HETATM   21  C   UNL     1      -8.849   7.383  66.533  1.00  0.00    -0.165 C  
HETATM   22  C   UNL     1      -9.195   6.135  67.330  1.00  0.00    -0.117 C  
HETATM   23  C   UNL     1     -10.031   8.387  66.566  1.00  0.00    -0.265 C  
HETATM   24  O   UNL     1      -8.635   6.021  68.550  1.00  0.00    -0.112 OA 
HETATM   25  O   UNL     1      -9.966   5.281  66.909  1.00  0.00    -0.155 OA 
ENDBRANCH  16  17
ENDBRANCH  15  16
ENDBRANCH   8  15
ENDBRANCH   3   7
TORSDOF 5
ENDMDL
MODEL      180
REMARK 921   NORMALIZED FREE ENERGY PREDICTED BY IDOCK:   -4.04 KCAL/MOL
REMARK 922        TOTAL FREE ENERGY PREDICTED BY IDOCK:   -6.72 KCAL/MOL
REMARK 923 INTER-LIGAND FREE ENERGY PREDICTED BY IDOCK:   -5.55 KCAL/MOL
REMARK 924 INTRA-LIGAND FREE ENERGY PREDICTED BY IDOCK:   -1.18 KCAL/MOL
REMARK 927      BINDING AFFINITY PREDICTED BY RF-SCORE:    0.00 PKD
ROOT
HETATM    1  C   UNL     1      -8.263   9.159  63.197  1.00  0.00    -0.176 C  
HETATM    2  C   UNL     1      -7.536   9.582  64.434  1.00  0.00    -0.122 A  
HETATM    3  C   UNL     1      -8.027   9.642  65.750  1.00  0.00    -0.109 A  
HETATM    4  C   UNL     1      -5.667  10.440  65.558  1.00  0.00    -0.117 A  
HETATM    5  S   UNL     1      -6.801  10.253  66.815  1.00  0.00    -0.093 SA 
HETATM    6  C   UNL     1      -6.175  10.043  64.349  1.00  0.00    -0.131 A  
ENDROOT
BRANCH   3   7
HETATM    7  C   UNL     1      -9.336   9.363  66.323  1.00  0.00    -0.253 C  
HETATM    8  C   UNL     1     -10.338  10.262  66.153  1.00  0.00    -0.253 C  
BRANCH   7   9
HETATM    9  C   UNL     1      -9.639   8.102  67.007  1.00  0.00    -0.196 A  
HETATM   10  C   UNL     1      -9.354   6.758  66.706  1.00  0.00    -0.189 A  
HETATM   11  C   UNL     1     -10.433   6.503  68.773  1.00  0.00    -0.213 A  
HETATM   12  C   UNL     1      -9.831   5.859  67.727  1.00  0.00    -0.138 A  
HETATM   13  S   UNL     1     -10.467   8.183  68.542  1.00  0.00    -0.115 SA 
HETATM   14  C   UNL     1      -8.630   6.188  65.522  1.00  0.00    -0.133 C  
ENDBRANCH   7   9
BRANCH   8  15
HETATM   15  C   UNL     1     -10.312  11.519  65.304  1.00  0.00    -0.322 C  
BRANCH  15  16
HETATM   16  C   UNL     1      -9.803  12.804  66.033  1.00  0.00    -0.255 C  
BRANCH  16  17
HETATM   17  N   UNL     1     -10.905  13.724  66.364  1.00  0.00    -0.286 NA 
HETATM   18  C   UNL     1     -11.880  13.225  67.319  1.00  0.00    -0.372 C  
HETATM   19  C   UNL     1     -11.598  13.699  68.736  1.00  0.00    -0.359 C  
HETATM   20  C   UNL     1     -11.776  15.204  68.805  1.00  0.00    -0.366 C  
HETATM   21  C   UNL     1     -10.930  15.940  67.762  1.00  0.00    -0.315 C  
HETATM   22  C   UNL     1      -9.701  16.651  68.306  1.00  0.00    -0.244 C  
HETATM   23  C   UNL     1     -10.571  15.151  66.475  1.00  0.00    -0.304 C  
HETATM   24  O   UNL     1      -9.109  16.098  69.382  1.00  0.00    -0.240 OA 
HETATM   25  O   UNL     1      -9.243  17.661  67.784  1.00  0.00    -0.246 OA 
ENDBRANCH  16  17
ENDBRANCH  15  16
ENDBRANCH   8  15
ENDBRANCH   3   7
TORSDOF 5
ENDMDL
MODEL      181
REMARK 921   NORMALIZED FREE ENERGY PREDICTED BY IDOCK:   -4.04 KCAL/MOL
REMARK 922        TOTAL FREE ENERGY PREDICTED BY IDOCK:   -6.72 KCAL/MOL
REMARK 923 INTER-LIGAND FREE ENERGY PREDICTED BY IDOCK:   -5.32 KCAL/MOL
REMARK 924 INTRA-LIGAND FREE ENERGY PREDICTED BY IDOCK:   -1.40 KCAL/MOL
REMARK 927      BINDING AFFINITY PREDICTED BY RF-SCORE:    0.00 PKD
ROOT
HETATM    1  C   UNL     1     -11.205   8.120  72.446  1.00  0.00    -0.452 C  
HETATM    2  C   UNL     1      -9.833   8.496  71.982  1.00  0.00    -0.383 A  
HETATM    3  C   UNL     1      -9.463   9.093  70.765  1.00  0.00    -0.272 A  
HETATM    4  C   UNL     1      -7.502   8.561  72.219  1.00  0.00    -0.056 A  
HETATM    5  S   UNL     1      -7.739   9.269  70.689  1.00  0.00    -0.142 SA 
HETATM    6  C   UNL     1      -8.688   8.201  72.804  1.00  0.00    -0.281 A  
ENDROOT
BRANCH   3   7
HETATM    7  C   UNL     1     -10.232   9.499  69.597  1.00  0.00    -0.234 C  
HETATM    8  C   UNL     1     -10.586   8.563  68.680  1.00  0.00    -0.154 C  
BRANCH   7   9
HETATM    9  C   UNL     1     -10.717  10.870  69.415  1.00  0.00    -0.225 A  
HETATM   10  C   UNL     1     -11.714  11.626  70.058  1.00  0.00    -0.402 A  
HETATM   11  C   UNL     1     -10.869  13.230  68.570  1.00  0.00    -0.265 A  
HETATM   12  C   UNL     1     -11.792  12.972  69.547  1.00  0.00    -0.385 A  
HETATM   13  S   UNL     1      -9.918  11.869  68.226  1.00  0.00    -0.203 SA 
HETATM   14  C   UNL     1     -12.638  11.220  71.168  1.00  0.00    -0.501 C  
ENDBRANCH   7   9
BRANCH   8  15
HETATM   15  C   UNL     1     -10.383   7.062  68.772  1.00  0.00    -0.196 C  
BRANCH  15  16
HETATM   16  C   UNL     1      -9.009   6.542  68.240  1.00  0.00    -0.121 C  
BRANCH  16  17
HETATM   17  N   UNL     1      -8.325   5.684  69.223  1.00  0.00    -0.106 NA 
HETATM   18  C   UNL     1      -9.029   5.475  70.477  1.00  0.00    -0.136 C  
HETATM   19  C   UNL     1      -9.813   4.171  70.490  1.00  0.00    -0.252 C  
HETATM   20  C   UNL     1      -8.844   3.005  70.430  1.00  0.00    -0.146 C  
HETATM   21  C   UNL     1      -7.887   3.102  69.239  1.00  0.00    -0.054 C  
HETATM   22  C   UNL     1      -8.183   2.152  68.089  1.00  0.00    -0.058 C  
HETATM   23  C   UNL     1      -7.589   4.525  68.699  1.00  0.00    -0.064 C  
HETATM   24  O   UNL     1      -9.476   1.830  67.888  1.00  0.00    -0.177 OA 
HETATM   25  O   UNL     1      -7.303   1.718  67.354  1.00  0.00    -0.053 OA 
ENDBRANCH  16  17
ENDBRANCH  15  16
ENDBRANCH   8  15
ENDBRANCH   3   7
TORSDOF 5
ENDMDL
MODEL      182
REMARK 921   NORMALIZED FREE ENERGY PREDICTED BY IDOCK:   -4.03 KCAL/MOL
REMARK 922        TOTAL FREE ENERGY PREDICTED BY IDOCK:   -6.71 KCAL/MOL
REMARK 923 INTER-LIGAND FREE ENERGY PREDICTED BY IDOCK:   -5.53 KCAL/MOL
REMARK 924 INTRA-LIGAND FREE ENERGY PREDICTED BY IDOCK:   -1.18 KCAL/MOL
REMARK 927      BINDING AFFINITY PREDICTED BY RF-SCORE:    0.00 PKD
ROOT
HETATM    1  C   UNL     1     -11.836   6.422  69.889  1.00  0.00    -0.145 C  
HETATM    2  C   UNL     1     -11.144   6.856  71.142  1.00  0.00    -0.297 A  
HETATM    3  C   UNL     1     -10.236   7.916  71.308  1.00  0.00    -0.187 A  
HETATM    4  C   UNL     1     -10.600   6.613  73.408  1.00  0.00    -0.309 A  
HETATM    5  S   UNL     1      -9.673   7.966  72.949  1.00  0.00    -0.287 SA 
HETATM    6  C   UNL     1     -11.339   6.122  72.365  1.00  0.00    -0.340 A  
ENDROOT
BRANCH   3   7
HETATM    7  C   UNL     1      -9.668   8.877  70.374  1.00  0.00    -0.226 C  
HETATM    8  C   UNL     1      -8.449   8.630  69.830  1.00  0.00    -0.129 C  
BRANCH   7   9
HETATM    9  C   UNL     1     -10.402  10.065  69.928  1.00  0.00    -0.272 A  
HETATM   10  C   UNL     1     -11.585  10.683  70.374  1.00  0.00    -0.441 A  
HETATM   11  C   UNL     1     -10.953  12.171  68.674  1.00  0.00    -0.245 A  
HETATM   12  C   UNL     1     -11.887  11.880  69.630  1.00  0.00    -0.406 A  
HETATM   13  S   UNL     1      -9.719  11.007  68.626  1.00  0.00    -0.191 SA 
HETATM   14  C   UNL     1     -12.502  10.272  71.487  1.00  0.00    -0.524 C  
ENDBRANCH   7   9
BRANCH   8  15
HETATM   15  C   UNL     1      -7.614   7.373  69.977  1.00  0.00    -0.089 C  
BRANCH  15  16
HETATM   16  C   UNL     1      -7.473   6.511  68.681  1.00  0.00    -0.088 C  
BRANCH  16  17
HETATM   17  N   UNL     1      -8.778   6.232  68.059  1.00  0.00    -0.115 NA 
HETATM   18  C   UNL     1      -8.988   6.812  66.742  1.00  0.00    -0.134 C  
HETATM   19  C   UNL     1      -8.698   5.824  65.622  1.00  0.00    -0.151 C  
HETATM   20  C   UNL     1      -9.711   4.696  65.676  1.00  0.00    -0.202 C  
HETATM   21  C   UNL     1      -9.764   4.023  67.051  1.00  0.00    -0.214 C  
HETATM   22  C   UNL     1      -9.110   2.653  67.129  1.00  0.00    -0.154 C  
HETATM   23  C   UNL     1      -9.343   4.891  68.267  1.00  0.00    -0.130 C  
HETATM   24  O   UNL     1      -8.058   2.436  66.315  1.00  0.00    -0.080 OA 
HETATM   25  O   UNL     1      -9.491   1.789  67.911  1.00  0.00    -0.177 OA 
ENDBRANCH  16  17
ENDBRANCH  15  16
ENDBRANCH   8  15
ENDBRANCH   3   7
TORSDOF 5
ENDMDL
MODEL      183
REMARK 921   NORMALIZED FREE ENERGY PREDICTED BY IDOCK:   -4.03 KCAL/MOL
REMARK 922        TOTAL FREE ENERGY PREDICTED BY IDOCK:   -6.71 KCAL/MOL
REMARK 923 INTER-LIGAND FREE ENERGY PREDICTED BY IDOCK:   -5.70 KCAL/MOL
REMARK 924 INTRA-LIGAND FREE ENERGY PREDICTED BY IDOCK:   -1.01 KCAL/MOL
REMARK 927      BINDING AFFINITY PREDICTED BY RF-SCORE:    0.00 PKD
ROOT
HETATM    1  C   UNL     1     -11.813  10.654  69.548  1.00  0.00    -0.345 C  
HETATM    2  C   UNL     1     -10.334  10.686  69.330  1.00  0.00    -0.240 A  
HETATM    3  C   UNL     1      -9.614  11.429  68.379  1.00  0.00    -0.197 A  
HETATM    4  C   UNL     1      -8.151   9.953  69.765  1.00  0.00    -0.176 A  
HETATM    5  S   UNL     1      -7.921  11.069  68.499  1.00  0.00    -0.144 SA 
HETATM    6  C   UNL     1      -9.470   9.846  70.118  1.00  0.00    -0.214 A  
ENDROOT
BRANCH   3   7
HETATM    7  C   UNL     1     -10.033  12.342  67.325  1.00  0.00    -0.209 C  
HETATM    8  C   UNL     1     -10.224  13.653  67.622  1.00  0.00    -0.239 C  
BRANCH   7   9
HETATM    9  C   UNL     1     -10.172  11.917  65.929  1.00  0.00    -0.236 A  
HETATM   10  C   UNL     1     -10.038  10.671  65.290  1.00  0.00    -0.363 A  
HETATM   11  C   UNL     1     -10.687  12.004  63.472  1.00  0.00    -0.455 A  
HETATM   12  C   UNL     1     -10.324  10.749  63.879  1.00  0.00    -0.329 A  
HETATM   13  S   UNL     1     -10.662  13.114  64.755  1.00  0.00    -0.386 SA 
HETATM   14  C   UNL     1      -9.673   9.341  65.880  1.00  0.00    -0.355 C  
ENDBRANCH   7   9
BRANCH   8  15
HETATM   15  C   UNL     1      -9.931  14.350  68.937  1.00  0.00    -0.183 C  
BRANCH  15  16
HETATM   16  C   UNL     1      -9.218  15.735  68.812  1.00  0.00    -0.216 C  
BRANCH  16  17
HETATM   17  N   UNL     1      -7.809  15.595  68.407  1.00  0.00    -0.124 NA 
HETATM   18  C   UNL     1      -7.032  16.824  68.389  1.00  0.00    -0.170 C  
HETATM   19  C   UNL     1      -6.224  17.016  69.663  1.00  0.00    -0.232 C  
HETATM   20  C   UNL     1      -5.168  15.931  69.754  1.00  0.00    -0.116 C  
HETATM   21  C   UNL     1      -5.763  14.525  69.645  1.00  0.00    -0.099 C  
HETATM   22  C   UNL     1      -5.833  13.746  70.949  1.00  0.00    -0.187 C  
HETATM   23  C   UNL     1      -7.098  14.393  68.866  1.00  0.00    -0.116 C  
HETATM   24  O   UNL     1      -6.010  14.465  72.075  1.00  0.00    -0.044 OA 
HETATM   25  O   UNL     1      -5.765  12.523  70.986  1.00  0.00    -0.327 OA 
ENDBRANCH  16  17
ENDBRANCH  15  16
ENDBRANCH   8  15
ENDBRANCH   3   7
TORSDOF 5
ENDMDL
MODEL      184
REMARK 921   NORMALIZED FREE ENERGY PREDICTED BY IDOCK:   -4.03 KCAL/MOL
REMARK 922        TOTAL FREE ENERGY PREDICTED BY IDOCK:   -6.71 KCAL/MOL
REMARK 923 INTER-LIGAND FREE ENERGY PREDICTED BY IDOCK:   -5.36 KCAL/MOL
REMARK 924 INTRA-LIGAND FREE ENERGY PREDICTED BY IDOCK:   -1.35 KCAL/MOL
REMARK 927      BINDING AFFINITY PREDICTED BY RF-SCORE:    0.00 PKD
ROOT
HETATM    1  C   UNL     1     -10.652   5.836  67.419  1.00  0.00    -0.340 C  
HETATM    2  C   UNL     1     -10.761   6.718  68.622  1.00  0.00    -0.279 A  
HETATM    3  C   UNL     1     -10.064   7.909  68.891  1.00  0.00    -0.197 A  
HETATM    4  C   UNL     1     -11.582   7.233  70.756  1.00  0.00    -0.302 A  
HETATM    5  S   UNL     1     -10.510   8.521  70.452  1.00  0.00    -0.213 SA 
HETATM    6  C   UNL     1     -11.631   6.351  69.709  1.00  0.00    -0.397 A  
ENDROOT
BRANCH   3   7
HETATM    7  C   UNL     1      -9.038   8.633  68.154  1.00  0.00    -0.142 C  
HETATM    8  C   UNL     1      -9.410   9.620  67.299  1.00  0.00    -0.163 C  
BRANCH   7   9
HETATM    9  C   UNL     1      -7.607   8.396  68.365  1.00  0.00    -0.097 A  
HETATM   10  C   UNL     1      -6.794   7.257  68.222  1.00  0.00    -0.070 A  
HETATM   11  C   UNL     1      -5.180   8.847  68.831  1.00  0.00    -0.037 A  
HETATM   12  C   UNL     1      -5.409   7.537  68.508  1.00  0.00    -0.026 A  
HETATM   13  S   UNL     1      -6.613   9.755  68.828  1.00  0.00    -0.046 SA 
HETATM   14  C   UNL     1      -7.179   5.868  67.806  1.00  0.00    -0.076 C  
ENDBRANCH   7   9
BRANCH   8  15
HETATM   15  C   UNL     1     -10.804  10.177  67.089  1.00  0.00    -0.257 C  
BRANCH  15  16
HETATM   16  C   UNL     1     -10.887  11.732  66.953  1.00  0.00    -0.271 C  
BRANCH  16  17
HETATM   17  N   UNL     1     -12.014  12.294  67.716  1.00  0.00    -0.498 NA 
HETATM   18  C   UNL     1     -12.366  11.587  68.937  1.00  0.00     0.134 C  
HETATM   19  C   UNL     1     -11.742  12.220  70.171  1.00  0.00    -0.280 C  
HETATM   20  C   UNL     1     -12.335  13.600  70.379  1.00  0.00    -0.415 C  
HETATM   21  C   UNL     1     -12.203  14.486  69.138  1.00  0.00    -0.234 C  
HETATM   22  C   UNL     1     -11.143  15.573  69.224  1.00  0.00    -0.285 C  
HETATM   23  C   UNL     1     -12.119  13.759  67.769  1.00  0.00    -0.290 C  
HETATM   24  O   UNL     1     -10.057  15.300  69.973  1.00  0.00    -0.256 OA 
HETATM   25  O   UNL     1     -11.243  16.636  68.622  1.00  0.00    -0.328 OA 
ENDBRANCH  16  17
ENDBRANCH  15  16
ENDBRANCH   8  15
ENDBRANCH   3   7
TORSDOF 5
ENDMDL
MODEL      185
REMARK 921   NORMALIZED FREE ENERGY PREDICTED BY IDOCK:   -4.01 KCAL/MOL
REMARK 922        TOTAL FREE ENERGY PREDICTED BY IDOCK:   -6.68 KCAL/MOL
REMARK 923 INTER-LIGAND FREE ENERGY PREDICTED BY IDOCK:   -5.32 KCAL/MOL
REMARK 924 INTRA-LIGAND FREE ENERGY PREDICTED BY IDOCK:   -1.36 KCAL/MOL
REMARK 927      BINDING AFFINITY PREDICTED BY RF-SCORE:    0.00 PKD
ROOT
HETATM    1  C   UNL     1      -8.789   8.574  72.246  1.00  0.00    -0.279 C  
HETATM    2  C   UNL     1      -9.808   7.678  71.617  1.00  0.00    -0.193 A  
HETATM    3  C   UNL     1     -10.741   7.996  70.614  1.00  0.00    -0.228 A  
HETATM    4  C   UNL     1     -10.956   5.644  71.428  1.00  0.00    -0.190 A  
HETATM    5  S   UNL     1     -11.738   6.618  70.270  1.00  0.00    -0.297 SA 
HETATM    6  C   UNL     1      -9.949   6.318  72.067  1.00  0.00    -0.187 A  
ENDROOT
BRANCH   3   7
HETATM    7  C   UNL     1     -11.040   9.234  69.909  1.00  0.00    -0.200 C  
HETATM    8  C   UNL     1     -10.640   9.375  68.620  1.00  0.00    -0.230 C  
BRANCH   7   9
HETATM    9  C   UNL     1     -11.837  10.307  70.512  1.00  0.00    -0.329 A  
HETATM   10  C   UNL     1     -12.720  10.344  71.607  1.00  0.00    -0.560 A  
HETATM   11  C   UNL     1     -12.743  12.603  70.976  1.00  0.00    -0.226 A  
HETATM   12  C   UNL     1     -13.237  11.668  71.845  1.00  0.00    -0.475 A  
HETATM   13  S   UNL     1     -11.682  11.914  69.847  1.00  0.00    -0.273 SA 
HETATM   14  C   UNL     1     -13.142   9.229  72.518  1.00  0.00    -0.416 C  
ENDBRANCH   7   9
BRANCH   8  15
HETATM   15  C   UNL     1     -10.000   8.322  67.735  1.00  0.00    -0.235 C  
BRANCH  15  16
HETATM   16  C   UNL     1      -9.949   8.672  66.213  1.00  0.00    -0.217 C  
BRANCH  16  17
HETATM   17  N   UNL     1      -8.580   8.973  65.762  1.00  0.00    -0.150 NA 
HETATM   18  C   UNL     1      -8.295  10.373  65.496  1.00  0.00    -0.168 C  
HETATM   19  C   UNL     1      -7.623  11.061  66.675  1.00  0.00    -0.146 C  
HETATM   20  C   UNL     1      -6.249  10.456  66.890  1.00  0.00    -0.066 C  
HETATM   21  C   UNL     1      -6.299   8.934  67.050  1.00  0.00    -0.060 C  
HETATM   22  C   UNL     1      -6.098   8.423  68.468  1.00  0.00    -0.045 C  
HETATM   23  C   UNL     1      -7.490   8.202  66.377  1.00  0.00    -0.087 C  
HETATM   24  O   UNL     1      -6.533   9.218  69.465  1.00  0.00    -0.042 OA 
HETATM   25  O   UNL     1      -5.596   7.330  68.706  1.00  0.00    -0.020 OA 
ENDBRANCH  16  17
ENDBRANCH  15  16
ENDBRANCH   8  15
ENDBRANCH   3   7
TORSDOF 5
ENDMDL
MODEL      186
REMARK 921   NORMALIZED FREE ENERGY PREDICTED BY IDOCK:   -4.01 KCAL/MOL
REMARK 922        TOTAL FREE ENERGY PREDICTED BY IDOCK:   -6.68 KCAL/MOL
REMARK 923 INTER-LIGAND FREE ENERGY PREDICTED BY IDOCK:   -5.28 KCAL/MOL
REMARK 924 INTRA-LIGAND FREE ENERGY PREDICTED BY IDOCK:   -1.40 KCAL/MOL
REMARK 927      BINDING AFFINITY PREDICTED BY RF-SCORE:    0.00 PKD
ROOT
HETATM    1  C   UNL     1      -7.493   9.962  70.159  1.00  0.00    -0.178 C  
HETATM    2  C   UNL     1      -8.150  10.415  68.893  1.00  0.00    -0.129 A  
HETATM    3  C   UNL     1      -9.476  10.200  68.480  1.00  0.00    -0.158 A  
HETATM    4  C   UNL     1      -8.118  11.426  66.779  1.00  0.00    -0.161 A  
HETATM    5  S   UNL     1      -9.726  10.880  66.903  1.00  0.00    -0.185 SA 
HETATM    6  C   UNL     1      -7.388  11.125  67.899  1.00  0.00    -0.092 A  
ENDROOT
BRANCH   3   7
HETATM    7  C   UNL     1     -10.589   9.484  69.086  1.00  0.00    -0.237 C  
HETATM    8  C   UNL     1     -10.781   8.176  68.777  1.00  0.00    -0.074 C  
BRANCH   7   9
HETATM    9  C   UNL     1     -11.464  10.098  70.090  1.00  0.00    -0.296 A  
HETATM   10  C   UNL     1     -11.940  11.409  70.270  1.00  0.00    -0.460 A  
HETATM   11  C   UNL     1     -13.038  10.320  72.034  1.00  0.00    -0.425 A  
HETATM   12  C   UNL     1     -12.830  11.514  71.400  1.00  0.00    -0.489 A  
HETATM   13  S   UNL     1     -12.155   9.063  71.315  1.00  0.00    -0.315 SA 
HETATM   14  C   UNL     1     -11.661  12.636  69.454  1.00  0.00    -0.387 C  
ENDBRANCH   7   9
BRANCH   8  15
HETATM   15  C   UNL     1      -9.880   7.287  67.941  1.00  0.00    -0.172 C  
BRANCH  15  16
HETATM   16  C   UNL     1     -10.332   5.795  67.834  1.00  0.00    -0.214 C  
BRANCH  16  17
HETATM   17  N   UNL     1      -9.569   4.920  68.741  1.00  0.00    -0.146 NA 
HETATM   18  C   UNL     1      -8.125   4.938  68.570  1.00  0.00    -0.085 C  
HETATM   19  C   UNL     1      -7.439   5.875  69.552  1.00  0.00    -0.076 C  
HETATM   20  C   UNL     1      -7.621   5.344  70.961  1.00  0.00    -0.090 C  
HETATM   21  C   UNL     1      -9.093   5.107  71.310  1.00  0.00    -0.173 C  
HETATM   22  C   UNL     1      -9.712   6.132  72.247  1.00  0.00    -0.155 C  
HETATM   23  C   UNL     1     -10.050   4.812  70.125  1.00  0.00    -0.240 C  
HETATM   24  O   UNL     1      -9.235   7.390  72.169  1.00  0.00    -0.131 OA 
HETATM   25  O   UNL     1     -10.622   5.850  73.018  1.00  0.00    -0.215 OA 
ENDBRANCH  16  17
ENDBRANCH  15  16
ENDBRANCH   8  15
ENDBRANCH   3   7
TORSDOF 5
ENDMDL
MODEL      187
REMARK 921   NORMALIZED FREE ENERGY PREDICTED BY IDOCK:   -4.01 KCAL/MOL
REMARK 922        TOTAL FREE ENERGY PREDICTED BY IDOCK:   -6.68 KCAL/MOL
REMARK 923 INTER-LIGAND FREE ENERGY PREDICTED BY IDOCK:   -5.40 KCAL/MOL
REMARK 924 INTRA-LIGAND FREE ENERGY PREDICTED BY IDOCK:   -1.28 KCAL/MOL
REMARK 927      BINDING AFFINITY PREDICTED BY RF-SCORE:    0.00 PKD
ROOT
HETATM    1  C   UNL     1      -8.184  14.160  67.882  1.00  0.00    -0.155 C  
HETATM    2  C   UNL     1      -7.753  12.810  67.404  1.00  0.00    -0.165 A  
HETATM    3  C   UNL     1      -8.558  11.761  66.928  1.00  0.00    -0.177 A  
HETATM    4  C   UNL     1      -6.136  11.157  67.023  1.00  0.00    -0.092 A  
HETATM    5  S   UNL     1      -7.576  10.380  66.553  1.00  0.00    -0.124 SA 
HETATM    6  C   UNL     1      -6.362  12.440  67.447  1.00  0.00    -0.157 A  
ENDROOT
BRANCH   3   7
HETATM    7  C   UNL     1      -9.999  11.622  66.774  1.00  0.00    -0.229 C  
HETATM    8  C   UNL     1     -10.716  11.028  67.762  1.00  0.00    -0.270 C  
BRANCH   7   9
HETATM    9  C   UNL     1     -10.722  12.179  65.627  1.00  0.00    -0.275 A  
HETATM   10  C   UNL     1     -10.731  11.864  64.256  1.00  0.00    -0.388 A  
HETATM   11  C   UNL     1     -12.348  13.562  64.304  1.00  0.00    -0.335 A  
HETATM   12  C   UNL     1     -11.661  12.680  63.516  1.00  0.00    -0.584 A  
HETATM   13  S   UNL     1     -11.876  13.454  65.929  1.00  0.00    -0.399 SA 
HETATM   14  C   UNL     1      -9.943  10.819  63.522  1.00  0.00    -0.403 C  
ENDBRANCH   7   9
BRANCH   8  15
HETATM   15  C   UNL     1     -10.213  10.577  69.120  1.00  0.00    -0.241 C  
BRANCH  15  16
HETATM   16  C   UNL     1     -10.296   9.040  69.384  1.00  0.00    -0.213 C  
BRANCH  16  17
HETATM   17  N   UNL     1      -8.961   8.422  69.475  1.00  0.00    -0.148 NA 
HETATM   18  C   UNL     1      -7.969   9.170  70.228  1.00  0.00    -0.133 C  
HETATM   19  C   UNL     1      -7.846   8.684  71.664  1.00  0.00    -0.153 C  
HETATM   20  C   UNL     1      -7.299   7.269  71.669  1.00  0.00    -0.080 C  
HETATM   21  C   UNL     1      -8.128   6.320  70.799  1.00  0.00    -0.120 C  
HETATM   22  C   UNL     1      -9.017   5.351  71.560  1.00  0.00    -0.135 C  
HETATM   23  C   UNL     1      -8.911   6.960  69.622  1.00  0.00    -0.144 C  
HETATM   24  O   UNL     1      -9.505   5.777  72.742  1.00  0.00    -0.146 OA 
HETATM   25  O   UNL     1      -9.310   4.245  71.119  1.00  0.00    -0.130 OA 
ENDBRANCH  16  17
ENDBRANCH  15  16
ENDBRANCH   8  15
ENDBRANCH   3   7
TORSDOF 5
ENDMDL
MODEL      188
REMARK 921   NORMALIZED FREE ENERGY PREDICTED BY IDOCK:   -4.00 KCAL/MOL
REMARK 922        TOTAL FREE ENERGY PREDICTED BY IDOCK:   -6.67 KCAL/MOL
REMARK 923 INTER-LIGAND FREE ENERGY PREDICTED BY IDOCK:   -5.67 KCAL/MOL
REMARK 924 INTRA-LIGAND FREE ENERGY PREDICTED BY IDOCK:   -1.01 KCAL/MOL
REMARK 927      BINDING AFFINITY PREDICTED BY RF-SCORE:    0.00 PKD
ROOT
HETATM    1  C   UNL     1     -10.691  14.476  69.436  1.00  0.00    -0.213 C  
HETATM    2  C   UNL     1      -9.684  15.218  68.616  1.00  0.00    -0.212 A  
HETATM    3  C   UNL     1      -9.182  14.882  67.347  1.00  0.00    -0.194 A  
HETATM    4  C   UNL     1      -8.135  16.946  68.288  1.00  0.00    -0.217 A  
HETATM    5  S   UNL     1      -7.989  16.042  66.853  1.00  0.00    -0.264 SA 
HETATM    6  C   UNL     1      -9.069  16.411  69.136  1.00  0.00    -0.202 A  
ENDROOT
BRANCH   3   7
HETATM    7  C   UNL     1      -9.427  13.753  66.462  1.00  0.00    -0.282 C  
HETATM    8  C   UNL     1      -8.668  12.635  66.590  1.00  0.00    -0.084 C  
BRANCH   7   9
HETATM    9  C   UNL     1     -10.525  13.741  65.491  1.00  0.00    -0.318 A  
HETATM   10  C   UNL     1     -11.139  12.713  64.753  1.00  0.00    -0.335 A  
HETATM   11  C   UNL     1     -12.450  14.542  64.090  1.00  0.00    -0.180 A  
HETATM   12  C   UNL     1     -12.232  13.199  63.947  1.00  0.00    -0.503 A  
HETATM   13  S   UNL     1     -11.341  15.249  65.161  1.00  0.00    -0.282 SA 
HETATM   14  C   UNL     1     -10.820  11.247  64.729  1.00  0.00    -0.314 C  
ENDBRANCH   7   9
BRANCH   8  15
HETATM   15  C   UNL     1      -7.631  12.344  67.658  1.00  0.00    -0.141 C  
BRANCH  15  16
HETATM   16  C   UNL     1      -7.885  11.052  68.499  1.00  0.00    -0.129 C  
BRANCH  16  17
HETATM   17  N   UNL     1      -9.179  10.429  68.175  1.00  0.00    -0.143 NA 
HETATM   18  C   UNL     1      -9.117   9.062  67.683  1.00  0.00    -0.133 C  
HETATM   19  C   UNL     1      -9.358   8.040  68.783  1.00  0.00    -0.147 C  
HETATM   20  C   UNL     1     -10.785   8.170  69.282  1.00  0.00    -0.141 C  
HETATM   21  C   UNL     1     -11.121   9.596  69.725  1.00  0.00    -0.247 C  
HETATM   22  C   UNL     1     -11.198   9.808  71.229  1.00  0.00    -0.347 C  
HETATM   23  C   UNL     1     -10.311  10.740  69.061  1.00  0.00    -0.215 C  
HETATM   24  O   UNL     1     -10.396   9.040  71.991  1.00  0.00    -0.339 OA 
HETATM   25  O   UNL     1     -11.927  10.654  71.735  1.00  0.00    -0.087 OA 
ENDBRANCH  16  17
ENDBRANCH  15  16
ENDBRANCH   8  15
ENDBRANCH   3   7
TORSDOF 5
ENDMDL
MODEL      189
REMARK 921   NORMALIZED FREE ENERGY PREDICTED BY IDOCK:   -3.99 KCAL/MOL
REMARK 922        TOTAL FREE ENERGY PREDICTED BY IDOCK:   -6.66 KCAL/MOL
REMARK 923 INTER-LIGAND FREE ENERGY PREDICTED BY IDOCK:   -5.81 KCAL/MOL
REMARK 924 INTRA-LIGAND FREE ENERGY PREDICTED BY IDOCK:   -0.85 KCAL/MOL
REMARK 927      BINDING AFFINITY PREDICTED BY RF-SCORE:    0.00 PKD
ROOT
HETATM    1  C   UNL     1     -11.397  14.188  69.101  1.00  0.00    -0.318 C  
HETATM    2  C   UNL     1     -10.518  14.988  68.193  1.00  0.00    -0.245 A  
HETATM    3  C   UNL     1      -9.899  14.575  67.001  1.00  0.00    -0.249 A  
HETATM    4  C   UNL     1      -9.324  16.924  67.628  1.00  0.00    -0.233 A  
HETATM    5  S   UNL     1      -8.935  15.864  66.353  1.00  0.00    -0.350 SA 
HETATM    6  C   UNL     1     -10.174  16.344  68.533  1.00  0.00    -0.257 A  
ENDROOT
BRANCH   3   7
HETATM    7  C   UNL     1      -9.875  13.301  66.297  1.00  0.00    -0.288 C  
HETATM    8  C   UNL     1      -9.065  12.310  66.751  1.00  0.00    -0.211 C  
BRANCH   7   9
HETATM    9  C   UNL     1     -10.761  13.013  65.165  1.00  0.00    -0.306 A  
HETATM   10  C   UNL     1     -10.860  11.923  64.282  1.00  0.00    -0.396 A  
HETATM   11  C   UNL     1     -12.650  13.238  63.526  1.00  0.00    -0.087 A  
HETATM   12  C   UNL     1     -11.942  12.082  63.341  1.00  0.00    -0.571 A  
HETATM   13  S   UNL     1     -12.020  14.166  64.798  1.00  0.00    -0.454 SA 
HETATM   14  C   UNL     1     -10.031  10.675  64.224  1.00  0.00    -0.413 C  
ENDBRANCH   7   9
BRANCH   8  15
HETATM   15  C   UNL     1      -8.233  12.310  68.019  1.00  0.00    -0.163 C  
BRANCH  15  16
HETATM   16  C   UNL     1      -8.822  11.476  69.202  1.00  0.00     0.280 C  
BRANCH  16  17
HETATM   17  N   UNL     1      -8.169  10.162  69.330  1.00  0.00    -0.154 NA 
HETATM   18  C   UNL     1      -8.502   9.405  70.526  1.00  0.00    -0.212 C  
HETATM   19  C   UNL     1      -9.600   8.383  70.277  1.00  0.00    -0.170 C  
HETATM   20  C   UNL     1      -9.089   7.323  69.319  1.00  0.00    -0.138 C  
HETATM   21  C   UNL     1      -8.542   7.924  68.021  1.00  0.00    -0.126 C  
HETATM   22  C   UNL     1      -9.434   7.756  66.801  1.00  0.00    -0.197 C  
HETATM   23  C   UNL     1      -8.003   9.377  68.099  1.00  0.00    -0.091 C  
HETATM   24  O   UNL     1     -10.763   7.731  67.022  1.00  0.00    -0.347 OA 
HETATM   25  O   UNL     1      -8.982   7.678  65.665  1.00  0.00    -0.112 OA 
ENDBRANCH  16  17
ENDBRANCH  15  16
ENDBRANCH   8  15
ENDBRANCH   3   7
TORSDOF 5
ENDMDL
MODEL      190
REMARK 921   NORMALIZED FREE ENERGY PREDICTED BY IDOCK:   -3.99 KCAL/MOL
REMARK 922        TOTAL FREE ENERGY PREDICTED BY IDOCK:   -6.66 KCAL/MOL
REMARK 923 INTER-LIGAND FREE ENERGY PREDICTED BY IDOCK:   -6.91 KCAL/MOL
REMARK 924 INTRA-LIGAND FREE ENERGY PREDICTED BY IDOCK:    0.25 KCAL/MOL
REMARK 927      BINDING AFFINITY PREDICTED BY RF-SCORE:    0.00 PKD
ROOT
HETATM    1  C   UNL     1     -13.283  10.659  72.021  1.00  0.00    -0.473 C  
HETATM    2  C   UNL     1     -12.929   9.239  71.710  1.00  0.00    -0.471 A  
HETATM    3  C   UNL     1     -11.694   8.730  71.273  1.00  0.00    -0.298 A  
HETATM    4  C   UNL     1     -13.465   6.974  71.434  1.00  0.00    -0.233 A  
HETATM    5  S   UNL     1     -11.819   7.021  70.998  1.00  0.00    -0.365 SA 
HETATM    6  C   UNL     1     -13.932   8.210  71.798  1.00  0.00    -0.479 A  
ENDROOT
BRANCH   3   7
HETATM    7  C   UNL     1     -10.423   9.369  70.963  1.00  0.00    -0.392 C  
HETATM    8  C   UNL     1     -10.411  10.460  70.156  1.00  0.00    -0.185 C  
BRANCH   7   9
HETATM    9  C   UNL     1      -9.159   8.930  71.560  1.00  0.00    -0.229 A  
HETATM   10  C   UNL     1      -7.822   8.997  71.127  1.00  0.00    -0.154 A  
HETATM   11  C   UNL     1      -7.527   8.031  73.245  1.00  0.00    -0.139 A  
HETATM   12  C   UNL     1      -6.906   8.463  72.104  1.00  0.00    -0.095 A  
HETATM   13  S   UNL     1      -9.209   8.227  73.158  1.00  0.00    -0.160 SA 
HETATM   14  C   UNL     1      -7.270   9.551  69.847  1.00  0.00    -0.093 C  
ENDBRANCH   7   9
BRANCH   8  15
HETATM   15  C   UNL     1     -11.609  11.211  69.606  1.00  0.00    -0.398 C  
BRANCH  15  16
HETATM   16  C   UNL     1     -11.270  12.498  68.787  1.00  0.00    -0.273 C  
BRANCH  16  17
HETATM   17  N   UNL     1     -12.043  13.664  69.247  1.00  0.00    -0.335 NA 
HETATM   18  C   UNL     1     -12.090  13.865  70.686  1.00  0.00    -0.347 C  
HETATM   19  C   UNL     1     -11.055  14.872  71.163  1.00  0.00    -0.107 C  
HETATM   20  C   UNL     1     -11.396  16.241  70.605  1.00  0.00    -0.321 C  
HETATM   21  C   UNL     1     -11.543  16.231  69.081  1.00  0.00    -0.213 C  
HETATM   22  C   UNL     1     -10.389  16.854  68.312  1.00  0.00    -0.335 C  
HETATM   23  C   UNL     1     -11.959  14.884  68.431  1.00  0.00    -0.221 C  
HETATM   24  O   UNL     1      -9.166  16.754  68.870  1.00  0.00    -0.252 OA 
HETATM   25  O   UNL     1     -10.543  17.396  67.224  1.00  0.00    -0.339 OA 
ENDBRANCH  16  17
ENDBRANCH  15  16
ENDBRANCH   8  15
ENDBRANCH   3   7
TORSDOF 5
ENDMDL
MODEL      191
REMARK 921   NORMALIZED FREE ENERGY PREDICTED BY IDOCK:   -3.97 KCAL/MOL
REMARK 922        TOTAL FREE ENERGY PREDICTED BY IDOCK:   -6.63 KCAL/MOL
REMARK 923 INTER-LIGAND FREE ENERGY PREDICTED BY IDOCK:   -6.22 KCAL/MOL
REMARK 924 INTRA-LIGAND FREE ENERGY PREDICTED BY IDOCK:   -0.41 KCAL/MOL
REMARK 927      BINDING AFFINITY PREDICTED BY RF-SCORE:    0.00 PKD
ROOT
HETATM    1  C   UNL     1     -12.232  12.860  67.484  1.00  0.00    -0.077 C  
HETATM    2  C   UNL     1     -11.771  12.537  66.098  1.00  0.00    -0.466 A  
HETATM    3  C   UNL     1     -10.478  12.186  65.675  1.00  0.00    -0.255 A  
HETATM    4  C   UNL     1     -12.106  12.342  63.787  1.00  0.00    -0.532 A  
HETATM    5  S   UNL     1     -10.454  11.967  63.953  1.00  0.00    -0.443 SA 
HETATM    6  C   UNL     1     -12.692  12.618  64.994  1.00  0.00    -0.403 A  
ENDROOT
BRANCH   3   7
HETATM    7  C   UNL     1      -9.215  12.053  66.386  1.00  0.00    -0.216 C  
HETATM    8  C   UNL     1      -8.684  13.141  67.001  1.00  0.00    -0.193 C  
BRANCH   7   9
HETATM    9  C   UNL     1      -8.533  10.764  66.540  1.00  0.00    -0.147 A  
HETATM   10  C   UNL     1      -7.787   9.965  65.655  1.00  0.00    -0.127 A  
HETATM   11  C   UNL     1      -7.591   8.704  67.624  1.00  0.00    -0.098 A  
HETATM   12  C   UNL     1      -7.269   8.781  66.296  1.00  0.00    -0.086 A  
HETATM   13  S   UNL     1      -8.539  10.019  68.120  1.00  0.00    -0.119 SA 
HETATM   14  C   UNL     1      -7.468  10.201  64.209  1.00  0.00    -0.116 C  
ENDBRANCH   7   9
BRANCH   8  15
HETATM   15  C   UNL     1      -9.317  14.510  67.156  1.00  0.00    -0.225 C  
BRANCH  15  16
HETATM   16  C   UNL     1      -9.344  15.382  65.859  1.00  0.00    -0.294 C  
BRANCH  16  17
HETATM   17  N   UNL     1      -9.188  16.817  66.155  1.00  0.00    -0.409 NA 
HETATM   18  C   UNL     1     -10.272  17.428  66.907  1.00  0.00    -0.322 C  
HETATM   19  C   UNL     1      -9.973  17.502  68.396  1.00  0.00    -0.335 C  
HETATM   20  C   UNL     1      -8.808  18.446  68.626  1.00  0.00    -0.306 C  
HETATM   21  C   UNL     1      -7.576  18.066  67.800  1.00  0.00    -0.220 C  
HETATM   22  C   UNL     1      -6.444  17.419  68.582  1.00  0.00    -0.191 C  
HETATM   23  C   UNL     1      -7.835  17.287  66.483  1.00  0.00    -0.287 C  
HETATM   24  O   UNL     1      -6.793  16.675  69.650  1.00  0.00    -0.210 OA 
HETATM   25  O   UNL     1      -5.269  17.535  68.252  1.00  0.00    -0.141 OA 
ENDBRANCH  16  17
ENDBRANCH  15  16
ENDBRANCH   8  15
ENDBRANCH   3   7
TORSDOF 5
ENDMDL
MODEL      192
REMARK 921   NORMALIZED FREE ENERGY PREDICTED BY IDOCK:   -3.96 KCAL/MOL
REMARK 922        TOTAL FREE ENERGY PREDICTED BY IDOCK:   -6.62 KCAL/MOL
REMARK 923 INTER-LIGAND FREE ENERGY PREDICTED BY IDOCK:   -5.52 KCAL/MOL
REMARK 924 INTRA-LIGAND FREE ENERGY PREDICTED BY IDOCK:   -1.10 KCAL/MOL
REMARK 927      BINDING AFFINITY PREDICTED BY RF-SCORE:    0.00 PKD
ROOT
HETATM    1  C   UNL     1      -8.873   6.275  66.170  1.00  0.00    -0.160 C  
HETATM    2  C   UNL     1      -8.065   7.380  66.771  1.00  0.00    -0.123 A  
HETATM    3  C   UNL     1      -8.453   8.297  67.763  1.00  0.00    -0.131 A  
HETATM    4  C   UNL     1      -6.140   8.710  66.913  1.00  0.00    -0.058 A  
HETATM    5  S   UNL     1      -7.166   9.419  68.073  1.00  0.00    -0.078 SA 
HETATM    6  C   UNL     1      -6.729   7.636  66.299  1.00  0.00    -0.057 A  
ENDROOT
BRANCH   3   7
HETATM    7  C   UNL     1      -9.704   8.495  68.481  1.00  0.00    -0.174 C  
HETATM    8  C   UNL     1     -10.609   9.385  67.999  1.00  0.00    -0.278 C  
BRANCH   7   9
HETATM    9  C   UNL     1     -10.065   7.705  69.662  1.00  0.00    -0.194 A  
HETATM   10  C   UNL     1      -9.694   7.784  71.016  1.00  0.00    -0.174 A  
HETATM   11  C   UNL     1     -11.225   6.010  71.107  1.00  0.00    -0.261 A  
HETATM   12  C   UNL     1     -10.362   6.793  71.823  1.00  0.00    -0.217 A  
HETATM   13  S   UNL     1     -11.232   6.421  69.462  1.00  0.00    -0.394 SA 
HETATM   14  C   UNL     1      -8.753   8.744  71.683  1.00  0.00    -0.255 C  
ENDBRANCH   7   9
BRANCH   8  15
HETATM   15  C   UNL     1     -10.543  10.146  66.689  1.00  0.00    -0.214 C  
BRANCH  15  16
HETATM   16  C   UNL     1     -11.310  11.507  66.670  1.00  0.00    -0.214 C  
BRANCH  16  17
HETATM   17  N   UNL     1     -10.428  12.633  66.320  1.00  0.00    -0.248 NA 
HETATM   18  C   UNL     1     -10.821  13.405  65.153  1.00  0.00    -0.313 C  
HETATM   19  C   UNL     1     -11.600  14.658  65.523  1.00  0.00    -0.335 C  
HETATM   20  C   UNL     1     -10.691  15.606  66.282  1.00  0.00    -0.295 C  
HETATM   21  C   UNL     1     -10.039  14.941  67.498  1.00  0.00    -0.228 C  
HETATM   22  C   UNL     1     -10.612  15.348  68.846  1.00  0.00    -0.244 C  
HETATM   23  C   UNL     1      -9.854  13.402  67.433  1.00  0.00    -0.227 C  
HETATM   24  O   UNL     1     -11.921  15.667  68.876  1.00  0.00    -0.367 OA 
HETATM   25  O   UNL     1      -9.936  15.361  69.869  1.00  0.00    -0.277 OA 
ENDBRANCH  16  17
ENDBRANCH  15  16
ENDBRANCH   8  15
ENDBRANCH   3   7
TORSDOF 5
ENDMDL
MODEL      193
REMARK 921   NORMALIZED FREE ENERGY PREDICTED BY IDOCK:   -3.96 KCAL/MOL
REMARK 922        TOTAL FREE ENERGY PREDICTED BY IDOCK:   -6.62 KCAL/MOL
REMARK 923 INTER-LIGAND FREE ENERGY PREDICTED BY IDOCK:   -5.30 KCAL/MOL
REMARK 924 INTRA-LIGAND FREE ENERGY PREDICTED BY IDOCK:   -1.32 KCAL/MOL
REMARK 927      BINDING AFFINITY PREDICTED BY RF-SCORE:    0.00 PKD
ROOT
HETATM    1  C   UNL     1      -8.613   8.652  71.990  1.00  0.00    -0.216 C  
HETATM    2  C   UNL     1      -9.851   7.866  71.693  1.00  0.00    -0.212 A  
HETATM    3  C   UNL     1     -10.797   8.088  70.678  1.00  0.00    -0.234 A  
HETATM    4  C   UNL     1     -11.400   6.170  72.161  1.00  0.00    -0.299 A  
HETATM    5  S   UNL     1     -12.081   6.927  70.797  1.00  0.00    -0.284 SA 
HETATM    6  C   UNL     1     -10.218   6.755  72.533  1.00  0.00    -0.200 A  
ENDROOT
BRANCH   3   7
HETATM    7  C   UNL     1     -10.910   9.111  69.649  1.00  0.00    -0.210 C  
HETATM    8  C   UNL     1     -10.541   8.814  68.377  1.00  0.00    -0.185 C  
BRANCH   7   9
HETATM    9  C   UNL     1     -11.491  10.430  69.915  1.00  0.00    -0.297 A  
HETATM   10  C   UNL     1     -12.359  10.910  70.913  1.00  0.00    -0.501 A  
HETATM   11  C   UNL     1     -11.944  12.894  69.733  1.00  0.00    -0.296 A  
HETATM   12  C   UNL     1     -12.615  12.322  70.779  1.00  0.00    -0.302 A  
HETATM   13  S   UNL     1     -11.024  11.755  68.877  1.00  0.00    -0.240 SA 
HETATM   14  C   UNL     1     -12.996  10.165  72.049  1.00  0.00    -0.508 C  
ENDBRANCH   7   9
BRANCH   8  15
HETATM   15  C   UNL     1     -10.122   7.462  67.833  1.00  0.00    -0.220 C  
BRANCH  15  16
HETATM   16  C   UNL     1      -9.023   7.502  66.722  1.00  0.00    -0.144 C  
BRANCH  16  17
HETATM   17  N   UNL     1      -7.859   6.667  67.066  1.00  0.00    -0.106 NA 
HETATM   18  C   UNL     1      -6.959   7.219  68.065  1.00  0.00    -0.079 C  
HETATM   19  C   UNL     1      -7.245   6.683  69.459  1.00  0.00    -0.082 C  
HETATM   20  C   UNL     1      -6.944   5.196  69.495  1.00  0.00    -0.054 C  
HETATM   21  C   UNL     1      -7.692   4.422  68.406  1.00  0.00    -0.075 C  
HETATM   22  C   UNL     1      -8.873   3.597  68.890  1.00  0.00    -0.108 C  
HETATM   23  C   UNL     1      -8.076   5.215  67.128  1.00  0.00    -0.104 C  
HETATM   24  O   UNL     1      -9.543   4.068  69.960  1.00  0.00    -0.179 OA 
HETATM   25  O   UNL     1      -9.228   2.568  68.327  1.00  0.00    -0.165 OA 
ENDBRANCH  16  17
ENDBRANCH  15  16
ENDBRANCH   8  15
ENDBRANCH   3   7
TORSDOF 5
ENDMDL
MODEL      194
REMARK 921   NORMALIZED FREE ENERGY PREDICTED BY IDOCK:   -3.95 KCAL/MOL
REMARK 922        TOTAL FREE ENERGY PREDICTED BY IDOCK:   -6.60 KCAL/MOL
REMARK 923 INTER-LIGAND FREE ENERGY PREDICTED BY IDOCK:   -5.37 KCAL/MOL
REMARK 924 INTRA-LIGAND FREE ENERGY PREDICTED BY IDOCK:   -1.23 KCAL/MOL
REMARK 927      BINDING AFFINITY PREDICTED BY RF-SCORE:    0.00 PKD
ROOT
HETATM    1  C   UNL     1      -8.811   9.166  64.809  1.00  0.00    -0.200 C  
HETATM    2  C   UNL     1      -7.693   8.860  65.753  1.00  0.00    -0.094 A  
HETATM    3  C   UNL     1      -7.651   9.065  67.143  1.00  0.00    -0.091 A  
HETATM    4  C   UNL     1      -5.511   8.152  66.234  1.00  0.00    -0.031 A  
HETATM    5  S   UNL     1      -6.101   8.597  67.768  1.00  0.00    -0.048 SA 
HETATM    6  C   UNL     1      -6.451   8.331  65.253  1.00  0.00    -0.052 A  
ENDROOT
BRANCH   3   7
HETATM    7  C   UNL     1      -8.608   9.636  68.080  1.00  0.00    -0.119 C  
HETATM    8  C   UNL     1      -8.779  10.983  68.111  1.00  0.00    -0.141 C  
BRANCH   7   9
HETATM    9  C   UNL     1      -9.462   8.806  68.934  1.00  0.00    -0.145 A  
HETATM   10  C   UNL     1     -10.336   7.737  68.663  1.00  0.00    -0.221 A  
HETATM   11  C   UNL     1     -10.498   7.826  71.001  1.00  0.00    -0.203 A  
HETATM   12  C   UNL     1     -10.929   7.201  69.863  1.00  0.00    -0.278 A  
HETATM   13  S   UNL     1      -9.407   9.078  70.658  1.00  0.00    -0.254 SA 
HETATM   14  C   UNL     1     -10.684   7.113  67.344  1.00  0.00    -0.368 C  
ENDBRANCH   7   9
BRANCH   8  15
HETATM   15  C   UNL     1      -8.169  12.010  67.177  1.00  0.00    -0.181 C  
BRANCH  15  16
HETATM   16  C   UNL     1      -8.087  13.463  67.746  1.00  0.00    -0.173 C  
BRANCH  16  17
HETATM   17  N   UNL     1      -9.115  14.342  67.164  1.00  0.00    -0.216 NA 
HETATM   18  C   UNL     1      -9.956  13.741  66.142  1.00  0.00    -0.308 C  
HETATM   19  C   UNL     1     -11.279  13.242  66.702  1.00  0.00    -0.332 C  
HETATM   20  C   UNL     1     -12.098  14.426  67.182  1.00  0.00    -0.367 C  
HETATM   21  C   UNL     1     -11.332  15.300  68.179  1.00  0.00    -0.346 C  
HETATM   22  C   UNL     1     -11.766  15.163  69.630  1.00  0.00    -0.327 C  
HETATM   23  C   UNL     1      -9.784  15.281  68.075  1.00  0.00    -0.211 C  
HETATM   24  O   UNL     1     -12.230  13.958  70.012  1.00  0.00    -0.321 OA 
HETATM   25  O   UNL     1     -11.675  16.087  70.431  1.00  0.00    -0.348 OA 
ENDBRANCH  16  17
ENDBRANCH  15  16
ENDBRANCH   8  15
ENDBRANCH   3   7
TORSDOF 5
ENDMDL
MODEL      195
REMARK 921   NORMALIZED FREE ENERGY PREDICTED BY IDOCK:   -3.94 KCAL/MOL
REMARK 922        TOTAL FREE ENERGY PREDICTED BY IDOCK:   -6.60 KCAL/MOL
REMARK 923 INTER-LIGAND FREE ENERGY PREDICTED BY IDOCK:   -5.51 KCAL/MOL
REMARK 924 INTRA-LIGAND FREE ENERGY PREDICTED BY IDOCK:   -1.09 KCAL/MOL
REMARK 927      BINDING AFFINITY PREDICTED BY RF-SCORE:    0.00 PKD
ROOT
HETATM    1  C   UNL     1      -8.949   6.547  73.033  1.00  0.00    -0.136 C  
HETATM    2  C   UNL     1      -9.185   6.336  71.571  1.00  0.00    -0.149 A  
HETATM    3  C   UNL     1      -9.718   7.244  70.640  1.00  0.00    -0.175 A  
HETATM    4  C   UNL     1      -9.219   5.009  69.640  1.00  0.00    -0.118 A  
HETATM    5  S   UNL     1      -9.842   6.492  69.080  1.00  0.00    -0.146 SA 
HETATM    6  C   UNL     1      -8.903   5.057  70.972  1.00  0.00    -0.153 A  
ENDROOT
BRANCH   3   7
HETATM    7  C   UNL     1     -10.220   8.604  70.771  1.00  0.00    -0.250 C  
HETATM    8  C   UNL     1      -9.425   9.641  70.402  1.00  0.00    -0.280 C  
BRANCH   7   9
HETATM    9  C   UNL     1     -11.588   8.896  71.207  1.00  0.00    -0.304 A  
HETATM   10  C   UNL     1     -12.642   8.083  71.662  1.00  0.00    -0.346 A  
HETATM   11  C   UNL     1     -13.630  10.200  71.870  1.00  0.00    -0.237 A  
HETATM   12  C   UNL     1     -13.807   8.852  72.024  1.00  0.00    -0.511 A  
HETATM   13  S   UNL     1     -12.088  10.568  71.266  1.00  0.00    -0.291 SA 
HETATM   14  C   UNL     1     -12.681   6.592  71.827  1.00  0.00    -0.280 C  
ENDBRANCH   7   9
BRANCH   8  15
HETATM   15  C   UNL     1      -8.069   9.565  69.727  1.00  0.00    -0.143 C  
BRANCH  15  16
HETATM   16  C   UNL     1      -7.965  10.307  68.356  1.00  0.00    -0.108 C  
BRANCH  16  17
HETATM   17  N   UNL     1      -9.203  10.187  67.568  1.00  0.00    -0.137 NA 
HETATM   18  C   UNL     1      -9.953  11.417  67.378  1.00  0.00    -0.186 C  
HETATM   19  C   UNL     1      -9.648  12.080  66.043  1.00  0.00    -0.247 C  
HETATM   20  C   UNL     1     -10.141  11.189  64.918  1.00  0.00    -0.345 C  
HETATM   21  C   UNL     1      -9.577   9.769  65.009  1.00  0.00    -0.333 C  
HETATM   22  C   UNL     1      -8.486   9.437  64.003  1.00  0.00    -0.195 C  
HETATM   23  C   UNL     1      -9.178   9.267  66.422  1.00  0.00    -0.180 C  
HETATM   24  O   UNL     1      -7.689  10.453  63.618  1.00  0.00    -0.134 OA 
HETATM   25  O   UNL     1      -8.309   8.301  63.579  1.00  0.00    -0.123 OA 
ENDBRANCH  16  17
ENDBRANCH  15  16
ENDBRANCH   8  15
ENDBRANCH   3   7
TORSDOF 5
ENDMDL
MODEL      196
REMARK 921   NORMALIZED FREE ENERGY PREDICTED BY IDOCK:   -3.94 KCAL/MOL
REMARK 922        TOTAL FREE ENERGY PREDICTED BY IDOCK:   -6.59 KCAL/MOL
REMARK 923 INTER-LIGAND FREE ENERGY PREDICTED BY IDOCK:   -4.82 KCAL/MOL
REMARK 924 INTRA-LIGAND FREE ENERGY PREDICTED BY IDOCK:   -1.77 KCAL/MOL
REMARK 927      BINDING AFFINITY PREDICTED BY RF-SCORE:    0.00 PKD
ROOT
HETATM    1  C   UNL     1     -11.045  10.709  69.553  1.00  0.00    -0.328 C  
HETATM    2  C   UNL     1     -11.525   9.805  70.643  1.00  0.00    -0.397 A  
HETATM    3  C   UNL     1     -10.915   8.637  71.133  1.00  0.00    -0.260 A  
HETATM    4  C   UNL     1     -13.106   9.120  72.232  1.00  0.00    -0.438 A  
HETATM    5  S   UNL     1     -11.905   7.920  72.364  1.00  0.00    -0.328 SA 
HETATM    6  C   UNL     1     -12.784  10.064  71.293  1.00  0.00    -0.500 A  
ENDROOT
BRANCH   3   7
HETATM    7  C   UNL     1      -9.699   7.932  70.753  1.00  0.00    -0.179 C  
HETATM    8  C   UNL     1      -9.771   6.939  69.831  1.00  0.00    -0.165 C  
BRANCH   7   9
HETATM    9  C   UNL     1      -8.379   8.313  71.265  1.00  0.00    -0.131 A  
HETATM   10  C   UNL     1      -7.416   9.241  70.830  1.00  0.00    -0.123 A  
HETATM   11  C   UNL     1      -6.381   8.448  72.780  1.00  0.00    -0.091 A  
HETATM   12  C   UNL     1      -6.272   9.290  71.708  1.00  0.00     0.010 A  
HETATM   13  S   UNL     1      -7.828   7.564  72.743  1.00  0.00    -0.106 SA 
HETATM   14  C   UNL     1      -7.451  10.151  69.638  1.00  0.00    -0.147 C  
ENDBRANCH   7   9
BRANCH   8  15
HETATM   15  C   UNL     1     -10.982   6.525  69.017  1.00  0.00    -0.378 C  
BRANCH  15  16
HETATM   16  C   UNL     1     -10.892   6.832  67.487  1.00  0.00    -0.318 C  
BRANCH  16  17
HETATM   17  N   UNL     1     -10.045   5.858  66.778  1.00  0.00    -0.174 NA 
HETATM   18  C   UNL     1      -8.830   6.391  66.185  1.00  0.00    -0.150 C  
HETATM   19  C   UNL     1      -7.614   6.188  67.076  1.00  0.00    -0.095 C  
HETATM   20  C   UNL     1      -7.326   4.704  67.199  1.00  0.00    -0.077 C  
HETATM   21  C   UNL     1      -8.543   3.910  67.679  1.00  0.00    -0.112 C  
HETATM   22  C   UNL     1      -8.484   3.441  69.125  1.00  0.00    -0.062 C  
HETATM   23  C   UNL     1      -9.937   4.515  67.366  1.00  0.00    -0.120 C  
HETATM   24  O   UNL     1      -7.810   4.226  69.988  1.00  0.00    -0.052 OA 
HETATM   25  O   UNL     1      -9.043   2.419  69.506  1.00  0.00    -0.095 OA 
ENDBRANCH  16  17
ENDBRANCH  15  16
ENDBRANCH   8  15
ENDBRANCH   3   7
TORSDOF 5
ENDMDL
MODEL      197
REMARK 921   NORMALIZED FREE ENERGY PREDICTED BY IDOCK:   -3.91 KCAL/MOL
REMARK 922        TOTAL FREE ENERGY PREDICTED BY IDOCK:   -6.56 KCAL/MOL
REMARK 923 INTER-LIGAND FREE ENERGY PREDICTED BY IDOCK:   -5.22 KCAL/MOL
REMARK 924 INTRA-LIGAND FREE ENERGY PREDICTED BY IDOCK:   -1.34 KCAL/MOL
REMARK 927      BINDING AFFINITY PREDICTED BY RF-SCORE:    0.00 PKD
ROOT
HETATM    1  C   UNL     1      -6.067  10.909  66.210  1.00  0.00    -0.137 C  
HETATM    2  C   UNL     1      -7.405  10.502  65.679  1.00  0.00    -0.126 A  
HETATM    3  C   UNL     1      -8.673  10.952  66.085  1.00  0.00    -0.184 A  
HETATM    4  C   UNL     1      -8.789   9.196  64.311  1.00  0.00    -0.100 A  
HETATM    5  S   UNL     1      -9.911  10.126  65.193  1.00  0.00    -0.248 SA 
HETATM    6  C   UNL     1      -7.497   9.494  64.655  1.00  0.00    -0.113 A  
ENDROOT
BRANCH   3   7
HETATM    7  C   UNL     1      -9.099  11.886  67.117  1.00  0.00    -0.178 C  
HETATM    8  C   UNL     1      -9.328  11.425  68.373  1.00  0.00    -0.194 C  
BRANCH   7   9
HETATM    9  C   UNL     1      -9.205  13.328  66.874  1.00  0.00    -0.241 A  
HETATM   10  C   UNL     1      -8.336  14.406  67.119  1.00  0.00    -0.214 A  
HETATM   11  C   UNL     1     -10.101  15.526  66.054  1.00  0.00    -0.332 A  
HETATM   12  C   UNL     1      -8.878  15.659  66.653  1.00  0.00    -0.327 A  
HETATM   13  S   UNL     1     -10.637  13.917  66.066  1.00  0.00    -0.300 SA 
HETATM   14  C   UNL     1      -6.977  14.399  67.753  1.00  0.00    -0.191 C  
ENDBRANCH   7   9
BRANCH   8  15
HETATM   15  C   UNL     1      -9.074  10.026  68.900  1.00  0.00    -0.159 C  
BRANCH  15  16
HETATM   16  C   UNL     1     -10.353   9.164  69.147  1.00  0.00    -0.212 C  
BRANCH  16  17
HETATM   17  N   UNL     1     -10.794   9.218  70.551  1.00  0.00    -0.243 NA 
HETATM   18  C   UNL     1     -11.861   8.301  70.915  1.00  0.00    -0.216 C  
HETATM   19  C   UNL     1     -11.334   7.024  71.553  1.00  0.00    -0.290 C  
HETATM   20  C   UNL     1     -10.688   7.360  72.883  1.00  0.00    -0.387 C  
HETATM   21  C   UNL     1      -9.609   8.438  72.754  1.00  0.00    -0.308 C  
HETATM   22  C   UNL     1      -8.176   7.938  72.852  1.00  0.00    -0.144 C  
HETATM   23  C   UNL     1      -9.753   9.428  71.568  1.00  0.00     0.050 C  
HETATM   24  O   UNL     1      -7.938   6.690  72.401  1.00  0.00    -0.099 OA 
HETATM   25  O   UNL     1      -7.267   8.634  73.289  1.00  0.00    -0.323 OA 
ENDBRANCH  16  17
ENDBRANCH  15  16
ENDBRANCH   8  15
ENDBRANCH   3   7
TORSDOF 5
ENDMDL
MODEL      198
REMARK 921   NORMALIZED FREE ENERGY PREDICTED BY IDOCK:   -3.89 KCAL/MOL
REMARK 922        TOTAL FREE ENERGY PREDICTED BY IDOCK:   -6.53 KCAL/MOL
REMARK 923 INTER-LIGAND FREE ENERGY PREDICTED BY IDOCK:   -5.28 KCAL/MOL
REMARK 924 INTRA-LIGAND FREE ENERGY PREDICTED BY IDOCK:   -1.25 KCAL/MOL
REMARK 927      BINDING AFFINITY PREDICTED BY RF-SCORE:    0.00 PKD
ROOT
HETATM    1  C   UNL     1     -10.990  11.686  66.321  1.00  0.00    -0.338 C  
HETATM    2  C   UNL     1      -9.821  11.496  67.234  1.00  0.00    -0.208 A  
HETATM    3  C   UNL     1      -9.618  10.480  68.183  1.00  0.00    -0.154 A  
HETATM    4  C   UNL     1      -7.777  12.168  68.163  1.00  0.00    -0.129 A  
HETATM    5  S   UNL     1      -8.125  10.743  69.027  1.00  0.00    -0.118 SA 
HETATM    6  C   UNL     1      -8.747  12.455  67.238  1.00  0.00    -0.191 A  
ENDROOT
BRANCH   3   7
HETATM    7  C   UNL     1     -10.436   9.350  68.601  1.00  0.00    -0.236 C  
HETATM    8  C   UNL     1     -10.400   8.203  67.875  1.00  0.00    -0.280 C  
BRANCH   7   9
HETATM    9  C   UNL     1     -11.234   9.372  69.830  1.00  0.00    -0.155 A  
HETATM   10  C   UNL     1     -11.313   8.505  70.935  1.00  0.00    -0.304 A  
HETATM   11  C   UNL     1     -12.803  10.184  71.615  1.00  0.00    -0.454 A  
HETATM   12  C   UNL     1     -12.230   8.984  71.939  1.00  0.00    -0.451 A  
HETATM   13  S   UNL     1     -12.284  10.741  70.100  1.00  0.00    -0.338 SA 
HETATM   14  C   UNL     1     -10.576   7.222  71.184  1.00  0.00    -0.236 C  
ENDBRANCH   7   9
BRANCH   8  15
HETATM   15  C   UNL     1      -9.491   7.883  66.704  1.00  0.00    -0.270 C  
BRANCH  15  16
HETATM   16  C   UNL     1      -8.012   7.550  67.080  1.00  0.00    -0.117 C  
BRANCH  16  17
HETATM   17  N   UNL     1      -7.774   6.099  67.153  1.00  0.00    -0.099 NA 
HETATM   18  C   UNL     1      -8.205   5.448  68.380  1.00  0.00    -0.094 C  
HETATM   19  C   UNL     1      -9.577   4.807  68.244  1.00  0.00    -0.204 C  
HETATM   20  C   UNL     1      -9.499   3.666  67.248  1.00  0.00    -0.235 C  
HETATM   21  C   UNL     1      -8.922   4.105  65.899  1.00  0.00    -0.126 C  
HETATM   22  C   UNL     1      -9.934   4.240  64.772  1.00  0.00    -0.150 C  
HETATM   23  C   UNL     1      -7.967   5.328  65.916  1.00  0.00    -0.105 C  
HETATM   24  O   UNL     1     -11.182   4.608  65.120  1.00  0.00    -0.133 OA 
HETATM   25  O   UNL     1      -9.635   4.057  63.598  1.00  0.00    -0.153 OA 
ENDBRANCH  16  17
ENDBRANCH  15  16
ENDBRANCH   8  15
ENDBRANCH   3   7
TORSDOF 5
ENDMDL
MODEL      199
REMARK 921   NORMALIZED FREE ENERGY PREDICTED BY IDOCK:   -3.89 KCAL/MOL
REMARK 922        TOTAL FREE ENERGY PREDICTED BY IDOCK:   -6.52 KCAL/MOL
REMARK 923 INTER-LIGAND FREE ENERGY PREDICTED BY IDOCK:   -5.14 KCAL/MOL
REMARK 924 INTRA-LIGAND FREE ENERGY PREDICTED BY IDOCK:   -1.38 KCAL/MOL
REMARK 927      BINDING AFFINITY PREDICTED BY RF-SCORE:    0.00 PKD
ROOT
HETATM    1  C   UNL     1     -10.025   9.339  70.943  1.00  0.00    -0.367 C  
HETATM    2  C   UNL     1      -8.814   8.504  70.672  1.00  0.00    -0.175 A  
HETATM    3  C   UNL     1      -8.758   7.134  70.364  1.00  0.00    -0.150 A  
HETATM    4  C   UNL     1      -6.497   8.183  70.535  1.00  0.00    -0.036 A  
HETATM    5  S   UNL     1      -7.106   6.629  70.195  1.00  0.00    -0.077 SA 
HETATM    6  C   UNL     1      -7.501   9.087  70.762  1.00  0.00    -0.121 A  
ENDROOT
BRANCH   3   7
HETATM    7  C   UNL     1      -9.787   6.112  70.241  1.00  0.00    -0.206 C  
HETATM    8  C   UNL     1     -10.288   5.822  69.013  1.00  0.00    -0.313 C  
BRANCH   7   9
HETATM    9  C   UNL     1     -10.245   5.318  71.385  1.00  0.00    -0.213 A  
HETATM   10  C   UNL     1     -11.025   5.628  72.514  1.00  0.00    -0.313 A  
HETATM   11  C   UNL     1     -10.680   3.334  72.863  1.00  0.00    -0.081 A  
HETATM   12  C   UNL     1     -11.249   4.477  73.354  1.00  0.00    -0.404 A  
HETATM   13  S   UNL     1      -9.846   3.618  71.413  1.00  0.00    -0.102 SA 
HETATM   14  C   UNL     1     -11.634   6.940  72.910  1.00  0.00    -0.042 C  
ENDBRANCH   7   9
BRANCH   8  15
HETATM   15  C   UNL     1      -9.813   6.357  67.676  1.00  0.00    -0.138 C  
BRANCH  15  16
HETATM   16  C   UNL     1     -10.579   7.614  67.151  1.00  0.00    -0.340 C  
BRANCH  16  17
HETATM   17  N   UNL     1      -9.873   8.866  67.475  1.00  0.00    -0.173 NA 
HETATM   18  C   UNL     1      -8.440   8.865  67.229  1.00  0.00    -0.114 C  
HETATM   19  C   UNL     1      -8.084   9.486  65.887  1.00  0.00    -0.115 C  
HETATM   20  C   UNL     1      -8.437  10.961  65.909  1.00  0.00    -0.158 C  
HETATM   21  C   UNL     1      -9.898  11.206  66.298  1.00  0.00    -0.253 C  
HETATM   22  C   UNL     1     -10.817  11.606  65.154  1.00  0.00    -0.288 C  
HETATM   23  C   UNL     1     -10.574  10.123  67.180  1.00  0.00    -0.246 C  
HETATM   24  O   UNL     1     -10.520  11.109  63.937  1.00  0.00    -0.342 OA 
HETATM   25  O   UNL     1     -11.800  12.318  65.321  1.00  0.00    -0.376 OA 
ENDBRANCH  16  17
ENDBRANCH  15  16
ENDBRANCH   8  15
ENDBRANCH   3   7
TORSDOF 5
ENDMDL
MODEL      200
REMARK 921   NORMALIZED FREE ENERGY PREDICTED BY IDOCK:   -3.88 KCAL/MOL
REMARK 922        TOTAL FREE ENERGY PREDICTED BY IDOCK:   -6.52 KCAL/MOL
REMARK 923 INTER-LIGAND FREE ENERGY PREDICTED BY IDOCK:   -6.62 KCAL/MOL
REMARK 924 INTRA-LIGAND FREE ENERGY PREDICTED BY IDOCK:    0.10 KCAL/MOL
REMARK 927      BINDING AFFINITY PREDICTED BY RF-SCORE:    0.00 PKD
ROOT
HETATM    1  C   UNL     1      -9.580  14.269  65.849  1.00  0.00    -0.227 C  
HETATM    2  C   UNL     1      -8.876  14.702  67.096  1.00  0.00    -0.238 A  
HETATM    3  C   UNL     1      -9.276  15.681  68.022  1.00  0.00    -0.184 A  
HETATM    4  C   UNL     1      -7.064  14.664  68.582  1.00  0.00    -0.115 A  
HETATM    5  S   UNL     1      -8.079  15.847  69.268  1.00  0.00    -0.185 SA 
HETATM    6  C   UNL     1      -7.601  14.129  67.441  1.00  0.00    -0.179 A  
ENDROOT
BRANCH   3   7
HETATM    7  C   UNL     1     -10.423  16.576  68.070  1.00  0.00    -0.313 C  
HETATM    8  C   UNL     1     -11.528  16.199  68.761  1.00  0.00    -0.340 C  
BRANCH   7   9
HETATM    9  C   UNL     1     -10.399  17.914  67.471  1.00  0.00    -0.377 A  
HETATM   10  C   UNL     1     -10.176  19.197  68.003  1.00  0.00    -0.489 A  
HETATM   11  C   UNL     1     -10.425  19.725  65.731  1.00  0.00    -0.445 A  
HETATM   12  C   UNL     1     -10.209  20.221  66.988  1.00  0.00    -0.503 A  
HETATM   13  S   UNL     1     -10.621  18.041  65.743  1.00  0.00     0.028 SA 
HETATM   14  C   UNL     1      -9.900  19.596  69.423  1.00  0.00    -0.235 C  
ENDBRANCH   7   9
BRANCH   8  15
HETATM   15  C   UNL     1     -11.694  14.967  69.631  1.00  0.00    -0.353 C  
BRANCH  15  16
HETATM   16  C   UNL     1     -10.846  13.728  69.199  1.00  0.00    -0.170 C  
BRANCH  16  17
HETATM   17  N   UNL     1     -11.683  12.539  68.967  1.00  0.00    -0.306 NA 
HETATM   18  C   UNL     1     -11.745  12.067  67.594  1.00  0.00    -0.294 C  
HETATM   19  C   UNL     1     -10.769  10.931  67.328  1.00  0.00    -0.317 C  
HETATM   20  C   UNL     1     -11.183   9.717  68.138  1.00  0.00     0.000 C  
HETATM   21  C   UNL     1     -11.325  10.030  69.630  1.00  0.00    -0.253 C  
HETATM   22  C   UNL     1     -10.205   9.505  70.514  1.00  0.00    -0.287 C  
HETATM   23  C   UNL     1     -11.664  11.497  70.004  1.00  0.00    -0.332 C  
HETATM   24  O   UNL     1      -8.980   9.428  69.957  1.00  0.00    -0.175 OA 
HETATM   25  O   UNL     1     -10.385   9.192  71.685  1.00  0.00    -0.334 OA 
ENDBRANCH  16  17
ENDBRANCH  15  16
ENDBRANCH   8  15
ENDBRANCH   3   7
TORSDOF 5
ENDMDL
MODEL      201
REMARK 921   NORMALIZED FREE ENERGY PREDICTED BY IDOCK:   -3.88 KCAL/MOL
REMARK 922        TOTAL FREE ENERGY PREDICTED BY IDOCK:   -6.51 KCAL/MOL
REMARK 923 INTER-LIGAND FREE ENERGY PREDICTED BY IDOCK:   -5.08 KCAL/MOL
REMARK 924 INTRA-LIGAND FREE ENERGY PREDICTED BY IDOCK:   -1.43 KCAL/MOL
REMARK 927      BINDING AFFINITY PREDICTED BY RF-SCORE:    0.00 PKD
ROOT
HETATM    1  C   UNL     1     -11.145   6.831  67.382  1.00  0.00    -0.366 C  
HETATM    2  C   UNL     1      -9.867   7.609  67.394  1.00  0.00    -0.226 A  
HETATM    3  C   UNL     1      -8.998   7.832  68.475  1.00  0.00    -0.133 A  
HETATM    4  C   UNL     1      -8.266   8.993  66.388  1.00  0.00    -0.111 A  
HETATM    5  S   UNL     1      -7.682   8.849  67.981  1.00  0.00    -0.101 SA 
HETATM    6  C   UNL     1      -9.424   8.285  66.202  1.00  0.00    -0.241 A  
ENDROOT
BRANCH   3   7
HETATM    7  C   UNL     1      -9.050   7.435  69.875  1.00  0.00    -0.141 C  
HETATM    8  C   UNL     1      -9.516   8.317  70.795  1.00  0.00    -0.185 C  
BRANCH   7   9
HETATM    9  C   UNL     1      -8.700   6.083  70.320  1.00  0.00    -0.143 A  
HETATM   10  C   UNL     1      -7.482   5.382  70.385  1.00  0.00    -0.075 A  
HETATM   11  C   UNL     1      -8.929   3.791  71.323  1.00  0.00    -0.104 A  
HETATM   12  C   UNL     1      -7.641   4.065  70.951  1.00  0.00    -0.047 A  
HETATM   13  S   UNL     1      -9.973   5.083  70.978  1.00  0.00    -0.219 SA 
HETATM   14  C   UNL     1      -6.111   5.832  69.976  1.00  0.00    -0.026 C  
ENDBRANCH   7   9
BRANCH   8  15
HETATM   15  C   UNL     1     -10.130   9.679  70.536  1.00  0.00    -0.338 C  
BRANCH  15  16
HETATM   16  C   UNL     1     -11.562   9.887  71.125  1.00  0.00    -0.389 C  
BRANCH  16  17
HETATM   17  N   UNL     1     -12.385  10.770  70.280  1.00  0.00    -0.329 NA 
HETATM   18  C   UNL     1     -12.854  11.993  70.910  1.00  0.00    -0.115 C  
HETATM   19  C   UNL     1     -11.966  13.186  70.590  1.00  0.00    -0.246 C  
HETATM   20  C   UNL     1     -12.060  13.495  69.108  1.00  0.00    -0.331 C  
HETATM   21  C   UNL     1     -11.742  12.277  68.236  1.00  0.00    -0.392 C  
HETATM   22  C   UNL     1     -10.382  12.303  67.555  1.00  0.00    -0.203 C  
HETATM   23  C   UNL     1     -12.003  10.883  68.865  1.00  0.00    -0.206 C  
HETATM   24  O   UNL     1      -9.391  12.940  68.208  1.00  0.00    -0.209 OA 
HETATM   25  O   UNL     1     -10.176  11.751  66.481  1.00  0.00    -0.202 OA 
ENDBRANCH  16  17
ENDBRANCH  15  16
ENDBRANCH   8  15
ENDBRANCH   3   7
TORSDOF 5
ENDMDL
MODEL      202
REMARK 921   NORMALIZED FREE ENERGY PREDICTED BY IDOCK:   -3.86 KCAL/MOL
REMARK 922        TOTAL FREE ENERGY PREDICTED BY IDOCK:   -6.49 KCAL/MOL
REMARK 923 INTER-LIGAND FREE ENERGY PREDICTED BY IDOCK:   -6.34 KCAL/MOL
REMARK 924 INTRA-LIGAND FREE ENERGY PREDICTED BY IDOCK:   -0.15 KCAL/MOL
REMARK 927      BINDING AFFINITY PREDICTED BY RF-SCORE:    0.00 PKD
ROOT
HETATM    1  C   UNL     1      -6.625  13.672  67.471  1.00  0.00    -0.122 C  
HETATM    2  C   UNL     1      -6.536  14.867  68.366  1.00  0.00    -0.103 A  
HETATM    3  C   UNL     1      -7.025  16.164  68.132  1.00  0.00    -0.128 A  
HETATM    4  C   UNL     1      -5.803  15.965  70.303  1.00  0.00    -0.122 A  
HETATM    5  S   UNL     1      -6.613  17.204  69.460  1.00  0.00    -0.107 SA 
HETATM    6  C   UNL     1      -5.839  14.776  69.623  1.00  0.00    -0.104 A  
ENDROOT
BRANCH   3   7
HETATM    7  C   UNL     1      -7.714  16.763  66.999  1.00  0.00    -0.230 C  
HETATM    8  C   UNL     1      -8.946  16.308  66.658  1.00  0.00    -0.283 C  
BRANCH   7   9
HETATM    9  C   UNL     1      -7.165  17.905  66.261  1.00  0.00    -0.289 A  
HETATM   10  C   UNL     1      -7.689  19.165  65.919  1.00  0.00    -0.202 A  
HETATM   11  C   UNL     1      -5.519  19.365  65.050  1.00  0.00    -0.184 A  
HETATM   12  C   UNL     1      -6.731  19.979  65.213  1.00  0.00    -0.335 A  
HETATM   13  S   UNL     1      -5.512  17.802  65.707  1.00  0.00    -0.093 SA 
HETATM   14  C   UNL     1      -9.046  19.734  66.209  1.00  0.00    -0.444 C  
ENDBRANCH   7   9
BRANCH   8  15
HETATM   15  C   UNL     1      -9.792  15.294  67.405  1.00  0.00    -0.217 C  
BRANCH  15  16
HETATM   16  C   UNL     1      -9.507  13.799  67.052  1.00  0.00    -0.255 C  
BRANCH  16  17
HETATM   17  N   UNL     1     -10.698  13.124  66.507  1.00  0.00    -0.278 NA 
HETATM   18  C   UNL     1     -11.667  13.985  65.851  1.00  0.00    -0.366 C  
HETATM   19  C   UNL     1     -11.489  14.011  64.340  1.00  0.00    -0.357 C  
HETATM   20  C   UNL     1     -11.799  12.637  63.777  1.00  0.00    -0.574 C  
HETATM   21  C   UNL     1     -10.976  11.533  64.445  1.00  0.00    -0.390 C  
HETATM   22  C   UNL     1      -9.838  10.973  63.606  1.00  0.00    -0.351 C  
HETATM   23  C   UNL     1     -10.494  11.804  65.894  1.00  0.00    -0.255 C  
HETATM   24  O   UNL     1      -9.248  11.823  62.743  1.00  0.00    -0.331 OA 
HETATM   25  O   UNL     1      -9.447   9.817  63.720  1.00  0.00    -0.223 OA 
ENDBRANCH  16  17
ENDBRANCH  15  16
ENDBRANCH   8  15
ENDBRANCH   3   7
TORSDOF 5
ENDMDL
MODEL      203
REMARK 921   NORMALIZED FREE ENERGY PREDICTED BY IDOCK:   -3.83 KCAL/MOL
REMARK 922        TOTAL FREE ENERGY PREDICTED BY IDOCK:   -6.45 KCAL/MOL
REMARK 923 INTER-LIGAND FREE ENERGY PREDICTED BY IDOCK:   -5.20 KCAL/MOL
REMARK 924 INTRA-LIGAND FREE ENERGY PREDICTED BY IDOCK:   -1.26 KCAL/MOL
REMARK 927      BINDING AFFINITY PREDICTED BY RF-SCORE:    0.00 PKD
ROOT
HETATM    1  C   UNL     1     -11.420  11.549  67.280  1.00  0.00    -0.338 C  
HETATM    2  C   UNL     1     -10.100  11.337  67.951  1.00  0.00    -0.195 A  
HETATM    3  C   UNL     1      -9.681  10.232  68.711  1.00  0.00    -0.177 A  
HETATM    4  C   UNL     1      -7.961  12.040  68.601  1.00  0.00    -0.082 A  
HETATM    5  S   UNL     1      -8.078  10.500  69.319  1.00  0.00    -0.122 SA 
HETATM    6  C   UNL     1      -9.092  12.364  67.899  1.00  0.00    -0.191 A  
ENDROOT
BRANCH   3   7
HETATM    7  C   UNL     1     -10.354   9.004  69.110  1.00  0.00    -0.229 C  
HETATM    8  C   UNL     1     -10.475   7.994  68.212  1.00  0.00    -0.210 C  
BRANCH   7   9
HETATM    9  C   UNL     1     -10.830   8.780  70.478  1.00  0.00    -0.233 A  
HETATM   10  C   UNL     1     -11.735   9.474  71.302  1.00  0.00    -0.444 A  
HETATM   11  C   UNL     1     -11.195   7.671  72.702  1.00  0.00    -0.366 A  
HETATM   12  C   UNL     1     -11.917   8.826  72.578  1.00  0.00    -0.301 A  
HETATM   13  S   UNL     1     -10.268   7.355  71.318  1.00  0.00    -0.187 SA 
HETATM   14  C   UNL     1     -12.505  10.728  71.012  1.00  0.00    -0.522 C  
ENDBRANCH   7   9
BRANCH   8  15
HETATM   15  C   UNL     1      -9.871   7.921  66.822  1.00  0.00    -0.318 C  
BRANCH  15  16
HETATM   16  C   UNL     1      -8.766   6.834  66.632  1.00  0.00    -0.127 C  
BRANCH  16  17
HETATM   17  N   UNL     1      -9.317   5.571  66.110  1.00  0.00    -0.157 NA 
HETATM   18  C   UNL     1      -8.653   5.029  64.936  1.00  0.00    -0.150 C  
HETATM   19  C   UNL     1      -7.627   3.964  65.292  1.00  0.00    -0.081 C  
HETATM   20  C   UNL     1      -8.339   2.761  65.881  1.00  0.00    -0.093 C  
HETATM   21  C   UNL     1      -9.231   3.134  67.068  1.00  0.00    -0.198 C  
HETATM   22  C   UNL     1      -8.690   2.745  68.435  1.00  0.00    -0.100 C  
HETATM   23  C   UNL     1      -9.778   4.586  67.099  1.00  0.00    -0.197 C  
HETATM   24  O   UNL     1      -7.350   2.740  68.577  1.00  0.00    -0.048 OA 
HETATM   25  O   UNL     1      -9.424   2.476  69.379  1.00  0.00    -0.129 OA 
ENDBRANCH  16  17
ENDBRANCH  15  16
ENDBRANCH   8  15
ENDBRANCH   3   7
TORSDOF 5
ENDMDL
MODEL      204
REMARK 921   NORMALIZED FREE ENERGY PREDICTED BY IDOCK:   -3.82 KCAL/MOL
REMARK 922        TOTAL FREE ENERGY PREDICTED BY IDOCK:   -6.43 KCAL/MOL
REMARK 923 INTER-LIGAND FREE ENERGY PREDICTED BY IDOCK:   -4.91 KCAL/MOL
REMARK 924 INTRA-LIGAND FREE ENERGY PREDICTED BY IDOCK:   -1.52 KCAL/MOL
REMARK 927      BINDING AFFINITY PREDICTED BY RF-SCORE:    0.00 PKD
ROOT
HETATM    1  C   UNL     1      -7.674  10.680  69.168  1.00  0.00    -0.138 C  
HETATM    2  C   UNL     1      -9.043  10.123  69.400  1.00  0.00    -0.217 A  
HETATM    3  C   UNL     1     -10.150  10.155  68.535  1.00  0.00    -0.169 A  
HETATM    4  C   UNL     1     -10.669   9.088  70.733  1.00  0.00    -0.241 A  
HETATM    5  S   UNL     1     -11.524   9.421  69.299  1.00  0.00     0.403 SA 
HETATM    6  C   UNL     1      -9.365   9.502  70.658  1.00  0.00    -0.263 A  
ENDROOT
BRANCH   3   7
HETATM    7  C   UNL     1     -10.345  10.730  67.211  1.00  0.00    -0.262 C  
HETATM    8  C   UNL     1      -9.921  10.041  66.121  1.00  0.00    -0.322 C  
BRANCH   7   9
HETATM    9  C   UNL     1     -11.065  11.990  67.002  1.00  0.00    -0.298 A  
HETATM   10  C   UNL     1     -11.407  13.050  67.861  1.00  0.00    -0.327 A  
HETATM   11  C   UNL     1     -12.236  13.876  65.828  1.00  0.00    -0.460 A  
HETATM   12  C   UNL     1     -12.090  14.114  67.168  1.00  0.00    -0.432 A  
HETATM   13  S   UNL     1     -11.590  12.373  65.382  1.00  0.00    -0.386 SA 
HETATM   14  C   UNL     1     -11.137  13.202  69.329  1.00  0.00    -0.201 C  
ENDBRANCH   7   9
BRANCH   8  15
HETATM   15  C   UNL     1      -9.353   8.635  66.085  1.00  0.00    -0.291 C  
BRANCH  15  16
HETATM   16  C   UNL     1      -7.793   8.546  66.112  1.00  0.00    -0.098 C  
BRANCH  16  17
HETATM   17  N   UNL     1      -7.323   7.253  66.639  1.00  0.00    -0.079 NA 
HETATM   18  C   UNL     1      -7.492   7.054  68.069  1.00  0.00    -0.099 C  
HETATM   19  C   UNL     1      -8.753   6.271  68.399  1.00  0.00    -0.116 C  
HETATM   20  C   UNL     1      -8.621   4.859  67.860  1.00  0.00    -0.103 C  
HETATM   21  C   UNL     1      -8.290   4.833  66.365  1.00  0.00    -0.107 C  
HETATM   22  C   UNL     1      -9.442   4.444  65.451  1.00  0.00    -0.175 C  
HETATM   23  C   UNL     1      -7.544   6.069  65.796  1.00  0.00    -0.084 C  
HETATM   24  O   UNL     1     -10.680   4.784  65.860  1.00  0.00    -0.318 OA 
HETATM   25  O   UNL     1      -9.265   3.877  64.379  1.00  0.00    -0.131 OA 
ENDBRANCH  16  17
ENDBRANCH  15  16
ENDBRANCH   8  15
ENDBRANCH   3   7
TORSDOF 5
ENDMDL
MODEL      205
REMARK 921   NORMALIZED FREE ENERGY PREDICTED BY IDOCK:   -3.80 KCAL/MOL
REMARK 922        TOTAL FREE ENERGY PREDICTED BY IDOCK:   -6.41 KCAL/MOL
REMARK 923 INTER-LIGAND FREE ENERGY PREDICTED BY IDOCK:   -5.69 KCAL/MOL
REMARK 924 INTRA-LIGAND FREE ENERGY PREDICTED BY IDOCK:   -0.72 KCAL/MOL
REMARK 927      BINDING AFFINITY PREDICTED BY RF-SCORE:    0.00 PKD
ROOT
HETATM    1  C   UNL     1      -8.326  11.856  66.542  1.00  0.00    -0.062 C  
HETATM    2  C   UNL     1      -9.037  10.541  66.578  1.00  0.00    -0.175 A  
HETATM    3  C   UNL     1      -9.642   9.912  67.680  1.00  0.00    -0.148 A  
HETATM    4  C   UNL     1      -9.754   8.536  65.598  1.00  0.00     0.230 A  
HETATM    5  S   UNL     1     -10.282   8.369  67.208  1.00  0.00    -0.305 SA 
HETATM    6  C   UNL     1      -9.117   9.731  65.390  1.00  0.00    -0.251 A  
ENDROOT
BRANCH   3   7
HETATM    7  C   UNL     1      -9.754  10.285  69.083  1.00  0.00    -0.229 C  
HETATM    8  C   UNL     1     -10.755  11.115  69.470  1.00  0.00    -0.193 C  
BRANCH   7   9
HETATM    9  C   UNL     1      -8.875   9.726  70.114  1.00  0.00    -0.188 A  
HETATM   10  C   UNL     1      -9.121   8.965  71.272  1.00  0.00    -0.323 A  
HETATM   11  C   UNL     1      -6.777   9.058  71.324  1.00  0.00    -0.085 A  
HETATM   12  C   UNL     1      -7.903   8.606  71.956  1.00  0.00    -0.104 A  
HETATM   13  S   UNL     1      -7.152   9.942  69.926  1.00  0.00    -0.135 SA 
HETATM   14  C   UNL     1     -10.430   8.492  71.831  1.00  0.00    -0.387 C  
ENDBRANCH   7   9
BRANCH   8  15
HETATM   15  C   UNL     1     -11.899  11.635  68.620  1.00  0.00    -0.370 C  
BRANCH  15  16
HETATM   16  C   UNL     1     -11.494  12.666  67.518  1.00  0.00    -0.340 C  
BRANCH  16  17
HETATM   17  N   UNL     1     -11.792  14.051  67.922  1.00  0.00    -0.363 NA 
HETATM   18  C   UNL     1     -11.164  14.499  69.154  1.00  0.00    -0.269 C  
HETATM   19  C   UNL     1      -9.882  15.277  68.901  1.00  0.00    -0.221 C  
HETATM   20  C   UNL     1     -10.216  16.572  68.184  1.00  0.00    -0.271 C  
HETATM   21  C   UNL     1     -11.022  16.340  66.904  1.00  0.00    -0.059 C  
HETATM   22  C   UNL     1     -10.246  16.509  65.607  1.00  0.00    -0.292 C  
HETATM   23  C   UNL     1     -11.887  15.053  66.850  1.00  0.00    -0.098 C  
HETATM   24  O   UNL     1      -8.936  16.199  65.641  1.00  0.00    -0.370 OA 
HETATM   25  O   UNL     1     -10.779  16.880  64.568  1.00  0.00    -0.677 OA 
ENDBRANCH  16  17
ENDBRANCH  15  16
ENDBRANCH   8  15
ENDBRANCH   3   7
TORSDOF 5
ENDMDL
MODEL      206
REMARK 921   NORMALIZED FREE ENERGY PREDICTED BY IDOCK:   -3.79 KCAL/MOL
REMARK 922        TOTAL FREE ENERGY PREDICTED BY IDOCK:   -6.40 KCAL/MOL
REMARK 923 INTER-LIGAND FREE ENERGY PREDICTED BY IDOCK:   -5.21 KCAL/MOL
REMARK 924 INTRA-LIGAND FREE ENERGY PREDICTED BY IDOCK:   -1.19 KCAL/MOL
REMARK 927      BINDING AFFINITY PREDICTED BY RF-SCORE:    0.00 PKD
ROOT
HETATM    1  C   UNL     1     -11.746  13.093  68.125  1.00  0.00    -0.391 C  
HETATM    2  C   UNL     1     -11.421  13.035  66.666  1.00  0.00    -0.382 A  
HETATM    3  C   UNL     1     -10.159  12.896  66.064  1.00  0.00    -0.285 A  
HETATM    4  C   UNL     1     -12.004  13.154  64.399  1.00  0.00    -0.397 A  
HETATM    5  S   UNL     1     -10.315  12.943  64.336  1.00  0.00    -0.331 SA 
HETATM    6  C   UNL     1     -12.468  13.180  65.688  1.00  0.00    -0.485 A  
ENDROOT
BRANCH   3   7
HETATM    7  C   UNL     1      -8.815  12.798  66.614  1.00  0.00    -0.113 C  
HETATM    8  C   UNL     1      -8.186  11.595  66.612  1.00  0.00    -0.140 C  
BRANCH   7   9
HETATM    9  C   UNL     1      -8.075  13.969  67.093  1.00  0.00    -0.099 A  
HETATM   10  C   UNL     1      -8.289  15.354  66.965  1.00  0.00    -0.268 A  
HETATM   11  C   UNL     1      -6.372  15.351  68.317  1.00  0.00    -0.119 A  
HETATM   12  C   UNL     1      -7.292  16.125  67.664  1.00  0.00    -0.164 A  
HETATM   13  S   UNL     1      -6.664  13.696  68.084  1.00  0.00    -0.142 SA 
HETATM   14  C   UNL     1      -9.388  16.077  66.244  1.00  0.00    -0.356 C  
ENDBRANCH   7   9
BRANCH   8  15
HETATM   15  C   UNL     1      -8.668  10.305  65.975  1.00  0.00    -0.162 C  
BRANCH  15  16
HETATM   16  C   UNL     1      -7.603   9.544  65.122  1.00  0.00    -0.112 C  
BRANCH  16  17
HETATM   17  N   UNL     1      -7.239   8.249  65.722  1.00  0.00    -0.071 NA 
HETATM   18  C   UNL     1      -6.248   8.300  66.784  1.00  0.00    -0.055 C  
HETATM   19  C   UNL     1      -6.883   8.303  68.167  1.00  0.00    -0.069 C  
HETATM   20  C   UNL     1      -7.581   6.976  68.399  1.00  0.00    -0.111 C  
HETATM   21  C   UNL     1      -8.587   6.644  67.294  1.00  0.00    -0.119 C  
HETATM   22  C   UNL     1     -10.049   6.810  67.675  1.00  0.00    -0.161 C  
HETATM   23  C   UNL     1      -8.319   7.268  65.899  1.00  0.00    -0.144 C  
HETATM   24  O   UNL     1     -10.335   7.769  68.577  1.00  0.00    -0.198 OA 
HETATM   25  O   UNL     1     -10.939   6.133  67.173  1.00  0.00    -0.335 OA 
ENDBRANCH  16  17
ENDBRANCH  15  16
ENDBRANCH   8  15
ENDBRANCH   3   7
TORSDOF 5
ENDMDL
MODEL      207
REMARK 921   NORMALIZED FREE ENERGY PREDICTED BY IDOCK:   -3.79 KCAL/MOL
REMARK 922        TOTAL FREE ENERGY PREDICTED BY IDOCK:   -6.39 KCAL/MOL
REMARK 923 INTER-LIGAND FREE ENERGY PREDICTED BY IDOCK:   -5.14 KCAL/MOL
REMARK 924 INTRA-LIGAND FREE ENERGY PREDICTED BY IDOCK:   -1.26 KCAL/MOL
REMARK 927      BINDING AFFINITY PREDICTED BY RF-SCORE:    0.00 PKD
ROOT
HETATM    1  C   UNL     1     -11.006   6.357  67.615  1.00  0.00    -0.441 C  
HETATM    2  C   UNL     1     -10.810   6.674  69.064  1.00  0.00    -0.324 A  
HETATM    3  C   UNL     1      -9.644   7.129  69.702  1.00  0.00    -0.154 A  
HETATM    4  C   UNL     1     -11.536   6.758  71.291  1.00  0.00    -0.302 A  
HETATM    5  S   UNL     1      -9.922   7.290  71.407  1.00  0.00    -0.186 SA 
HETATM    6  C   UNL     1     -11.887   6.470  69.998  1.00  0.00    -0.284 A  
ENDROOT
BRANCH   3   7
HETATM    7  C   UNL     1      -8.300   7.402  69.212  1.00  0.00    -0.132 C  
HETATM    8  C   UNL     1      -8.010   8.639  68.733  1.00  0.00    -0.114 C  
BRANCH   7   9
HETATM    9  C   UNL     1      -7.218   6.417  69.297  1.00  0.00    -0.090 A  
HETATM   10  C   UNL     1      -6.781   5.399  68.431  1.00  0.00    -0.054 A  
HETATM   11  C   UNL     1      -5.187   5.204  70.141  1.00  0.00    -0.004 A  
HETATM   12  C   UNL     1      -5.623   4.708  68.943  1.00  0.00    -0.012 A  
HETATM   13  S   UNL     1      -6.165   6.476  70.689  1.00  0.00    -0.040 SA 
HETATM   14  C   UNL     1      -7.337   4.989  67.099  1.00  0.00    -0.082 C  
ENDBRANCH   7   9
BRANCH   8  15
HETATM   15  C   UNL     1      -8.902   9.865  68.750  1.00  0.00    -0.136 C  
BRANCH  15  16
HETATM   16  C   UNL     1      -9.309  10.413  67.345  1.00  0.00    -0.145 C  
BRANCH  16  17
HETATM   17  N   UNL     1     -10.722  10.830  67.302  1.00  0.00    -0.257 NA 
HETATM   18  C   UNL     1     -11.282  11.295  68.560  1.00  0.00    -0.252 C  
HETATM   19  C   UNL     1     -11.258  12.811  68.679  1.00  0.00    -0.322 C  
HETATM   20  C   UNL     1     -12.186  13.408  67.638  1.00  0.00    -0.202 C  
HETATM   21  C   UNL     1     -11.862  12.926  66.221  1.00  0.00    -0.477 C  
HETATM   22  C   UNL     1     -11.167  13.945  65.331  1.00  0.00    -0.306 C  
HETATM   23  C   UNL     1     -11.171  11.542  66.098  1.00  0.00    -0.202 C  
HETATM   24  O   UNL     1     -10.354  14.828  65.943  1.00  0.00    -0.288 OA 
HETATM   25  O   UNL     1     -11.305  13.954  64.114  1.00  0.00    -0.329 OA 
ENDBRANCH  16  17
ENDBRANCH  15  16
ENDBRANCH   8  15
ENDBRANCH   3   7
TORSDOF 5
ENDMDL
MODEL      208
REMARK 921   NORMALIZED FREE ENERGY PREDICTED BY IDOCK:   -3.76 KCAL/MOL
REMARK 922        TOTAL FREE ENERGY PREDICTED BY IDOCK:   -6.36 KCAL/MOL
REMARK 923 INTER-LIGAND FREE ENERGY PREDICTED BY IDOCK:   -5.46 KCAL/MOL
REMARK 924 INTRA-LIGAND FREE ENERGY PREDICTED BY IDOCK:   -0.90 KCAL/MOL
REMARK 927      BINDING AFFINITY PREDICTED BY RF-SCORE:    0.00 PKD
ROOT
HETATM    1  C   UNL     1      -7.117   9.266  70.481  1.00  0.00    -0.100 C  
HETATM    2  C   UNL     1      -7.889   8.730  69.317  1.00  0.00    -0.100 A  
HETATM    3  C   UNL     1      -9.215   9.015  68.951  1.00  0.00    -0.140 A  
HETATM    4  C   UNL     1      -8.137   7.331  67.453  1.00  0.00    -0.113 A  
HETATM    5  S   UNL     1      -9.659   8.090  67.551  1.00  0.00    -0.162 SA 
HETATM    6  C   UNL     1      -7.288   7.761  68.438  1.00  0.00    -0.095 A  
ENDROOT
BRANCH   3   7
HETATM    7  C   UNL     1     -10.242   9.852  69.555  1.00  0.00    -0.243 C  
HETATM    8  C   UNL     1     -10.401  11.126  69.114  1.00  0.00    -0.186 C  
BRANCH   7   9
HETATM    9  C   UNL     1     -11.173   9.344  70.567  1.00  0.00    -0.275 A  
HETATM   10  C   UNL     1     -12.209   9.947  71.302  1.00  0.00    -0.480 A  
HETATM   11  C   UNL     1     -12.395   7.734  72.058  1.00  0.00    -0.294 A  
HETATM   12  C   UNL     1     -12.886   9.007  72.161  1.00  0.00    -0.478 A  
HETATM   13  S   UNL     1     -11.102   7.645  70.963  1.00  0.00    -0.262 SA 
HETATM   14  C   UNL     1     -12.678  11.372  71.279  1.00  0.00    -0.498 C  
ENDBRANCH   7   9
BRANCH   8  15
HETATM   15  C   UNL     1      -9.704  11.787  67.940  1.00  0.00    -0.185 C  
BRANCH  15  16
HETATM   16  C   UNL     1      -8.284  12.362  68.246  1.00  0.00    -0.170 C  
BRANCH  16  17
HETATM   17  N   UNL     1      -8.259  13.833  68.185  1.00  0.00    -0.150 NA 
HETATM   18  C   UNL     1      -8.190  14.409  66.852  1.00  0.00    -0.016 C  
HETATM   19  C   UNL     1      -9.558  14.814  66.326  1.00  0.00    -0.339 C  
HETATM   20  C   UNL     1     -10.104  15.949  67.172  1.00  0.00    -0.264 C  
HETATM   21  C   UNL     1     -10.129  15.604  68.664  1.00  0.00    -0.210 C  
HETATM   22  C   UNL     1     -11.504  15.298  69.237  1.00  0.00    -0.320 C  
HETATM   23  C   UNL     1      -9.096  14.556  69.154  1.00  0.00     0.029 C  
HETATM   24  O   UNL     1     -12.396  14.731  68.402  1.00  0.00    -0.116 OA 
HETATM   25  O   UNL     1     -11.791  15.523  70.407  1.00  0.00    -0.295 OA 
ENDBRANCH  16  17
ENDBRANCH  15  16
ENDBRANCH   8  15
ENDBRANCH   3   7
TORSDOF 5
ENDMDL
MODEL      209
REMARK 921   NORMALIZED FREE ENERGY PREDICTED BY IDOCK:   -3.76 KCAL/MOL
REMARK 922        TOTAL FREE ENERGY PREDICTED BY IDOCK:   -6.36 KCAL/MOL
REMARK 923 INTER-LIGAND FREE ENERGY PREDICTED BY IDOCK:   -5.40 KCAL/MOL
REMARK 924 INTRA-LIGAND FREE ENERGY PREDICTED BY IDOCK:   -0.96 KCAL/MOL
REMARK 927      BINDING AFFINITY PREDICTED BY RF-SCORE:    0.00 PKD
ROOT
HETATM    1  C   UNL     1      -9.072   7.660  66.151  1.00  0.00    -0.189 C  
HETATM    2  C   UNL     1      -8.059   8.024  67.190  1.00  0.00    -0.117 A  
HETATM    3  C   UNL     1      -8.286   8.453  68.509  1.00  0.00    -0.131 A  
HETATM    4  C   UNL     1      -5.862   8.410  67.908  1.00  0.00    -0.043 A  
HETATM    5  S   UNL     1      -6.777   8.806  69.289  1.00  0.00    -0.050 SA 
HETATM    6  C   UNL     1      -6.656   8.004  66.868  1.00  0.00    -0.057 A  
ENDROOT
BRANCH   3   7
HETATM    7  C   UNL     1      -9.506   8.706  69.263  1.00  0.00    -0.158 C  
HETATM    8  C   UNL     1     -10.237   9.816  68.986  1.00  0.00    -0.214 C  
BRANCH   7   9
HETATM    9  C   UNL     1     -10.026   7.759  70.254  1.00  0.00    -0.189 A  
HETATM   10  C   UNL     1      -9.880   7.659  71.649  1.00  0.00    -0.193 A  
HETATM   11  C   UNL     1     -11.348   5.872  71.253  1.00  0.00    -0.168 A  
HETATM   12  C   UNL     1     -10.636   6.560  72.198  1.00  0.00    -0.240 A  
HETATM   13  S   UNL     1     -11.104   6.502  69.698  1.00  0.00    -0.389 SA 
HETATM   14  C   UNL     1      -9.090   8.529  72.582  1.00  0.00    -0.256 C  
ENDBRANCH   7   9
BRANCH   8  15
HETATM   15  C   UNL     1     -10.009  10.811  67.864  1.00  0.00    -0.196 C  
BRANCH  15  16
HETATM   16  C   UNL     1      -9.874  12.302  68.314  1.00  0.00    -0.217 C  
BRANCH  16  17
HETATM   17  N   UNL     1     -11.182  12.975  68.393  1.00  0.00    -0.251 NA 
HETATM   18  C   UNL     1     -11.864  12.883  69.673  1.00  0.00    -0.320 C  
HETATM   19  C   UNL     1     -11.633  14.111  70.541  1.00  0.00    -0.205 C  
HETATM   20  C   UNL     1     -12.279  15.316  69.883  1.00  0.00    -0.357 C  
HETATM   21  C   UNL     1     -11.803  15.520  68.442  1.00  0.00    -0.241 C  
HETATM   22  C   UNL     1     -10.827  16.668  68.236  1.00  0.00    -0.356 C  
HETATM   23  C   UNL     1     -11.317  14.256  67.685  1.00  0.00    -0.324 C  
HETATM   24  O   UNL     1     -10.002  16.953  69.262  1.00  0.00    -0.250 OA 
HETATM   25  O   UNL     1     -10.762  17.291  67.183  1.00  0.00    -0.288 OA 
ENDBRANCH  16  17
ENDBRANCH  15  16
ENDBRANCH   8  15
ENDBRANCH   3   7
TORSDOF 5
ENDMDL
MODEL      210
REMARK 921   NORMALIZED FREE ENERGY PREDICTED BY IDOCK:   -3.75 KCAL/MOL
REMARK 922        TOTAL FREE ENERGY PREDICTED BY IDOCK:   -6.35 KCAL/MOL
REMARK 923 INTER-LIGAND FREE ENERGY PREDICTED BY IDOCK:   -5.26 KCAL/MOL
REMARK 924 INTRA-LIGAND FREE ENERGY PREDICTED BY IDOCK:   -1.09 KCAL/MOL
REMARK 927      BINDING AFFINITY PREDICTED BY RF-SCORE:    0.00 PKD
ROOT
HETATM    1  C   UNL     1      -6.464   6.462  68.226  1.00  0.00    -0.049 C  
HETATM    2  C   UNL     1      -7.887   6.014  68.114  1.00  0.00    -0.106 A  
HETATM    3  C   UNL     1      -8.945   6.647  67.440  1.00  0.00    -0.114 A  
HETATM    4  C   UNL     1      -9.659   4.570  68.630  1.00  0.00    -0.157 A  
HETATM    5  S   UNL     1     -10.414   5.749  67.660  1.00  0.00    -0.232 SA 
HETATM    6  C   UNL     1      -8.321   4.819  68.789  1.00  0.00    -0.084 A  
ENDROOT
BRANCH   3   7
HETATM    7  C   UNL     1      -9.026   7.894  66.692  1.00  0.00    -0.179 C  
HETATM    8  C   UNL     1      -9.514   9.002  67.306  1.00  0.00    -0.189 C  
BRANCH   7   9
HETATM    9  C   UNL     1      -8.518   8.022  65.324  1.00  0.00    -0.117 A  
HETATM   10  C   UNL     1      -8.035   7.087  64.391  1.00  0.00    -0.101 A  
HETATM   11  C   UNL     1      -7.922   9.049  63.110  1.00  0.00    -0.151 A  
HETATM   12  C   UNL     1      -7.686   7.702  63.134  1.00  0.00    -0.127 A  
HETATM   13  S   UNL     1      -8.531   9.608  64.591  1.00  0.00    -0.189 SA 
HETATM   14  C   UNL     1      -7.873   5.603  64.538  1.00  0.00    -0.114 C  
ENDBRANCH   7   9
BRANCH   8  15
HETATM   15  C   UNL     1      -9.891   9.154  68.767  1.00  0.00    -0.175 C  
BRANCH  15  16
HETATM   16  C   UNL     1     -10.914  10.295  69.076  1.00  0.00    -0.232 C  
BRANCH  16  17
HETATM   17  N   UNL     1     -11.212  10.395  70.515  1.00  0.00    -0.325 NA 
HETATM   18  C   UNL     1     -12.564  10.809  70.853  1.00  0.00    -0.401 C  
HETATM   19  C   UNL     1     -13.471   9.627  71.159  1.00  0.00    -0.292 C  
HETATM   20  C   UNL     1     -12.987   8.939  72.422  1.00  0.00    -0.467 C  
HETATM   21  C   UNL     1     -11.511   8.538  72.339  1.00  0.00    -0.419 C  
HETATM   22  C   UNL     1     -11.252   7.054  72.135  1.00  0.00    -0.256 C  
HETATM   23  C   UNL     1     -10.614   9.378  71.392  1.00  0.00    -0.311 C  
HETATM   24  O   UNL     1     -12.174   6.369  71.431  1.00  0.00    -0.292 OA 
HETATM   25  O   UNL     1     -10.243   6.501  72.557  1.00  0.00    -0.180 OA 
ENDBRANCH  16  17
ENDBRANCH  15  16
ENDBRANCH   8  15
ENDBRANCH   3   7
TORSDOF 5
ENDMDL
MODEL      211
REMARK 921   NORMALIZED FREE ENERGY PREDICTED BY IDOCK:   -3.75 KCAL/MOL
REMARK 922        TOTAL FREE ENERGY PREDICTED BY IDOCK:   -6.35 KCAL/MOL
REMARK 923 INTER-LIGAND FREE ENERGY PREDICTED BY IDOCK:   -5.03 KCAL/MOL
REMARK 924 INTRA-LIGAND FREE ENERGY PREDICTED BY IDOCK:   -1.32 KCAL/MOL
REMARK 927      BINDING AFFINITY PREDICTED BY RF-SCORE:    0.00 PKD
ROOT
HETATM    1  C   UNL     1      -6.788   9.998  70.233  1.00  0.00    -0.147 C  
HETATM    2  C   UNL     1      -8.127   9.348  70.371  1.00  0.00    -0.197 A  
HETATM    3  C   UNL     1      -9.200   9.371  69.463  1.00  0.00    -0.176 A  
HETATM    4  C   UNL     1      -9.737   8.133  71.565  1.00  0.00    -0.176 A  
HETATM    5  S   UNL     1     -10.555   8.508  70.120  1.00  0.00    -0.234 SA 
HETATM    6  C   UNL     1      -8.459   8.627  71.572  1.00  0.00    -0.238 A  
ENDROOT
BRANCH   3   7
HETATM    7  C   UNL     1      -9.379  10.020  68.172  1.00  0.00    -0.137 C  
HETATM    8  C   UNL     1      -9.975  11.239  68.122  1.00  0.00    -0.191 C  
BRANCH   7   9
HETATM    9  C   UNL     1      -8.861   9.447  66.927  1.00  0.00    -0.127 A  
HETATM   10  C   UNL     1      -8.247   8.218  66.623  1.00  0.00    -0.106 A  
HETATM   11  C   UNL     1      -8.346   9.177  64.484  1.00  0.00    -0.168 A  
HETATM   12  C   UNL     1      -7.948   8.092  65.218  1.00  0.00    -0.126 A  
HETATM   13  S   UNL     1      -9.051  10.372  65.459  1.00  0.00    -0.190 SA 
HETATM   14  C   UNL     1      -7.908   7.079  67.538  1.00  0.00    -0.112 C  
ENDBRANCH   7   9
BRANCH   8  15
HETATM   15  C   UNL     1     -10.390  12.110  69.293  1.00  0.00     0.204 C  
BRANCH  15  16
HETATM   16  C   UNL     1     -11.930  12.218  69.530  1.00  0.00    -0.270 C  
BRANCH  16  17
HETATM   17  N   UNL     1     -12.379  13.618  69.615  1.00  0.00    -0.260 NA 
HETATM   18  C   UNL     1     -12.629  14.121  70.955  1.00  0.00    -0.369 C  
HETATM   19  C   UNL     1     -11.443  14.892  71.515  1.00  0.00    -0.307 C  
HETATM   20  C   UNL     1     -11.236  16.153  70.697  1.00  0.00    -0.371 C  
HETATM   21  C   UNL     1     -11.092  15.862  69.201  1.00  0.00    -0.302 C  
HETATM   22  C   UNL     1      -9.680  15.977  68.649  1.00  0.00    -0.217 C  
HETATM   23  C   UNL     1     -11.773  14.571  68.674  1.00  0.00    -0.329 C  
HETATM   24  O   UNL     1      -8.674  15.673  69.492  1.00  0.00    -0.260 OA 
HETATM   25  O   UNL     1      -9.454  16.300  67.489  1.00  0.00    -0.224 OA 
ENDBRANCH  16  17
ENDBRANCH  15  16
ENDBRANCH   8  15
ENDBRANCH   3   7
TORSDOF 5
ENDMDL
MODEL      212
REMARK 921   NORMALIZED FREE ENERGY PREDICTED BY IDOCK:   -3.71 KCAL/MOL
REMARK 922        TOTAL FREE ENERGY PREDICTED BY IDOCK:   -6.30 KCAL/MOL
REMARK 923 INTER-LIGAND FREE ENERGY PREDICTED BY IDOCK:   -4.69 KCAL/MOL
REMARK 924 INTRA-LIGAND FREE ENERGY PREDICTED BY IDOCK:   -1.60 KCAL/MOL
REMARK 927      BINDING AFFINITY PREDICTED BY RF-SCORE:    0.00 PKD
ROOT
HETATM    1  C   UNL     1      -9.972   8.506  66.391  1.00  0.00    -0.314 C  
HETATM    2  C   UNL     1      -9.018   9.587  66.789  1.00  0.00    -0.157 A  
HETATM    3  C   UNL     1      -9.305  10.802  67.434  1.00  0.00    -0.150 A  
HETATM    4  C   UNL     1      -6.887  10.561  66.852  1.00  0.00    -0.091 A  
HETATM    5  S   UNL     1      -7.854  11.736  67.619  1.00  0.00    -0.149 SA 
HETATM    6  C   UNL     1      -7.620   9.470  66.466  1.00  0.00    -0.094 A  
ENDROOT
BRANCH   3   7
HETATM    7  C   UNL     1     -10.552  11.405  67.882  1.00  0.00    -0.224 C  
HETATM    8  C   UNL     1     -11.037  11.085  69.109  1.00  0.00    -0.301 C  
BRANCH   7   9
HETATM    9  C   UNL     1     -11.263  12.415  67.093  1.00  0.00    -0.298 A  
HETATM   10  C   UNL     1     -11.693  12.455  65.754  1.00  0.00    -0.470 A  
HETATM   11  C   UNL     1     -12.533  14.506  66.524  1.00  0.00    -0.006 A  
HETATM   12  C   UNL     1     -12.406  13.670  65.448  1.00  0.00    -0.510 A  
HETATM   13  S   UNL     1     -11.779  13.873  67.905  1.00  0.00    -0.378 SA 
HETATM   14  C   UNL     1     -11.523  11.426  64.676  1.00  0.00    -0.090 C  
ENDBRANCH   7   9
BRANCH   8  15
HETATM   15  C   UNL     1     -10.364  10.240  70.173  1.00  0.00    -0.210 C  
BRANCH  15  16
HETATM   16  C   UNL     1     -10.805   8.742  70.211  1.00  0.00    -0.231 C  
BRANCH  16  17
HETATM   17  N   UNL     1      -9.850   7.904  70.957  1.00  0.00    -0.170 NA 
HETATM   18  C   UNL     1      -9.474   6.653  70.319  1.00  0.00    -0.162 C  
HETATM   19  C   UNL     1      -8.162   6.763  69.558  1.00  0.00    -0.131 C  
HETATM   20  C   UNL     1      -7.033   7.010  70.541  1.00  0.00    -0.062 C  
HETATM   21  C   UNL     1      -7.294   8.224  71.436  1.00  0.00    -0.085 C  
HETATM   22  C   UNL     1      -6.485   9.467  71.099  1.00  0.00    -0.067 C  
HETATM   23  C   UNL     1      -8.779   8.600  71.685  1.00  0.00    -0.203 C  
HETATM   24  O   UNL     1      -6.161   9.645  69.803  1.00  0.00    -0.042 OA 
HETATM   25  O   UNL     1      -6.162  10.290  71.948  1.00  0.00    -0.099 OA 
ENDBRANCH  16  17
ENDBRANCH  15  16
ENDBRANCH   8  15
ENDBRANCH   3   7
TORSDOF 5
ENDMDL
MODEL      213
REMARK 921   NORMALIZED FREE ENERGY PREDICTED BY IDOCK:   -3.71 KCAL/MOL
REMARK 922        TOTAL FREE ENERGY PREDICTED BY IDOCK:   -6.29 KCAL/MOL
REMARK 923 INTER-LIGAND FREE ENERGY PREDICTED BY IDOCK:   -5.12 KCAL/MOL
REMARK 924 INTRA-LIGAND FREE ENERGY PREDICTED BY IDOCK:   -1.18 KCAL/MOL
REMARK 927      BINDING AFFINITY PREDICTED BY RF-SCORE:    0.00 PKD
ROOT
HETATM    1  C   UNL     1     -12.697   7.199  71.728  1.00  0.00    -0.374 C  
HETATM    2  C   UNL     1     -12.309   8.562  71.249  1.00  0.00    -0.301 A  
HETATM    3  C   UNL     1     -11.110   8.954  70.628  1.00  0.00    -0.262 A  
HETATM    4  C   UNL     1     -12.677  10.864  71.003  1.00  0.00    -0.407 A  
HETATM    5  S   UNL     1     -11.131  10.662  70.319  1.00  0.00    -0.150 SA 
HETATM    6  C   UNL     1     -13.196   9.678  71.451  1.00  0.00    -0.469 A  
ENDROOT
BRANCH   3   7
HETATM    7  C   UNL     1      -9.898   8.225  70.287  1.00  0.00    -0.186 C  
HETATM    8  C   UNL     1      -9.723   7.792  69.012  1.00  0.00    -0.157 C  
BRANCH   7   9
HETATM    9  C   UNL     1      -8.812   8.014  71.249  1.00  0.00    -0.139 A  
HETATM   10  C   UNL     1      -8.633   7.103  72.306  1.00  0.00    -0.128 A  
HETATM   11  C   UNL     1      -6.581   8.237  72.381  1.00  0.00    -0.085 A  
HETATM   12  C   UNL     1      -7.352   7.259  72.949  1.00  0.00    -0.078 A  
HETATM   13  S   UNL     1      -7.381   9.003  71.097  1.00  0.00    -0.064 SA 
HETATM   14  C   UNL     1      -9.562   6.032  72.797  1.00  0.00    -0.161 C  
ENDBRANCH   7   9
BRANCH   8  15
HETATM   15  C   UNL     1     -10.604   8.083  67.813  1.00  0.00    -0.239 C  
BRANCH  15  16
HETATM   16  C   UNL     1      -9.987   7.710  66.426  1.00  0.00    -0.072 C  
BRANCH  16  17
HETATM   17  N   UNL     1      -8.946   8.665  66.011  1.00  0.00    -0.172 NA 
HETATM   18  C   UNL     1      -8.130   8.258  64.879  1.00  0.00    -0.150 C  
HETATM   19  C   UNL     1      -8.624   8.849  63.568  1.00  0.00    -0.104 C  
HETATM   20  C   UNL     1      -8.453  10.355  63.602  1.00  0.00    -0.168 C  
HETATM   21  C   UNL     1      -9.125  10.992  64.821  1.00  0.00    -0.154 C  
HETATM   22  C   UNL     1     -10.420  11.736  64.534  1.00  0.00    -0.304 C  
HETATM   23  C   UNL     1      -9.286  10.094  66.076  1.00  0.00    -0.169 C  
HETATM   24  O   UNL     1     -11.173  11.271  63.518  1.00  0.00    -0.344 OA 
HETATM   25  O   UNL     1     -10.789  12.693  65.205  1.00  0.00    -0.277 OA 
ENDBRANCH  16  17
ENDBRANCH  15  16
ENDBRANCH   8  15
ENDBRANCH   3   7
TORSDOF 5
ENDMDL
MODEL      214
REMARK 921   NORMALIZED FREE ENERGY PREDICTED BY IDOCK:   -3.69 KCAL/MOL
REMARK 922        TOTAL FREE ENERGY PREDICTED BY IDOCK:   -6.28 KCAL/MOL
REMARK 923 INTER-LIGAND FREE ENERGY PREDICTED BY IDOCK:   -5.46 KCAL/MOL
REMARK 924 INTRA-LIGAND FREE ENERGY PREDICTED BY IDOCK:   -0.81 KCAL/MOL
REMARK 927      BINDING AFFINITY PREDICTED BY RF-SCORE:    0.00 PKD
ROOT
HETATM    1  C   UNL     1      -9.384   5.995  69.798  1.00  0.00    -0.166 C  
HETATM    2  C   UNL     1      -9.025   6.622  71.107  1.00  0.00    -0.145 A  
HETATM    3  C   UNL     1      -9.506   7.823  71.654  1.00  0.00    -0.144 A  
HETATM    4  C   UNL     1      -7.783   6.727  73.092  1.00  0.00    -0.093 A  
HETATM    5  S   UNL     1      -8.732   8.138  73.175  1.00  0.00    -0.226 SA 
HETATM    6  C   UNL     1      -8.036   6.007  71.954  1.00  0.00    -0.107 A  
ENDROOT
BRANCH   3   7
HETATM    7  C   UNL     1     -10.437   8.825  71.155  1.00  0.00    -0.315 C  
HETATM    8  C   UNL     1      -9.987   9.780  70.302  1.00  0.00    -0.309 C  
BRANCH   7   9
HETATM    9  C   UNL     1     -11.869   8.792  71.469  1.00  0.00    -0.311 A  
HETATM   10  C   UNL     1     -12.755   7.746  71.784  1.00  0.00    -0.354 A  
HETATM   11  C   UNL     1     -14.193   9.587  71.991  1.00  0.00    -0.009 A  
HETATM   12  C   UNL     1     -14.085   8.225  72.066  1.00  0.00    -0.470 A  
HETATM   13  S   UNL     1     -12.723  10.312  71.555  1.00  0.00    -0.483 SA 
HETATM   14  C   UNL     1     -12.484   6.273  71.876  1.00  0.00    -0.114 C  
ENDBRANCH   7   9
BRANCH   8  15
HETATM   15  C   UNL     1      -8.609   9.878  69.675  1.00  0.00    -0.207 C  
BRANCH  15  16
HETATM   16  C   UNL     1      -8.361  11.153  68.806  1.00  0.00    -0.136 C  
BRANCH  16  17
HETATM   17  N   UNL     1      -9.165  11.145  67.572  1.00  0.00    -0.152 NA 
HETATM   18  C   UNL     1      -8.472  11.560  66.364  1.00  0.00    -0.138 C  
HETATM   19  C   UNL     1      -7.959  10.378  65.556  1.00  0.00    -0.153 C  
HETATM   20  C   UNL     1      -9.138   9.582  65.030  1.00  0.00    -0.281 C  
HETATM   21  C   UNL     1     -10.099   9.157  66.144  1.00  0.00    -0.278 C  
HETATM   22  C   UNL     1     -10.034   7.688  66.532  1.00  0.00    -0.155 C  
HETATM   23  C   UNL     1     -10.132  10.049  67.413  1.00  0.00    -0.208 C  
HETATM   24  O   UNL     1      -8.837   7.082  66.410  1.00  0.00    -0.135 OA 
HETATM   25  O   UNL     1     -11.007   7.081  66.966  1.00  0.00    -0.375 OA 
ENDBRANCH  16  17
ENDBRANCH  15  16
ENDBRANCH   8  15
ENDBRANCH   3   7
TORSDOF 5
ENDMDL
MODEL      215
REMARK 921   NORMALIZED FREE ENERGY PREDICTED BY IDOCK:   -3.68 KCAL/MOL
REMARK 922        TOTAL FREE ENERGY PREDICTED BY IDOCK:   -6.26 KCAL/MOL
REMARK 923 INTER-LIGAND FREE ENERGY PREDICTED BY IDOCK:   -5.42 KCAL/MOL
REMARK 924 INTRA-LIGAND FREE ENERGY PREDICTED BY IDOCK:   -0.84 KCAL/MOL
REMARK 927      BINDING AFFINITY PREDICTED BY RF-SCORE:    0.00 PKD
ROOT
HETATM    1  C   UNL     1      -9.671   9.450  70.122  1.00  0.00    -0.274 C  
HETATM    2  C   UNL     1      -8.379   9.436  69.369  1.00  0.00    -0.125 A  
HETATM    3  C   UNL     1      -8.164   9.097  68.022  1.00  0.00    -0.112 A  
HETATM    4  C   UNL     1      -6.048   9.647  69.232  1.00  0.00    -0.037 A  
HETATM    5  S   UNL     1      -6.471   9.186  67.648  1.00  0.00    -0.064 SA 
HETATM    6  C   UNL     1      -7.147   9.752  70.044  1.00  0.00    -0.118 A  
ENDROOT
BRANCH   3   7
HETATM    7  C   UNL     1      -9.060   8.640  66.970  1.00  0.00    -0.165 C  
HETATM    8  C   UNL     1      -9.598   9.551  66.119  1.00  0.00    -0.302 C  
BRANCH   7   9
HETATM    9  C   UNL     1      -9.338   7.220  66.737  1.00  0.00    -0.163 A  
HETATM   10  C   UNL     1     -10.265   6.322  67.296  1.00  0.00    -0.237 A  
HETATM   11  C   UNL     1      -9.246   4.933  65.704  1.00  0.00    -0.156 A  
HETATM   12  C   UNL     1     -10.184   5.013  66.697  1.00  0.00    -0.299 A  
HETATM   13  S   UNL     1      -8.428   6.403  65.490  1.00  0.00    -0.109 SA 
HETATM   14  C   UNL     1     -11.286   6.564  68.368  1.00  0.00    -0.274 C  
ENDBRANCH   7   9
BRANCH   8  15
HETATM   15  C   UNL     1      -9.283  11.032  66.036  1.00  0.00    -0.213 C  
BRANCH  15  16
HETATM   16  C   UNL     1      -9.511  11.836  67.357  1.00  0.00    -0.173 C  
BRANCH  16  17
HETATM   17  N   UNL     1     -10.813  12.525  67.366  1.00  0.00    -0.234 NA 
HETATM   18  C   UNL     1     -11.614  12.348  68.566  1.00  0.00    -0.313 C  
HETATM   19  C   UNL     1     -11.452  13.500  69.545  1.00  0.00    -0.318 C  
HETATM   20  C   UNL     1     -12.019  14.765  68.926  1.00  0.00    -0.298 C  
HETATM   21  C   UNL     1     -11.407  15.070  67.557  1.00  0.00    -0.340 C  
HETATM   22  C   UNL     1     -10.403  16.212  67.534  1.00  0.00    -0.286 C  
HETATM   23  C   UNL     1     -10.865  13.860  66.751  1.00  0.00    -0.286 C  
HETATM   24  O   UNL     1      -9.676  16.401  68.652  1.00  0.00    -0.222 OA 
HETATM   25  O   UNL     1     -10.231  16.914  66.544  1.00  0.00    -0.299 OA 
ENDBRANCH  16  17
ENDBRANCH  15  16
ENDBRANCH   8  15
ENDBRANCH   3   7
TORSDOF 5
ENDMDL
MODEL      216
REMARK 921   NORMALIZED FREE ENERGY PREDICTED BY IDOCK:   -3.67 KCAL/MOL
REMARK 922        TOTAL FREE ENERGY PREDICTED BY IDOCK:   -6.24 KCAL/MOL
REMARK 923 INTER-LIGAND FREE ENERGY PREDICTED BY IDOCK:   -5.07 KCAL/MOL
REMARK 924 INTRA-LIGAND FREE ENERGY PREDICTED BY IDOCK:   -1.16 KCAL/MOL
REMARK 927      BINDING AFFINITY PREDICTED BY RF-SCORE:    0.00 PKD
ROOT
HETATM    1  C   UNL     1      -5.834  10.557  69.223  1.00  0.00    -0.037 C  
HETATM    2  C   UNL     1      -6.505   9.971  68.022  1.00  0.00    -0.058 A  
HETATM    3  C   UNL     1      -7.865   9.659  67.854  1.00  0.00    -0.087 A  
HETATM    4  C   UNL     1      -6.477   9.039  65.871  1.00  0.00    -0.061 A  
HETATM    5  S   UNL     1      -8.124   8.944  66.294  1.00  0.00    -0.112 SA 
HETATM    6  C   UNL     1      -5.726   9.607  66.866  1.00  0.00    -0.051 A  
ENDROOT
BRANCH   3   7
HETATM    7  C   UNL     1      -9.013   9.763  68.744  1.00  0.00    -0.133 C  
HETATM    8  C   UNL     1      -9.712  10.925  68.788  1.00  0.00    -0.196 C  
BRANCH   7   9
HETATM    9  C   UNL     1      -9.499   8.627  69.532  1.00  0.00    -0.162 A  
HETATM   10  C   UNL     1     -10.298   7.514  69.215  1.00  0.00    -0.209 A  
HETATM   11  C   UNL     1      -9.800   7.043  71.459  1.00  0.00    -0.172 A  
HETATM   12  C   UNL     1     -10.468   6.627  70.339  1.00  0.00    -0.249 A  
HETATM   13  S   UNL     1      -8.987   8.509  71.198  1.00  0.00    -0.206 SA 
HETATM   14  C   UNL     1     -10.938   7.153  67.907  1.00  0.00    -0.154 C  
ENDBRANCH   7   9
BRANCH   8  15
HETATM   15  C   UNL     1      -9.524  12.147  67.909  1.00  0.00    -0.195 C  
BRANCH  15  16
HETATM   16  C   UNL     1     -10.482  12.235  66.678  1.00  0.00    -0.222 C  
BRANCH  16  17
HETATM   17  N   UNL     1     -10.038  13.246  65.703  1.00  0.00    -0.287 NA 
HETATM   18  C   UNL     1     -10.983  13.561  64.644  1.00  0.00    -0.385 C  
HETATM   19  C   UNL     1     -11.801  14.806  64.952  1.00  0.00    -0.377 C  
HETATM   20  C   UNL     1     -10.884  16.014  64.978  1.00  0.00    -0.421 C  
HETATM   21  C   UNL     1      -9.708  15.834  65.942  1.00  0.00    -0.389 C  
HETATM   22  C   UNL     1      -9.808  16.617  67.242  1.00  0.00    -0.255 C  
HETATM   23  C   UNL     1      -9.256  14.376  66.224  1.00  0.00    -0.170 C  
HETATM   24  O   UNL     1     -11.047  16.831  67.726  1.00  0.00    -0.269 OA 
HETATM   25  O   UNL     1      -8.817  17.013  67.846  1.00  0.00    -0.217 OA 
ENDBRANCH  16  17
ENDBRANCH  15  16
ENDBRANCH   8  15
ENDBRANCH   3   7
TORSDOF 5
ENDMDL
MODEL      217
REMARK 921   NORMALIZED FREE ENERGY PREDICTED BY IDOCK:   -3.66 KCAL/MOL
REMARK 922        TOTAL FREE ENERGY PREDICTED BY IDOCK:   -6.22 KCAL/MOL
REMARK 923 INTER-LIGAND FREE ENERGY PREDICTED BY IDOCK:   -4.44 KCAL/MOL
REMARK 924 INTRA-LIGAND FREE ENERGY PREDICTED BY IDOCK:   -1.79 KCAL/MOL
REMARK 927      BINDING AFFINITY PREDICTED BY RF-SCORE:    0.00 PKD
ROOT
HETATM    1  C   UNL     1      -7.891  11.032  69.019  1.00  0.00    -0.126 C  
HETATM    2  C   UNL     1      -7.831   9.720  69.734  1.00  0.00    -0.159 A  
HETATM    3  C   UNL     1      -8.864   8.786  69.921  1.00  0.00    -0.143 A  
HETATM    4  C   UNL     1      -6.733   8.107  71.033  1.00  0.00    -0.042 A  
HETATM    5  S   UNL     1      -8.295   7.450  70.870  1.00  0.00    -0.115 SA 
HETATM    6  C   UNL     1      -6.613   9.306  70.380  1.00  0.00    -0.068 A  
ENDROOT
BRANCH   3   7
HETATM    7  C   UNL     1     -10.268   8.786  69.535  1.00  0.00    -0.208 C  
HETATM    8  C   UNL     1     -10.613   8.365  68.292  1.00  0.00    -0.163 C  
BRANCH   7   9
HETATM    9  C   UNL     1     -11.339   9.142  70.472  1.00  0.00    -0.257 A  
HETATM   10  C   UNL     1     -12.088   8.394  71.398  1.00  0.00    -0.337 A  
HETATM   11  C   UNL     1     -12.950  10.538  71.799  1.00  0.00    -0.476 A  
HETATM   12  C   UNL     1     -13.015   9.214  72.137  1.00  0.00    -0.498 A  
HETATM   13  S   UNL     1     -11.809  10.821  70.577  1.00  0.00    -0.372 SA 
HETATM   14  C   UNL     1     -12.019   6.926  71.703  1.00  0.00    -0.379 C  
ENDBRANCH   7   9
BRANCH   8  15
HETATM   15  C   UNL     1      -9.704   7.753  67.243  1.00  0.00    -0.224 C  
BRANCH  15  16
HETATM   16  C   UNL     1      -9.083   8.764  66.227  1.00  0.00    -0.193 C  
BRANCH  16  17
HETATM   17  N   UNL     1      -7.840   8.251  65.627  1.00  0.00    -0.098 NA 
HETATM   18  C   UNL     1      -6.610   8.611  66.313  1.00  0.00    -0.062 C  
HETATM   19  C   UNL     1      -6.130   7.516  67.253  1.00  0.00    -0.047 C  
HETATM   20  C   UNL     1      -5.736   6.297  66.441  1.00  0.00    -0.017 C  
HETATM   21  C   UNL     1      -6.861   5.823  65.516  1.00  0.00    -0.059 C  
HETATM   22  C   UNL     1      -7.583   4.562  65.964  1.00  0.00    -0.086 C  
HETATM   23  C   UNL     1      -7.884   6.896  65.058  1.00  0.00    -0.121 C  
HETATM   24  O   UNL     1      -7.674   4.357  67.293  1.00  0.00    -0.087 OA 
HETATM   25  O   UNL     1      -8.089   3.779  65.169  1.00  0.00    -0.095 OA 
ENDBRANCH  16  17
ENDBRANCH  15  16
ENDBRANCH   8  15
ENDBRANCH   3   7
TORSDOF 5
ENDMDL
MODEL      218
REMARK 921   NORMALIZED FREE ENERGY PREDICTED BY IDOCK:   -3.65 KCAL/MOL
REMARK 922        TOTAL FREE ENERGY PREDICTED BY IDOCK:   -6.21 KCAL/MOL
REMARK 923 INTER-LIGAND FREE ENERGY PREDICTED BY IDOCK:   -4.60 KCAL/MOL
REMARK 924 INTRA-LIGAND FREE ENERGY PREDICTED BY IDOCK:   -1.61 KCAL/MOL
REMARK 927      BINDING AFFINITY PREDICTED BY RF-SCORE:    0.00 PKD
ROOT
HETATM    1  C   UNL     1      -7.165  10.926  68.638  1.00  0.00    -0.088 C  
HETATM    2  C   UNL     1      -7.702  10.032  69.711  1.00  0.00    -0.173 A  
HETATM    3  C   UNL     1      -9.039   9.678  69.956  1.00  0.00    -0.237 A  
HETATM    4  C   UNL     1      -7.458   8.706  71.628  1.00  0.00    -0.092 A  
HETATM    5  S   UNL     1      -9.139   8.659  71.357  1.00  0.00    -0.250 SA 
HETATM    6  C   UNL     1      -6.809   9.458  70.684  1.00  0.00    -0.104 A  
ENDROOT
BRANCH   3   7
HETATM    7  C   UNL     1     -10.289  10.058  69.312  1.00  0.00    -0.237 C  
HETATM    8  C   UNL     1     -10.799   9.263  68.338  1.00  0.00    -0.125 C  
BRANCH   7   9
HETATM    9  C   UNL     1     -11.067  11.225  69.737  1.00  0.00    -0.167 A  
HETATM   10  C   UNL     1     -12.078  11.402  70.699  1.00  0.00    -0.469 A  
HETATM   11  C   UNL     1     -11.835  13.608  69.938  1.00  0.00    -0.320 A  
HETATM   12  C   UNL     1     -12.512  12.774  70.786  1.00  0.00    -0.357 A  
HETATM   13  S   UNL     1     -10.696  12.767  69.006  1.00  0.00    -0.021 SA 
HETATM   14  C   UNL     1     -12.705  10.387  71.609  1.00  0.00    -0.560 C  
ENDBRANCH   7   9
BRANCH   8  15
HETATM   15  C   UNL     1     -10.283   7.908  67.891  1.00  0.00    -0.263 C  
BRANCH  15  16
HETATM   16  C   UNL     1      -9.580   7.890  66.496  1.00  0.00    -0.212 C  
BRANCH  16  17
HETATM   17  N   UNL     1      -8.747   6.689  66.314  1.00  0.00    -0.141 NA 
HETATM   18  C   UNL     1      -7.311   6.912  66.296  1.00  0.00    -0.076 C  
HETATM   19  C   UNL     1      -6.668   6.658  67.650  1.00  0.00    -0.070 C  
HETATM   20  C   UNL     1      -6.791   5.185  67.993  1.00  0.00    -0.060 C  
HETATM   21  C   UNL     1      -8.238   4.689  67.929  1.00  0.00    -0.099 C  
HETATM   22  C   UNL     1      -8.905   4.455  69.275  1.00  0.00    -0.091 C  
HETATM   23  C   UNL     1      -9.196   5.458  66.980  1.00  0.00    -0.113 C  
HETATM   24  O   UNL     1      -8.511   5.245  70.292  1.00  0.00    -0.106 OA 
HETATM   25  O   UNL     1      -9.782   3.613  69.435  1.00  0.00    -0.168 OA 
ENDBRANCH  16  17
ENDBRANCH  15  16
ENDBRANCH   8  15
ENDBRANCH   3   7
TORSDOF 5
ENDMDL
MODEL      219
REMARK 921   NORMALIZED FREE ENERGY PREDICTED BY IDOCK:   -3.63 KCAL/MOL
REMARK 922        TOTAL FREE ENERGY PREDICTED BY IDOCK:   -6.19 KCAL/MOL
REMARK 923 INTER-LIGAND FREE ENERGY PREDICTED BY IDOCK:   -5.38 KCAL/MOL
REMARK 924 INTRA-LIGAND FREE ENERGY PREDICTED BY IDOCK:   -0.81 KCAL/MOL
REMARK 927      BINDING AFFINITY PREDICTED BY RF-SCORE:    0.00 PKD
ROOT
HETATM    1  C   UNL     1      -6.126   4.877  67.145  1.00  0.00    -0.031 C  
HETATM    2  C   UNL     1      -7.342   4.412  66.408  1.00  0.00    -0.081 A  
HETATM    3  C   UNL     1      -8.510   5.137  66.120  1.00  0.00    -0.115 A  
HETATM    4  C   UNL     1      -8.620   2.769  65.333  1.00  0.00    -0.109 A  
HETATM    5  S   UNL     1      -9.650   4.124  65.292  1.00  0.00    -0.197 SA 
HETATM    6  C   UNL     1      -7.427   3.052  65.943  1.00  0.00    -0.073 A  
ENDROOT
BRANCH   3   7
HETATM    7  C   UNL     1      -8.929   6.493  66.444  1.00  0.00    -0.158 C  
HETATM    8  C   UNL     1      -9.543   6.731  67.631  1.00  0.00    -0.139 C  
BRANCH   7   9
HETATM    9  C   UNL     1      -8.634   7.634  65.572  1.00  0.00    -0.092 A  
HETATM   10  C   UNL     1      -9.039   8.981  65.589  1.00  0.00    -0.278 A  
HETATM   11  C   UNL     1      -7.583   9.006  63.749  1.00  0.00    -0.115 A  
HETATM   12  C   UNL     1      -8.434   9.745  64.525  1.00  0.00    -0.182 A  
HETATM   13  S   UNL     1      -7.515   7.389  64.254  1.00  0.00    -0.105 SA 
HETATM   14  C   UNL     1      -9.958   9.679  66.546  1.00  0.00    -0.313 C  
ENDBRANCH   7   9
BRANCH   8  15
HETATM   15  C   UNL     1      -9.754   5.751  68.770  1.00  0.00    -0.168 C  
BRANCH  15  16
HETATM   16  C   UNL     1     -11.133   5.860  69.495  1.00  0.00    -0.332 C  
BRANCH  16  17
HETATM   17  N   UNL     1     -10.983   5.938  70.958  1.00  0.00    -0.280 NA 
HETATM   18  C   UNL     1      -9.635   6.185  71.443  1.00  0.00    -0.159 C  
HETATM   19  C   UNL     1      -9.389   7.655  71.745  1.00  0.00    -0.176 C  
HETATM   20  C   UNL     1     -10.266   8.080  72.909  1.00  0.00    -0.384 C  
HETATM   21  C   UNL     1     -11.746   7.771  72.668  1.00  0.00    -0.364 C  
HETATM   22  C   UNL     1     -12.615   8.974  72.338  1.00  0.00    -0.333 C  
HETATM   23  C   UNL     1     -12.064   6.596  71.706  1.00  0.00    -0.353 C  
HETATM   24  O   UNL     1     -12.023   9.985  71.672  1.00  0.00    -0.376 OA 
HETATM   25  O   UNL     1     -13.805   9.023  72.630  1.00  0.00    -0.467 OA 
ENDBRANCH  16  17
ENDBRANCH  15  16
ENDBRANCH   8  15
ENDBRANCH   3   7
TORSDOF 5
ENDMDL
MODEL      220
REMARK 921   NORMALIZED FREE ENERGY PREDICTED BY IDOCK:   -3.61 KCAL/MOL
REMARK 922        TOTAL FREE ENERGY PREDICTED BY IDOCK:   -6.17 KCAL/MOL
REMARK 923 INTER-LIGAND FREE ENERGY PREDICTED BY IDOCK:   -4.42 KCAL/MOL
REMARK 924 INTRA-LIGAND FREE ENERGY PREDICTED BY IDOCK:   -1.75 KCAL/MOL
REMARK 927      BINDING AFFINITY PREDICTED BY RF-SCORE:    0.00 PKD
ROOT
HETATM    1  C   UNL     1      -8.654  11.579  68.604  1.00  0.00    -0.109 C  
HETATM    2  C   UNL     1      -8.070  10.256  68.987  1.00  0.00    -0.132 A  
HETATM    3  C   UNL     1      -8.721   9.014  69.074  1.00  0.00    -0.138 A  
HETATM    4  C   UNL     1      -6.316   8.897  69.742  1.00  0.00    -0.035 A  
HETATM    5  S   UNL     1      -7.610   7.796  69.618  1.00  0.00    -0.094 SA 
HETATM    6  C   UNL     1      -6.686  10.163  69.373  1.00  0.00    -0.065 A  
ENDROOT
BRANCH   3   7
HETATM    7  C   UNL     1     -10.106   8.615  68.867  1.00  0.00    -0.213 C  
HETATM    8  C   UNL     1     -10.554   8.412  67.602  1.00  0.00    -0.265 C  
BRANCH   7   9
HETATM    9  C   UNL     1     -11.017   8.337  69.981  1.00  0.00    -0.197 A  
HETATM   10  C   UNL     1     -11.456   7.143  70.583  1.00  0.00    -0.346 A  
HETATM   11  C   UNL     1     -12.530   8.720  71.949  1.00  0.00    -0.372 A  
HETATM   12  C   UNL     1     -12.334   7.388  71.701  1.00  0.00    -0.373 A  
HETATM   13  S   UNL     1     -11.698   9.696  70.840  1.00  0.00    -0.357 SA 
HETATM   14  C   UNL     1     -11.117   5.726  70.229  1.00  0.00    -0.300 C  
ENDBRANCH   7   9
BRANCH   8  15
HETATM   15  C   UNL     1      -9.738   8.429  66.324  1.00  0.00    -0.278 C  
BRANCH  15  16
HETATM   16  C   UNL     1      -9.744   9.784  65.547  1.00  0.00    -0.312 C  
BRANCH  16  17
HETATM   17  N   UNL     1      -8.573   9.921  64.664  1.00  0.00    -0.167 NA 
HETATM   18  C   UNL     1      -7.366  10.436  65.290  1.00  0.00    -0.108 C  
HETATM   19  C   UNL     1      -6.414   9.327  65.710  1.00  0.00    -0.068 C  
HETATM   20  C   UNL     1      -5.895   8.619  64.473  1.00  0.00    -0.064 C  
HETATM   21  C   UNL     1      -7.025   8.111  63.573  1.00  0.00    -0.084 C  
HETATM   22  C   UNL     1      -7.263   6.609  63.614  1.00  0.00    -0.065 C  
HETATM   23  C   UNL     1      -8.374   8.872  63.653  1.00  0.00    -0.162 C  
HETATM   24  O   UNL     1      -7.000   5.986  64.779  1.00  0.00    -0.052 OA 
HETATM   25  O   UNL     1      -7.700   5.988  62.652  1.00  0.00    -0.069 OA 
ENDBRANCH  16  17
ENDBRANCH  15  16
ENDBRANCH   8  15
ENDBRANCH   3   7
TORSDOF 5
ENDMDL
MODEL      221
REMARK 921   NORMALIZED FREE ENERGY PREDICTED BY IDOCK:   -3.61 KCAL/MOL
REMARK 922        TOTAL FREE ENERGY PREDICTED BY IDOCK:   -6.16 KCAL/MOL
REMARK 923 INTER-LIGAND FREE ENERGY PREDICTED BY IDOCK:   -5.13 KCAL/MOL
REMARK 924 INTRA-LIGAND FREE ENERGY PREDICTED BY IDOCK:   -1.03 KCAL/MOL
REMARK 927      BINDING AFFINITY PREDICTED BY RF-SCORE:    0.00 PKD
ROOT
HETATM    1  C   UNL     1     -11.777   6.450  69.974  1.00  0.00    -0.345 C  
HETATM    2  C   UNL     1     -10.986   7.013  71.111  1.00  0.00    -0.275 A  
HETATM    3  C   UNL     1     -10.146   8.140  71.109  1.00  0.00    -0.184 A  
HETATM    4  C   UNL     1     -10.180   6.961  73.311  1.00  0.00    -0.258 A  
HETATM    5  S   UNL     1      -9.412   8.338  72.669  1.00  0.00    -0.272 SA 
HETATM    6  C   UNL     1     -10.991   6.352  72.390  1.00  0.00    -0.284 A  
ENDROOT
BRANCH   3   7
HETATM    7  C   UNL     1      -9.757   9.072  70.060  1.00  0.00    -0.203 C  
HETATM    8  C   UNL     1      -8.714   8.758  69.251  1.00  0.00    -0.135 C  
BRANCH   7   9
HETATM    9  C   UNL     1     -10.506  10.302  69.787  1.00  0.00    -0.259 A  
HETATM   10  C   UNL     1     -11.682  10.848  70.332  1.00  0.00    -0.444 A  
HETATM   11  C   UNL     1     -11.093  12.547  68.827  1.00  0.00    -0.270 A  
HETATM   12  C   UNL     1     -12.006  12.129  69.756  1.00  0.00    -0.372 A  
HETATM   13  S   UNL     1      -9.855  11.410  68.604  1.00  0.00    -0.164 SA 
HETATM   14  C   UNL     1     -12.575  10.290  71.401  1.00  0.00    -0.539 C  
ENDBRANCH   7   9
BRANCH   8  15
HETATM   15  C   UNL     1      -7.940   7.454  69.211  1.00  0.00    -0.118 C  
BRANCH  15  16
HETATM   16  C   UNL     1      -8.534   6.355  68.273  1.00  0.00    -0.115 C  
BRANCH  16  17
HETATM   17  N   UNL     1      -7.483   5.633  67.534  1.00  0.00    -0.080 NA 
HETATM   18  C   UNL     1      -7.052   4.374  68.118  1.00  0.00    -0.060 C  
HETATM   19  C   UNL     1      -7.750   3.176  67.492  1.00  0.00    -0.076 C  
HETATM   20  C   UNL     1      -7.328   3.055  66.040  1.00  0.00    -0.071 C  
HETATM   21  C   UNL     1      -7.562   4.347  65.253  1.00  0.00    -0.085 C  
HETATM   22  C   UNL     1      -8.746   4.320  64.299  1.00  0.00    -0.136 C  
HETATM   23  C   UNL     1      -7.555   5.668  66.066  1.00  0.00    -0.087 C  
HETATM   24  O   UNL     1      -9.793   3.550  64.654  1.00  0.00    -0.167 OA 
HETATM   25  O   UNL     1      -8.773   4.985  63.269  1.00  0.00    -0.133 OA 
ENDBRANCH  16  17
ENDBRANCH  15  16
ENDBRANCH   8  15
ENDBRANCH   3   7
TORSDOF 5
ENDMDL
MODEL      222
REMARK 921   NORMALIZED FREE ENERGY PREDICTED BY IDOCK:   -3.61 KCAL/MOL
REMARK 922        TOTAL FREE ENERGY PREDICTED BY IDOCK:   -6.16 KCAL/MOL
REMARK 923 INTER-LIGAND FREE ENERGY PREDICTED BY IDOCK:   -5.22 KCAL/MOL
REMARK 924 INTRA-LIGAND FREE ENERGY PREDICTED BY IDOCK:   -0.94 KCAL/MOL
REMARK 927      BINDING AFFINITY PREDICTED BY RF-SCORE:    0.00 PKD
ROOT
HETATM    1  C   UNL     1     -14.296   7.483  71.857  1.00  0.00    -0.520 C  
HETATM    2  C   UNL     1     -13.097   8.321  71.543  1.00  0.00    -0.313 A  
HETATM    3  C   UNL     1     -11.785   7.893  71.279  1.00  0.00    -0.287 A  
HETATM    4  C   UNL     1     -12.011  10.381  71.280  1.00  0.00    -0.330 A  
HETATM    5  S   UNL     1     -10.750   9.263  71.030  1.00  0.00    -0.344 SA 
HETATM    6  C   UNL     1     -13.204   9.757  71.535  1.00  0.00    -0.493 A  
ENDROOT
BRANCH   3   7
HETATM    7  C   UNL     1     -11.170   6.574  71.253  1.00  0.00    -0.338 C  
HETATM    8  C   UNL     1     -11.025   5.935  70.064  1.00  0.00    -0.430 C  
BRANCH   7   9
HETATM    9  C   UNL     1     -10.618   5.941  72.455  1.00  0.00    -0.217 A  
HETATM   10  C   UNL     1      -9.823   6.424  73.510  1.00  0.00    -0.199 A  
HETATM   11  C   UNL     1     -10.172   4.217  74.225  1.00  0.00    -0.199 A  
HETATM   12  C   UNL     1      -9.569   5.412  74.506  1.00  0.00    -0.173 A  
HETATM   13  S   UNL     1     -11.023   4.270  72.759  1.00  0.00     0.014 SA 
HETATM   14  C   UNL     1      -9.260   7.799  73.717  1.00  0.00    -0.316 C  
ENDBRANCH   7   9
BRANCH   8  15
HETATM   15  C   UNL     1     -11.321   6.485  68.682  1.00  0.00    -0.203 C  
BRANCH  15  16
HETATM   16  C   UNL     1     -10.073   6.692  67.765  1.00  0.00    -0.148 C  
BRANCH  16  17
HETATM   17  N   UNL     1      -8.819   6.715  68.537  1.00  0.00    -0.123 NA 
HETATM   18  C   UNL     1      -7.829   5.717  68.166  1.00  0.00    -0.104 C  
HETATM   19  C   UNL     1      -6.780   6.270  67.214  1.00  0.00    -0.060 C  
HETATM   20  C   UNL     1      -5.962   7.328  67.931  1.00  0.00    -0.034 C  
HETATM   21  C   UNL     1      -6.835   8.427  68.541  1.00  0.00    -0.064 C  
HETATM   22  C   UNL     1      -6.819   9.756  67.802  1.00  0.00    -0.081 C  
HETATM   23  C   UNL     1      -8.290   8.035  68.912  1.00  0.00    -0.126 C  
HETATM   24  O   UNL     1      -6.639   9.704  66.467  1.00  0.00    -0.069 OA 
HETATM   25  O   UNL     1      -6.990  10.826  68.373  1.00  0.00    -0.066 OA 
ENDBRANCH  16  17
ENDBRANCH  15  16
ENDBRANCH   8  15
ENDBRANCH   3   7
TORSDOF 5
ENDMDL
MODEL      223
REMARK 921   NORMALIZED FREE ENERGY PREDICTED BY IDOCK:   -3.60 KCAL/MOL
REMARK 922        TOTAL FREE ENERGY PREDICTED BY IDOCK:   -6.16 KCAL/MOL
REMARK 923 INTER-LIGAND FREE ENERGY PREDICTED BY IDOCK:   -5.60 KCAL/MOL
REMARK 924 INTRA-LIGAND FREE ENERGY PREDICTED BY IDOCK:   -0.56 KCAL/MOL
REMARK 927      BINDING AFFINITY PREDICTED BY RF-SCORE:    0.00 PKD
ROOT
HETATM    1  C   UNL     1      -9.659  15.357  65.330  1.00  0.00    -0.161 C  
HETATM    2  C   UNL     1     -10.569  14.242  65.738  1.00  0.00    -0.315 A  
HETATM    3  C   UNL     1     -10.326  13.223  66.674  1.00  0.00    -0.274 A  
HETATM    4  C   UNL     1     -12.547  12.999  65.553  1.00  0.00    -0.362 A  
HETATM    5  S   UNL     1     -11.681  12.140  66.741  1.00  0.00    -0.233 SA 
HETATM    6  C   UNL     1     -11.855  14.094  65.107  1.00  0.00    -0.372 A  
ENDROOT
BRANCH   3   7
HETATM    7  C   UNL     1      -9.169  12.901  67.496  1.00  0.00    -0.192 C  
HETATM    8  C   UNL     1      -8.654  11.645  67.452  1.00  0.00    -0.149 C  
BRANCH   7   9
HETATM    9  C   UNL     1      -8.479  13.908  68.308  1.00  0.00    -0.169 A  
HETATM   10  C   UNL     1      -8.924  15.050  68.998  1.00  0.00    -0.205 A  
HETATM   11  C   UNL     1      -6.650  15.076  69.573  1.00  0.00    -0.155 A  
HETATM   12  C   UNL     1      -7.855  15.711  69.705  1.00  0.00    -0.089 A  
HETATM   13  S   UNL     1      -6.766  13.704  68.583  1.00  0.00    -0.109 SA 
HETATM   14  C   UNL     1     -10.311  15.613  69.096  1.00  0.00    -0.241 C  
ENDBRANCH   7   9
BRANCH   8  15
HETATM   15  C   UNL     1      -9.067  10.514  66.530  1.00  0.00    -0.175 C  
BRANCH  15  16
HETATM   16  C   UNL     1      -9.017   9.086  67.164  1.00  0.00    -0.130 C  
BRANCH  16  17
HETATM   17  N   UNL     1     -10.297   8.714  67.789  1.00  0.00    -0.235 NA 
HETATM   18  C   UNL     1     -10.856   7.438  67.373  1.00  0.00    -0.229 C  
HETATM   19  C   UNL     1     -10.520   6.316  68.342  1.00  0.00    -0.273 C  
HETATM   20  C   UNL     1     -11.201   6.582  69.671  1.00  0.00    -0.446 C  
HETATM   21  C   UNL     1     -10.861   7.965  70.235  1.00  0.00    -0.241 C  
HETATM   22  C   UNL     1      -9.886   7.968  71.403  1.00  0.00    -0.171 C  
HETATM   23  C   UNL     1     -10.473   9.060  69.206  1.00  0.00    -0.228 C  
HETATM   24  O   UNL     1      -8.962   6.988  71.423  1.00  0.00    -0.139 OA 
HETATM   25  O   UNL     1      -9.909   8.831  72.273  1.00  0.00    -0.307 OA 
ENDBRANCH  16  17
ENDBRANCH  15  16
ENDBRANCH   8  15
ENDBRANCH   3   7
TORSDOF 5
ENDMDL
MODEL      224
REMARK 921   NORMALIZED FREE ENERGY PREDICTED BY IDOCK:   -3.60 KCAL/MOL
REMARK 922        TOTAL FREE ENERGY PREDICTED BY IDOCK:   -6.15 KCAL/MOL
REMARK 923 INTER-LIGAND FREE ENERGY PREDICTED BY IDOCK:   -4.98 KCAL/MOL
REMARK 924 INTRA-LIGAND FREE ENERGY PREDICTED BY IDOCK:   -1.17 KCAL/MOL
REMARK 927      BINDING AFFINITY PREDICTED BY RF-SCORE:    0.00 PKD
ROOT
HETATM    1  C   UNL     1     -11.662   6.571  70.272  1.00  0.00    -0.430 C  
HETATM    2  C   UNL     1     -10.273   7.123  70.311  1.00  0.00    -0.207 A  
HETATM    3  C   UNL     1      -9.662   8.001  69.400  1.00  0.00    -0.170 A  
HETATM    4  C   UNL     1      -8.119   7.272  71.224  1.00  0.00    -0.102 A  
HETATM    5  S   UNL     1      -8.016   8.293  69.865  1.00  0.00    -0.110 SA 
HETATM    6  C   UNL     1      -9.366   6.719  71.354  1.00  0.00    -0.157 A  
ENDROOT
BRANCH   3   7
HETATM    7  C   UNL     1     -10.130   8.614  68.165  1.00  0.00    -0.236 C  
HETATM    8  C   UNL     1     -10.048   7.913  67.005  1.00  0.00    -0.347 C  
BRANCH   7   9
HETATM    9  C   UNL     1     -10.769   9.933  68.137  1.00  0.00    -0.233 A  
HETATM   10  C   UNL     1     -11.532  10.647  69.079  1.00  0.00    -0.342 A  
HETATM   11  C   UNL     1     -11.428  12.224  67.346  1.00  0.00    -0.352 A  
HETATM   12  C   UNL     1     -11.910  11.952  68.597  1.00  0.00    -0.365 A  
HETATM   13  S   UNL     1     -10.546  10.920  66.714  1.00  0.00    -0.247 SA 
HETATM   14  C   UNL     1     -11.954  10.236  70.459  1.00  0.00    -0.415 C  
ENDBRANCH   7   9
BRANCH   8  15
HETATM   15  C   UNL     1      -9.627   6.466  66.834  1.00  0.00    -0.179 C  
BRANCH  15  16
HETATM   16  C   UNL     1     -10.750   5.501  66.333  1.00  0.00    -0.194 C  
BRANCH  16  17
HETATM   17  N   UNL     1     -10.199   4.248  65.788  1.00  0.00    -0.218 NA 
HETATM   18  C   UNL     1      -9.610   4.340  64.462  1.00  0.00    -0.146 C  
HETATM   19  C   UNL     1      -8.099   4.510  64.511  1.00  0.00    -0.102 C  
HETATM   20  C   UNL     1      -7.474   3.254  65.088  1.00  0.00    -0.073 C  
HETATM   21  C   UNL     1      -8.065   2.879  66.450  1.00  0.00    -0.082 C  
HETATM   22  C   UNL     1      -7.172   3.166  67.647  1.00  0.00    -0.054 C  
HETATM   23  C   UNL     1      -9.515   3.354  66.733  1.00  0.00    -0.137 C  
HETATM   24  O   UNL     1      -6.340   4.221  67.543  1.00  0.00    -0.035 OA 
HETATM   25  O   UNL     1      -7.218   2.499  68.674  1.00  0.00    -0.047 OA 
ENDBRANCH  16  17
ENDBRANCH  15  16
ENDBRANCH   8  15
ENDBRANCH   3   7
TORSDOF 5
ENDMDL
MODEL      225
REMARK 921   NORMALIZED FREE ENERGY PREDICTED BY IDOCK:   -3.60 KCAL/MOL
REMARK 922        TOTAL FREE ENERGY PREDICTED BY IDOCK:   -6.15 KCAL/MOL
REMARK 923 INTER-LIGAND FREE ENERGY PREDICTED BY IDOCK:   -5.28 KCAL/MOL
REMARK 924 INTRA-LIGAND FREE ENERGY PREDICTED BY IDOCK:   -0.86 KCAL/MOL
REMARK 927      BINDING AFFINITY PREDICTED BY RF-SCORE:    0.00 PKD
ROOT
HETATM    1  C   UNL     1      -7.210  10.543  68.455  1.00  0.00    -0.080 C  
HETATM    2  C   UNL     1      -7.488  10.161  67.036  1.00  0.00    -0.092 A  
HETATM    3  C   UNL     1      -8.348   9.156  66.561  1.00  0.00    -0.118 A  
HETATM    4  C   UNL     1      -7.120  10.327  64.727  1.00  0.00    -0.092 A  
HETATM    5  S   UNL     1      -8.270   9.075  64.829  1.00  0.00    -0.169 SA 
HETATM    6  C   UNL     1      -6.794  10.823  65.962  1.00  0.00    -0.107 A  
ENDROOT
BRANCH   3   7
HETATM    7  C   UNL     1      -9.189   8.182  67.241  1.00  0.00    -0.165 C  
HETATM    8  C   UNL     1     -10.147   8.619  68.098  1.00  0.00    -0.236 C  
BRANCH   7   9
HETATM    9  C   UNL     1      -9.100   6.744  66.970  1.00  0.00    -0.131 A  
HETATM   10  C   UNL     1      -8.016   5.853  66.876  1.00  0.00    -0.102 A  
HETATM   11  C   UNL     1      -9.804   4.366  66.571  1.00  0.00    -0.229 A  
HETATM   12  C   UNL     1      -8.444   4.498  66.633  1.00  0.00    -0.105 A  
HETATM   13  S   UNL     1     -10.590   5.856  66.770  1.00  0.00    -0.278 SA 
HETATM   14  C   UNL     1      -6.548   6.133  67.016  1.00  0.00    -0.059 C  
ENDBRANCH   7   9
BRANCH   8  15
HETATM   15  C   UNL     1     -10.559  10.054  68.363  1.00  0.00    -0.253 C  
BRANCH  15  16
HETATM   16  C   UNL     1     -11.367  10.738  67.214  1.00  0.00    -0.093 C  
BRANCH  16  17
HETATM   17  N   UNL     1     -11.865  12.068  67.605  1.00  0.00    -0.564 NA 
HETATM   18  C   UNL     1     -11.070  12.774  68.597  1.00  0.00    -0.266 C  
HETATM   19  C   UNL     1     -10.105  13.767  67.965  1.00  0.00    -0.245 C  
HETATM   20  C   UNL     1     -10.896  14.874  67.294  1.00  0.00    -0.306 C  
HETATM   21  C   UNL     1     -11.921  14.335  66.292  1.00  0.00    -0.428 C  
HETATM   22  C   UNL     1     -11.553  14.512  64.828  1.00  0.00    -0.413 C  
HETATM   23  C   UNL     1     -12.452  12.899  66.544  1.00  0.00     0.198 C  
HETATM   24  O   UNL     1     -10.241  14.486  64.525  1.00  0.00    -0.221 OA 
HETATM   25  O   UNL     1     -12.400  14.643  63.951  1.00  0.00    -0.730 OA 
ENDBRANCH  16  17
ENDBRANCH  15  16
ENDBRANCH   8  15
ENDBRANCH   3   7
TORSDOF 5
ENDMDL
MODEL      226
REMARK 921   NORMALIZED FREE ENERGY PREDICTED BY IDOCK:   -3.59 KCAL/MOL
REMARK 922        TOTAL FREE ENERGY PREDICTED BY IDOCK:   -6.14 KCAL/MOL
REMARK 923 INTER-LIGAND FREE ENERGY PREDICTED BY IDOCK:   -4.82 KCAL/MOL
REMARK 924 INTRA-LIGAND FREE ENERGY PREDICTED BY IDOCK:   -1.32 KCAL/MOL
REMARK 927      BINDING AFFINITY PREDICTED BY RF-SCORE:    0.00 PKD
ROOT
HETATM    1  C   UNL     1      -7.110   9.079  68.834  1.00  0.00    -0.069 C  
HETATM    2  C   UNL     1      -7.488   9.569  67.473  1.00  0.00    -0.091 A  
HETATM    3  C   UNL     1      -8.777   9.736  66.938  1.00  0.00    -0.135 A  
HETATM    4  C   UNL     1      -6.971  10.272  65.298  1.00  0.00    -0.130 A  
HETATM    5  S   UNL     1      -8.674  10.277  65.293  1.00  0.00    -0.181 SA 
HETATM    6  C   UNL     1      -6.464   9.886  66.511  1.00  0.00    -0.071 A  
ENDROOT
BRANCH   3   7
HETATM    7  C   UNL     1     -10.104   9.478  67.478  1.00  0.00    -0.257 C  
HETATM    8  C   UNL     1     -10.659   8.251  67.311  1.00  0.00    -0.335 C  
BRANCH   7   9
HETATM    9  C   UNL     1     -10.832  10.470  68.276  1.00  0.00    -0.248 A  
HETATM   10  C   UNL     1     -11.482  11.673  67.946  1.00  0.00    -0.381 A  
HETATM   11  C   UNL     1     -11.956  11.559  70.240  1.00  0.00    -0.368 A  
HETATM   12  C   UNL     1     -12.107  12.286  69.091  1.00  0.00    -0.214 A  
HETATM   13  S   UNL     1     -11.044  10.153  69.980  1.00  0.00    -0.326 SA 
HETATM   14  C   UNL     1     -11.610  12.341  66.609  1.00  0.00    -0.438 C  
ENDBRANCH   7   9
BRANCH   8  15
HETATM   15  C   UNL     1     -10.006   7.019  66.716  1.00  0.00    -0.266 C  
BRANCH  15  16
HETATM   16  C   UNL     1      -9.340   6.053  67.748  1.00  0.00    -0.106 C  
BRANCH  16  17
HETATM   17  N   UNL     1      -8.459   5.069  67.095  1.00  0.00    -0.106 NA 
HETATM   18  C   UNL     1      -8.347   3.782  67.761  1.00  0.00    -0.093 C  
HETATM   19  C   UNL     1      -9.280   2.739  67.165  1.00  0.00    -0.176 C  
HETATM   20  C   UNL     1      -8.850   2.439  65.742  1.00  0.00    -0.128 C  
HETATM   21  C   UNL     1      -8.757   3.701  64.881  1.00  0.00    -0.114 C  
HETATM   22  C   UNL     1      -9.883   3.887  63.877  1.00  0.00    -0.176 C  
HETATM   23  C   UNL     1      -8.474   5.032  65.626  1.00  0.00    -0.127 C  
HETATM   24  O   UNL     1     -11.090   3.397  64.223  1.00  0.00    -0.181 OA 
HETATM   25  O   UNL     1      -9.724   4.478  62.815  1.00  0.00    -0.106 OA 
ENDBRANCH  16  17
ENDBRANCH  15  16
ENDBRANCH   8  15
ENDBRANCH   3   7
TORSDOF 5
ENDMDL
MODEL      227
REMARK 921   NORMALIZED FREE ENERGY PREDICTED BY IDOCK:   -3.57 KCAL/MOL
REMARK 922        TOTAL FREE ENERGY PREDICTED BY IDOCK:   -6.11 KCAL/MOL
REMARK 923 INTER-LIGAND FREE ENERGY PREDICTED BY IDOCK:   -5.52 KCAL/MOL
REMARK 924 INTRA-LIGAND FREE ENERGY PREDICTED BY IDOCK:   -0.59 KCAL/MOL
REMARK 927      BINDING AFFINITY PREDICTED BY RF-SCORE:    0.00 PKD
ROOT
HETATM    1  C   UNL     1      -6.682  11.021  68.233  1.00  0.00    -0.059 C  
HETATM    2  C   UNL     1      -7.440  10.081  67.350  1.00  0.00    -0.091 A  
HETATM    3  C   UNL     1      -8.437   9.161  67.718  1.00  0.00    -0.117 A  
HETATM    4  C   UNL     1      -7.884   9.070  65.283  1.00  0.00    -0.102 A  
HETATM    5  S   UNL     1      -8.961   8.265  66.328  1.00  0.00    -0.193 SA 
HETATM    6  C   UNL     1      -7.140  10.013  65.944  1.00  0.00    -0.114 A  
ENDROOT
BRANCH   3   7
HETATM    7  C   UNL     1      -9.018   8.805  69.004  1.00  0.00    -0.137 C  
HETATM    8  C   UNL     1      -9.763   9.723  69.670  1.00  0.00    -0.242 C  
BRANCH   7   9
HETATM    9  C   UNL     1      -8.902   7.458  69.571  1.00  0.00    -0.137 A  
HETATM   10  C   UNL     1      -9.746   6.333  69.544  1.00  0.00    -0.169 A  
HETATM   11  C   UNL     1      -7.916   5.454  70.721  1.00  0.00    -0.099 A  
HETATM   12  C   UNL     1      -9.165   5.200  70.221  1.00  0.00    -0.193 A  
HETATM   13  S   UNL     1      -7.430   7.051  70.418  1.00  0.00    -0.087 SA 
HETATM   14  C   UNL     1     -11.095   6.179  68.906  1.00  0.00    -0.417 C  
ENDBRANCH   7   9
BRANCH   8  15
HETATM   15  C   UNL     1     -10.193  11.092  69.177  1.00  0.00    -0.163 C  
BRANCH  15  16
HETATM   16  C   UNL     1     -10.732  11.133  67.711  1.00  0.00    -0.222 C  
BRANCH  16  17
HETATM   17  N   UNL     1     -11.146  12.490  67.313  1.00  0.00    -0.261 NA 
HETATM   18  C   UNL     1     -10.177  13.545  67.562  1.00  0.00    -0.234 C  
HETATM   19  C   UNL     1      -9.350  13.873  66.328  1.00  0.00    -0.180 C  
HETATM   20  C   UNL     1     -10.253  14.467  65.264  1.00  0.00    -0.431 C  
HETATM   21  C   UNL     1     -11.449  13.567  64.944  1.00  0.00    -0.350 C  
HETATM   22  C   UNL     1     -11.366  12.821  63.622  1.00  0.00    -0.453 C  
HETATM   23  C   UNL     1     -11.924  12.612  66.072  1.00  0.00    -0.417 C  
HETATM   24  O   UNL     1     -10.134  12.478  63.197  1.00  0.00    -0.290 OA 
HETATM   25  O   UNL     1     -12.363  12.513  62.978  1.00  0.00    -0.358 OA 
ENDBRANCH  16  17
ENDBRANCH  15  16
ENDBRANCH   8  15
ENDBRANCH   3   7
TORSDOF 5
ENDMDL
MODEL      228
REMARK 921   NORMALIZED FREE ENERGY PREDICTED BY IDOCK:   -3.55 KCAL/MOL
REMARK 922        TOTAL FREE ENERGY PREDICTED BY IDOCK:   -6.09 KCAL/MOL
REMARK 923 INTER-LIGAND FREE ENERGY PREDICTED BY IDOCK:   -4.88 KCAL/MOL
REMARK 924 INTRA-LIGAND FREE ENERGY PREDICTED BY IDOCK:   -1.21 KCAL/MOL
REMARK 927      BINDING AFFINITY PREDICTED BY RF-SCORE:    0.00 PKD
ROOT
HETATM    1  C   UNL     1     -13.842   6.902  71.471  1.00  0.00    -0.275 C  
HETATM    2  C   UNL     1     -12.784   7.945  71.298  1.00  0.00    -0.251 A  
HETATM    3  C   UNL     1     -11.410   7.757  71.070  1.00  0.00    -0.271 A  
HETATM    4  C   UNL     1     -12.037  10.166  71.279  1.00  0.00    -0.394 A  
HETATM    5  S   UNL     1     -10.603   9.291  71.001  1.00  0.00    -0.339 SA 
HETATM    6  C   UNL     1     -13.122   9.340  71.412  1.00  0.00    -0.387 A  
ENDROOT
BRANCH   3   7
HETATM    7  C   UNL     1     -10.588   6.560  70.960  1.00  0.00    -0.275 C  
HETATM    8  C   UNL     1     -10.472   5.946  69.755  1.00  0.00    -0.340 C  
BRANCH   7   9
HETATM    9  C   UNL     1      -9.807   6.039  72.086  1.00  0.00    -0.161 A  
HETATM   10  C   UNL     1     -10.088   5.095  73.090  1.00  0.00    -0.191 A  
HETATM   11  C   UNL     1      -7.862   5.614  73.617  1.00  0.00    -0.105 A  
HETATM   12  C   UNL     1      -8.962   4.879  73.965  1.00  0.00    -0.113 A  
HETATM   13  S   UNL     1      -8.161   6.594  72.266  1.00  0.00    -0.103 SA 
HETATM   14  C   UNL     1     -11.348   4.316  73.328  1.00  0.00    -0.301 C  
ENDBRANCH   7   9
BRANCH   8  15
HETATM   15  C   UNL     1     -11.009   6.428  68.421  1.00  0.00    -0.390 C  
BRANCH  15  16
HETATM   16  C   UNL     1     -10.786   5.452  67.221  1.00  0.00    -0.097 C  
BRANCH  16  17
HETATM   17  N   UNL     1      -9.474   4.785  67.289  1.00  0.00    -0.137 NA 
HETATM   18  C   UNL     1      -9.461   3.379  66.921  1.00  0.00    -0.145 C  
HETATM   19  C   UNL     1      -9.042   3.164  65.474  1.00  0.00    -0.151 C  
HETATM   20  C   UNL     1      -7.596   3.587  65.304  1.00  0.00    -0.078 C  
HETATM   21  C   UNL     1      -7.347   5.021  65.779  1.00  0.00    -0.077 C  
HETATM   22  C   UNL     1      -7.163   6.049  64.673  1.00  0.00    -0.063 C  
HETATM   23  C   UNL     1      -8.304   5.569  66.870  1.00  0.00    -0.108 C  
HETATM   24  O   UNL     1      -7.830   5.827  63.524  1.00  0.00    -0.093 OA 
HETATM   25  O   UNL     1      -6.469   7.049  64.817  1.00  0.00    -0.039 OA 
ENDBRANCH  16  17
ENDBRANCH  15  16
ENDBRANCH   8  15
ENDBRANCH   3   7
TORSDOF 5
ENDMDL
MODEL      229
REMARK 921   NORMALIZED FREE ENERGY PREDICTED BY IDOCK:   -3.55 KCAL/MOL
REMARK 922        TOTAL FREE ENERGY PREDICTED BY IDOCK:   -6.08 KCAL/MOL
REMARK 923 INTER-LIGAND FREE ENERGY PREDICTED BY IDOCK:   -5.46 KCAL/MOL
REMARK 924 INTRA-LIGAND FREE ENERGY PREDICTED BY IDOCK:   -0.62 KCAL/MOL
REMARK 927      BINDING AFFINITY PREDICTED BY RF-SCORE:    0.00 PKD
ROOT
HETATM    1  C   UNL     1     -10.106  15.184  69.440  1.00  0.00    -0.245 C  
HETATM    2  C   UNL     1     -10.853  14.546  68.312  1.00  0.00    -0.247 A  
HETATM    3  C   UNL     1     -11.250  13.204  68.185  1.00  0.00    -0.271 A  
HETATM    4  C   UNL     1     -11.841  14.583  66.187  1.00  0.00    -0.336 A  
HETATM    5  S   UNL     1     -12.039  12.959  66.659  1.00  0.00    -0.182 SA 
HETATM    6  C   UNL     1     -11.206  15.321  67.152  1.00  0.00    -0.291 A  
ENDROOT
BRANCH   3   7
HETATM    7  C   UNL     1     -11.059  12.038  69.036  1.00  0.00    -0.291 C  
HETATM    8  C   UNL     1     -10.014  11.207  68.794  1.00  0.00    -0.207 C  
BRANCH   7   9
HETATM    9  C   UNL     1     -11.904  11.774  70.205  1.00  0.00    -0.324 A  
HETATM   10  C   UNL     1     -12.181  10.607  70.940  1.00  0.00    -0.497 A  
HETATM   11  C   UNL     1     -13.406  12.181  72.176  1.00  0.00    -0.333 A  
HETATM   12  C   UNL     1     -13.056  10.863  72.057  1.00  0.00    -0.462 A  
HETATM   13  S   UNL     1     -12.725  13.126  70.943  1.00  0.00    -0.170 SA 
HETATM   14  C   UNL     1     -11.681   9.210  70.721  1.00  0.00    -0.308 C  
ENDBRANCH   7   9
BRANCH   8  15
HETATM   15  C   UNL     1      -8.897  11.401  67.786  1.00  0.00    -0.143 C  
BRANCH  15  16
HETATM   16  C   UNL     1      -9.134  10.734  66.393  1.00  0.00    -0.171 C  
BRANCH  16  17
HETATM   17  N   UNL     1      -7.918  10.747  65.561  1.00  0.00    -0.113 NA 
HETATM   18  C   UNL     1      -6.661  10.599  66.276  1.00  0.00    -0.129 C  
HETATM   19  C   UNL     1      -6.160   9.163  66.273  1.00  0.00    -0.060 C  
HETATM   20  C   UNL     1      -5.808   8.760  64.853  1.00  0.00    -0.059 C  
HETATM   21  C   UNL     1      -6.969   8.977  63.880  1.00  0.00    -0.088 C  
HETATM   22  C   UNL     1      -7.688   7.713  63.434  1.00  0.00    -0.130 C  
HETATM   23  C   UNL     1      -7.997  10.077  64.256  1.00  0.00    -0.152 C  
HETATM   24  O   UNL     1      -7.734   6.698  64.319  1.00  0.00    -0.098 OA 
HETATM   25  O   UNL     1      -8.229   7.618  62.339  1.00  0.00    -0.150 OA 
ENDBRANCH  16  17
ENDBRANCH  15  16
ENDBRANCH   8  15
ENDBRANCH   3   7
TORSDOF 5
ENDMDL
MODEL      230
REMARK 921   NORMALIZED FREE ENERGY PREDICTED BY IDOCK:   -3.55 KCAL/MOL
REMARK 922        TOTAL FREE ENERGY PREDICTED BY IDOCK:   -6.08 KCAL/MOL
REMARK 923 INTER-LIGAND FREE ENERGY PREDICTED BY IDOCK:   -5.00 KCAL/MOL
REMARK 924 INTRA-LIGAND FREE ENERGY PREDICTED BY IDOCK:   -1.08 KCAL/MOL
REMARK 927      BINDING AFFINITY PREDICTED BY RF-SCORE:    0.00 PKD
ROOT
HETATM    1  C   UNL     1      -8.553   6.488  73.446  1.00  0.00    -0.131 C  
HETATM    2  C   UNL     1      -9.178   5.997  72.178  1.00  0.00    -0.148 A  
HETATM    3  C   UNL     1      -9.698   6.758  71.117  1.00  0.00    -0.174 A  
HETATM    4  C   UNL     1      -9.980   4.299  70.777  1.00  0.00    -0.154 A  
HETATM    5  S   UNL     1     -10.363   5.710  69.904  1.00  0.00    -0.302 SA 
HETATM    6  C   UNL     1      -9.349   4.585  71.959  1.00  0.00    -0.184 A  
ENDROOT
BRANCH   3   7
HETATM    7  C   UNL     1      -9.829   8.193  70.910  1.00  0.00    -0.203 C  
HETATM    8  C   UNL     1      -8.770   8.890  70.424  1.00  0.00    -0.200 C  
BRANCH   7   9
HETATM    9  C   UNL     1     -11.092   8.904  71.123  1.00  0.00    -0.285 A  
HETATM   10  C   UNL     1     -11.706   9.984  70.463  1.00  0.00    -0.400 A  
HETATM   11  C   UNL     1     -13.353   9.479  72.056  1.00  0.00    -0.452 A  
HETATM   12  C   UNL     1     -12.995  10.304  71.024  1.00  0.00    -0.488 A  
HETATM   13  S   UNL     1     -12.149   8.332  72.391  1.00  0.00    -0.325 SA 
HETATM   14  C   UNL     1     -11.211  10.780  69.292  1.00  0.00    -0.333 C  
ENDBRANCH   7   9
BRANCH   8  15
HETATM   15  C   UNL     1      -7.449   8.332  69.931  1.00  0.00    -0.065 C  
BRANCH  15  16
HETATM   16  C   UNL     1      -7.009   8.816  68.512  1.00  0.00    -0.065 C  
BRANCH  16  17
HETATM   17  N   UNL     1      -8.155   8.963  67.599  1.00  0.00    -0.106 NA 
HETATM   18  C   UNL     1      -8.361  10.294  67.052  1.00  0.00    -0.126 C  
HETATM   19  C   UNL     1      -7.755  10.450  65.666  1.00  0.00    -0.150 C  
HETATM   20  C   UNL     1      -8.494   9.551  64.693  1.00  0.00    -0.177 C  
HETATM   21  C   UNL     1      -8.528   8.092  65.156  1.00  0.00    -0.134 C  
HETATM   22  C   UNL     1      -7.599   7.150  64.407  1.00  0.00    -0.112 C  
HETATM   23  C   UNL     1      -8.428   7.844  66.685  1.00  0.00    -0.131 C  
HETATM   24  O   UNL     1      -6.452   7.679  63.936  1.00  0.00    -0.052 OA 
HETATM   25  O   UNL     1      -7.852   5.961  64.257  1.00  0.00    -0.103 OA 
ENDBRANCH  16  17
ENDBRANCH  15  16
ENDBRANCH   8  15
ENDBRANCH   3   7
TORSDOF 5
ENDMDL
MODEL      231
REMARK 921   NORMALIZED FREE ENERGY PREDICTED BY IDOCK:   -3.54 KCAL/MOL
REMARK 922        TOTAL FREE ENERGY PREDICTED BY IDOCK:   -6.07 KCAL/MOL
REMARK 923 INTER-LIGAND FREE ENERGY PREDICTED BY IDOCK:   -4.79 KCAL/MOL
REMARK 924 INTRA-LIGAND FREE ENERGY PREDICTED BY IDOCK:   -1.29 KCAL/MOL
REMARK 927      BINDING AFFINITY PREDICTED BY RF-SCORE:    0.00 PKD
ROOT
HETATM    1  C   UNL     1      -6.434  10.254  65.496  1.00  0.00    -0.121 C  
HETATM    2  C   UNL     1      -7.893  10.573  65.410  1.00  0.00    -0.119 A  
HETATM    3  C   UNL     1      -8.667  11.338  66.299  1.00  0.00    -0.184 A  
HETATM    4  C   UNL     1     -10.011  10.372  64.428  1.00  0.00    -0.318 A  
HETATM    5  S   UNL     1     -10.322  11.359  65.780  1.00  0.00    -0.263 SA 
HETATM    6  C   UNL     1      -8.687  10.029  64.339  1.00  0.00    -0.217 A  
ENDROOT
BRANCH   3   7
HETATM    7  C   UNL     1      -8.346  12.015  67.547  1.00  0.00    -0.166 C  
HETATM    8  C   UNL     1      -8.505  11.352  68.720  1.00  0.00    -0.089 C  
BRANCH   7   9
HETATM    9  C   UNL     1      -7.771  13.363  67.582  1.00  0.00    -0.177 A  
HETATM   10  C   UNL     1      -8.278  14.629  67.234  1.00  0.00    -0.235 A  
HETATM   11  C   UNL     1      -6.160  15.235  68.041  1.00  0.00    -0.145 A  
HETATM   12  C   UNL     1      -7.330  15.685  67.494  1.00  0.00    -0.213 A  
HETATM   13  S   UNL     1      -6.158  13.549  68.226  1.00  0.00    -0.116 SA 
HETATM   14  C   UNL     1      -9.624  14.987  66.678  1.00  0.00    -0.281 C  
ENDBRANCH   7   9
BRANCH   8  15
HETATM   15  C   UNL     1      -8.874   9.893  68.909  1.00  0.00    -0.145 C  
BRANCH  15  16
HETATM   16  C   UNL     1     -10.275   9.638  69.554  1.00  0.00    -0.218 C  
BRANCH  16  17
HETATM   17  N   UNL     1     -10.236   8.552  70.548  1.00  0.00    -0.190 NA 
HETATM   18  C   UNL     1     -11.511   7.923  70.848  1.00  0.00    -0.281 C  
HETATM   19  C   UNL     1     -11.725   6.643  70.055  1.00  0.00    -0.378 C  
HETATM   20  C   UNL     1     -10.709   5.607  70.496  1.00  0.00    -0.344 C  
HETATM   21  C   UNL     1      -9.270   6.121  70.399  1.00  0.00    -0.162 C  
HETATM   22  C   UNL     1      -8.458   5.567  69.239  1.00  0.00    -0.101 C  
HETATM   23  C   UNL     1      -9.071   7.656  70.511  1.00  0.00    -0.151 C  
HETATM   24  O   UNL     1      -9.138   5.258  68.118  1.00  0.00    -0.108 OA 
HETATM   25  O   UNL     1      -7.241   5.431  69.297  1.00  0.00    -0.061 OA 
ENDBRANCH  16  17
ENDBRANCH  15  16
ENDBRANCH   8  15
ENDBRANCH   3   7
TORSDOF 5
ENDMDL
MODEL      232
REMARK 921   NORMALIZED FREE ENERGY PREDICTED BY IDOCK:   -3.50 KCAL/MOL
REMARK 922        TOTAL FREE ENERGY PREDICTED BY IDOCK:   -6.02 KCAL/MOL
REMARK 923 INTER-LIGAND FREE ENERGY PREDICTED BY IDOCK:   -4.22 KCAL/MOL
REMARK 924 INTRA-LIGAND FREE ENERGY PREDICTED BY IDOCK:   -1.81 KCAL/MOL
REMARK 927      BINDING AFFINITY PREDICTED BY RF-SCORE:    0.00 PKD
ROOT
HETATM    1  C   UNL     1     -10.780   9.099  69.210  1.00  0.00    -0.199 C  
HETATM    2  C   UNL     1     -10.527   7.781  68.550  1.00  0.00    -0.202 A  
HETATM    3  C   UNL     1      -9.839   6.670  69.068  1.00  0.00    -0.144 A  
HETATM    4  C   UNL     1     -10.620   6.318  66.721  1.00  0.00    -0.265 A  
HETATM    5  S   UNL     1      -9.773   5.405  67.883  1.00  0.00    -0.143 SA 
HETATM    6  C   UNL     1     -10.970   7.554  67.199  1.00  0.00    -0.164 A  
ENDROOT
BRANCH   3   7
HETATM    7  C   UNL     1      -9.152   6.443  70.331  1.00  0.00    -0.155 C  
HETATM    8  C   UNL     1      -7.866   6.857  70.469  1.00  0.00    -0.105 C  
BRANCH   7   9
HETATM    9  C   UNL     1      -9.824   5.861  71.497  1.00  0.00    -0.166 A  
HETATM   10  C   UNL     1     -10.670   6.401  72.482  1.00  0.00    -0.256 A  
HETATM   11  C   UNL     1     -10.661   4.146  73.130  1.00  0.00    -0.194 A  
HETATM   12  C   UNL     1     -11.126   5.400  73.416  1.00  0.00    -0.326 A  
HETATM   13  S   UNL     1      -9.652   4.144  71.766  1.00  0.00    -0.165 SA 
HETATM   14  C   UNL     1     -11.143   7.814  72.650  1.00  0.00    -0.433 C  
ENDBRANCH   7   9
BRANCH   8  15
HETATM   15  C   UNL     1      -7.051   7.669  69.481  1.00  0.00    -0.064 C  
BRANCH  15  16
HETATM   16  C   UNL     1      -7.187   9.219  69.620  1.00  0.00    -0.063 C  
BRANCH  16  17
HETATM   17  N   UNL     1      -6.705   9.926  68.420  1.00  0.00    -0.055 NA 
HETATM   18  C   UNL     1      -6.682   9.146  67.194  1.00  0.00    -0.065 C  
HETATM   19  C   UNL     1      -7.918   9.376  66.338  1.00  0.00    -0.108 C  
HETATM   20  C   UNL     1      -7.923  10.811  65.844  1.00  0.00    -0.140 C  
HETATM   21  C   UNL     1      -7.805  11.823  66.986  1.00  0.00    -0.161 C  
HETATM   22  C   UNL     1      -9.088  12.559  67.338  1.00  0.00    -0.185 C  
HETATM   23  C   UNL     1      -7.093  11.336  68.276  1.00  0.00    -0.074 C  
HETATM   24  O   UNL     1     -10.242  11.888  67.151  1.00  0.00    -0.206 OA 
HETATM   25  O   UNL     1      -9.087  13.695  67.797  1.00  0.00    -0.181 OA 
ENDBRANCH  16  17
ENDBRANCH  15  16
ENDBRANCH   8  15
ENDBRANCH   3   7
TORSDOF 5
ENDMDL
MODEL      233
REMARK 921   NORMALIZED FREE ENERGY PREDICTED BY IDOCK:   -3.47 KCAL/MOL
REMARK 922        TOTAL FREE ENERGY PREDICTED BY IDOCK:   -5.98 KCAL/MOL
REMARK 923 INTER-LIGAND FREE ENERGY PREDICTED BY IDOCK:   -4.57 KCAL/MOL
REMARK 924 INTRA-LIGAND FREE ENERGY PREDICTED BY IDOCK:   -1.41 KCAL/MOL
REMARK 927      BINDING AFFINITY PREDICTED BY RF-SCORE:    0.00 PKD
ROOT
HETATM    1  C   UNL     1      -7.207   8.751  69.247  1.00  0.00    -0.062 C  
HETATM    2  C   UNL     1      -8.243   9.374  68.366  1.00  0.00    -0.117 A  
HETATM    3  C   UNL     1      -9.598   9.023  68.239  1.00  0.00    -0.145 A  
HETATM    4  C   UNL     1      -8.926  10.871  66.698  1.00  0.00    -0.164 A  
HETATM    5  S   UNL     1     -10.360  10.018  67.038  1.00  0.00    -0.238 SA 
HETATM    6  C   UNL     1      -7.880  10.442  67.472  1.00  0.00    -0.106 A  
ENDROOT
BRANCH   3   7
HETATM    7  C   UNL     1     -10.404   7.980  68.856  1.00  0.00    -0.222 C  
HETATM    8  C   UNL     1     -10.645   6.835  68.168  1.00  0.00    -0.279 C  
BRANCH   7   9
HETATM    9  C   UNL     1     -10.896   8.080  70.234  1.00  0.00    -0.241 A  
HETATM   10  C   UNL     1     -11.467   9.133  70.971  1.00  0.00    -0.372 A  
HETATM   11  C   UNL     1     -11.581   7.405  72.554  1.00  0.00    -0.275 A  
HETATM   12  C   UNL     1     -11.840   8.726  72.303  1.00  0.00    -0.403 A  
HETATM   13  S   UNL     1     -10.865   6.640  71.220  1.00  0.00    -0.247 SA 
HETATM   14  C   UNL     1     -11.739  10.546  70.546  1.00  0.00    -0.443 C  
ENDBRANCH   7   9
BRANCH   8  15
HETATM   15  C   UNL     1     -10.061   6.427  66.829  1.00  0.00    -0.239 C  
BRANCH  15  16
HETATM   16  C   UNL     1      -9.792   4.897  66.657  1.00  0.00    -0.204 C  
BRANCH  16  17
HETATM   17  N   UNL     1      -8.593   4.635  65.843  1.00  0.00    -0.115 NA 
HETATM   18  C   UNL     1      -8.826   3.967  64.573  1.00  0.00    -0.128 C  
HETATM   19  C   UNL     1      -8.905   4.946  63.411  1.00  0.00    -0.076 C  
HETATM   20  C   UNL     1      -7.553   5.606  63.220  1.00  0.00    -0.078 C  
HETATM   21  C   UNL     1      -7.037   6.262  64.504  1.00  0.00    -0.057 C  
HETATM   22  C   UNL     1      -7.116   7.780  64.535  1.00  0.00    -0.065 C  
HETATM   23  C   UNL     1      -7.548   5.668  65.843  1.00  0.00    -0.086 C  
HETATM   24  O   UNL     1      -8.129   8.348  63.851  1.00  0.00    -0.154 OA 
HETATM   25  O   UNL     1      -6.324   8.465  65.172  1.00  0.00    -0.052 OA 
ENDBRANCH  16  17
ENDBRANCH  15  16
ENDBRANCH   8  15
ENDBRANCH   3   7
TORSDOF 5
ENDMDL
MODEL      234
REMARK 921   NORMALIZED FREE ENERGY PREDICTED BY IDOCK:   -3.44 KCAL/MOL
REMARK 922        TOTAL FREE ENERGY PREDICTED BY IDOCK:   -5.94 KCAL/MOL
REMARK 923 INTER-LIGAND FREE ENERGY PREDICTED BY IDOCK:   -4.47 KCAL/MOL
REMARK 924 INTRA-LIGAND FREE ENERGY PREDICTED BY IDOCK:   -1.47 KCAL/MOL
REMARK 927      BINDING AFFINITY PREDICTED BY RF-SCORE:    0.00 PKD
ROOT
HETATM    1  C   UNL     1      -7.154   9.166  67.431  1.00  0.00    -0.079 C  
HETATM    2  C   UNL     1      -7.115   7.800  68.039  1.00  0.00    -0.085 A  
HETATM    3  C   UNL     1      -7.800   6.646  67.622  1.00  0.00    -0.111 A  
HETATM    4  C   UNL     1      -6.449   6.277  69.691  1.00  0.00    -0.043 A  
HETATM    5  S   UNL     1      -7.460   5.330  68.700  1.00  0.00    -0.072 SA 
HETATM    6  C   UNL     1      -6.343   7.563  69.230  1.00  0.00    -0.035 A  
ENDROOT
BRANCH   3   7
HETATM    7  C   UNL     1      -8.745   6.402  66.542  1.00  0.00    -0.133 C  
HETATM    8  C   UNL     1     -10.046   6.753  66.709  1.00  0.00    -0.250 C  
BRANCH   7   9
HETATM    9  C   UNL     1      -8.330   5.870  65.241  1.00  0.00    -0.146 A  
HETATM   10  C   UNL     1      -7.668   6.443  64.140  1.00  0.00    -0.105 A  
HETATM   11  C   UNL     1      -7.884   4.231  63.391  1.00  0.00    -0.075 A  
HETATM   12  C   UNL     1      -7.436   5.487  63.086  1.00  0.00    -0.059 A  
HETATM   13  S   UNL     1      -8.614   4.177  64.921  1.00  0.00    -0.123 SA 
HETATM   14  C   UNL     1      -7.183   7.851  63.957  1.00  0.00    -0.084 C  
ENDBRANCH   7   9
BRANCH   8  15
HETATM   15  C   UNL     1     -10.651   7.510  67.876  1.00  0.00    -0.250 C  
BRANCH  15  16
HETATM   16  C   UNL     1     -11.015   6.636  69.120  1.00  0.00    -0.287 C  
BRANCH  16  17
HETATM   17  N   UNL     1     -11.361   7.460  70.291  1.00  0.00    -0.255 NA 
HETATM   18  C   UNL     1     -12.241   6.835  71.265  1.00  0.00    -0.364 C  
HETATM   19  C   UNL     1     -11.475   6.224  72.428  1.00  0.00    -0.335 C  
HETATM   20  C   UNL     1     -10.802   7.329  73.219  1.00  0.00    -0.404 C  
HETATM   21  C   UNL     1      -9.919   8.221  72.342  1.00  0.00    -0.379 C  
HETATM   22  C   UNL     1      -8.422   8.005  72.493  1.00  0.00    -0.162 C  
HETATM   23  C   UNL     1     -10.301   8.317  70.841  1.00  0.00    -0.192 C  
HETATM   24  O   UNL     1      -8.019   6.757  72.802  1.00  0.00    -0.099 OA 
HETATM   25  O   UNL     1      -7.608   8.904  72.316  1.00  0.00    -0.344 OA 
ENDBRANCH  16  17
ENDBRANCH  15  16
ENDBRANCH   8  15
ENDBRANCH   3   7
TORSDOF 5
ENDMDL
MODEL      235
REMARK 921   NORMALIZED FREE ENERGY PREDICTED BY IDOCK:   -3.41 KCAL/MOL
REMARK 922        TOTAL FREE ENERGY PREDICTED BY IDOCK:   -5.91 KCAL/MOL
REMARK 923 INTER-LIGAND FREE ENERGY PREDICTED BY IDOCK:   -4.57 KCAL/MOL
REMARK 924 INTRA-LIGAND FREE ENERGY PREDICTED BY IDOCK:   -1.34 KCAL/MOL
REMARK 927      BINDING AFFINITY PREDICTED BY RF-SCORE:    0.00 PKD
ROOT
HETATM    1  C   UNL     1     -10.962   6.479  67.070  1.00  0.00    -0.466 C  
HETATM    2  C   UNL     1     -10.172   7.713  67.368  1.00  0.00    -0.320 A  
HETATM    3  C   UNL     1      -9.321   7.955  68.460  1.00  0.00    -0.141 A  
HETATM    4  C   UNL     1      -9.530   9.926  66.939  1.00  0.00    -0.163 A  
HETATM    5  S   UNL     1      -8.686   9.568  68.374  1.00  0.00    -0.124 SA 
HETATM    6  C   UNL     1     -10.274   8.861  66.505  1.00  0.00    -0.319 A  
ENDROOT
BRANCH   3   7
HETATM    7  C   UNL     1      -8.961   7.153  69.621  1.00  0.00    -0.141 C  
HETATM    8  C   UNL     1      -8.003   6.200  69.495  1.00  0.00    -0.107 C  
BRANCH   7   9
HETATM    9  C   UNL     1      -9.534   7.394  70.949  1.00  0.00    -0.165 A  
HETATM   10  C   UNL     1     -10.850   7.358  71.445  1.00  0.00    -0.250 A  
HETATM   11  C   UNL     1      -9.673   7.837  73.417  1.00  0.00    -0.290 A  
HETATM   12  C   UNL     1     -10.906   7.628  72.860  1.00  0.00    -0.446 A  
HETATM   13  S   UNL     1      -8.436   7.744  72.261  1.00  0.00    -0.139 SA 
HETATM   14  C   UNL     1     -12.126   7.063  70.714  1.00  0.00    -0.374 C  
ENDBRANCH   7   9
BRANCH   8  15
HETATM   15  C   UNL     1      -7.132   5.926  68.284  1.00  0.00    -0.078 C  
BRANCH  15  16
HETATM   16  C   UNL     1      -7.573   4.710  67.407  1.00  0.00    -0.085 C  
BRANCH  16  17
HETATM   17  N   UNL     1      -7.399   4.975  65.969  1.00  0.00    -0.076 NA 
HETATM   18  C   UNL     1      -6.174   4.465  65.376  1.00  0.00    -0.027 C  
HETATM   19  C   UNL     1      -6.378   3.122  64.691  1.00  0.00    -0.024 C  
HETATM   20  C   UNL     1      -7.298   3.304  63.499  1.00  0.00    -0.054 C  
HETATM   21  C   UNL     1      -8.621   3.974  63.878  1.00  0.00    -0.103 C  
HETATM   22  C   UNL     1      -9.828   3.051  63.924  1.00  0.00    -0.154 C  
HETATM   23  C   UNL     1      -8.601   4.897  65.126  1.00  0.00    -0.144 C  
HETATM   24  O   UNL     1      -9.598   1.771  64.276  1.00  0.00    -0.134 OA 
HETATM   25  O   UNL     1     -10.964   3.444  63.684  1.00  0.00    -0.248 OA 
ENDBRANCH  16  17
ENDBRANCH  15  16
ENDBRANCH   8  15
ENDBRANCH   3   7
TORSDOF 5
ENDMDL
MODEL      236
REMARK 921   NORMALIZED FREE ENERGY PREDICTED BY IDOCK:   -3.38 KCAL/MOL
REMARK 922        TOTAL FREE ENERGY PREDICTED BY IDOCK:   -5.87 KCAL/MOL
REMARK 923 INTER-LIGAND FREE ENERGY PREDICTED BY IDOCK:   -4.47 KCAL/MOL
REMARK 924 INTRA-LIGAND FREE ENERGY PREDICTED BY IDOCK:   -1.40 KCAL/MOL
REMARK 927      BINDING AFFINITY PREDICTED BY RF-SCORE:    0.00 PKD
ROOT
HETATM    1  C   UNL     1      -8.774   9.812  65.216  1.00  0.00    -0.182 C  
HETATM    2  C   UNL     1      -8.142  10.242  66.502  1.00  0.00    -0.121 A  
HETATM    3  C   UNL     1      -8.778  10.624  67.696  1.00  0.00    -0.121 A  
HETATM    4  C   UNL     1      -6.289  10.803  67.824  1.00  0.00    -0.058 A  
HETATM    5  S   UNL     1      -7.596  11.090  68.878  1.00  0.00    -0.134 SA 
HETATM    6  C   UNL     1      -6.710  10.350  66.601  1.00  0.00    -0.090 A  
ENDROOT
BRANCH   3   7
HETATM    7  C   UNL     1     -10.181  10.755  68.062  1.00  0.00    -0.203 C  
HETATM    8  C   UNL     1     -10.865   9.654  68.464  1.00  0.00    -0.202 C  
BRANCH   7   9
HETATM    9  C   UNL     1     -10.864  12.051  68.097  1.00  0.00    -0.221 A  
HETATM   10  C   UNL     1     -11.686  12.674  69.054  1.00  0.00    -0.367 A  
HETATM   11  C   UNL     1     -11.572  14.369  67.436  1.00  0.00    -0.375 A  
HETATM   12  C   UNL     1     -12.091  13.997  68.646  1.00  0.00    -0.332 A  
HETATM   13  S   UNL     1     -10.623  13.140  66.753  1.00  0.00    -0.265 SA 
HETATM   14  C   UNL     1     -12.144  12.157  70.386  1.00  0.00    -0.395 C  
ENDBRANCH   7   9
BRANCH   8  15
HETATM   15  C   UNL     1     -10.309   8.265  68.711  1.00  0.00    -0.223 C  
BRANCH  15  16
HETATM   16  C   UNL     1     -11.076   7.421  69.779  1.00  0.00    -0.152 C  
BRANCH  16  17
HETATM   17  N   UNL     1     -10.218   6.390  70.388  1.00  0.00    -0.188 NA 
HETATM   18  C   UNL     1     -10.254   5.082  69.754  1.00  0.00    -0.266 C  
HETATM   19  C   UNL     1      -9.107   4.882  68.775  1.00  0.00    -0.147 C  
HETATM   20  C   UNL     1      -7.796   4.868  69.537  1.00  0.00    -0.067 C  
HETATM   21  C   UNL     1      -7.612   6.115  70.406  1.00  0.00    -0.096 C  
HETATM   22  C   UNL     1      -6.617   7.135  69.877  1.00  0.00    -0.044 C  
HETATM   23  C   UNL     1      -8.905   6.824  70.888  1.00  0.00    -0.146 C  
HETATM   24  O   UNL     1      -6.497   7.226  68.538  1.00  0.00    -0.038 OA 
HETATM   25  O   UNL     1      -5.971   7.867  70.619  1.00  0.00    -0.033 OA 
ENDBRANCH  16  17
ENDBRANCH  15  16
ENDBRANCH   8  15
ENDBRANCH   3   7
TORSDOF 5
ENDMDL
MODEL      237
REMARK 921   NORMALIZED FREE ENERGY PREDICTED BY IDOCK:   -3.38 KCAL/MOL
REMARK 922        TOTAL FREE ENERGY PREDICTED BY IDOCK:   -5.86 KCAL/MOL
REMARK 923 INTER-LIGAND FREE ENERGY PREDICTED BY IDOCK:   -4.36 KCAL/MOL
REMARK 924 INTRA-LIGAND FREE ENERGY PREDICTED BY IDOCK:   -1.50 KCAL/MOL
REMARK 927      BINDING AFFINITY PREDICTED BY RF-SCORE:    0.00 PKD
ROOT
HETATM    1  C   UNL     1      -7.110   9.079  68.834  1.00  0.00    -0.069 C  
HETATM    2  C   UNL     1      -7.488   9.569  67.473  1.00  0.00    -0.091 A  
HETATM    3  C   UNL     1      -8.777   9.736  66.938  1.00  0.00    -0.135 A  
HETATM    4  C   UNL     1      -6.971  10.272  65.298  1.00  0.00    -0.130 A  
HETATM    5  S   UNL     1      -8.674  10.277  65.293  1.00  0.00    -0.181 SA 
HETATM    6  C   UNL     1      -6.464   9.886  66.511  1.00  0.00    -0.071 A  
ENDROOT
BRANCH   3   7
HETATM    7  C   UNL     1     -10.104   9.478  67.478  1.00  0.00    -0.257 C  
HETATM    8  C   UNL     1     -10.659   8.251  67.311  1.00  0.00    -0.335 C  
BRANCH   7   9
HETATM    9  C   UNL     1     -10.832  10.470  68.276  1.00  0.00    -0.248 A  
HETATM   10  C   UNL     1     -11.482  11.673  67.946  1.00  0.00    -0.381 A  
HETATM   11  C   UNL     1     -11.956  11.559  70.240  1.00  0.00    -0.368 A  
HETATM   12  C   UNL     1     -12.107  12.286  69.091  1.00  0.00    -0.214 A  
HETATM   13  S   UNL     1     -11.044  10.153  69.980  1.00  0.00    -0.326 SA 
HETATM   14  C   UNL     1     -11.610  12.341  66.609  1.00  0.00    -0.438 C  
ENDBRANCH   7   9
BRANCH   8  15
HETATM   15  C   UNL     1     -10.006   7.019  66.716  1.00  0.00    -0.266 C  
BRANCH  15  16
HETATM   16  C   UNL     1      -9.340   6.053  67.748  1.00  0.00    -0.106 C  
BRANCH  16  17
HETATM   17  N   UNL     1      -8.459   5.069  67.095  1.00  0.00    -0.106 NA 
HETATM   18  C   UNL     1      -9.128   4.044  66.312  1.00  0.00    -0.139 C  
HETATM   19  C   UNL     1      -9.172   4.384  64.830  1.00  0.00    -0.157 C  
HETATM   20  C   UNL     1      -7.760   4.386  64.276  1.00  0.00    -0.080 C  
HETATM   21  C   UNL     1      -6.825   5.309  65.061  1.00  0.00    -0.049 C  
HETATM   22  C   UNL     1      -6.469   6.615  64.369  1.00  0.00    -0.038 C  
HETATM   23  C   UNL     1      -7.190   5.570  66.547  1.00  0.00    -0.077 C  
HETATM   24  O   UNL     1      -7.402   7.141  63.552  1.00  0.00    -0.069 OA 
HETATM   25  O   UNL     1      -5.402   7.188  64.558  1.00  0.00    -0.028 OA 
ENDBRANCH  16  17
ENDBRANCH  15  16
ENDBRANCH   8  15
ENDBRANCH   3   7
TORSDOF 5
ENDMDL
MODEL      238
REMARK 921   NORMALIZED FREE ENERGY PREDICTED BY IDOCK:   -3.36 KCAL/MOL
REMARK 922        TOTAL FREE ENERGY PREDICTED BY IDOCK:   -5.84 KCAL/MOL
REMARK 923 INTER-LIGAND FREE ENERGY PREDICTED BY IDOCK:   -4.66 KCAL/MOL
REMARK 924 INTRA-LIGAND FREE ENERGY PREDICTED BY IDOCK:   -1.18 KCAL/MOL
REMARK 927      BINDING AFFINITY PREDICTED BY RF-SCORE:    0.00 PKD
ROOT
HETATM    1  C   UNL     1      -6.794  11.700  68.238  1.00  0.00    -0.067 C  
HETATM    2  C   UNL     1      -7.907  10.869  68.794  1.00  0.00    -0.132 A  
HETATM    3  C   UNL     1      -9.233  10.778  68.336  1.00  0.00    -0.164 A  
HETATM    4  C   UNL     1      -8.818   9.408  70.384  1.00  0.00    -0.249 A  
HETATM    5  S   UNL     1     -10.146   9.718  69.363  1.00  0.00    -0.225 SA 
HETATM    6  C   UNL     1      -7.692  10.070  69.972  1.00  0.00    -0.181 A  
ENDROOT
BRANCH   3   7
HETATM    7  C   UNL     1      -9.944  11.441  67.252  1.00  0.00    -0.217 C  
HETATM    8  C   UNL     1     -10.192  10.755  66.107  1.00  0.00    -0.308 C  
BRANCH   7   9
HETATM    9  C   UNL     1     -10.484  12.797  67.382  1.00  0.00    -0.228 A  
HETATM   10  C   UNL     1     -11.353  13.396  68.312  1.00  0.00    -0.330 A  
HETATM   11  C   UNL     1     -10.848  15.247  66.961  1.00  0.00    -0.321 A  
HETATM   12  C   UNL     1     -11.557  14.798  68.042  1.00  0.00    -0.367 A  
HETATM   13  S   UNL     1      -9.953  14.002  66.235  1.00  0.00    -0.315 SA 
HETATM   14  C   UNL     1     -12.035  12.783  69.499  1.00  0.00    -0.338 C  
ENDBRANCH   7   9
BRANCH   8  15
HETATM   15  C   UNL     1      -9.921   9.287  65.837  1.00  0.00    -0.289 C  
BRANCH  15  16
HETATM   16  C   UNL     1      -8.572   8.982  65.110  1.00  0.00    -0.179 C  
BRANCH  16  17
HETATM   17  N   UNL     1      -8.290   7.537  65.054  1.00  0.00    -0.105 NA 
HETATM   18  C   UNL     1      -7.001   7.166  64.494  1.00  0.00    -0.051 C  
HETATM   19  C   UNL     1      -5.954   6.917  65.569  1.00  0.00    -0.036 C  
HETATM   20  C   UNL     1      -6.350   5.698  66.381  1.00  0.00    -0.035 C  
HETATM   21  C   UNL     1      -7.764   5.814  66.957  1.00  0.00    -0.101 C  
HETATM   22  C   UNL     1      -7.836   6.102  68.448  1.00  0.00    -0.104 C  
HETATM   23  C   UNL     1      -8.758   6.721  66.184  1.00  0.00    -0.148 C  
HETATM   24  O   UNL     1      -6.835   6.834  68.973  1.00  0.00    -0.063 OA 
HETATM   25  O   UNL     1      -8.769   5.718  69.145  1.00  0.00    -0.112 OA 
ENDBRANCH  16  17
ENDBRANCH  15  16
ENDBRANCH   8  15
ENDBRANCH   3   7
TORSDOF 5
ENDMDL
MODEL      239
REMARK 921   NORMALIZED FREE ENERGY PREDICTED BY IDOCK:   -3.35 KCAL/MOL
REMARK 922        TOTAL FREE ENERGY PREDICTED BY IDOCK:   -5.84 KCAL/MOL
REMARK 923 INTER-LIGAND FREE ENERGY PREDICTED BY IDOCK:   -5.99 KCAL/MOL
REMARK 924 INTRA-LIGAND FREE ENERGY PREDICTED BY IDOCK:    0.16 KCAL/MOL
REMARK 927      BINDING AFFINITY PREDICTED BY RF-SCORE:    0.00 PKD
ROOT
HETATM    1  C   UNL     1      -9.165  14.841  65.731  1.00  0.00     0.048 C  
HETATM    2  C   UNL     1      -8.541  15.134  67.058  1.00  0.00    -0.265 A  
HETATM    3  C   UNL     1      -9.016  15.986  68.070  1.00  0.00    -0.187 A  
HETATM    4  C   UNL     1      -6.812  14.952  68.629  1.00  0.00    -0.106 A  
HETATM    5  S   UNL     1      -7.893  16.024  69.393  1.00  0.00    -0.077 SA 
HETATM    6  C   UNL     1      -7.272  14.548  67.404  1.00  0.00    -0.165 A  
ENDROOT
BRANCH   3   7
HETATM    7  C   UNL     1     -10.187  16.847  68.159  1.00  0.00    -0.311 C  
HETATM    8  C   UNL     1     -11.278  16.410  68.839  1.00  0.00    -0.304 C  
BRANCH   7   9
HETATM    9  C   UNL     1     -10.203  18.208  67.616  1.00  0.00    -0.374 A  
HETATM   10  C   UNL     1     -10.070  19.477  68.210  1.00  0.00    -0.542 A  
HETATM   11  C   UNL     1     -10.239  20.088  65.951  1.00  0.00    -0.421 A  
HETATM   12  C   UNL     1     -10.108  20.540  67.237  1.00  0.00    -0.439 A  
HETATM   13  S   UNL     1     -10.350  18.397  65.887  1.00  0.00    -0.172 SA 
HETATM   14  C   UNL     1      -9.881  19.828  69.656  1.00  0.00     0.019 C  
ENDBRANCH   7   9
BRANCH   8  15
HETATM   15  C   UNL     1     -11.406  15.140  69.657  1.00  0.00    -0.302 C  
BRANCH  15  16
HETATM   16  C   UNL     1     -10.707  13.882  69.047  1.00  0.00    -0.195 C  
BRANCH  16  17
HETATM   17  N   UNL     1     -11.646  13.048  68.278  1.00  0.00    -0.317 NA 
HETATM   18  C   UNL     1     -12.393  13.733  67.236  1.00  0.00    -0.164 C  
HETATM   19  C   UNL     1     -11.756  13.568  65.864  1.00  0.00    -0.380 C  
HETATM   20  C   UNL     1     -11.829  12.110  65.451  1.00  0.00    -0.357 C  
HETATM   21  C   UNL     1     -11.218  11.175  66.497  1.00  0.00    -0.151 C  
HETATM   22  C   UNL     1      -9.857  10.598  66.137  1.00  0.00    -0.217 C  
HETATM   23  C   UNL     1     -11.218  11.677  67.965  1.00  0.00    -0.263 C  
HETATM   24  O   UNL     1      -9.057  11.367  65.373  1.00  0.00    -0.190 OA 
HETATM   25  O   UNL     1      -9.482   9.503  66.539  1.00  0.00    -0.159 OA 
ENDBRANCH  16  17
ENDBRANCH  15  16
ENDBRANCH   8  15
ENDBRANCH   3   7
TORSDOF 5
ENDMDL
MODEL      240
REMARK 921   NORMALIZED FREE ENERGY PREDICTED BY IDOCK:   -3.34 KCAL/MOL
REMARK 922        TOTAL FREE ENERGY PREDICTED BY IDOCK:   -5.82 KCAL/MOL
REMARK 923 INTER-LIGAND FREE ENERGY PREDICTED BY IDOCK:   -6.26 KCAL/MOL
REMARK 924 INTRA-LIGAND FREE ENERGY PREDICTED BY IDOCK:    0.44 KCAL/MOL
REMARK 927      BINDING AFFINITY PREDICTED BY RF-SCORE:    0.00 PKD
ROOT
HETATM    1  C   UNL     1     -10.631  16.097  64.900  1.00  0.00    -0.203 C  
HETATM    2  C   UNL     1     -11.260  14.791  65.270  1.00  0.00    -0.366 A  
HETATM    3  C   UNL     1     -10.849  13.880  66.257  1.00  0.00    -0.290 A  
HETATM    4  C   UNL     1     -12.834  13.081  64.967  1.00  0.00    -0.295 A  
HETATM    5  S   UNL     1     -11.885  12.488  66.251  1.00  0.00    -0.341 SA 
HETATM    6  C   UNL     1     -12.406  14.311  64.542  1.00  0.00    -0.432 A  
ENDROOT
BRANCH   3   7
HETATM    7  C   UNL     1      -9.725  13.876  67.182  1.00  0.00    -0.244 C  
HETATM    8  C   UNL     1      -9.745  14.711  68.252  1.00  0.00    -0.215 C  
BRANCH   7   9
HETATM    9  C   UNL     1      -8.606  12.938  67.051  1.00  0.00    -0.169 A  
HETATM   10  C   UNL     1      -8.470  11.693  66.410  1.00  0.00    -0.114 A  
HETATM   11  C   UNL     1      -6.283  11.994  67.204  1.00  0.00    -0.151 A  
HETATM   12  C   UNL     1      -7.133  11.165  66.523  1.00  0.00    -0.124 A  
HETATM   13  S   UNL     1      -7.069  13.396  67.744  1.00  0.00    -0.169 SA 
HETATM   14  C   UNL     1      -9.494  10.908  65.645  1.00  0.00    -0.252 C  
ENDBRANCH   7   9
BRANCH   8  15
HETATM   15  C   UNL     1     -10.886  15.603  68.702  1.00  0.00    -0.273 C  
BRANCH  15  16
HETATM   16  C   UNL     1     -10.462  17.007  69.239  1.00  0.00    -0.293 C  
BRANCH  16  17
HETATM   17  N   UNL     1     -10.038  17.909  68.154  1.00  0.00    -0.345 NA 
HETATM   18  C   UNL     1     -10.050  19.327  68.470  1.00  0.00    -0.430 C  
HETATM   19  C   UNL     1      -8.680  19.840  68.885  1.00  0.00    -0.143 C  
HETATM   20  C   UNL     1      -7.734  19.750  67.702  1.00  0.00    -0.317 C  
HETATM   21  C   UNL     1      -7.676  18.341  67.105  1.00  0.00    -0.231 C  
HETATM   22  C   UNL     1      -6.415  17.552  67.422  1.00  0.00    -0.148 C  
HETATM   23  C   UNL     1      -8.932  17.451  67.301  1.00  0.00    -0.236 C  
HETATM   24  O   UNL     1      -5.824  17.805  68.606  1.00  0.00    -0.174 OA 
HETATM   25  O   UNL     1      -5.965  16.704  66.661  1.00  0.00    -0.306 OA 
ENDBRANCH  16  17
ENDBRANCH  15  16
ENDBRANCH   8  15
ENDBRANCH   3   7
TORSDOF 5
ENDMDL
MODEL      241
REMARK 921   NORMALIZED FREE ENERGY PREDICTED BY IDOCK:   -3.34 KCAL/MOL
REMARK 922        TOTAL FREE ENERGY PREDICTED BY IDOCK:   -5.81 KCAL/MOL
REMARK 923 INTER-LIGAND FREE ENERGY PREDICTED BY IDOCK:   -5.37 KCAL/MOL
REMARK 924 INTRA-LIGAND FREE ENERGY PREDICTED BY IDOCK:   -0.45 KCAL/MOL
REMARK 927      BINDING AFFINITY PREDICTED BY RF-SCORE:    0.00 PKD
ROOT
HETATM    1  C   UNL     1     -11.523  15.588  67.972  1.00  0.00    -0.313 C  
HETATM    2  C   UNL     1     -11.411  14.757  66.734  1.00  0.00    -0.343 A  
HETATM    3  C   UNL     1     -10.476  13.747  66.449  1.00  0.00    -0.284 A  
HETATM    4  C   UNL     1     -12.044  14.180  64.552  1.00  0.00    -0.468 A  
HETATM    5  S   UNL     1     -10.739  13.126  64.850  1.00  0.00    -0.367 SA 
HETATM    6  C   UNL     1     -12.305  14.986  65.629  1.00  0.00     0.258 A  
ENDROOT
BRANCH   3   7
HETATM    7  C   UNL     1      -9.346  13.216  67.198  1.00  0.00    -0.235 C  
HETATM    8  C   UNL     1      -8.334  14.050  67.548  1.00  0.00    -0.200 C  
BRANCH   7   9
HETATM    9  C   UNL     1      -9.300  11.828  67.668  1.00  0.00    -0.180 A  
HETATM   10  C   UNL     1      -8.263  10.881  67.754  1.00  0.00    -0.116 A  
HETATM   11  C   UNL     1     -10.024   9.659  68.706  1.00  0.00    -0.173 A  
HETATM   12  C   UNL     1      -8.706   9.640  68.339  1.00  0.00    -0.120 A  
HETATM   13  S   UNL     1     -10.761  11.139  68.331  1.00  0.00    -0.215 SA 
HETATM   14  C   UNL     1      -6.824  11.016  67.349  1.00  0.00    -0.082 C  
ENDBRANCH   7   9
BRANCH   8  15
HETATM   15  C   UNL     1      -8.274  15.554  67.360  1.00  0.00    -0.199 C  
BRANCH  15  16
HETATM   16  C   UNL     1      -7.884  16.369  68.635  1.00  0.00    -0.211 C  
BRANCH  16  17
HETATM   17  N   UNL     1      -6.501  16.871  68.567  1.00  0.00    -0.156 NA 
HETATM   18  C   UNL     1      -6.176  17.674  67.400  1.00  0.00    -0.147 C  
HETATM   19  C   UNL     1      -6.274  19.166  67.679  1.00  0.00    -0.209 C  
HETATM   20  C   UNL     1      -5.208  19.558  68.685  1.00  0.00    -0.201 C  
HETATM   21  C   UNL     1      -5.274  18.718  69.963  1.00  0.00    -0.204 C  
HETATM   22  C   UNL     1      -5.847  19.428  71.179  1.00  0.00    -0.078 C  
HETATM   23  C   UNL     1      -5.883  17.297  69.831  1.00  0.00    -0.240 C  
HETATM   24  O   UNL     1      -6.783  20.369  70.944  1.00  0.00    -0.375 OA 
HETATM   25  O   UNL     1      -5.508  19.148  72.323  1.00  0.00    -0.507 OA 
ENDBRANCH  16  17
ENDBRANCH  15  16
ENDBRANCH   8  15
ENDBRANCH   3   7
TORSDOF 5
ENDMDL
MODEL      242
REMARK 921   NORMALIZED FREE ENERGY PREDICTED BY IDOCK:   -3.34 KCAL/MOL
REMARK 922        TOTAL FREE ENERGY PREDICTED BY IDOCK:   -5.81 KCAL/MOL
REMARK 923 INTER-LIGAND FREE ENERGY PREDICTED BY IDOCK:   -5.55 KCAL/MOL
REMARK 924 INTRA-LIGAND FREE ENERGY PREDICTED BY IDOCK:   -0.26 KCAL/MOL
REMARK 927      BINDING AFFINITY PREDICTED BY RF-SCORE:    0.00 PKD
ROOT
HETATM    1  C   UNL     1      -7.523  14.179  67.311  1.00  0.00    -0.068 C  
HETATM    2  C   UNL     1      -6.861  14.890  68.449  1.00  0.00    -0.110 A  
HETATM    3  C   UNL     1      -7.045  16.220  68.865  1.00  0.00    -0.182 A  
HETATM    4  C   UNL     1      -5.319  15.014  70.210  1.00  0.00    -0.120 A  
HETATM    5  S   UNL     1      -5.997  16.576  70.201  1.00  0.00    -0.050 SA 
HETATM    6  C   UNL     1      -5.865  14.215  69.240  1.00  0.00    -0.089 A  
ENDROOT
BRANCH   3   7
HETATM    7  C   UNL     1      -7.865  17.306  68.347  1.00  0.00    -0.254 C  
HETATM    8  C   UNL     1      -9.193  17.323  68.626  1.00  0.00    -0.266 C  
BRANCH   7   9
HETATM    9  C   UNL     1      -7.295  18.434  67.605  1.00  0.00    -0.215 A  
HETATM   10  C   UNL     1      -6.229  18.540  66.693  1.00  0.00    -0.197 A  
HETATM   11  C   UNL     1      -7.011  20.751  66.678  1.00  0.00    -0.245 A  
HETATM   12  C   UNL     1      -6.078  19.881  66.185  1.00  0.00    -0.187 A  
HETATM   13  S   UNL     1      -8.062  19.994  67.773  1.00  0.00    -0.256 SA 
HETATM   14  C   UNL     1      -5.300  17.471  66.199  1.00  0.00    -0.217 C  
ENDBRANCH   7   9
BRANCH   8  15
HETATM   15  C   UNL     1      -9.951  16.386  69.547  1.00  0.00    -0.161 C  
BRANCH  15  16
HETATM   16  C   UNL     1      -9.872  14.872  69.170  1.00  0.00    -0.199 C  
BRANCH  16  17
HETATM   17  N   UNL     1     -11.162  14.357  68.678  1.00  0.00    -0.246 NA 
HETATM   18  C   UNL     1     -11.786  15.127  67.614  1.00  0.00    -0.216 C  
HETATM   19  C   UNL     1     -11.492  14.552  66.237  1.00  0.00    -0.358 C  
HETATM   20  C   UNL     1     -12.145  13.188  66.115  1.00  0.00    -0.479 C  
HETATM   21  C   UNL     1     -11.733  12.240  67.245  1.00  0.00    -0.394 C  
HETATM   22  C   UNL     1     -10.746  11.151  66.852  1.00  0.00    -0.274 C  
HETATM   23  C   UNL     1     -11.305  12.897  68.584  1.00  0.00    -0.289 C  
HETATM   24  O   UNL     1      -9.869  11.453  65.875  1.00  0.00    -0.209 OA 
HETATM   25  O   UNL     1     -10.718  10.060  67.410  1.00  0.00    -0.268 OA 
ENDBRANCH  16  17
ENDBRANCH  15  16
ENDBRANCH   8  15
ENDBRANCH   3   7
TORSDOF 5
ENDMDL
MODEL      243
REMARK 921   NORMALIZED FREE ENERGY PREDICTED BY IDOCK:   -3.30 KCAL/MOL
REMARK 922        TOTAL FREE ENERGY PREDICTED BY IDOCK:   -5.76 KCAL/MOL
REMARK 923 INTER-LIGAND FREE ENERGY PREDICTED BY IDOCK:   -4.50 KCAL/MOL
REMARK 924 INTRA-LIGAND FREE ENERGY PREDICTED BY IDOCK:   -1.26 KCAL/MOL
REMARK 927      BINDING AFFINITY PREDICTED BY RF-SCORE:    0.00 PKD
ROOT
HETATM    1  C   UNL     1     -11.085   8.130  69.886  1.00  0.00    -0.102 C  
HETATM    2  C   UNL     1     -10.295   7.061  69.200  1.00  0.00    -0.209 A  
HETATM    3  C   UNL     1      -9.011   6.589  69.523  1.00  0.00    -0.137 A  
HETATM    4  C   UNL     1      -9.960   5.498  67.486  1.00  0.00    -0.160 A  
HETATM    5  S   UNL     1      -8.516   5.380  68.382  1.00  0.00    -0.095 SA 
HETATM    6  C   UNL     1     -10.822   6.417  68.025  1.00  0.00    -0.396 A  
ENDROOT
BRANCH   3   7
HETATM    7  C   UNL     1      -8.055   6.972  70.552  1.00  0.00    -0.114 C  
HETATM    8  C   UNL     1      -7.134   7.930  70.276  1.00  0.00    -0.049 C  
BRANCH   7   9
HETATM    9  C   UNL     1      -8.104   6.424  71.911  1.00  0.00    -0.109 A  
HETATM   10  C   UNL     1      -7.539   6.839  73.131  1.00  0.00    -0.086 A  
HETATM   11  C   UNL     1      -8.758   4.969  73.851  1.00  0.00    -0.112 A  
HETATM   12  C   UNL     1      -7.917   5.981  74.226  1.00  0.00    -0.102 A  
HETATM   13  S   UNL     1      -9.085   5.006  72.187  1.00  0.00    -0.132 SA 
HETATM   14  C   UNL     1      -6.656   8.019  73.410  1.00  0.00    -0.109 C  
ENDBRANCH   7   9
BRANCH   8  15
HETATM   15  C   UNL     1      -7.038   8.779  69.023  1.00  0.00    -0.065 C  
BRANCH  15  16
HETATM   16  C   UNL     1      -7.707  10.188  69.120  1.00  0.00    -0.112 C  
BRANCH  16  17
HETATM   17  N   UNL     1      -8.011  10.748  67.792  1.00  0.00    -0.109 NA 
HETATM   18  C   UNL     1      -8.193   9.779  66.724  1.00  0.00    -0.120 C  
HETATM   19  C   UNL     1      -9.660   9.459  66.478  1.00  0.00    -0.267 C  
HETATM   20  C   UNL     1     -10.361  10.698  65.954  1.00  0.00    -0.291 C  
HETATM   21  C   UNL     1     -10.172  11.909  66.872  1.00  0.00    -0.233 C  
HETATM   22  C   UNL     1     -11.387  12.290  67.702  1.00  0.00    -0.311 C  
HETATM   23  C   UNL     1      -8.893  11.924  67.750  1.00  0.00    -0.166 C  
HETATM   24  O   UNL     1     -12.206  11.287  68.074  1.00  0.00    -0.621 OA 
HETATM   25  O   UNL     1     -11.607  13.445  68.050  1.00  0.00    -0.293 OA 
ENDBRANCH  16  17
ENDBRANCH  15  16
ENDBRANCH   8  15
ENDBRANCH   3   7
TORSDOF 5
ENDMDL
MODEL      244
REMARK 921   NORMALIZED FREE ENERGY PREDICTED BY IDOCK:   -3.27 KCAL/MOL
REMARK 922        TOTAL FREE ENERGY PREDICTED BY IDOCK:   -5.73 KCAL/MOL
REMARK 923 INTER-LIGAND FREE ENERGY PREDICTED BY IDOCK:   -4.87 KCAL/MOL
REMARK 924 INTRA-LIGAND FREE ENERGY PREDICTED BY IDOCK:   -0.85 KCAL/MOL
REMARK 927      BINDING AFFINITY PREDICTED BY RF-SCORE:    0.00 PKD
ROOT
HETATM    1  C   UNL     1     -11.866  12.184  65.379  1.00  0.00    -0.357 C  
HETATM    2  C   UNL     1     -10.755  11.409  64.745  1.00  0.00    -0.362 A  
HETATM    3  C   UNL     1      -9.740  10.673  65.378  1.00  0.00    -0.252 A  
HETATM    4  C   UNL     1      -9.516  10.689  62.890  1.00  0.00    -0.343 A  
HETATM    5  S   UNL     1      -8.661  10.005  64.194  1.00  0.00    -0.224 SA 
HETATM    6  C   UNL     1     -10.608  11.402  63.312  1.00  0.00    -0.374 A  
ENDROOT
BRANCH   3   7
HETATM    7  C   UNL     1      -9.419  10.449  66.781  1.00  0.00    -0.198 C  
HETATM    8  C   UNL     1      -9.823   9.298  67.376  1.00  0.00    -0.229 C  
BRANCH   7   9
HETATM    9  C   UNL     1      -8.597  11.383  67.556  1.00  0.00    -0.137 A  
HETATM   10  C   UNL     1      -7.527  11.200  68.450  1.00  0.00    -0.102 A  
HETATM   11  C   UNL     1      -7.639  13.543  68.406  1.00  0.00    -0.133 A  
HETATM   12  C   UNL     1      -7.003  12.453  68.935  1.00  0.00    -0.091 A  
HETATM   13  S   UNL     1      -8.887  13.093  67.350  1.00  0.00    -0.214 SA 
HETATM   14  C   UNL     1      -6.889   9.923  68.913  1.00  0.00    -0.057 C  
ENDBRANCH   7   9
BRANCH   8  15
HETATM   15  C   UNL     1     -10.489   8.105  66.717  1.00  0.00    -0.316 C  
BRANCH  15  16
HETATM   16  C   UNL     1     -10.383   6.762  67.507  1.00  0.00    -0.210 C  
BRANCH  16  17
HETATM   17  N   UNL     1      -9.157   6.018  67.170  1.00  0.00    -0.113 NA 
HETATM   18  C   UNL     1      -8.899   4.830  67.967  1.00  0.00    -0.105 C  
HETATM   19  C   UNL     1      -9.375   3.559  67.282  1.00  0.00    -0.239 C  
HETATM   20  C   UNL     1      -8.552   3.328  66.029  1.00  0.00    -0.120 C  
HETATM   21  C   UNL     1      -8.564   4.538  65.091  1.00  0.00    -0.131 C  
HETATM   22  C   UNL     1      -9.423   4.386  63.845  1.00  0.00    -0.076 C  
HETATM   23  C   UNL     1      -8.805   5.924  65.746  1.00  0.00    -0.139 C  
HETATM   24  O   UNL     1     -10.520   3.611  63.957  1.00  0.00    -0.236 OA 
HETATM   25  O   UNL     1      -9.160   4.958  62.794  1.00  0.00    -0.116 OA 
ENDBRANCH  16  17
ENDBRANCH  15  16
ENDBRANCH   8  15
ENDBRANCH   3   7
TORSDOF 5
ENDMDL
MODEL      245
REMARK 921   NORMALIZED FREE ENERGY PREDICTED BY IDOCK:   -3.23 KCAL/MOL
REMARK 922        TOTAL FREE ENERGY PREDICTED BY IDOCK:   -5.67 KCAL/MOL
REMARK 923 INTER-LIGAND FREE ENERGY PREDICTED BY IDOCK:   -4.55 KCAL/MOL
REMARK 924 INTRA-LIGAND FREE ENERGY PREDICTED BY IDOCK:   -1.12 KCAL/MOL
REMARK 927      BINDING AFFINITY PREDICTED BY RF-SCORE:    0.00 PKD
ROOT
HETATM    1  C   UNL     1     -10.683  15.687  65.085  1.00  0.00    -0.463 C  
HETATM    2  C   UNL     1     -10.691  14.210  65.326  1.00  0.00    -0.374 A  
HETATM    3  C   UNL     1     -10.341  13.522  66.501  1.00  0.00    -0.282 A  
HETATM    4  C   UNL     1     -10.953  11.989  64.625  1.00  0.00    -0.317 A  
HETATM    5  S   UNL     1     -10.464  11.810  66.247  1.00  0.00    -0.254 SA 
HETATM    6  C   UNL     1     -11.041  13.307  64.261  1.00  0.00    -0.414 A  
ENDROOT
BRANCH   3   7
HETATM    7  C   UNL     1      -9.854  13.976  67.796  1.00  0.00    -0.232 C  
HETATM    8  C   UNL     1      -8.551  13.773  68.120  1.00  0.00    -0.175 C  
BRANCH   7   9
HETATM    9  C   UNL     1     -10.696  14.724  68.733  1.00  0.00    -0.253 A  
HETATM   10  C   UNL     1     -11.689  14.333  69.649  1.00  0.00    -0.362 A  
HETATM   11  C   UNL     1     -11.617  16.640  70.071  1.00  0.00     0.406 A  
HETATM   12  C   UNL     1     -12.212  15.451  70.395  1.00  0.00    -0.430 A  
HETATM   13  S   UNL     1     -10.451  16.449  68.855  1.00  0.00    -0.307 SA 
HETATM   14  C   UNL     1     -12.220  12.960  69.938  1.00  0.00    -0.258 C  
ENDBRANCH   7   9
BRANCH   8  15
HETATM   15  C   UNL     1      -7.456  13.221  67.227  1.00  0.00    -0.069 C  
BRANCH  15  16
HETATM   16  C   UNL     1      -6.053  13.083  67.902  1.00  0.00    -0.131 C  
BRANCH  16  17
HETATM   17  N   UNL     1      -5.723  11.680  68.206  1.00  0.00    -0.045 NA 
HETATM   18  C   UNL     1      -6.580  11.025  69.181  1.00  0.00    -0.077 C  
HETATM   19  C   UNL     1      -7.677  10.201  68.525  1.00  0.00    -0.090 C  
HETATM   20  C   UNL     1      -7.051   9.043  67.772  1.00  0.00    -0.079 C  
HETATM   21  C   UNL     1      -5.987   9.503  66.772  1.00  0.00    -0.059 C  
HETATM   22  C   UNL     1      -6.407   9.458  65.311  1.00  0.00    -0.067 C  
HETATM   23  C   UNL     1      -5.270  10.843  67.085  1.00  0.00    -0.046 C  
HETATM   24  O   UNL     1      -7.712   9.669  65.049  1.00  0.00    -0.109 OA 
HETATM   25  O   UNL     1      -5.604   9.272  64.403  1.00  0.00    -0.065 OA 
ENDBRANCH  16  17
ENDBRANCH  15  16
ENDBRANCH   8  15
ENDBRANCH   3   7
TORSDOF 5
ENDMDL
MODEL      246
REMARK 921   NORMALIZED FREE ENERGY PREDICTED BY IDOCK:   -3.22 KCAL/MOL
REMARK 922        TOTAL FREE ENERGY PREDICTED BY IDOCK:   -5.66 KCAL/MOL
REMARK 923 INTER-LIGAND FREE ENERGY PREDICTED BY IDOCK:   -4.63 KCAL/MOL
REMARK 924 INTRA-LIGAND FREE ENERGY PREDICTED BY IDOCK:   -1.03 KCAL/MOL
REMARK 927      BINDING AFFINITY PREDICTED BY RF-SCORE:    0.00 PKD
ROOT
HETATM    1  C   UNL     1      -7.766  10.186  65.276  1.00  0.00    -0.144 C  
HETATM    2  C   UNL     1      -7.523  10.194  66.751  1.00  0.00    -0.104 A  
HETATM    3  C   UNL     1      -8.227   9.500  67.750  1.00  0.00    -0.114 A  
HETATM    4  C   UNL     1      -6.423  10.961  68.673  1.00  0.00    -0.055 A  
HETATM    5  S   UNL     1      -7.586   9.895  69.314  1.00  0.00    -0.113 SA 
HETATM    6  C   UNL     1      -6.488  11.027  67.306  1.00  0.00    -0.073 A  
ENDROOT
BRANCH   3   7
HETATM    7  C   UNL     1      -9.381   8.614  67.702  1.00  0.00    -0.157 C  
HETATM    8  C   UNL     1     -10.616   9.146  67.518  1.00  0.00    -0.317 C  
BRANCH   7   9
HETATM    9  C   UNL     1      -9.253   7.155  67.757  1.00  0.00    -0.125 A  
HETATM   10  C   UNL     1      -9.107   6.247  68.821  1.00  0.00    -0.127 A  
HETATM   11  C   UNL     1      -9.203   4.757  67.011  1.00  0.00    -0.126 A  
HETATM   12  C   UNL     1      -9.067   4.878  68.367  1.00  0.00    -0.141 A  
HETATM   13  S   UNL     1      -9.349   6.268  66.255  1.00  0.00    -0.085 SA 
HETATM   14  C   UNL     1      -9.017   6.522  70.293  1.00  0.00    -0.155 C  
ENDBRANCH   7   9
BRANCH   8  15
HETATM   15  C   UNL     1     -10.960  10.593  67.221  1.00  0.00    -0.348 C  
BRANCH  15  16
HETATM   16  C   UNL     1     -10.728  11.588  68.404  1.00  0.00    -0.208 C  
BRANCH  16  17
HETATM   17  N   UNL     1     -10.226  12.892  67.938  1.00  0.00    -0.227 NA 
HETATM   18  C   UNL     1     -10.734  13.343  66.652  1.00  0.00    -0.282 C  
HETATM   19  C   UNL     1     -11.906  14.301  66.798  1.00  0.00    -0.449 C  
HETATM   20  C   UNL     1     -11.427  15.581  67.455  1.00  0.00    -0.184 C  
HETATM   21  C   UNL     1     -10.713  15.323  68.785  1.00  0.00    -0.241 C  
HETATM   22  C   UNL     1     -11.511  15.677  70.030  1.00  0.00    -0.344 C  
HETATM   23  C   UNL     1     -10.037  13.937  68.955  1.00  0.00    -0.098 C  
HETATM   24  O   UNL     1     -12.850  15.545  69.949  1.00  0.00    -0.172 OA 
HETATM   25  O   UNL     1     -10.975  16.036  71.072  1.00  0.00    -0.246 OA 
ENDBRANCH  16  17
ENDBRANCH  15  16
ENDBRANCH   8  15
ENDBRANCH   3   7
TORSDOF 5
ENDMDL
MODEL      247
REMARK 921   NORMALIZED FREE ENERGY PREDICTED BY IDOCK:   -3.20 KCAL/MOL
REMARK 922        TOTAL FREE ENERGY PREDICTED BY IDOCK:   -5.64 KCAL/MOL
REMARK 923 INTER-LIGAND FREE ENERGY PREDICTED BY IDOCK:   -5.51 KCAL/MOL
REMARK 924 INTRA-LIGAND FREE ENERGY PREDICTED BY IDOCK:   -0.13 KCAL/MOL
REMARK 927      BINDING AFFINITY PREDICTED BY RF-SCORE:    0.00 PKD
ROOT
HETATM    1  C   UNL     1      -6.041  14.275  70.725  1.00  0.00    -0.174 C  
HETATM    2  C   UNL     1      -6.494  13.776  69.389  1.00  0.00    -0.111 A  
HETATM    3  C   UNL     1      -7.664  14.115  68.688  1.00  0.00    -0.135 A  
HETATM    4  C   UNL     1      -6.287  12.399  67.505  1.00  0.00    -0.148 A  
HETATM    5  S   UNL     1      -7.751  13.215  67.206  1.00  0.00    -0.038 SA 
HETATM    6  C   UNL     1      -5.716  12.789  68.687  1.00  0.00    -0.067 A  
ENDROOT
BRANCH   3   7
HETATM    7  C   UNL     1      -8.783  14.988  69.010  1.00  0.00    -0.203 C  
HETATM    8  C   UNL     1      -8.614  16.333  68.943  1.00  0.00    -0.260 C  
BRANCH   7   9
HETATM    9  C   UNL     1     -10.118  14.469  69.321  1.00  0.00    -0.071 A  
HETATM   10  C   UNL     1     -11.193  14.981  70.070  1.00  0.00    -0.301 A  
HETATM   11  C   UNL     1     -12.144  12.984  69.287  1.00  0.00    -0.200 A  
HETATM   12  C   UNL     1     -12.339  14.105  70.047  1.00  0.00    -0.403 A  
HETATM   13  S   UNL     1     -10.587  12.942  68.615  1.00  0.00    -0.201 SA 
HETATM   14  C   UNL     1     -11.286  16.272  70.829  1.00  0.00    -0.327 C  
ENDBRANCH   7   9
BRANCH   8  15
HETATM   15  C   UNL     1      -7.395  17.083  68.439  1.00  0.00    -0.213 C  
BRANCH  15  16
HETATM   16  C   UNL     1      -6.985  16.771  66.964  1.00  0.00    -0.207 C  
BRANCH  16  17
HETATM   17  N   UNL     1      -7.930  17.348  65.993  1.00  0.00    -0.523 NA 
HETATM   18  C   UNL     1      -9.051  16.500  65.621  1.00  0.00     0.200 C  
HETATM   19  C   UNL     1     -10.306  16.816  66.420  1.00  0.00    -0.309 C  
HETATM   20  C   UNL     1     -10.786  18.211  66.065  1.00  0.00    -0.164 C  
HETATM   21  C   UNL     1      -9.694  19.269  66.248  1.00  0.00    -0.430 C  
HETATM   22  C   UNL     1      -9.852  20.162  67.468  1.00  0.00    -0.435 C  
HETATM   23  C   UNL     1      -8.226  18.782  66.122  1.00  0.00    -0.190 C  
HETATM   24  O   UNL     1     -10.442  19.613  68.547  1.00  0.00    -0.392 OA 
HETATM   25  O   UNL     1      -9.439  21.316  67.493  1.00  0.00    -0.205 OA 
ENDBRANCH  16  17
ENDBRANCH  15  16
ENDBRANCH   8  15
ENDBRANCH   3   7
TORSDOF 5
ENDMDL
MODEL      248
REMARK 921   NORMALIZED FREE ENERGY PREDICTED BY IDOCK:   -3.16 KCAL/MOL
REMARK 922        TOTAL FREE ENERGY PREDICTED BY IDOCK:   -5.58 KCAL/MOL
REMARK 923 INTER-LIGAND FREE ENERGY PREDICTED BY IDOCK:   -4.08 KCAL/MOL
REMARK 924 INTRA-LIGAND FREE ENERGY PREDICTED BY IDOCK:   -1.50 KCAL/MOL
REMARK 927      BINDING AFFINITY PREDICTED BY RF-SCORE:    0.00 PKD
ROOT
HETATM    1  C   UNL     1      -6.088  10.325  69.859  1.00  0.00    -0.062 C  
HETATM    2  C   UNL     1      -6.908  11.416  69.247  1.00  0.00    -0.119 A  
HETATM    3  C   UNL     1      -8.243  11.358  68.813  1.00  0.00    -0.107 A  
HETATM    4  C   UNL     1      -7.182  13.578  68.386  1.00  0.00    -0.109 A  
HETATM    5  S   UNL     1      -8.712  12.879  68.123  1.00  0.00    -0.179 SA 
HETATM    6  C   UNL     1      -6.318  12.705  68.993  1.00  0.00    -0.092 A  
ENDROOT
BRANCH   3   7
HETATM    7  C   UNL     1      -9.219  10.277  68.782  1.00  0.00    -0.166 C  
HETATM    8  C   UNL     1      -9.290   9.482  67.684  1.00  0.00    -0.141 C  
BRANCH   7   9
HETATM    9  C   UNL     1     -10.072   9.958  69.930  1.00  0.00    -0.257 A  
HETATM   10  C   UNL     1     -11.318  10.447  70.361  1.00  0.00    -0.417 A  
HETATM   11  C   UNL     1     -10.935   8.796  71.982  1.00  0.00    -0.368 A  
HETATM   12  C   UNL     1     -11.786   9.775  71.548  1.00  0.00    -0.476 A  
HETATM   13  S   UNL     1      -9.554   8.682  71.004  1.00  0.00    -0.230 SA 
HETATM   14  C   UNL     1     -12.178  11.513  69.748  1.00  0.00    -0.310 C  
ENDBRANCH   7   9
BRANCH   8  15
HETATM   15  C   UNL     1      -8.367   9.491  66.480  1.00  0.00    -0.119 C  
BRANCH  15  16
HETATM   16  C   UNL     1      -8.898   8.723  65.228  1.00  0.00    -0.162 C  
BRANCH  16  17
HETATM   17  N   UNL     1      -8.390   7.341  65.171  1.00  0.00    -0.113 NA 
HETATM   18  C   UNL     1      -7.032   7.187  64.676  1.00  0.00    -0.051 C  
HETATM   19  C   UNL     1      -6.015   7.085  65.801  1.00  0.00    -0.036 C  
HETATM   20  C   UNL     1      -6.254   5.804  66.577  1.00  0.00    -0.034 C  
HETATM   21  C   UNL     1      -7.696   5.686  67.079  1.00  0.00    -0.101 C  
HETATM   22  C   UNL     1      -7.888   5.930  68.568  1.00  0.00    -0.102 C  
HETATM   23  C   UNL     1      -8.780   6.441  66.265  1.00  0.00    -0.143 C  
HETATM   24  O   UNL     1      -7.042   6.800  69.153  1.00  0.00    -0.082 OA 
HETATM   25  O   UNL     1      -8.783   5.392  69.210  1.00  0.00    -0.101 OA 
ENDBRANCH  16  17
ENDBRANCH  15  16
ENDBRANCH   8  15
ENDBRANCH   3   7
TORSDOF 5
ENDMDL
MODEL      249
REMARK 921   NORMALIZED FREE ENERGY PREDICTED BY IDOCK:   -3.14 KCAL/MOL
REMARK 922        TOTAL FREE ENERGY PREDICTED BY IDOCK:   -5.55 KCAL/MOL
REMARK 923 INTER-LIGAND FREE ENERGY PREDICTED BY IDOCK:   -4.29 KCAL/MOL
REMARK 924 INTRA-LIGAND FREE ENERGY PREDICTED BY IDOCK:   -1.26 KCAL/MOL
REMARK 927      BINDING AFFINITY PREDICTED BY RF-SCORE:    0.00 PKD
ROOT
HETATM    1  C   UNL     1     -10.861   7.391  67.204  1.00  0.00    -0.340 C  
HETATM    2  C   UNL     1     -10.141   8.221  68.219  1.00  0.00    -0.231 A  
HETATM    3  C   UNL     1      -9.422   7.784  69.344  1.00  0.00    -0.156 A  
HETATM    4  C   UNL     1      -9.517  10.274  69.163  1.00  0.00    -0.215 A  
HETATM    5  S   UNL     1      -8.825   9.147  70.236  1.00  0.00    -0.233 SA 
HETATM    6  C   UNL     1     -10.180   9.658  68.134  1.00  0.00    -0.225 A  
ENDROOT
BRANCH   3   7
HETATM    7  C   UNL     1      -9.169   6.459  69.893  1.00  0.00    -0.154 C  
HETATM    8  C   UNL     1      -8.242   5.664  69.300  1.00  0.00    -0.096 C  
BRANCH   7   9
HETATM    9  C   UNL     1      -9.815   5.982  71.119  1.00  0.00    -0.179 A  
HETATM   10  C   UNL     1     -11.117   6.124  71.632  1.00  0.00    -0.330 A  
HETATM   11  C   UNL     1     -10.167   4.751  73.280  1.00  0.00    -0.169 A  
HETATM   12  C   UNL     1     -11.291   5.421  72.879  1.00  0.00    -0.365 A  
HETATM   13  S   UNL     1      -8.881   4.974  72.196  1.00  0.00    -0.129 SA 
HETATM   14  C   UNL     1     -12.286   6.863  71.050  1.00  0.00    -0.427 C  
ENDBRANCH   7   9
BRANCH   8  15
HETATM   15  C   UNL     1      -7.306   6.030  68.165  1.00  0.00    -0.085 C  
BRANCH  15  16
HETATM   16  C   UNL     1      -7.805   5.636  66.737  1.00  0.00    -0.101 C  
BRANCH  16  17
HETATM   17  N   UNL     1      -8.312   4.254  66.691  1.00  0.00    -0.102 NA 
HETATM   18  C   UNL     1      -9.710   4.105  66.324  1.00  0.00    -0.206 C  
HETATM   19  C   UNL     1      -9.891   3.791  64.847  1.00  0.00    -0.183 C  
HETATM   20  C   UNL     1      -9.302   2.424  64.552  1.00  0.00    -0.139 C  
HETATM   21  C   UNL     1      -7.843   2.307  65.001  1.00  0.00    -0.077 C  
HETATM   22  C   UNL     1      -6.813   2.343  63.883  1.00  0.00    -0.036 C  
HETATM   23  C   UNL     1      -7.399   3.225  66.171  1.00  0.00    -0.072 C  
HETATM   24  O   UNL     1      -7.125   3.076  62.796  1.00  0.00    -0.034 OA 
HETATM   25  O   UNL     1      -5.736   1.763  63.964  1.00  0.00    -0.008 OA 
ENDBRANCH  16  17
ENDBRANCH  15  16
ENDBRANCH   8  15
ENDBRANCH   3   7
TORSDOF 5
ENDMDL
MODEL      250
REMARK 921   NORMALIZED FREE ENERGY PREDICTED BY IDOCK:   -3.12 KCAL/MOL
REMARK 922        TOTAL FREE ENERGY PREDICTED BY IDOCK:   -5.53 KCAL/MOL
REMARK 923 INTER-LIGAND FREE ENERGY PREDICTED BY IDOCK:   -4.57 KCAL/MOL
REMARK 924 INTRA-LIGAND FREE ENERGY PREDICTED BY IDOCK:   -0.95 KCAL/MOL
REMARK 927      BINDING AFFINITY PREDICTED BY RF-SCORE:    0.00 PKD
ROOT
HETATM    1  C   UNL     1      -7.645   9.786  70.143  1.00  0.00    -0.180 C  
HETATM    2  C   UNL     1      -8.419   9.560  68.883  1.00  0.00    -0.123 A  
HETATM    3  C   UNL     1      -9.773   9.205  68.749  1.00  0.00    -0.162 A  
HETATM    4  C   UNL     1      -8.591   9.369  66.554  1.00  0.00    -0.134 A  
HETATM    5  S   UNL     1     -10.173   9.007  67.072  1.00  0.00    -0.267 SA 
HETATM    6  C   UNL     1      -7.761   9.651  67.606  1.00  0.00    -0.095 A  
ENDROOT
BRANCH   3   7
HETATM    7  C   UNL     1     -10.815   8.923  69.726  1.00  0.00    -0.207 C  
HETATM    8  C   UNL     1     -11.008   7.644  70.136  1.00  0.00    -0.255 C  
BRANCH   7   9
HETATM    9  C   UNL     1     -11.610   9.983  70.352  1.00  0.00    -0.302 A  
HETATM   10  C   UNL     1     -12.471  10.003  71.465  1.00  0.00    -0.516 A  
HETATM   11  C   UNL     1     -12.530  12.267  70.851  1.00  0.00    -0.276 A  
HETATM   12  C   UNL     1     -12.997  11.320  71.723  1.00  0.00    -0.519 A  
HETATM   13  S   UNL     1     -11.484  11.597  69.696  1.00  0.00    -0.269 SA 
HETATM   14  C   UNL     1     -12.864   8.877  72.375  1.00  0.00    -0.446 C  
ENDBRANCH   7   9
BRANCH   8  15
HETATM   15  C   UNL     1     -10.167   6.430  69.790  1.00  0.00    -0.226 C  
BRANCH  15  16
HETATM   16  C   UNL     1      -8.821   6.306  70.574  1.00  0.00    -0.144 C  
BRANCH  16  17
HETATM   17  N   UNL     1      -7.686   6.017  69.680  1.00  0.00    -0.095 NA 
HETATM   18  C   UNL     1      -6.373   6.025  70.303  1.00  0.00    -0.032 C  
HETATM   19  C   UNL     1      -5.905   4.629  70.684  1.00  0.00    -0.017 C  
HETATM   20  C   UNL     1      -5.693   3.812  69.425  1.00  0.00    -0.018 C  
HETATM   21  C   UNL     1      -6.933   3.788  68.527  1.00  0.00    -0.050 C  
HETATM   22  C   UNL     1      -7.716   2.485  68.535  1.00  0.00    -0.054 C  
HETATM   23  C   UNL     1      -7.898   4.998  68.642  1.00  0.00    -0.078 C  
HETATM   24  O   UNL     1      -7.704   1.778  69.682  1.00  0.00    -0.042 OA 
HETATM   25  O   UNL     1      -8.357   2.100  67.564  1.00  0.00    -0.066 OA 
ENDBRANCH  16  17
ENDBRANCH  15  16
ENDBRANCH   8  15
ENDBRANCH   3   7
TORSDOF 5
ENDMDL
MODEL      251
REMARK 921   NORMALIZED FREE ENERGY PREDICTED BY IDOCK:   -3.09 KCAL/MOL
REMARK 922        TOTAL FREE ENERGY PREDICTED BY IDOCK:   -5.50 KCAL/MOL
REMARK 923 INTER-LIGAND FREE ENERGY PREDICTED BY IDOCK:   -6.24 KCAL/MOL
REMARK 924 INTRA-LIGAND FREE ENERGY PREDICTED BY IDOCK:    0.74 KCAL/MOL
REMARK 927      BINDING AFFINITY PREDICTED BY RF-SCORE:    0.00 PKD
ROOT
HETATM    1  C   UNL     1      -9.330  11.008  63.545  1.00  0.00    -0.276 C  
HETATM    2  C   UNL     1      -9.318   9.959  64.611  1.00  0.00    -0.338 A  
HETATM    3  C   UNL     1      -9.952   9.990  65.865  1.00  0.00    -0.269 A  
HETATM    4  C   UNL     1      -8.599   7.920  65.514  1.00  0.00    -0.116 A  
HETATM    5  S   UNL     1      -9.580   8.548  66.756  1.00  0.00    -0.232 SA 
HETATM    6  C   UNL     1      -8.548   8.757  64.430  1.00  0.00    -0.110 A  
ENDROOT
BRANCH   3   7
HETATM    7  C   UNL     1     -10.762  11.000  66.530  1.00  0.00    -0.298 C  
HETATM    8  C   UNL     1     -11.237  10.751  67.778  1.00  0.00    -0.385 C  
BRANCH   7   9
HETATM    9  C   UNL     1     -11.014  12.318  65.940  1.00  0.00    -0.302 A  
HETATM   10  C   UNL     1     -10.326  13.543  66.005  1.00  0.00    -0.303 A  
HETATM   11  C   UNL     1     -12.059  14.116  64.532  1.00  0.00    -0.468 A  
HETATM   12  C   UNL     1     -10.952  14.563  65.200  1.00  0.00    -0.387 A  
HETATM   13  S   UNL     1     -12.388  12.488  64.875  1.00  0.00    -0.414 SA 
HETATM   14  C   UNL     1      -9.072  13.884  66.755  1.00  0.00    -0.238 C  
ENDBRANCH   7   9
BRANCH   8  15
HETATM   15  C   UNL     1     -10.923   9.558  68.660  1.00  0.00    -0.113 C  
BRANCH  15  16
HETATM   16  C   UNL     1     -11.306   9.724  70.166  1.00  0.00    -0.251 C  
BRANCH  16  17
HETATM   17  N   UNL     1     -11.165   8.464  70.914  1.00  0.00    -0.258 NA 
HETATM   18  C   UNL     1     -12.019   7.371  70.479  1.00  0.00    -0.108 C  
HETATM   19  C   UNL     1     -11.304   6.419  69.533  1.00  0.00    -0.460 C  
HETATM   20  C   UNL     1     -10.187   5.717  70.281  1.00  0.00    -0.311 C  
HETATM   21  C   UNL     1      -9.228   6.700  70.957  1.00  0.00    -0.160 C  
HETATM   22  C   UNL     1      -7.877   6.861  70.279  1.00  0.00    -0.109 C  
HETATM   23  C   UNL     1      -9.808   8.088  71.338  1.00  0.00    -0.171 C  
HETATM   24  O   UNL     1      -7.849   6.709  68.940  1.00  0.00    -0.107 OA 
HETATM   25  O   UNL     1      -6.860   7.145  70.902  1.00  0.00    -0.052 OA 
ENDBRANCH  16  17
ENDBRANCH  15  16
ENDBRANCH   8  15
ENDBRANCH   3   7
TORSDOF 5
ENDMDL
MODEL      252
REMARK 921   NORMALIZED FREE ENERGY PREDICTED BY IDOCK:   -3.07 KCAL/MOL
REMARK 922        TOTAL FREE ENERGY PREDICTED BY IDOCK:   -5.47 KCAL/MOL
REMARK 923 INTER-LIGAND FREE ENERGY PREDICTED BY IDOCK:   -4.18 KCAL/MOL
REMARK 924 INTRA-LIGAND FREE ENERGY PREDICTED BY IDOCK:   -1.29 KCAL/MOL
REMARK 927      BINDING AFFINITY PREDICTED BY RF-SCORE:    0.00 PKD
ROOT
HETATM    1  C   UNL     1      -6.871   7.539  68.808  1.00  0.00    -0.065 C  
HETATM    2  C   UNL     1      -8.037   8.136  68.086  1.00  0.00    -0.128 A  
HETATM    3  C   UNL     1      -9.402   7.850  68.258  1.00  0.00    -0.143 A  
HETATM    4  C   UNL     1      -8.981   9.512  66.441  1.00  0.00    -0.154 A  
HETATM    5  S   UNL     1     -10.350   8.773  67.134  1.00  0.00    -0.287 SA 
HETATM    6  C   UNL     1      -7.819   9.098  67.037  1.00  0.00    -0.102 A  
ENDROOT
BRANCH   3   7
HETATM    7  C   UNL     1     -10.108   6.912  69.119  1.00  0.00    -0.180 C  
HETATM    8  C   UNL     1     -10.210   5.613  68.739  1.00  0.00    -0.269 C  
BRANCH   7   9
HETATM    9  C   UNL     1     -10.640   7.299  70.429  1.00  0.00    -0.226 A  
HETATM   10  C   UNL     1     -10.086   7.994  71.520  1.00  0.00    -0.228 A  
HETATM   11  C   UNL     1     -12.269   7.652  72.308  1.00  0.00    -0.221 A  
HETATM   12  C   UNL     1     -11.035   8.172  72.590  1.00  0.00    -0.440 A  
HETATM   13  S   UNL     1     -12.308   6.918  70.779  1.00  0.00    -0.144 SA 
HETATM   14  C   UNL     1      -8.705   8.559  71.677  1.00  0.00    -0.262 C  
ENDBRANCH   7   9
BRANCH   8  15
HETATM   15  C   UNL     1      -9.554   4.950  67.543  1.00  0.00    -0.179 C  
BRANCH  15  16
HETATM   16  C   UNL     1     -10.422   4.913  66.244  1.00  0.00    -0.304 C  
BRANCH  16  17
HETATM   17  N   UNL     1     -10.138   3.723  65.424  1.00  0.00    -0.088 NA 
HETATM   18  C   UNL     1     -10.589   3.785  64.043  1.00  0.00    -0.262 C  
HETATM   19  C   UNL     1      -9.480   4.206  63.091  1.00  0.00    -0.139 C  
HETATM   20  C   UNL     1      -8.409   3.133  63.065  1.00  0.00    -0.078 C  
HETATM   21  C   UNL     1      -7.883   2.797  64.463  1.00  0.00    -0.078 C  
HETATM   22  C   UNL     1      -6.501   3.341  64.786  1.00  0.00    -0.031 C  
HETATM   23  C   UNL     1      -8.852   3.049  65.649  1.00  0.00    -0.138 C  
HETATM   24  O   UNL     1      -6.156   4.505  64.200  1.00  0.00    -0.017 OA 
HETATM   25  O   UNL     1      -5.738   2.777  65.562  1.00  0.00    -0.016 OA 
ENDBRANCH  16  17
ENDBRANCH  15  16
ENDBRANCH   8  15
ENDBRANCH   3   7
TORSDOF 5
ENDMDL
MODEL      253
REMARK 921   NORMALIZED FREE ENERGY PREDICTED BY IDOCK:   -3.07 KCAL/MOL
REMARK 922        TOTAL FREE ENERGY PREDICTED BY IDOCK:   -5.46 KCAL/MOL
REMARK 923 INTER-LIGAND FREE ENERGY PREDICTED BY IDOCK:   -4.42 KCAL/MOL
REMARK 924 INTRA-LIGAND FREE ENERGY PREDICTED BY IDOCK:   -1.04 KCAL/MOL
REMARK 927      BINDING AFFINITY PREDICTED BY RF-SCORE:    0.00 PKD
ROOT
HETATM    1  C   UNL     1      -6.256  10.533  70.614  1.00  0.00    -0.065 C  
HETATM    2  C   UNL     1      -6.685   9.341  69.819  1.00  0.00    -0.051 A  
HETATM    3  C   UNL     1      -7.789   8.501  70.043  1.00  0.00    -0.102 A  
HETATM    4  C   UNL     1      -6.395   7.771  68.103  1.00  0.00    -0.050 A  
HETATM    5  S   UNL     1      -7.814   7.224  68.869  1.00  0.00    -0.119 SA 
HETATM    6  C   UNL     1      -5.899   8.903  68.695  1.00  0.00    -0.041 A  
ENDROOT
BRANCH   3   7
HETATM    7  C   UNL     1      -8.814   8.482  71.078  1.00  0.00    -0.212 C  
HETATM    8  C   UNL     1      -9.866   9.334  70.982  1.00  0.00    -0.355 C  
BRANCH   7   9
HETATM    9  C   UNL     1      -8.799   7.513  72.178  1.00  0.00    -0.125 A  
HETATM   10  C   UNL     1      -7.853   7.211  73.174  1.00  0.00    -0.110 A  
HETATM   11  C   UNL     1      -9.587   5.756  73.790  1.00  0.00    -0.144 A  
HETATM   12  C   UNL     1      -8.321   6.190  74.078  1.00  0.00    -0.115 A  
HETATM   13  S   UNL     1     -10.223   6.532  72.423  1.00  0.00    -0.187 SA 
HETATM   14  C   UNL     1      -6.498   7.812  73.403  1.00  0.00    -0.075 C  
ENDBRANCH   7   9
BRANCH   8  15
HETATM   15  C   UNL     1     -10.197  10.262  69.829  1.00  0.00    -0.262 C  
BRANCH  15  16
HETATM   16  C   UNL     1     -10.296   9.575  68.429  1.00  0.00    -0.206 C  
BRANCH  16  17
HETATM   17  N   UNL     1      -9.451  10.245  67.425  1.00  0.00    -0.152 NA 
HETATM   18  C   UNL     1      -9.358   9.583  66.134  1.00  0.00    -0.198 C  
HETATM   19  C   UNL     1     -10.326  10.164  65.115  1.00  0.00    -0.109 C  
HETATM   20  C   UNL     1      -9.928  11.595  64.807  1.00  0.00    -0.292 C  
HETATM   21  C   UNL     1      -9.819  12.456  66.069  1.00  0.00    -0.268 C  
HETATM   22  C   UNL     1     -10.958  13.440  66.284  1.00  0.00    -0.288 C  
HETATM   23  C   UNL     1      -9.491  11.713  67.392  1.00  0.00    -0.167 C  
HETATM   24  O   UNL     1     -12.170  13.074  65.823  1.00  0.00    -0.434 OA 
HETATM   25  O   UNL     1     -10.802  14.504  66.873  1.00  0.00    -0.294 OA 
ENDBRANCH  16  17
ENDBRANCH  15  16
ENDBRANCH   8  15
ENDBRANCH   3   7
TORSDOF 5
ENDMDL
MODEL      254
REMARK 921   NORMALIZED FREE ENERGY PREDICTED BY IDOCK:   -3.05 KCAL/MOL
REMARK 922        TOTAL FREE ENERGY PREDICTED BY IDOCK:   -5.44 KCAL/MOL
REMARK 923 INTER-LIGAND FREE ENERGY PREDICTED BY IDOCK:   -3.96 KCAL/MOL
REMARK 924 INTRA-LIGAND FREE ENERGY PREDICTED BY IDOCK:   -1.48 KCAL/MOL
REMARK 927      BINDING AFFINITY PREDICTED BY RF-SCORE:    0.00 PKD
ROOT
HETATM    1  C   UNL     1      -6.805   6.042  68.002  1.00  0.00    -0.063 C  
HETATM    2  C   UNL     1      -8.196   5.775  67.524  1.00  0.00    -0.101 A  
HETATM    3  C   UNL     1      -9.191   6.708  67.184  1.00  0.00    -0.126 A  
HETATM    4  C   UNL     1      -9.981   4.344  67.012  1.00  0.00    -0.157 A  
HETATM    5  S   UNL     1     -10.654   5.885  66.743  1.00  0.00    -0.278 SA 
HETATM    6  C   UNL     1      -8.674   4.421  67.415  1.00  0.00    -0.110 A  
ENDROOT
BRANCH   3   7
HETATM    7  C   UNL     1      -9.220   8.163  67.206  1.00  0.00    -0.165 C  
HETATM    8  C   UNL     1      -9.273   8.805  68.401  1.00  0.00    -0.137 C  
BRANCH   7   9
HETATM    9  C   UNL     1      -9.104   8.969  65.987  1.00  0.00    -0.208 A  
HETATM   10  C   UNL     1      -8.312   8.847  64.831  1.00  0.00    -0.181 A  
HETATM   11  C   UNL     1      -9.580  10.739  64.270  1.00  0.00    -0.283 A  
HETATM   12  C   UNL     1      -8.593   9.881  63.867  1.00  0.00    -0.202 A  
HETATM   13  S   UNL     1     -10.164  10.345  65.813  1.00  0.00    -0.200 SA 
HETATM   14  C   UNL     1      -7.283   7.808  64.496  1.00  0.00    -0.073 C  
ENDBRANCH   7   9
BRANCH   8  15
HETATM   15  C   UNL     1      -9.182   8.187  69.783  1.00  0.00    -0.151 C  
BRANCH  15  16
HETATM   16  C   UNL     1      -9.345   9.187  70.973  1.00  0.00    -0.263 C  
BRANCH  16  17
HETATM   17  N   UNL     1      -8.819   8.636  72.233  1.00  0.00    -0.364 NA 
HETATM   18  C   UNL     1      -9.816   8.196  73.195  1.00  0.00    -0.197 C  
HETATM   19  C   UNL     1     -10.072   6.698  73.119  1.00  0.00    -0.213 C  
HETATM   20  C   UNL     1      -8.820   5.954  73.543  1.00  0.00    -0.125 C  
HETATM   21  C   UNL     1      -7.588   6.379  72.740  1.00  0.00    -0.102 C  
HETATM   22  C   UNL     1      -7.117   5.380  71.695  1.00  0.00    -0.072 C  
HETATM   23  C   UNL     1      -7.604   7.813  72.146  1.00  0.00    -0.082 C  
HETATM   24  O   UNL     1      -8.065   4.616  71.117  1.00  0.00    -0.084 OA 
HETATM   25  O   UNL     1      -5.942   5.284  71.362  1.00  0.00    -0.025 OA 
ENDBRANCH  16  17
ENDBRANCH  15  16
ENDBRANCH   8  15
ENDBRANCH   3   7
TORSDOF 5
ENDMDL
MODEL      255
REMARK 921   NORMALIZED FREE ENERGY PREDICTED BY IDOCK:   -2.98 KCAL/MOL
REMARK 922        TOTAL FREE ENERGY PREDICTED BY IDOCK:   -5.35 KCAL/MOL
REMARK 923 INTER-LIGAND FREE ENERGY PREDICTED BY IDOCK:   -4.09 KCAL/MOL
REMARK 924 INTRA-LIGAND FREE ENERGY PREDICTED BY IDOCK:   -1.26 KCAL/MOL
REMARK 927      BINDING AFFINITY PREDICTED BY RF-SCORE:    0.00 PKD
ROOT
HETATM    1  C   UNL     1      -6.894   7.506  68.782  1.00  0.00    -0.065 C  
HETATM    2  C   UNL     1      -8.070   8.100  68.074  1.00  0.00    -0.128 A  
HETATM    3  C   UNL     1      -9.434   7.835  68.287  1.00  0.00    -0.147 A  
HETATM    4  C   UNL     1      -9.039   9.446  66.419  1.00  0.00    -0.161 A  
HETATM    5  S   UNL     1     -10.398   8.742  67.165  1.00  0.00    -0.287 SA 
HETATM    6  C   UNL     1      -7.867   9.032  66.996  1.00  0.00    -0.098 A  
ENDROOT
BRANCH   3   7
HETATM    7  C   UNL     1     -10.129   6.928  69.189  1.00  0.00    -0.180 C  
HETATM    8  C   UNL     1     -10.303   5.633  68.821  1.00  0.00    -0.288 C  
BRANCH   7   9
HETATM    9  C   UNL     1     -10.573   7.338  70.525  1.00  0.00    -0.222 A  
HETATM   10  C   UNL     1      -9.927   7.995  71.588  1.00  0.00    -0.237 A  
HETATM   11  C   UNL     1     -12.085   7.776  72.482  1.00  0.00    -0.202 A  
HETATM   12  C   UNL     1     -10.811   8.223  72.704  1.00  0.00    -0.381 A  
HETATM   13  S   UNL     1     -12.241   7.052  70.956  1.00  0.00    -0.338 SA 
HETATM   14  C   UNL     1      -8.510   8.480  71.678  1.00  0.00    -0.235 C  
ENDBRANCH   7   9
BRANCH   8  15
HETATM   15  C   UNL     1      -9.741   4.943  67.593  1.00  0.00    -0.197 C  
BRANCH  15  16
HETATM   16  C   UNL     1      -8.559   3.958  67.865  1.00  0.00    -0.097 C  
BRANCH  16  17
HETATM   17  N   UNL     1      -7.642   3.865  66.716  1.00  0.00    -0.083 NA 
HETATM   18  C   UNL     1      -6.761   2.709  66.702  1.00  0.00    -0.040 C  
HETATM   19  C   UNL     1      -7.304   1.578  65.843  1.00  0.00    -0.056 C  
HETATM   20  C   UNL     1      -7.329   2.020  64.392  1.00  0.00    -0.058 C  
HETATM   21  C   UNL     1      -8.099   3.329  64.193  1.00  0.00    -0.082 C  
HETATM   22  C   UNL     1      -9.473   3.184  63.559  1.00  0.00    -0.098 C  
HETATM   23  C   UNL     1      -8.164   4.289  65.409  1.00  0.00    -0.109 C  
HETATM   24  O   UNL     1     -10.142   2.043  63.819  1.00  0.00    -0.140 OA 
HETATM   25  O   UNL     1      -9.974   4.065  62.870  1.00  0.00    -0.158 OA 
ENDBRANCH  16  17
ENDBRANCH  15  16
ENDBRANCH   8  15
ENDBRANCH   3   7
TORSDOF 5
ENDMDL
MODEL      256
REMARK 921   NORMALIZED FREE ENERGY PREDICTED BY IDOCK:   -2.96 KCAL/MOL
REMARK 922        TOTAL FREE ENERGY PREDICTED BY IDOCK:   -5.32 KCAL/MOL
REMARK 923 INTER-LIGAND FREE ENERGY PREDICTED BY IDOCK:   -4.27 KCAL/MOL
REMARK 924 INTRA-LIGAND FREE ENERGY PREDICTED BY IDOCK:   -1.06 KCAL/MOL
REMARK 927      BINDING AFFINITY PREDICTED BY RF-SCORE:    0.00 PKD
ROOT
HETATM    1  C   UNL     1      -8.225   6.341  63.035  1.00  0.00    -0.011 C  
HETATM    2  C   UNL     1      -7.293   7.152  63.878  1.00  0.00    -0.088 A  
HETATM    3  C   UNL     1      -7.116   7.100  65.271  1.00  0.00    -0.060 A  
HETATM    4  C   UNL     1      -5.711   8.854  64.181  1.00  0.00    -0.069 A  
HETATM    5  S   UNL     1      -5.954   8.288  65.769  1.00  0.00    -0.041 SA 
HETATM    6  C   UNL     1      -6.471   8.167  63.272  1.00  0.00    -0.080 A  
ENDROOT
BRANCH   3   7
HETATM    7  C   UNL     1      -7.759   6.313  66.314  1.00  0.00    -0.099 C  
HETATM    8  C   UNL     1      -8.852   6.816  66.943  1.00  0.00    -0.120 C  
BRANCH   7   9
HETATM    9  C   UNL     1      -7.324   4.955  66.652  1.00  0.00    -0.082 A  
HETATM   10  C   UNL     1      -6.434   4.447  67.616  1.00  0.00    -0.042 A  
HETATM   11  C   UNL     1      -7.199   2.446  66.660  1.00  0.00    -0.057 A  
HETATM   12  C   UNL     1      -6.369   3.007  67.592  1.00  0.00    -0.036 A  
HETATM   13  S   UNL     1      -8.044   3.624  65.780  1.00  0.00    -0.093 SA 
HETATM   14  C   UNL     1      -5.609   5.191  68.624  1.00  0.00    -0.015 C  
ENDBRANCH   7   9
BRANCH   8  15
HETATM   15  C   UNL     1      -9.600   8.092  66.609  1.00  0.00    -0.295 C  
BRANCH  15  16
HETATM   16  C   UNL     1     -10.783   8.441  67.568  1.00  0.00    -0.137 C  
BRANCH  16  17
HETATM   17  N   UNL     1     -10.374   9.373  68.634  1.00  0.00    -0.198 NA 
HETATM   18  C   UNL     1     -10.742  10.764  68.432  1.00  0.00    -0.217 C  
HETATM   19  C   UNL     1     -12.026  11.134  69.159  1.00  0.00    -0.413 C  
HETATM   20  C   UNL     1     -11.796  11.043  70.656  1.00  0.00    -0.434 C  
HETATM   21  C   UNL     1     -11.255   9.676  71.082  1.00  0.00    -0.454 C  
HETATM   22  C   UNL     1     -12.258   8.767  71.775  1.00  0.00    -0.349 C  
HETATM   23  C   UNL     1     -10.454   8.881  70.017  1.00  0.00    -0.213 C  
HETATM   24  O   UNL     1     -13.547   8.893  71.403  1.00  0.00    -0.337 OA 
HETATM   25  O   UNL     1     -11.921   7.935  72.610  1.00  0.00    -0.327 OA 
ENDBRANCH  16  17
ENDBRANCH  15  16
ENDBRANCH   8  15
ENDBRANCH   3   7
TORSDOF 5
ENDMDL
MODEL      257
REMARK 921   NORMALIZED FREE ENERGY PREDICTED BY IDOCK:   -2.92 KCAL/MOL
REMARK 922        TOTAL FREE ENERGY PREDICTED BY IDOCK:   -5.27 KCAL/MOL
REMARK 923 INTER-LIGAND FREE ENERGY PREDICTED BY IDOCK:   -4.10 KCAL/MOL
REMARK 924 INTRA-LIGAND FREE ENERGY PREDICTED BY IDOCK:   -1.17 KCAL/MOL
REMARK 927      BINDING AFFINITY PREDICTED BY RF-SCORE:    0.00 PKD
ROOT
HETATM    1  C   UNL     1     -11.026   6.973  67.423  1.00  0.00    -0.336 C  
HETATM    2  C   UNL     1     -10.404   7.946  68.373  1.00  0.00    -0.235 A  
HETATM    3  C   UNL     1      -9.622   7.671  69.508  1.00  0.00    -0.163 A  
HETATM    4  C   UNL     1     -10.030  10.114  69.182  1.00  0.00    -0.210 A  
HETATM    5  S   UNL     1      -9.190   9.150  70.307  1.00  0.00    -0.237 SA 
HETATM    6  C   UNL     1     -10.623   9.359  68.204  1.00  0.00    -0.261 A  
ENDROOT
BRANCH   3   7
HETATM    7  C   UNL     1      -9.199   6.424  70.129  1.00  0.00    -0.160 C  
HETATM    8  C   UNL     1      -8.082   5.803  69.673  1.00  0.00    -0.104 C  
BRANCH   7   9
HETATM    9  C   UNL     1      -9.886   5.855  71.292  1.00  0.00    -0.176 A  
HETATM   10  C   UNL     1     -11.163   6.061  71.845  1.00  0.00    -0.338 A  
HETATM   11  C   UNL     1     -10.356   4.385  73.274  1.00  0.00    -0.173 A  
HETATM   12  C   UNL     1     -11.404   5.217  72.989  1.00  0.00    -0.381 A  
HETATM   13  S   UNL     1      -9.059   4.617  72.206  1.00  0.00    -0.127 SA 
HETATM   14  C   UNL     1     -12.250   6.990  71.391  1.00  0.00    -0.407 C  
ENDBRANCH   7   9
BRANCH   8  15
HETATM   15  C   UNL     1      -7.102   6.318  68.635  1.00  0.00    -0.082 C  
BRANCH  15  16
HETATM   16  C   UNL     1      -7.493   6.032  67.150  1.00  0.00    -0.084 C  
BRANCH  16  17
HETATM   17  N   UNL     1      -6.669   4.964  66.558  1.00  0.00    -0.052 NA 
HETATM   18  C   UNL     1      -5.713   4.333  67.453  1.00  0.00    -0.022 C  
HETATM   19  C   UNL     1      -6.245   3.038  68.048  1.00  0.00    -0.032 C  
HETATM   20  C   UNL     1      -6.420   2.015  66.941  1.00  0.00    -0.028 C  
HETATM   21  C   UNL     1      -7.293   2.536  65.797  1.00  0.00    -0.067 C  
HETATM   22  C   UNL     1      -8.702   1.966  65.743  1.00  0.00    -0.119 C  
HETATM   23  C   UNL     1      -7.326   4.073  65.591  1.00  0.00    -0.076 C  
HETATM   24  O   UNL     1      -9.266   1.633  66.921  1.00  0.00    -0.095 OA 
HETATM   25  O   UNL     1      -9.318   1.838  64.691  1.00  0.00    -0.131 OA 
ENDBRANCH  16  17
ENDBRANCH  15  16
ENDBRANCH   8  15
ENDBRANCH   3   7
TORSDOF 5
ENDMDL
MODEL      258
REMARK 921   NORMALIZED FREE ENERGY PREDICTED BY IDOCK:   -2.90 KCAL/MOL
REMARK 922        TOTAL FREE ENERGY PREDICTED BY IDOCK:   -5.25 KCAL/MOL
REMARK 923 INTER-LIGAND FREE ENERGY PREDICTED BY IDOCK:   -4.35 KCAL/MOL
REMARK 924 INTRA-LIGAND FREE ENERGY PREDICTED BY IDOCK:   -0.89 KCAL/MOL
REMARK 927      BINDING AFFINITY PREDICTED BY RF-SCORE:    0.00 PKD
ROOT
HETATM    1  C   UNL     1     -11.301   5.859  71.359  1.00  0.00    -0.247 C  
HETATM    2  C   UNL     1     -10.242   6.491  72.206  1.00  0.00    -0.203 A  
HETATM    3  C   UNL     1      -9.649   7.755  72.052  1.00  0.00    -0.168 A  
HETATM    4  C   UNL     1      -8.681   6.456  73.953  1.00  0.00    -0.125 A  
HETATM    5  S   UNL     1      -8.429   7.992  73.263  1.00  0.00    -0.243 SA 
HETATM    6  C   UNL     1      -9.671   5.762  73.308  1.00  0.00    -0.157 A  
ENDROOT
BRANCH   3   7
HETATM    7  C   UNL     1      -9.825   8.809  71.062  1.00  0.00    -0.293 C  
HETATM    8  C   UNL     1      -8.911   8.941  70.067  1.00  0.00    -0.165 C  
BRANCH   7   9
HETATM    9  C   UNL     1     -11.003   9.681  71.046  1.00  0.00    -0.361 A  
HETATM   10  C   UNL     1     -11.363  10.788  70.257  1.00  0.00    -0.374 A  
HETATM   11  C   UNL     1     -13.285  10.581  71.587  1.00  0.00    -0.391 A  
HETATM   12  C   UNL     1     -12.670  11.295  70.595  1.00  0.00    -0.314 A  
HETATM   13  S   UNL     1     -12.305   9.316  72.151  1.00  0.00    -0.286 SA 
HETATM   14  C   UNL     1     -10.596  11.449  69.151  1.00  0.00    -0.196 C  
ENDBRANCH   7   9
BRANCH   8  15
HETATM   15  C   UNL     1      -7.742   8.024  69.763  1.00  0.00    -0.101 C  
BRANCH  15  16
HETATM   16  C   UNL     1      -8.110   6.703  69.014  1.00  0.00    -0.116 C  
BRANCH  16  17
HETATM   17  N   UNL     1      -7.097   5.653  69.216  1.00  0.00    -0.063 NA 
HETATM   18  C   UNL     1      -7.025   5.093  70.556  1.00  0.00    -0.045 C  
HETATM   19  C   UNL     1      -7.809   3.796  70.683  1.00  0.00    -0.054 C  
HETATM   20  C   UNL     1      -7.157   2.731  69.821  1.00  0.00    -0.040 C  
HETATM   21  C   UNL     1      -6.995   3.177  68.365  1.00  0.00    -0.049 C  
HETATM   22  C   UNL     1      -7.966   2.545  67.380  1.00  0.00    -0.069 C  
HETATM   23  C   UNL     1      -6.889   4.704  68.112  1.00  0.00    -0.055 C  
HETATM   24  O   UNL     1      -9.187   2.226  67.853  1.00  0.00    -0.167 OA 
HETATM   25  O   UNL     1      -7.678   2.357  66.204  1.00  0.00    -0.073 OA 
ENDBRANCH  16  17
ENDBRANCH  15  16
ENDBRANCH   8  15
ENDBRANCH   3   7
TORSDOF 5
ENDMDL
MODEL      259
REMARK 921   NORMALIZED FREE ENERGY PREDICTED BY IDOCK:   -2.88 KCAL/MOL
REMARK 922        TOTAL FREE ENERGY PREDICTED BY IDOCK:   -5.23 KCAL/MOL
REMARK 923 INTER-LIGAND FREE ENERGY PREDICTED BY IDOCK:   -4.11 KCAL/MOL
REMARK 924 INTRA-LIGAND FREE ENERGY PREDICTED BY IDOCK:   -1.12 KCAL/MOL
REMARK 927      BINDING AFFINITY PREDICTED BY RF-SCORE:    0.00 PKD
ROOT
HETATM    1  C   UNL     1      -8.933   8.993  65.069  1.00  0.00    -0.198 C  
HETATM    2  C   UNL     1      -7.624   9.652  65.367  1.00  0.00    -0.111 A  
HETATM    3  C   UNL     1      -7.149  10.116  66.605  1.00  0.00    -0.101 A  
HETATM    4  C   UNL     1      -5.567  10.576  64.727  1.00  0.00    -0.126 A  
HETATM    5  S   UNL     1      -5.592  10.857  66.406  1.00  0.00    -0.124 SA 
HETATM    6  C   UNL     1      -6.695   9.925  64.301  1.00  0.00    -0.126 A  
ENDROOT
BRANCH   3   7
HETATM    7  C   UNL     1      -7.740  10.143  67.936  1.00  0.00    -0.089 C  
HETATM    8  C   UNL     1      -8.467  11.225  68.315  1.00  0.00    -0.152 C  
BRANCH   7   9
HETATM    9  C   UNL     1      -7.653   9.005  68.855  1.00  0.00    -0.083 A  
HETATM   10  C   UNL     1      -8.498   7.907  69.102  1.00  0.00    -0.137 A  
HETATM   11  C   UNL     1      -6.724   7.402  70.551  1.00  0.00    -0.047 A  
HETATM   12  C   UNL     1      -7.951   7.010  70.088  1.00  0.00    -0.114 A  
HETATM   13  S   UNL     1      -6.221   8.858  69.843  1.00  0.00    -0.035 SA 
HETATM   14  C   UNL     1      -9.818   7.572  68.474  1.00  0.00    -0.170 C  
ENDBRANCH   7   9
BRANCH   8  15
HETATM   15  C   UNL     1      -8.867  12.411  67.458  1.00  0.00    -0.181 C  
BRANCH  15  16
HETATM   16  C   UNL     1      -9.086  13.749  68.234  1.00  0.00    -0.195 C  
BRANCH  16  17
HETATM   17  N   UNL     1      -9.969  14.674  67.502  1.00  0.00    -0.223 NA 
HETATM   18  C   UNL     1     -11.271  14.913  68.102  1.00  0.00    -0.299 C  
HETATM   19  C   UNL     1     -11.299  16.187  68.933  1.00  0.00    -0.350 C  
HETATM   20  C   UNL     1     -11.106  17.383  68.021  1.00  0.00    -0.016 C  
HETATM   21  C   UNL     1      -9.839  17.269  67.168  1.00  0.00    -0.269 C  
HETATM   22  C   UNL     1      -8.682  18.155  67.601  1.00  0.00    -0.248 C  
HETATM   23  C   UNL     1      -9.334  15.834  66.861  1.00  0.00    -0.227 C  
HETATM   24  O   UNL     1      -8.583  18.421  68.918  1.00  0.00    -0.257 OA 
HETATM   25  O   UNL     1      -7.855  18.587  66.807  1.00  0.00    -0.227 OA 
ENDBRANCH  16  17
ENDBRANCH  15  16
ENDBRANCH   8  15
ENDBRANCH   3   7
TORSDOF 5
ENDMDL
MODEL      260
REMARK 921   NORMALIZED FREE ENERGY PREDICTED BY IDOCK:   -2.88 KCAL/MOL
REMARK 922        TOTAL FREE ENERGY PREDICTED BY IDOCK:   -5.22 KCAL/MOL
REMARK 923 INTER-LIGAND FREE ENERGY PREDICTED BY IDOCK:   -4.08 KCAL/MOL
REMARK 924 INTRA-LIGAND FREE ENERGY PREDICTED BY IDOCK:   -1.14 KCAL/MOL
REMARK 927      BINDING AFFINITY PREDICTED BY RF-SCORE:    0.00 PKD
ROOT
HETATM    1  C   UNL     1      -7.047   4.312  67.364  1.00  0.00    -0.067 C  
HETATM    2  C   UNL     1      -8.214   4.151  66.443  1.00  0.00    -0.101 A  
HETATM    3  C   UNL     1      -9.185   5.107  66.098  1.00  0.00    -0.151 A  
HETATM    4  C   UNL     1      -9.607   2.877  65.054  1.00  0.00    -0.049 A  
HETATM    5  S   UNL     1     -10.364   4.403  65.037  1.00  0.00    -0.070 SA 
HETATM    6  C   UNL     1      -8.477   2.876  65.828  1.00  0.00    -0.107 A  
ENDROOT
BRANCH   3   7
HETATM    7  C   UNL     1      -9.395   6.486  66.514  1.00  0.00    -0.188 C  
HETATM    8  C   UNL     1     -10.043   6.734  67.681  1.00  0.00    -0.201 C  
BRANCH   7   9
HETATM    9  C   UNL     1      -8.854   7.623  65.763  1.00  0.00    -0.100 A  
HETATM   10  C   UNL     1      -7.915   7.721  64.720  1.00  0.00    -0.142 A  
HETATM   11  C   UNL     1      -8.542   9.972  64.931  1.00  0.00    -0.173 A  
HETATM   12  C   UNL     1      -7.742   9.080  64.269  1.00  0.00    -0.123 A  
HETATM   13  S   UNL     1      -9.485   9.212  66.117  1.00  0.00    -0.264 SA 
HETATM   14  C   UNL     1      -7.134   6.632  64.047  1.00  0.00    -0.051 C  
ENDBRANCH   7   9
BRANCH   8  15
HETATM   15  C   UNL     1     -10.493   5.721  68.717  1.00  0.00    -0.312 C  
BRANCH  15  16
HETATM   16  C   UNL     1     -11.385   6.294  69.865  1.00  0.00    -0.434 C  
BRANCH  16  17
HETATM   17  N   UNL     1     -10.656   6.376  71.142  1.00  0.00    -0.228 NA 
HETATM   18  C   UNL     1     -11.480   6.447  72.337  1.00  0.00    -0.282 C  
HETATM   19  C   UNL     1     -11.665   5.088  72.994  1.00  0.00    -0.229 C  
HETATM   20  C   UNL     1     -10.327   4.600  73.517  1.00  0.00    -0.242 C  
HETATM   21  C   UNL     1      -9.247   4.583  72.433  1.00  0.00    -0.151 C  
HETATM   22  C   UNL     1      -8.878   3.206  71.903  1.00  0.00    -0.083 C  
HETATM   23  C   UNL     1      -9.424   5.582  71.259  1.00  0.00    -0.149 C  
HETATM   24  O   UNL     1      -9.857   2.281  71.890  1.00  0.00    -0.139 OA 
HETATM   25  O   UNL     1      -7.759   2.946  71.478  1.00  0.00    -0.046 OA 
ENDBRANCH  16  17
ENDBRANCH  15  16
ENDBRANCH   8  15
ENDBRANCH   3   7
TORSDOF 5
ENDMDL
MODEL      261
REMARK 921   NORMALIZED FREE ENERGY PREDICTED BY IDOCK:   -2.82 KCAL/MOL
REMARK 922        TOTAL FREE ENERGY PREDICTED BY IDOCK:   -5.15 KCAL/MOL
REMARK 923 INTER-LIGAND FREE ENERGY PREDICTED BY IDOCK:   -4.69 KCAL/MOL
REMARK 924 INTRA-LIGAND FREE ENERGY PREDICTED BY IDOCK:   -0.46 KCAL/MOL
REMARK 927      BINDING AFFINITY PREDICTED BY RF-SCORE:    0.00 PKD
ROOT
HETATM    1  C   UNL     1     -11.114  14.577  69.011  1.00  0.00    -0.279 C  
HETATM    2  C   UNL     1      -9.673  14.525  68.613  1.00  0.00    -0.221 A  
HETATM    3  C   UNL     1      -9.115  13.970  67.449  1.00  0.00    -0.209 A  
HETATM    4  C   UNL     1      -7.391  14.878  69.013  1.00  0.00    -0.143 A  
HETATM    5  S   UNL     1      -7.386  14.115  67.491  1.00  0.00    -0.134 SA 
HETATM    6  C   UNL     1      -8.662  15.044  69.497  1.00  0.00    -0.062 A  
ENDROOT
BRANCH   3   7
HETATM    7  C   UNL     1      -9.703  13.271  66.315  1.00  0.00    -0.274 C  
HETATM    8  C   UNL     1      -9.405  11.962  66.118  1.00  0.00    -0.228 C  
BRANCH   7   9
HETATM    9  C   UNL     1     -10.678  13.906  65.423  1.00  0.00    -0.325 A  
HETATM   10  C   UNL     1     -11.736  13.399  64.647  1.00  0.00    -0.406 A  
HETATM   11  C   UNL     1     -11.973  15.695  64.227  1.00  0.00    -0.115 A  
HETATM   12  C   UNL     1     -12.455  14.442  63.959  1.00  0.00    -0.136 A  
HETATM   13  S   UNL     1     -10.640  15.645  65.275  1.00  0.00    -0.421 SA 
HETATM   14  C   UNL     1     -12.190  11.979  64.481  1.00  0.00    -0.329 C  
ENDBRANCH   7   9
BRANCH   8  15
HETATM   15  C   UNL     1      -8.600  11.054  67.029  1.00  0.00    -0.140 C  
BRANCH  15  16
HETATM   16  C   UNL     1      -9.357   9.789  67.545  1.00  0.00    -0.133 C  
BRANCH  16  17
HETATM   17  N   UNL     1      -9.309   8.682  66.574  1.00  0.00    -0.183 NA 
HETATM   18  C   UNL     1      -8.135   8.642  65.718  1.00  0.00    -0.114 C  
HETATM   19  C   UNL     1      -7.069   7.692  66.243  1.00  0.00    -0.070 C  
HETATM   20  C   UNL     1      -7.596   6.270  66.185  1.00  0.00    -0.090 C  
HETATM   21  C   UNL     1      -8.932   6.112  66.916  1.00  0.00    -0.118 C  
HETATM   22  C   UNL     1      -8.858   5.405  68.260  1.00  0.00    -0.104 C  
HETATM   23  C   UNL     1      -9.821   7.379  67.022  1.00  0.00    -0.209 C  
HETATM   24  O   UNL     1      -7.721   5.564  68.966  1.00  0.00    -0.085 OA 
HETATM   25  O   UNL     1      -9.790   4.746  68.706  1.00  0.00    -0.165 OA 
ENDBRANCH  16  17
ENDBRANCH  15  16
ENDBRANCH   8  15
ENDBRANCH   3   7
TORSDOF 5
ENDMDL
MODEL      262
REMARK 921   NORMALIZED FREE ENERGY PREDICTED BY IDOCK:   -2.80 KCAL/MOL
REMARK 922        TOTAL FREE ENERGY PREDICTED BY IDOCK:   -5.12 KCAL/MOL
REMARK 923 INTER-LIGAND FREE ENERGY PREDICTED BY IDOCK:   -3.85 KCAL/MOL
REMARK 924 INTRA-LIGAND FREE ENERGY PREDICTED BY IDOCK:   -1.28 KCAL/MOL
REMARK 927      BINDING AFFINITY PREDICTED BY RF-SCORE:    0.00 PKD
ROOT
HETATM    1  C   UNL     1      -7.516   8.247  68.814  1.00  0.00    -0.096 C  
HETATM    2  C   UNL     1      -8.875   7.731  68.462  1.00  0.00    -0.130 A  
HETATM    3  C   UNL     1      -9.612   6.721  69.104  1.00  0.00    -0.139 A  
HETATM    4  C   UNL     1     -10.774   7.639  67.092  1.00  0.00    -0.290 A  
HETATM    5  S   UNL     1     -11.111   6.457  68.271  1.00  0.00    -0.168 SA 
HETATM    6  C   UNL     1      -9.565   8.247  67.309  1.00  0.00    -0.215 A  
ENDROOT
BRANCH   3   7
HETATM    7  C   UNL     1      -9.315   5.862  70.241  1.00  0.00    -0.181 C  
HETATM    8  C   UNL     1      -8.617   4.715  70.039  1.00  0.00    -0.101 C  
BRANCH   7   9
HETATM    9  C   UNL     1      -9.666   6.230  71.616  1.00  0.00    -0.161 A  
HETATM   10  C   UNL     1      -9.898   7.466  72.246  1.00  0.00    -0.203 A  
HETATM   11  C   UNL     1     -10.335   6.002  74.026  1.00  0.00    -0.291 A  
HETATM   12  C   UNL     1     -10.267   7.310  73.631  1.00  0.00    -0.393 A  
HETATM   13  S   UNL     1      -9.933   4.942  72.765  1.00  0.00    -0.167 SA 
HETATM   14  C   UNL     1      -9.832   8.848  71.667  1.00  0.00    -0.387 C  
ENDBRANCH   7   9
BRANCH   8  15
HETATM   15  C   UNL     1      -7.970   4.247  68.749  1.00  0.00    -0.072 C  
BRANCH  15  16
HETATM   16  C   UNL     1      -8.851   3.307  67.865  1.00  0.00    -0.126 C  
BRANCH  16  17
HETATM   17  N   UNL     1      -8.232   3.042  66.555  1.00  0.00    -0.085 NA 
HETATM   18  C   UNL     1      -9.153   2.892  65.440  1.00  0.00    -0.149 C  
HETATM   19  C   UNL     1      -9.317   4.180  64.648  1.00  0.00    -0.163 C  
HETATM   20  C   UNL     1      -8.002   4.525  63.976  1.00  0.00    -0.093 C  
HETATM   21  C   UNL     1      -6.838   4.592  64.968  1.00  0.00    -0.053 C  
HETATM   22  C   UNL     1      -6.355   5.993  65.309  1.00  0.00    -0.038 C  
HETATM   23  C   UNL     1      -6.973   3.740  66.258  1.00  0.00    -0.062 C  
HETATM   24  O   UNL     1      -7.279   6.974  65.290  1.00  0.00    -0.068 OA 
HETATM   25  O   UNL     1      -5.193   6.229  65.618  1.00  0.00    -0.013 OA 
ENDBRANCH  16  17
ENDBRANCH  15  16
ENDBRANCH   8  15
ENDBRANCH   3   7
TORSDOF 5
ENDMDL
MODEL      263
REMARK 921   NORMALIZED FREE ENERGY PREDICTED BY IDOCK:   -2.76 KCAL/MOL
REMARK 922        TOTAL FREE ENERGY PREDICTED BY IDOCK:   -5.06 KCAL/MOL
REMARK 923 INTER-LIGAND FREE ENERGY PREDICTED BY IDOCK:   -4.12 KCAL/MOL
REMARK 924 INTRA-LIGAND FREE ENERGY PREDICTED BY IDOCK:   -0.94 KCAL/MOL
REMARK 927      BINDING AFFINITY PREDICTED BY RF-SCORE:    0.00 PKD
ROOT
HETATM    1  C   UNL     1      -5.874  13.861  67.269  1.00  0.00     0.488 C  
HETATM    2  C   UNL     1      -6.017  15.026  68.195  1.00  0.00    -0.144 A  
HETATM    3  C   UNL     1      -6.668  16.249  67.956  1.00  0.00    -0.132 A  
HETATM    4  C   UNL     1      -5.581  16.154  70.202  1.00  0.00    -0.170 A  
HETATM    5  S   UNL     1      -6.500  17.292  69.332  1.00  0.00    -0.206 SA 
HETATM    6  C   UNL     1      -5.401  14.994  69.495  1.00  0.00    -0.089 A  
ENDROOT
BRANCH   3   7
HETATM    7  C   UNL     1      -7.358  16.782  66.789  1.00  0.00    -0.275 C  
HETATM    8  C   UNL     1      -8.561  16.260  66.437  1.00  0.00    -0.361 C  
BRANCH   7   9
HETATM    9  C   UNL     1      -6.844  17.924  66.028  1.00  0.00    -0.301 A  
HETATM   10  C   UNL     1      -7.380  19.187  65.719  1.00  0.00    -0.247 A  
HETATM   11  C   UNL     1      -5.258  19.383  64.738  1.00  0.00    -0.172 A  
HETATM   12  C   UNL     1      -6.458  20.001  64.966  1.00  0.00    -0.329 A  
HETATM   13  S   UNL     1      -5.223  17.817  65.387  1.00  0.00     0.126 SA 
HETATM   14  C   UNL     1      -8.718  19.760  66.082  1.00  0.00    -0.368 C  
ENDBRANCH   7   9
BRANCH   8  15
HETATM   15  C   UNL     1      -9.377  15.233  67.198  1.00  0.00    -0.227 C  
BRANCH  15  16
HETATM   16  C   UNL     1      -9.221  13.759  66.703  1.00  0.00    -0.223 C  
BRANCH  16  17
HETATM   17  N   UNL     1      -9.674  12.787  67.713  1.00  0.00    -0.201 NA 
HETATM   18  C   UNL     1     -11.026  12.281  67.542  1.00  0.00    -0.254 C  
HETATM   19  C   UNL     1     -11.055  10.940  66.825  1.00  0.00    -0.196 C  
HETATM   20  C   UNL     1     -10.395   9.891  67.700  1.00  0.00    -0.275 C  
HETATM   21  C   UNL     1      -8.982  10.295  68.130  1.00  0.00    -0.130 C  
HETATM   22  C   UNL     1      -7.853   9.565  67.419  1.00  0.00    -0.102 C  
HETATM   23  C   UNL     1      -8.682  11.816  68.196  1.00  0.00    -0.168 C  
HETATM   24  O   UNL     1      -8.085   9.182  66.149  1.00  0.00    -0.105 OA 
HETATM   25  O   UNL     1      -6.770   9.355  67.953  1.00  0.00    -0.066 OA 
ENDBRANCH  16  17
ENDBRANCH  15  16
ENDBRANCH   8  15
ENDBRANCH   3   7
TORSDOF 5
ENDMDL
MODEL      264
REMARK 921   NORMALIZED FREE ENERGY PREDICTED BY IDOCK:   -2.75 KCAL/MOL
REMARK 922        TOTAL FREE ENERGY PREDICTED BY IDOCK:   -5.05 KCAL/MOL
REMARK 923 INTER-LIGAND FREE ENERGY PREDICTED BY IDOCK:   -3.93 KCAL/MOL
REMARK 924 INTRA-LIGAND FREE ENERGY PREDICTED BY IDOCK:   -1.12 KCAL/MOL
REMARK 927      BINDING AFFINITY PREDICTED BY RF-SCORE:    0.00 PKD
ROOT
HETATM    1  C   UNL     1      -5.135   9.650  64.455  1.00  0.00    -0.055 C  
HETATM    2  C   UNL     1      -6.627   9.674  64.356  1.00  0.00    -0.107 A  
HETATM    3  C   UNL     1      -7.556  10.035  65.347  1.00  0.00    -0.138 A  
HETATM    4  C   UNL     1      -8.643   9.278  63.229  1.00  0.00    -0.201 A  
HETATM    5  S   UNL     1      -9.172   9.837  64.748  1.00  0.00    -0.254 SA 
HETATM    6  C   UNL     1      -7.276   9.245  63.145  1.00  0.00    -0.095 A  
ENDROOT
BRANCH   3   7
HETATM    7  C   UNL     1      -7.400  10.453  66.733  1.00  0.00    -0.110 C  
HETATM    8  C   UNL     1      -7.292   9.508  67.701  1.00  0.00    -0.083 C  
BRANCH   7   9
HETATM    9  C   UNL     1      -7.266  11.861  67.117  1.00  0.00    -0.144 A  
HETATM   10  C   UNL     1      -8.157  12.950  67.088  1.00  0.00    -0.122 A  
HETATM   11  C   UNL     1      -6.283  13.970  68.064  1.00  0.00    -0.142 A  
HETATM   12  C   UNL     1      -7.566  14.151  67.623  1.00  0.00    -0.193 A  
HETATM   13  S   UNL     1      -5.753  12.378  67.819  1.00  0.00    -0.119 SA 
HETATM   14  C   UNL     1      -9.579  12.994  66.612  1.00  0.00    -0.259 C  
ENDBRANCH   7   9
BRANCH   8  15
HETATM   15  C   UNL     1      -7.186   8.006  67.513  1.00  0.00    -0.088 C  
BRANCH  15  16
HETATM   16  C   UNL     1      -8.538   7.227  67.599  1.00  0.00    -0.126 C  
BRANCH  16  17
HETATM   17  N   UNL     1      -9.303   7.579  68.807  1.00  0.00    -0.148 NA 
HETATM   18  C   UNL     1     -10.735   7.342  68.740  1.00  0.00    -0.139 C  
HETATM   19  C   UNL     1     -11.131   6.014  69.368  1.00  0.00    -0.445 C  
HETATM   20  C   UNL     1     -10.851   6.062  70.858  1.00  0.00    -0.349 C  
HETATM   21  C   UNL     1      -9.402   6.447  71.168  1.00  0.00    -0.166 C  
HETATM   22  C   UNL     1      -8.512   5.306  71.634  1.00  0.00    -0.126 C  
HETATM   23  C   UNL     1      -8.667   7.304  70.103  1.00  0.00    -0.140 C  
HETATM   24  O   UNL     1      -8.792   4.082  71.146  1.00  0.00    -0.086 OA 
HETATM   25  O   UNL     1      -7.564   5.481  72.391  1.00  0.00    -0.097 OA 
ENDBRANCH  16  17
ENDBRANCH  15  16
ENDBRANCH   8  15
ENDBRANCH   3   7
TORSDOF 5
ENDMDL
MODEL      265
REMARK 921   NORMALIZED FREE ENERGY PREDICTED BY IDOCK:   -2.74 KCAL/MOL
REMARK 922        TOTAL FREE ENERGY PREDICTED BY IDOCK:   -5.04 KCAL/MOL
REMARK 923 INTER-LIGAND FREE ENERGY PREDICTED BY IDOCK:   -4.89 KCAL/MOL
REMARK 924 INTRA-LIGAND FREE ENERGY PREDICTED BY IDOCK:   -0.16 KCAL/MOL
REMARK 927      BINDING AFFINITY PREDICTED BY RF-SCORE:    0.00 PKD
ROOT
HETATM    1  C   UNL     1      -6.355  16.522  67.264  1.00  0.00    -0.213 C  
HETATM    2  C   UNL     1      -6.805  15.112  67.475  1.00  0.00    -0.203 A  
HETATM    3  C   UNL     1      -8.068  14.556  67.212  1.00  0.00    -0.196 A  
HETATM    4  C   UNL     1      -6.483  12.918  68.234  1.00  0.00    -0.086 A  
HETATM    5  S   UNL     1      -8.095  12.887  67.687  1.00  0.00    -0.180 SA 
HETATM    6  C   UNL     1      -5.908  14.149  68.061  1.00  0.00    -0.138 A  
ENDROOT
BRANCH   3   7
HETATM    7  C   UNL     1      -9.306  15.129  66.704  1.00  0.00    -0.291 C  
HETATM    8  C   UNL     1     -10.024  14.441  65.780  1.00  0.00    -0.354 C  
BRANCH   7   9
HETATM    9  C   UNL     1      -9.857  16.386  67.219  1.00  0.00    -0.245 A  
HETATM   10  C   UNL     1     -10.249  16.805  68.503  1.00  0.00    -0.298 A  
HETATM   11  C   UNL     1     -10.619  18.779  67.291  1.00  0.00    -0.442 A  
HETATM   12  C   UNL     1     -10.695  18.176  68.517  1.00  0.00    -0.004 A  
HETATM   13  S   UNL     1     -10.045  17.715  66.101  1.00  0.00    -0.260 SA 
HETATM   14  C   UNL     1     -10.235  16.037  69.792  1.00  0.00    -0.240 C  
ENDBRANCH   7   9
BRANCH   8  15
HETATM   15  C   UNL     1      -9.761  13.037  65.270  1.00  0.00     0.003 C  
BRANCH  15  16
HETATM   16  C   UNL     1     -10.908  12.008  65.530  1.00  0.00    -0.292 C  
BRANCH  16  17
HETATM   17  N   UNL     1     -10.482  10.626  65.253  1.00  0.00    -0.240 NA 
HETATM   18  C   UNL     1      -9.292  10.483  64.431  1.00  0.00    -0.262 C  
HETATM   19  C   UNL     1      -8.036  10.273  65.263  1.00  0.00    -0.151 C  
HETATM   20  C   UNL     1      -8.130   8.941  65.982  1.00  0.00    -0.111 C  
HETATM   21  C   UNL     1      -9.410   8.813  66.812  1.00  0.00    -0.229 C  
HETATM   22  C   UNL     1      -9.226   8.944  68.316  1.00  0.00    -0.140 C  
HETATM   23  C   UNL     1     -10.629   9.651  66.344  1.00  0.00    -0.027 C  
HETATM   24  O   UNL     1      -8.230   9.749  68.735  1.00  0.00    -0.101 OA 
HETATM   25  O   UNL     1      -9.958   8.376  69.118  1.00  0.00    -0.185 OA 
ENDBRANCH  16  17
ENDBRANCH  15  16
ENDBRANCH   8  15
ENDBRANCH   3   7
TORSDOF 5
ENDMDL
MODEL      266
REMARK 921   NORMALIZED FREE ENERGY PREDICTED BY IDOCK:   -2.71 KCAL/MOL
REMARK 922        TOTAL FREE ENERGY PREDICTED BY IDOCK:   -5.01 KCAL/MOL
REMARK 923 INTER-LIGAND FREE ENERGY PREDICTED BY IDOCK:   -4.16 KCAL/MOL
REMARK 924 INTRA-LIGAND FREE ENERGY PREDICTED BY IDOCK:   -0.84 KCAL/MOL
REMARK 927      BINDING AFFINITY PREDICTED BY RF-SCORE:    0.00 PKD
ROOT
HETATM    1  C   UNL     1      -6.371   4.849  67.354  1.00  0.00    -0.040 C  
HETATM    2  C   UNL     1      -7.504   4.406  66.483  1.00  0.00    -0.082 A  
HETATM    3  C   UNL     1      -8.607   5.158  66.046  1.00  0.00    -0.124 A  
HETATM    4  C   UNL     1      -8.694   2.780  65.286  1.00  0.00    -0.117 A  
HETATM    5  S   UNL     1      -9.670   4.163  65.102  1.00  0.00    -0.205 SA 
HETATM    6  C   UNL     1      -7.574   3.040  66.031  1.00  0.00    -0.077 A  
ENDROOT
BRANCH   3   7
HETATM    7  C   UNL     1      -9.020   6.532  66.297  1.00  0.00    -0.168 C  
HETATM    8  C   UNL     1      -9.731   6.814  67.418  1.00  0.00    -0.164 C  
BRANCH   7   9
HETATM    9  C   UNL     1      -8.621   7.642  65.427  1.00  0.00    -0.053 A  
HETATM   10  C   UNL     1      -9.066   8.971  65.307  1.00  0.00    -0.226 A  
HETATM   11  C   UNL     1      -7.326   8.969  63.733  1.00  0.00    -0.101 A  
HETATM   12  C   UNL     1      -8.318   9.708  64.319  1.00  0.00    -0.169 A  
HETATM   13  S   UNL     1      -7.290   7.381  64.326  1.00  0.00    -0.097 SA 
HETATM   14  C   UNL     1     -10.155   9.674  66.062  1.00  0.00    -0.318 C  
ENDBRANCH   7   9
BRANCH   8  15
HETATM   15  C   UNL     1     -10.066   5.870  68.557  1.00  0.00    -0.210 C  
BRANCH  15  16
HETATM   16  C   UNL     1     -11.455   6.108  69.233  1.00  0.00    -0.127 C  
BRANCH  16  17
HETATM   17  N   UNL     1     -11.359   7.018  70.387  1.00  0.00    -0.300 NA 
HETATM   18  C   UNL     1     -12.239   6.717  71.504  1.00  0.00    -0.366 C  
HETATM   19  C   UNL     1     -11.540   5.916  72.592  1.00  0.00    -0.289 C  
HETATM   20  C   UNL     1     -10.453   6.768  73.219  1.00  0.00    -0.321 C  
HETATM   21  C   UNL     1      -9.474   7.324  72.181  1.00  0.00    -0.157 C  
HETATM   22  C   UNL     1      -8.111   6.652  72.147  1.00  0.00    -0.105 C  
HETATM   23  C   UNL     1     -10.019   7.509  70.740  1.00  0.00    -0.182 C  
HETATM   24  O   UNL     1      -8.071   5.346  72.475  1.00  0.00    -0.102 OA 
HETATM   25  O   UNL     1      -7.094   7.248  71.811  1.00  0.00    -0.066 OA 
ENDBRANCH  16  17
ENDBRANCH  15  16
ENDBRANCH   8  15
ENDBRANCH   3   7
TORSDOF 5
ENDMDL
MODEL      267
REMARK 921   NORMALIZED FREE ENERGY PREDICTED BY IDOCK:   -2.71 KCAL/MOL
REMARK 922        TOTAL FREE ENERGY PREDICTED BY IDOCK:   -5.00 KCAL/MOL
REMARK 923 INTER-LIGAND FREE ENERGY PREDICTED BY IDOCK:   -3.83 KCAL/MOL
REMARK 924 INTRA-LIGAND FREE ENERGY PREDICTED BY IDOCK:   -1.16 KCAL/MOL
REMARK 927      BINDING AFFINITY PREDICTED BY RF-SCORE:    0.00 PKD
ROOT
HETATM    1  C   UNL     1      -7.692   5.647  73.620  1.00  0.00    -0.101 C  
HETATM    2  C   UNL     1      -8.518   4.996  72.557  1.00  0.00    -0.120 A  
HETATM    3  C   UNL     1      -8.902   5.525  71.313  1.00  0.00    -0.135 A  
HETATM    4  C   UNL     1      -9.841   3.247  71.730  1.00  0.00    -0.159 A  
HETATM    5  S   UNL     1      -9.909   4.390  70.469  1.00  0.00    -0.190 SA 
HETATM    6  C   UNL     1      -9.068   3.683  72.774  1.00  0.00    -0.119 A  
ENDROOT
BRANCH   3   7
HETATM    7  C   UNL     1      -8.670   6.815  70.680  1.00  0.00    -0.143 C  
HETATM    8  C   UNL     1      -7.573   6.981  69.899  1.00  0.00    -0.102 C  
BRANCH   7   9
HETATM    9  C   UNL     1      -9.625   7.923  70.784  1.00  0.00    -0.165 A  
HETATM   10  C   UNL     1     -10.575   8.279  71.759  1.00  0.00    -0.325 A  
HETATM   11  C   UNL     1     -10.823  10.067  70.261  1.00  0.00    -0.313 A  
HETATM   12  C   UNL     1     -11.259   9.505  71.430  1.00  0.00    -0.452 A  
HETATM   13  S   UNL     1      -9.617   9.130  69.523  1.00  0.00    -0.175 SA 
HETATM   14  C   UNL     1     -10.921   7.580  73.041  1.00  0.00    -0.443 C  
ENDBRANCH   7   9
BRANCH   8  15
HETATM   15  C   UNL     1      -6.574   5.920  69.478  1.00  0.00    -0.044 C  
BRANCH  15  16
HETATM   16  C   UNL     1      -6.080   6.020  67.999  1.00  0.00    -0.021 C  
BRANCH  16  17
HETATM   17  N   UNL     1      -6.939   6.899  67.188  1.00  0.00    -0.072 NA 
HETATM   18  C   UNL     1      -6.252   7.939  66.439  1.00  0.00    -0.046 C  
HETATM   19  C   UNL     1      -5.992   7.536  64.996  1.00  0.00    -0.038 C  
HETATM   20  C   UNL     1      -7.316   7.395  64.269  1.00  0.00    -0.090 C  
HETATM   21  C   UNL     1      -8.273   6.436  64.981  1.00  0.00    -0.125 C  
HETATM   22  C   UNL     1      -8.438   5.075  64.322  1.00  0.00    -0.138 C  
HETATM   23  C   UNL     1      -8.085   6.273  66.513  1.00  0.00    -0.110 C  
HETATM   24  O   UNL     1      -7.370   4.590  63.659  1.00  0.00    -0.052 OA 
HETATM   25  O   UNL     1      -9.475   4.427  64.407  1.00  0.00    -0.157 OA 
ENDBRANCH  16  17
ENDBRANCH  15  16
ENDBRANCH   8  15
ENDBRANCH   3   7
TORSDOF 5
ENDMDL
MODEL      268
REMARK 921   NORMALIZED FREE ENERGY PREDICTED BY IDOCK:   -2.68 KCAL/MOL
REMARK 922        TOTAL FREE ENERGY PREDICTED BY IDOCK:   -4.97 KCAL/MOL
REMARK 923 INTER-LIGAND FREE ENERGY PREDICTED BY IDOCK:   -4.13 KCAL/MOL
REMARK 924 INTRA-LIGAND FREE ENERGY PREDICTED BY IDOCK:   -0.84 KCAL/MOL
REMARK 927      BINDING AFFINITY PREDICTED BY RF-SCORE:    0.00 PKD
ROOT
HETATM    1  C   UNL     1      -8.649   3.870  72.431  1.00  0.00    -0.108 C  
HETATM    2  C   UNL     1      -8.915   3.864  70.959  1.00  0.00    -0.159 A  
HETATM    3  C   UNL     1      -9.156   4.963  70.117  1.00  0.00    -0.110 A  
HETATM    4  C   UNL     1      -9.296   2.775  68.919  1.00  0.00    -0.153 A  
HETATM    5  S   UNL     1      -9.466   4.417  68.499  1.00  0.00    -0.149 SA 
HETATM    6  C   UNL     1      -8.998   2.615  70.247  1.00  0.00    -0.164 A  
ENDROOT
BRANCH   3   7
HETATM    7  C   UNL     1      -9.255   6.392  70.373  1.00  0.00    -0.159 C  
HETATM    8  C   UNL     1      -8.282   7.217  69.906  1.00  0.00    -0.133 C  
BRANCH   7   9
HETATM    9  C   UNL     1     -10.413   6.991  71.043  1.00  0.00    -0.212 A  
HETATM   10  C   UNL     1     -10.560   7.696  72.252  1.00  0.00    -0.298 A  
HETATM   11  C   UNL     1     -12.760   7.792  71.441  1.00  0.00    -0.308 A  
HETATM   12  C   UNL     1     -11.918   8.133  72.465  1.00  0.00    -0.410 A  
HETATM   13  S   UNL     1     -11.956   6.922  70.228  1.00  0.00    -0.099 SA 
HETATM   14  C   UNL     1      -9.520   8.045  73.275  1.00  0.00    -0.336 C  
ENDBRANCH   7   9
BRANCH   8  15
HETATM   15  C   UNL     1      -7.116   6.848  69.010  1.00  0.00    -0.088 C  
BRANCH  15  16
HETATM   16  C   UNL     1      -6.485   8.037  68.215  1.00  0.00    -0.055 C  
BRANCH  16  17
HETATM   17  N   UNL     1      -7.264   9.278  68.368  1.00  0.00    -0.076 NA 
HETATM   18  C   UNL     1      -6.492  10.477  68.649  1.00  0.00    -0.051 C  
HETATM   19  C   UNL     1      -6.207  11.289  67.395  1.00  0.00    -0.071 C  
HETATM   20  C   UNL     1      -7.512  11.831  66.843  1.00  0.00    -0.106 C  
HETATM   21  C   UNL     1      -8.547  10.729  66.604  1.00  0.00    -0.143 C  
HETATM   22  C   UNL     1      -8.769  10.350  65.148  1.00  0.00    -0.181 C  
HETATM   23  C   UNL     1      -8.421   9.453  67.479  1.00  0.00    -0.122 C  
HETATM   24  O   UNL     1      -7.710  10.467  64.324  1.00  0.00    -0.130 OA 
HETATM   25  O   UNL     1      -9.845   9.930  64.737  1.00  0.00    -0.307 OA 
ENDBRANCH  16  17
ENDBRANCH  15  16
ENDBRANCH   8  15
ENDBRANCH   3   7
TORSDOF 5
ENDMDL
MODEL      269
REMARK 921   NORMALIZED FREE ENERGY PREDICTED BY IDOCK:   -2.67 KCAL/MOL
REMARK 922        TOTAL FREE ENERGY PREDICTED BY IDOCK:   -4.95 KCAL/MOL
REMARK 923 INTER-LIGAND FREE ENERGY PREDICTED BY IDOCK:   -4.53 KCAL/MOL
REMARK 924 INTRA-LIGAND FREE ENERGY PREDICTED BY IDOCK:   -0.42 KCAL/MOL
REMARK 927      BINDING AFFINITY PREDICTED BY RF-SCORE:    0.00 PKD
ROOT
HETATM    1  C   UNL     1      -9.807  15.573  65.243  1.00  0.00    -0.201 C  
HETATM    2  C   UNL     1     -10.528  14.419  65.864  1.00  0.00    -0.317 A  
HETATM    3  C   UNL     1     -10.020  13.458  66.756  1.00  0.00    -0.264 A  
HETATM    4  C   UNL     1     -12.404  13.040  66.134  1.00  0.00    -0.265 A  
HETATM    5  S   UNL     1     -11.248  12.292  67.136  1.00  0.00    -0.328 SA 
HETATM    6  C   UNL     1     -11.902  14.159  65.522  1.00  0.00    -0.364 A  
ENDROOT
BRANCH   3   7
HETATM    7  C   UNL     1      -8.696  13.249  67.324  1.00  0.00    -0.214 C  
HETATM    8  C   UNL     1      -8.092  12.044  67.167  1.00  0.00    -0.177 C  
BRANCH   7   9
HETATM    9  C   UNL     1      -7.949  14.322  67.987  1.00  0.00    -0.142 A  
HETATM   10  C   UNL     1      -8.304  15.277  68.957  1.00  0.00    -0.215 A  
HETATM   11  C   UNL     1      -6.027  15.775  68.695  1.00  0.00    -0.101 A  
HETATM   12  C   UNL     1      -7.188  16.108  69.337  1.00  0.00    -0.204 A  
HETATM   13  S   UNL     1      -6.253  14.492  67.610  1.00  0.00     0.009 SA 
HETATM   14  C   UNL     1      -9.631  15.502  69.621  1.00  0.00    -0.264 C  
ENDBRANCH   7   9
BRANCH   8  15
HETATM   15  C   UNL     1      -8.580  10.871  66.339  1.00  0.00    -0.160 C  
BRANCH  15  16
HETATM   16  C   UNL     1      -7.791   9.538  66.543  1.00  0.00    -0.101 C  
BRANCH  16  17
HETATM   17  N   UNL     1      -8.074   8.924  67.851  1.00  0.00    -0.106 NA 
HETATM   18  C   UNL     1      -9.310   9.341  68.492  1.00  0.00    -0.142 C  
HETATM   19  C   UNL     1     -10.449   8.365  68.242  1.00  0.00    -0.214 C  
HETATM   20  C   UNL     1     -10.132   7.043  68.916  1.00  0.00    -0.174 C  
HETATM   21  C   UNL     1      -8.774   6.480  68.487  1.00  0.00    -0.122 C  
HETATM   22  C   UNL     1      -8.833   5.304  67.526  1.00  0.00    -0.105 C  
HETATM   23  C   UNL     1      -7.712   7.509  68.016  1.00  0.00    -0.116 C  
HETATM   24  O   UNL     1      -9.873   5.272  66.670  1.00  0.00    -0.147 OA 
HETATM   25  O   UNL     1      -7.967   4.436  67.498  1.00  0.00    -0.094 OA 
ENDBRANCH  16  17
ENDBRANCH  15  16
ENDBRANCH   8  15
ENDBRANCH   3   7
TORSDOF 5
ENDMDL
MODEL      270
REMARK 921   NORMALIZED FREE ENERGY PREDICTED BY IDOCK:   -2.64 KCAL/MOL
REMARK 922        TOTAL FREE ENERGY PREDICTED BY IDOCK:   -4.92 KCAL/MOL
REMARK 923 INTER-LIGAND FREE ENERGY PREDICTED BY IDOCK:   -4.15 KCAL/MOL
REMARK 924 INTRA-LIGAND FREE ENERGY PREDICTED BY IDOCK:   -0.77 KCAL/MOL
REMARK 927      BINDING AFFINITY PREDICTED BY RF-SCORE:    0.00 PKD
ROOT
HETATM    1  C   UNL     1      -6.146  11.641  70.784  1.00  0.00     0.233 C  
HETATM    2  C   UNL     1      -6.263  11.705  69.295  1.00  0.00    -0.086 A  
HETATM    3  C   UNL     1      -7.262  12.332  68.530  1.00  0.00    -0.103 A  
HETATM    4  C   UNL     1      -5.572  11.140  67.128  1.00  0.00    -0.065 A  
HETATM    5  S   UNL     1      -6.971  12.067  66.839  1.00  0.00     0.043 SA 
HETATM    6  C   UNL     1      -5.300  11.028  68.466  1.00  0.00    -0.043 A  
ENDROOT
BRANCH   3   7
HETATM    7  C   UNL     1      -8.467  13.061  68.897  1.00  0.00     0.280 C  
HETATM    8  C   UNL     1      -8.382  14.391  69.158  1.00  0.00     0.056 C  
BRANCH   7   9
HETATM    9  C   UNL     1      -9.791  12.432  68.912  1.00  0.00     0.122 A  
HETATM   10  C   UNL     1     -11.096  12.947  68.812  1.00  0.00    -0.305 A  
HETATM   11  C   UNL     1     -11.561  10.650  68.918  1.00  0.00    -0.249 A  
HETATM   12  C   UNL     1     -12.095  11.907  68.831  1.00  0.00    -0.213 A  
HETATM   13  S   UNL     1      -9.868  10.690  69.007  1.00  0.00    -0.191 SA 
HETATM   14  C   UNL     1     -11.541  14.373  68.672  1.00  0.00    -0.347 C  
ENDBRANCH   7   9
BRANCH   8  15
HETATM   15  C   UNL     1      -7.168  15.285  68.994  1.00  0.00    -0.151 C  
BRANCH  15  16
HETATM   16  C   UNL     1      -7.470  16.817  68.944  1.00  0.00    -0.240 C  
BRANCH  16  17
HETATM   17  N   UNL     1      -8.290  17.179  67.775  1.00  0.00    -0.199 NA 
HETATM   18  C   UNL     1      -9.670  17.537  68.057  1.00  0.00    -0.287 C  
HETATM   19  C   UNL     1      -9.869  19.042  68.155  1.00  0.00    -0.430 C  
HETATM   20  C   UNL     1      -9.613  19.670  66.798  1.00  0.00    -0.474 C  
HETATM   21  C   UNL     1      -8.240  19.297  66.232  1.00  0.00    -0.327 C  
HETATM   22  C   UNL     1      -7.194  20.399  66.285  1.00  0.00    -0.224 C  
HETATM   23  C   UNL     1      -7.631  17.952  66.712  1.00  0.00    -0.217 C  
HETATM   24  O   UNL     1      -7.284  21.271  67.308  1.00  0.00    -0.508 OA 
HETATM   25  O   UNL     1      -6.289  20.484  65.462  1.00  0.00    -0.225 OA 
ENDBRANCH  16  17
ENDBRANCH  15  16
ENDBRANCH   8  15
ENDBRANCH   3   7
TORSDOF 5
ENDMDL
MODEL      271
REMARK 921   NORMALIZED FREE ENERGY PREDICTED BY IDOCK:   -2.62 KCAL/MOL
REMARK 922        TOTAL FREE ENERGY PREDICTED BY IDOCK:   -4.88 KCAL/MOL
REMARK 923 INTER-LIGAND FREE ENERGY PREDICTED BY IDOCK:   -3.26 KCAL/MOL
REMARK 924 INTRA-LIGAND FREE ENERGY PREDICTED BY IDOCK:   -1.62 KCAL/MOL
REMARK 927      BINDING AFFINITY PREDICTED BY RF-SCORE:    0.00 PKD
ROOT
HETATM    1  C   UNL     1      -8.183   6.367  62.592  1.00  0.00    -0.035 C  
HETATM    2  C   UNL     1      -7.170   7.152  63.363  1.00  0.00    -0.075 A  
HETATM    3  C   UNL     1      -7.249   7.600  64.692  1.00  0.00    -0.075 A  
HETATM    4  C   UNL     1      -5.154   8.333  63.545  1.00  0.00    -0.049 A  
HETATM    5  S   UNL     1      -5.833   8.520  65.095  1.00  0.00    -0.048 SA 
HETATM    6  C   UNL     1      -5.954   7.583  62.723  1.00  0.00    -0.051 A  
ENDROOT
BRANCH   3   7
HETATM    7  C   UNL     1      -8.288   7.490  65.705  1.00  0.00    -0.144 C  
HETATM    8  C   UNL     1      -9.113   8.546  65.924  1.00  0.00    -0.237 C  
BRANCH   7   9
HETATM    9  C   UNL     1      -8.538   6.247  66.441  1.00  0.00    -0.133 A  
HETATM   10  C   UNL     1      -7.761   5.496  67.341  1.00  0.00    -0.100 A  
HETATM   11  C   UNL     1      -9.749   4.251  67.367  1.00  0.00    -0.163 A  
HETATM   12  C   UNL     1      -8.472   4.348  67.848  1.00  0.00    -0.102 A  
HETATM   13  S   UNL     1     -10.111   5.504  66.283  1.00  0.00    -0.113 SA 
HETATM   14  C   UNL     1      -6.364   5.751  67.825  1.00  0.00    -0.042 C  
ENDBRANCH   7   9
BRANCH   8  15
HETATM   15  C   UNL     1      -9.178   9.841  65.137  1.00  0.00    -0.297 C  
BRANCH  15  16
HETATM   16  C   UNL     1     -10.455  10.708  65.386  1.00  0.00    -0.184 C  
BRANCH  16  17
HETATM   17  N   UNL     1     -10.422  11.375  66.698  1.00  0.00    -0.234 NA 
HETATM   18  C   UNL     1     -11.402  10.913  67.667  1.00  0.00    -0.270 C  
HETATM   19  C   UNL     1     -10.826   9.885  68.628  1.00  0.00    -0.244 C  
HETATM   20  C   UNL     1      -9.764  10.544  69.488  1.00  0.00    -0.147 C  
HETATM   21  C   UNL     1      -8.683  11.236  68.653  1.00  0.00    -0.136 C  
HETATM   22  C   UNL     1      -7.347  10.513  68.592  1.00  0.00    -0.091 C  
HETATM   23  C   UNL     1      -9.099  11.720  67.239  1.00  0.00    -0.171 C  
HETATM   24  O   UNL     1      -7.383   9.168  68.663  1.00  0.00    -0.075 OA 
HETATM   25  O   UNL     1      -6.285  11.109  68.454  1.00  0.00    -0.046 OA 
ENDBRANCH  16  17
ENDBRANCH  15  16
ENDBRANCH   8  15
ENDBRANCH   3   7
TORSDOF 5
ENDMDL
MODEL      272
REMARK 921   NORMALIZED FREE ENERGY PREDICTED BY IDOCK:   -2.37 KCAL/MOL
REMARK 922        TOTAL FREE ENERGY PREDICTED BY IDOCK:   -4.56 KCAL/MOL
REMARK 923 INTER-LIGAND FREE ENERGY PREDICTED BY IDOCK:   -4.07 KCAL/MOL
REMARK 924 INTRA-LIGAND FREE ENERGY PREDICTED BY IDOCK:   -0.49 KCAL/MOL
REMARK 927      BINDING AFFINITY PREDICTED BY RF-SCORE:    0.00 PKD
ROOT
HETATM    1  C   UNL     1      -9.296  19.731  67.329  1.00  0.00    -0.452 C  
HETATM    2  C   UNL     1      -9.793  18.496  68.011  1.00  0.00    -0.370 A  
HETATM    3  C   UNL     1      -9.052  17.374  68.420  1.00  0.00    -0.274 A  
HETATM    4  C   UNL     1     -11.499  17.133  68.861  1.00  0.00     0.624 A  
HETATM    5  S   UNL     1     -10.107  16.184  69.113  1.00  0.00    -0.268 SA 
HETATM    6  C   UNL     1     -11.198  18.336  68.278  1.00  0.00     0.681 A  
ENDROOT
BRANCH   3   7
HETATM    7  C   UNL     1      -7.641  17.033  68.301  1.00  0.00    -0.213 C  
HETATM    8  C   UNL     1      -7.193  16.463  67.153  1.00  0.00    -0.233 C  
BRANCH   7   9
HETATM    9  C   UNL     1      -6.664  17.363  69.343  1.00  0.00    -0.187 A  
HETATM   10  C   UNL     1      -6.068  18.571  69.748  1.00  0.00    -0.238 A  
HETATM   11  C   UNL     1      -5.135  17.098  71.318  1.00  0.00    -0.047 A  
HETATM   12  C   UNL     1      -5.184  18.392  70.873  1.00  0.00    -0.274 A  
HETATM   13  S   UNL     1      -6.113  16.074  70.385  1.00  0.00     0.168 SA 
HETATM   14  C   UNL     1      -6.255  19.950  69.189  1.00  0.00    -0.344 C  
ENDBRANCH   7   9
BRANCH   8  15
HETATM   15  C   UNL     1      -7.975  16.233  65.874  1.00  0.00     0.506 C  
BRANCH  15  16
HETATM   16  C   UNL     1      -9.366  15.547  66.058  1.00  0.00    -0.344 C  
BRANCH  16  17
HETATM   17  N   UNL     1      -9.315  14.105  65.760  1.00  0.00    -0.022 NA 
HETATM   18  C   UNL     1      -9.254  13.223  66.914  1.00  0.00    -0.241 C  
HETATM   19  C   UNL     1     -10.622  12.682  67.301  1.00  0.00    -0.244 C  
HETATM   20  C   UNL     1     -11.134  11.780  66.194  1.00  0.00    -0.358 C  
HETATM   21  C   UNL     1     -11.145  12.477  64.831  1.00  0.00    -0.336 C  
HETATM   22  C   UNL     1     -12.517  12.893  64.324  1.00  0.00    -0.349 C  
HETATM   23  C   UNL     1     -10.124  13.628  64.630  1.00  0.00    -0.197 C  
HETATM   24  O   UNL     1     -13.431  13.227  65.256  1.00  0.00    -0.452 OA 
HETATM   25  O   UNL     1     -12.783  12.956  63.129  1.00  0.00    -0.606 OA 
ENDBRANCH  16  17
ENDBRANCH  15  16
ENDBRANCH   8  15
ENDBRANCH   3   7
TORSDOF 5
ENDMDL
MODEL      273
REMARK 921   NORMALIZED FREE ENERGY PREDICTED BY IDOCK:   -2.02 KCAL/MOL
REMARK 922        TOTAL FREE ENERGY PREDICTED BY IDOCK:   -4.11 KCAL/MOL
REMARK 923 INTER-LIGAND FREE ENERGY PREDICTED BY IDOCK:   -2.84 KCAL/MOL
REMARK 924 INTRA-LIGAND FREE ENERGY PREDICTED BY IDOCK:   -1.27 KCAL/MOL
REMARK 927      BINDING AFFINITY PREDICTED BY RF-SCORE:    0.00 PKD
ROOT
HETATM    1  C   UNL     1      -7.198   4.051  73.970  1.00  0.00    -0.062 C  
HETATM    2  C   UNL     1      -7.860   3.424  72.784  1.00  0.00    -0.068 A  
HETATM    3  C   UNL     1      -8.510   4.064  71.715  1.00  0.00    -0.098 A  
HETATM    4  C   UNL     1      -8.606   1.572  71.556  1.00  0.00    -0.051 A  
HETATM    5  S   UNL     1      -9.162   2.884  70.623  1.00  0.00    -0.149 SA 
HETATM    6  C   UNL     1      -7.926   1.990  72.670  1.00  0.00    -0.053 A  
ENDROOT
BRANCH   3   7
HETATM    7  C   UNL     1      -8.774   5.466  71.424  1.00  0.00    -0.136 C  
HETATM    8  C   UNL     1      -7.795   6.220  70.862  1.00  0.00    -0.107 C  
BRANCH   7   9
HETATM    9  C   UNL     1     -10.089   6.076  71.636  1.00  0.00    -0.190 A  
HETATM   10  C   UNL     1     -11.169   6.343  70.775  1.00  0.00    -0.386 A  
HETATM   11  C   UNL     1     -12.071   7.071  72.815  1.00  0.00     0.262 A  
HETATM   12  C   UNL     1     -12.289   6.927  71.472  1.00  0.00    -0.420 A  
HETATM   13  S   UNL     1     -10.522   6.544  73.261  1.00  0.00    -0.280 SA 
HETATM   14  C   UNL     1     -11.291   6.084  69.303  1.00  0.00    -0.245 C  
ENDBRANCH   7   9
BRANCH   8  15
HETATM   15  C   UNL     1      -6.443   5.749  70.361  1.00  0.00    -0.036 C  
BRANCH  15  16
HETATM   16  C   UNL     1      -6.009   6.324  68.975  1.00  0.00    -0.021 C  
BRANCH  16  17
HETATM   17  N   UNL     1      -7.057   7.167  68.374  1.00  0.00    -0.082 NA 
HETATM   18  C   UNL     1      -6.683   8.548  68.111  1.00  0.00    -0.065 C  
HETATM   19  C   UNL     1      -6.249   8.765  66.670  1.00  0.00    -0.058 C  
HETATM   20  C   UNL     1      -7.435   8.539  65.751  1.00  0.00    -0.081 C  
HETATM   21  C   UNL     1      -8.088   7.171  65.966  1.00  0.00    -0.115 C  
HETATM   22  C   UNL     1      -7.805   6.139  64.886  1.00  0.00    -0.108 C  
HETATM   23  C   UNL     1      -7.929   6.537  67.373  1.00  0.00    -0.113 C  
HETATM   24  O   UNL     1      -6.611   6.224  64.266  1.00  0.00    -0.033 OA 
HETATM   25  O   UNL     1      -8.600   5.249  64.604  1.00  0.00    -0.148 OA 
ENDBRANCH  16  17
ENDBRANCH  15  16
ENDBRANCH   8  15
ENDBRANCH   3   7
TORSDOF 5
ENDMDL
MODEL      274
REMARK 921   NORMALIZED FREE ENERGY PREDICTED BY IDOCK:   -1.80 KCAL/MOL
REMARK 922        TOTAL FREE ENERGY PREDICTED BY IDOCK:   -3.82 KCAL/MOL
REMARK 923 INTER-LIGAND FREE ENERGY PREDICTED BY IDOCK:   -4.47 KCAL/MOL
REMARK 924 INTRA-LIGAND FREE ENERGY PREDICTED BY IDOCK:    0.65 KCAL/MOL
REMARK 927      BINDING AFFINITY PREDICTED BY RF-SCORE:    0.00 PKD
ROOT
HETATM    1  C   UNL     1      -6.812  16.575  68.314  1.00  0.00    -0.143 C  
HETATM    2  C   UNL     1      -6.591  15.105  68.475  1.00  0.00    -0.099 A  
HETATM    3  C   UNL     1      -7.509  14.062  68.265  1.00  0.00    -0.123 A  
HETATM    4  C   UNL     1      -5.294  13.252  69.088  1.00  0.00    -0.073 A  
HETATM    5  S   UNL     1      -6.776  12.537  68.648  1.00  0.00    -0.093 SA 
HETATM    6  C   UNL     1      -5.322  14.614  68.946  1.00  0.00    -0.088 A  
ENDROOT
BRANCH   3   7
HETATM    7  C   UNL     1      -8.912  14.053  67.873  1.00  0.00    -0.188 C  
HETATM    8  C   UNL     1      -9.598  12.882  67.897  1.00  0.00    -0.215 C  
BRANCH   7   9
HETATM    9  C   UNL     1      -9.639  15.280  67.535  1.00  0.00    -0.206 A  
HETATM   10  C   UNL     1     -10.348  16.216  68.310  1.00  0.00    -0.266 A  
HETATM   11  C   UNL     1     -10.531  17.204  66.190  1.00  0.00    -0.275 A  
HETATM   12  C   UNL     1     -10.862  17.303  67.514  1.00  0.00    -0.206 A  
HETATM   13  S   UNL     1      -9.632  15.803  65.869  1.00  0.00    -0.332 SA 
HETATM   14  C   UNL     1     -10.596  16.224  69.789  1.00  0.00    -0.316 C  
ENDBRANCH   7   9
BRANCH   8  15
HETATM   15  C   UNL     1      -9.113  11.542  68.417  1.00  0.00    -0.185 C  
BRANCH  15  16
HETATM   16  C   UNL     1      -9.572  10.301  67.586  1.00  0.00    -0.152 C  
BRANCH  16  17
HETATM   17  N   UNL     1      -8.650   9.162  67.741  1.00  0.00    -0.121 NA 
HETATM   18  C   UNL     1      -8.053   9.006  69.057  1.00  0.00    -0.107 C  
HETATM   19  C   UNL     1      -8.799   7.997  69.916  1.00  0.00    -0.144 C  
HETATM   20  C   UNL     1      -8.661   6.618  69.301  1.00  0.00    -0.131 C  
HETATM   21  C   UNL     1      -9.107   6.584  67.836  1.00  0.00    -0.113 C  
HETATM   22  C   UNL     1     -10.450   5.918  67.581  1.00  0.00    -0.238 C  
HETATM   23  C   UNL     1      -9.007   7.916  67.047  1.00  0.00    -0.128 C  
HETATM   24  O   UNL     1     -11.370   6.015  68.562  1.00  0.00    -0.230 OA 
HETATM   25  O   UNL     1     -10.709   5.345  66.529  1.00  0.00    -0.301 OA 
ENDBRANCH  16  17
ENDBRANCH  15  16
ENDBRANCH   8  15
ENDBRANCH   3   7
TORSDOF 5
ENDMDL
MODEL      275
REMARK 921   NORMALIZED FREE ENERGY PREDICTED BY IDOCK:   -1.52 KCAL/MOL
REMARK 922        TOTAL FREE ENERGY PREDICTED BY IDOCK:   -3.46 KCAL/MOL
REMARK 923 INTER-LIGAND FREE ENERGY PREDICTED BY IDOCK:   -4.03 KCAL/MOL
REMARK 924 INTRA-LIGAND FREE ENERGY PREDICTED BY IDOCK:    0.57 KCAL/MOL
REMARK 927      BINDING AFFINITY PREDICTED BY RF-SCORE:    0.00 PKD
ROOT
HETATM    1  C   UNL     1      -6.779  16.226  68.237  1.00  0.00    -0.134 C  
HETATM    2  C   UNL     1      -6.599  14.776  67.915  1.00  0.00    -0.175 A  
HETATM    3  C   UNL     1      -7.583  13.840  67.554  1.00  0.00    -0.173 A  
HETATM    4  C   UNL     1      -5.304  12.832  67.729  1.00  0.00    -0.115 A  
HETATM    5  S   UNL     1      -6.866  12.274  67.340  1.00  0.00    -0.138 SA 
HETATM    6  C   UNL     1      -5.295  14.174  68.006  1.00  0.00    -0.109 A  
ENDROOT
BRANCH   3   7
HETATM    7  C   UNL     1      -9.028  13.941  67.409  1.00  0.00    -0.211 C  
HETATM    8  C   UNL     1      -9.693  12.981  66.716  1.00  0.00    -0.248 C  
BRANCH   7   9
HETATM    9  C   UNL     1      -9.810  14.998  68.059  1.00  0.00    -0.218 A  
HETATM   10  C   UNL     1     -10.403  16.180  67.582  1.00  0.00    -0.288 A  
HETATM   11  C   UNL     1     -11.091  16.243  69.824  1.00  0.00    -0.337 A  
HETATM   12  C   UNL     1     -11.121  16.884  68.615  1.00  0.00    -0.194 A  
HETATM   13  S   UNL     1     -10.185  14.812  69.755  1.00  0.00     0.126 SA 
HETATM   14  C   UNL     1     -10.395  16.747  66.193  1.00  0.00    -0.338 C  
ENDBRANCH   7   9
BRANCH   8  15
HETATM   15  C   UNL     1      -9.123  11.695  66.150  1.00  0.00    -0.209 C  
BRANCH  15  16
HETATM   16  C   UNL     1     -10.081  10.462  66.201  1.00  0.00    -0.237 C  
BRANCH  16  17
HETATM   17  N   UNL     1      -9.719   9.439  65.206  1.00  0.00    -0.208 NA 
HETATM   18  C   UNL     1      -9.103   9.934  63.986  1.00  0.00    -0.259 C  
HETATM   19  C   UNL     1      -7.585   9.849  64.029  1.00  0.00    -0.138 C  
HETATM   20  C   UNL     1      -7.166   8.392  64.069  1.00  0.00    -0.093 C  
HETATM   21  C   UNL     1      -7.828   7.625  65.218  1.00  0.00    -0.122 C  
HETATM   22  C   UNL     1      -6.920   7.309  66.396  1.00  0.00    -0.069 C  
HETATM   23  C   UNL     1      -9.193   8.166  65.719  1.00  0.00    -0.034 C  
HETATM   24  O   UNL     1      -5.936   8.192  66.656  1.00  0.00    -0.043 OA 
HETATM   25  O   UNL     1      -7.082   6.320  67.101  1.00  0.00    -0.070 OA 
ENDBRANCH  16  17
ENDBRANCH  15  16
ENDBRANCH   8  15
ENDBRANCH   3   7
TORSDOF 5
ENDMDL
MODEL      276
REMARK 921   NORMALIZED FREE ENERGY PREDICTED BY IDOCK:   -1.20 KCAL/MOL
REMARK 922        TOTAL FREE ENERGY PREDICTED BY IDOCK:   -3.05 KCAL/MOL
REMARK 923 INTER-LIGAND FREE ENERGY PREDICTED BY IDOCK:   -2.04 KCAL/MOL
REMARK 924 INTRA-LIGAND FREE ENERGY PREDICTED BY IDOCK:   -1.01 KCAL/MOL
REMARK 927      BINDING AFFINITY PREDICTED BY RF-SCORE:    0.00 PKD
ROOT
HETATM    1  C   UNL     1      -7.538  15.855  65.841  1.00  0.00     1.692 C  
HETATM    2  C   UNL     1      -7.125  16.217  67.232  1.00  0.00    -0.226 A  
HETATM    3  C   UNL     1      -7.931  16.694  68.279  1.00  0.00    -0.192 A  
HETATM    4  C   UNL     1      -5.516  16.552  68.903  1.00  0.00    -0.126 A  
HETATM    5  S   UNL     1      -6.958  17.020  69.678  1.00  0.00     0.250 SA 
HETATM    6  C   UNL     1      -5.739  16.141  67.615  1.00  0.00    -0.169 A  
ENDROOT
BRANCH   3   7
HETATM    7  C   UNL     1      -9.350  17.011  68.360  1.00  0.00    -0.266 C  
HETATM    8  C   UNL     1     -10.205  16.087  68.868  1.00  0.00    -0.231 C  
BRANCH   7   9
HETATM    9  C   UNL     1      -9.882  18.326  67.993  1.00  0.00    -0.330 A  
HETATM   10  C   UNL     1     -10.457  18.831  66.813  1.00  0.00    -0.478 A  
HETATM   11  C   UNL     1     -10.652  20.707  68.207  1.00  0.00     0.379 A  
HETATM   12  C   UNL     1     -10.878  20.203  66.955  1.00  0.00    -0.096 A  
HETATM   13  S   UNL     1      -9.909  19.568  69.221  1.00  0.00    -0.125 SA 
HETATM   14  C   UNL     1     -10.689  18.137  65.503  1.00  0.00     0.051 C  
ENDBRANCH   7   9
BRANCH   8  15
HETATM   15  C   UNL     1      -9.851  14.756  69.503  1.00  0.00    -0.003 C  
BRANCH  15  16
HETATM   16  C   UNL     1      -9.356  13.655  68.511  1.00  0.00    -0.128 C  
BRANCH  16  17
HETATM   17  N   UNL     1     -10.466  12.836  67.996  1.00  0.00    -0.220 NA 
HETATM   18  C   UNL     1     -11.799  13.251  68.401  1.00  0.00    -0.360 C  
HETATM   19  C   UNL     1     -12.481  14.111  67.348  1.00  0.00     0.055 C  
HETATM   20  C   UNL     1     -12.733  13.277  66.107  1.00  0.00    -0.042 C  
HETATM   21  C   UNL     1     -11.459  12.611  65.582  1.00  0.00    -0.387 C  
HETATM   22  C   UNL     1     -10.869  13.235  64.327  1.00  0.00    -0.392 C  
HETATM   23  C   UNL     1     -10.341  12.331  66.621  1.00  0.00    -0.215 C  
HETATM   24  O   UNL     1     -11.048  14.560  64.168  1.00  0.00    -0.098 OA 
HETATM   25  O   UNL     1     -10.233  12.582  63.507  1.00  0.00    -0.390 OA 
ENDBRANCH  16  17
ENDBRANCH  15  16
ENDBRANCH   8  15
ENDBRANCH   3   7
TORSDOF 5
ENDMDL
MODEL      277
REMARK 921   NORMALIZED FREE ENERGY PREDICTED BY IDOCK:   -1.07 KCAL/MOL
REMARK 922        TOTAL FREE ENERGY PREDICTED BY IDOCK:   -2.89 KCAL/MOL
REMARK 923 INTER-LIGAND FREE ENERGY PREDICTED BY IDOCK:   -1.89 KCAL/MOL
REMARK 924 INTRA-LIGAND FREE ENERGY PREDICTED BY IDOCK:   -1.00 KCAL/MOL
REMARK 927      BINDING AFFINITY PREDICTED BY RF-SCORE:    0.00 PKD
ROOT
HETATM    1  C   UNL     1      -6.163  11.629  70.735  1.00  0.00     0.424 C  
HETATM    2  C   UNL     1      -6.190  11.584  69.240  1.00  0.00    -0.079 A  
HETATM    3  C   UNL     1      -7.174  12.092  68.375  1.00  0.00    -0.092 A  
HETATM    4  C   UNL     1      -5.331  10.918  67.164  1.00  0.00    -0.047 A  
HETATM    5  S   UNL     1      -6.763  11.732  66.728  1.00  0.00     0.021 SA 
HETATM    6  C   UNL     1      -5.138  10.916  68.520  1.00  0.00    -0.037 A  
ENDROOT
BRANCH   3   7
HETATM    7  C   UNL     1      -8.442  12.765  68.618  1.00  0.00     0.050 C  
HETATM    8  C   UNL     1      -8.443  14.097  68.881  1.00  0.00     0.002 C  
BRANCH   7   9
HETATM    9  C   UNL     1      -9.731  12.077  68.504  1.00  0.00    -0.161 A  
HETATM   10  C   UNL     1     -10.633  11.906  67.439  1.00  0.00    -0.257 A  
HETATM   11  C   UNL     1     -11.708  10.648  69.102  1.00  0.00    -0.253 A  
HETATM   12  C   UNL     1     -11.766  11.094  67.810  1.00  0.00    -0.220 A  
HETATM   13  S   UNL     1     -10.323  11.212  69.901  1.00  0.00     0.645 SA 
HETATM   14  C   UNL     1     -10.544  12.423  66.033  1.00  0.00    -0.286 C  
ENDBRANCH   7   9
BRANCH   8  15
HETATM   15  C   UNL     1      -7.260  15.045  68.834  1.00  0.00    -0.127 C  
BRANCH  15  16
HETATM   16  C   UNL     1      -7.599  16.546  69.108  1.00  0.00    -0.210 C  
BRANCH  16  17
HETATM   17  N   UNL     1      -6.548  17.449  68.606  1.00  0.00    -0.184 NA 
HETATM   18  C   UNL     1      -6.880  18.201  67.407  1.00  0.00    -0.195 C  
HETATM   19  C   UNL     1      -7.372  19.605  67.723  1.00  0.00    -0.306 C  
HETATM   20  C   UNL     1      -6.239  20.405  68.338  1.00  0.00    -0.343 C  
HETATM   21  C   UNL     1      -5.629  19.710  69.558  1.00  0.00    -0.249 C  
HETATM   22  C   UNL     1      -6.001  20.314  70.903  1.00  0.00    -0.281 C  
HETATM   23  C   UNL     1      -5.748  18.164  69.611  1.00  0.00    -0.240 C  
HETATM   24  O   UNL     1      -7.217  20.887  70.994  1.00  0.00     0.903 OA 
HETATM   25  O   UNL     1      -5.254  20.263  71.874  1.00  0.00    -0.366 OA 
ENDBRANCH  16  17
ENDBRANCH  15  16
ENDBRANCH   8  15
ENDBRANCH   3   7
TORSDOF 5
ENDMDL
MODEL      278
REMARK 921   NORMALIZED FREE ENERGY PREDICTED BY IDOCK:   -0.88 KCAL/MOL
REMARK 922        TOTAL FREE ENERGY PREDICTED BY IDOCK:   -2.64 KCAL/MOL
REMARK 923 INTER-LIGAND FREE ENERGY PREDICTED BY IDOCK:   -2.89 KCAL/MOL
REMARK 924 INTRA-LIGAND FREE ENERGY PREDICTED BY IDOCK:    0.25 KCAL/MOL
REMARK 927      BINDING AFFINITY PREDICTED BY RF-SCORE:    0.00 PKD
ROOT
HETATM    1  C   UNL     1      -8.744  20.292  67.172  1.00  0.00    -0.429 C  
HETATM    2  C   UNL     1      -9.402  19.155  67.888  1.00  0.00    -0.370 A  
HETATM    3  C   UNL     1      -8.793  18.136  68.640  1.00  0.00    -0.262 A  
HETATM    4  C   UNL     1     -11.272  17.871  68.475  1.00  0.00     0.724 A  
HETATM    5  S   UNL     1      -9.994  17.024  69.217  1.00  0.00    -0.105 SA 
HETATM    6  C   UNL     1     -10.829  18.983  67.809  1.00  0.00    -0.374 A  
ENDROOT
BRANCH   3   7
HETATM    7  C   UNL     1      -7.401  17.835  68.939  1.00  0.00    -0.245 C  
HETATM    8  C   UNL     1      -6.883  16.643  68.547  1.00  0.00    -0.157 C  
BRANCH   7   9
HETATM    9  C   UNL     1      -6.506  18.808  69.573  1.00  0.00    -0.225 A  
HETATM   10  C   UNL     1      -5.913  20.000  69.118  1.00  0.00    -0.324 A  
HETATM   11  C   UNL     1      -5.158  19.978  71.340  1.00  0.00    -0.321 A  
HETATM   12  C   UNL     1      -5.133  20.645  70.145  1.00  0.00    -0.341 A  
HETATM   13  S   UNL     1      -6.082  18.559  71.249  1.00  0.00     1.184 SA 
HETATM   14  C   UNL     1      -6.012  20.650  67.770  1.00  0.00    -0.307 C  
ENDBRANCH   7   9
BRANCH   8  15
HETATM   15  C   UNL     1      -7.555  15.584  67.694  1.00  0.00    -0.182 C  
BRANCH  15  16
HETATM   16  C   UNL     1      -7.747  14.195  68.386  1.00  0.00    -0.140 C  
BRANCH  16  17
HETATM   17  N   UNL     1      -7.103  13.108  67.629  1.00  0.00    -0.147 NA 
HETATM   18  C   UNL     1      -5.905  12.544  68.229  1.00  0.00    -0.062 C  
HETATM   19  C   UNL     1      -6.195  11.277  69.018  1.00  0.00    -0.056 C  
HETATM   20  C   UNL     1      -6.658  10.190  68.067  1.00  0.00    -0.058 C  
HETATM   21  C   UNL     1      -7.848  10.631  67.210  1.00  0.00    -0.112 C  
HETATM   22  C   UNL     1      -9.190  10.038  67.607  1.00  0.00    -0.137 C  
HETATM   23  C   UNL     1      -7.989  12.154  66.947  1.00  0.00    -0.089 C  
HETATM   24  O   UNL     1      -9.368   9.764  68.915  1.00  0.00    -0.148 OA 
HETATM   25  O   UNL     1     -10.086   9.841  66.795  1.00  0.00    -0.206 OA 
ENDBRANCH  16  17
ENDBRANCH  15  16
ENDBRANCH   8  15
ENDBRANCH   3   7
TORSDOF 5
ENDMDL
MODEL      279
REMARK 921   NORMALIZED FREE ENERGY PREDICTED BY IDOCK:   -0.77 KCAL/MOL
REMARK 922        TOTAL FREE ENERGY PREDICTED BY IDOCK:   -2.50 KCAL/MOL
REMARK 923 INTER-LIGAND FREE ENERGY PREDICTED BY IDOCK:   -5.01 KCAL/MOL
REMARK 924 INTRA-LIGAND FREE ENERGY PREDICTED BY IDOCK:    2.51 KCAL/MOL
REMARK 927      BINDING AFFINITY PREDICTED BY RF-SCORE:    0.00 PKD
ROOT
HETATM    1  C   UNL     1      -6.090  16.781  69.018  1.00  0.00    -0.169 C  
HETATM    2  C   UNL     1      -6.201  15.314  69.285  1.00  0.00    -0.118 A  
HETATM    3  C   UNL     1      -7.183  14.420  68.825  1.00  0.00    -0.128 A  
HETATM    4  C   UNL     1      -5.514  13.333  70.333  1.00  0.00    -0.145 A  
HETATM    5  S   UNL     1      -6.893  12.834  69.466  1.00  0.00     0.197 SA 
HETATM    6  C   UNL     1      -5.249  14.665  70.149  1.00  0.00    -0.097 A  
ENDROOT
BRANCH   3   7
HETATM    7  C   UNL     1      -8.374  14.606  68.009  1.00  0.00    -0.146 C  
HETATM    8  C   UNL     1      -9.157  13.534  67.727  1.00  0.00    -0.207 C  
BRANCH   7   9
HETATM    9  C   UNL     1      -8.811  15.928  67.549  1.00  0.00    -0.189 A  
HETATM   10  C   UNL     1      -9.878  16.766  67.920  1.00  0.00    -0.257 A  
HETATM   11  C   UNL     1      -8.813  18.125  66.332  1.00  0.00    -0.236 A  
HETATM   12  C   UNL     1      -9.866  18.014  67.199  1.00  0.00    -0.316 A  
HETATM   13  S   UNL     1      -7.842  16.735  66.341  1.00  0.00    -0.304 SA 
HETATM   14  C   UNL     1     -10.953  16.531  68.940  1.00  0.00    -0.325 C  
ENDBRANCH   7   9
BRANCH   8  15
HETATM   15  C   UNL     1      -9.020  12.126  68.273  1.00  0.00    -0.186 C  
BRANCH  15  16
HETATM   16  C   UNL     1      -8.877  11.004  67.194  1.00  0.00    -0.140 C  
BRANCH  16  17
HETATM   17  N   UNL     1     -10.000  11.009  66.241  1.00  0.00    -0.217 NA 
HETATM   18  C   UNL     1     -10.557  12.314  65.927  1.00  0.00    -0.256 C  
HETATM   19  C   UNL     1      -9.990  12.890  64.638  1.00  0.00    -0.153 C  
HETATM   20  C   UNL     1     -10.430  12.028  63.469  1.00  0.00    -0.505 C  
HETATM   21  C   UNL     1     -10.066  10.553  63.662  1.00  0.00    -0.219 C  
HETATM   22  C   UNL     1      -8.896  10.059  62.826  1.00  0.00    -0.237 C  
HETATM   23  C   UNL     1      -9.931  10.055  65.125  1.00  0.00    -0.280 C  
HETATM   24  O   UNL     1      -7.933  10.957  62.541  1.00  0.00    -0.159 OA 
HETATM   25  O   UNL     1      -8.804   8.896  62.449  1.00  0.00    -0.216 OA 
ENDBRANCH  16  17
ENDBRANCH  15  16
ENDBRANCH   8  15
ENDBRANCH   3   7
TORSDOF 5
ENDMDL
MODEL      280
REMARK 921   NORMALIZED FREE ENERGY PREDICTED BY IDOCK:   -0.61 KCAL/MOL
REMARK 922        TOTAL FREE ENERGY PREDICTED BY IDOCK:   -2.29 KCAL/MOL
REMARK 923 INTER-LIGAND FREE ENERGY PREDICTED BY IDOCK:   -2.45 KCAL/MOL
REMARK 924 INTRA-LIGAND FREE ENERGY PREDICTED BY IDOCK:    0.16 KCAL/MOL
REMARK 927      BINDING AFFINITY PREDICTED BY RF-SCORE:    0.00 PKD
ROOT
HETATM    1  C   UNL     1      -5.963  13.617  67.502  1.00  0.00     0.003 C  
HETATM    2  C   UNL     1      -6.052  14.792  68.424  1.00  0.00    -0.100 A  
HETATM    3  C   UNL     1      -6.870  15.928  68.303  1.00  0.00    -0.117 A  
HETATM    4  C   UNL     1      -5.362  16.026  70.293  1.00  0.00    -0.159 A  
HETATM    5  S   UNL     1      -6.555  17.029  69.607  1.00  0.00    -0.021 SA 
HETATM    6  C   UNL     1      -5.195  14.869  69.578  1.00  0.00    -0.088 A  
ENDROOT
BRANCH   3   7
HETATM    7  C   UNL     1      -7.828  16.345  67.289  1.00  0.00    -0.195 C  
HETATM    8  C   UNL     1      -8.882  15.538  67.004  1.00  0.00    -0.255 C  
BRANCH   7   9
HETATM    9  C   UNL     1      -7.749  17.648  66.624  1.00  0.00    -0.249 A  
HETATM   10  C   UNL     1      -8.603  18.766  66.604  1.00  0.00    -0.306 A  
HETATM   11  C   UNL     1      -6.829  19.573  65.297  1.00  0.00    -0.202 A  
HETATM   12  C   UNL     1      -8.060  19.852  65.825  1.00  0.00    -0.155 A  
HETATM   13  S   UNL     1      -6.315  18.006  65.694  1.00  0.00    -0.168 SA 
HETATM   14  C   UNL     1      -9.928  18.955  67.281  1.00  0.00    -0.386 C  
ENDBRANCH   7   9
BRANCH   8  15
HETATM   15  C   UNL     1      -9.280  14.259  67.714  1.00  0.00    -0.194 C  
BRANCH  15  16
HETATM   16  C   UNL     1      -9.798  13.114  66.786  1.00  0.00    -0.251 C  
BRANCH  16  17
HETATM   17  N   UNL     1      -9.318  11.791  67.220  1.00  0.00    -0.169 NA 
HETATM   18  C   UNL     1      -8.035  11.777  67.902  1.00  0.00    -0.141 C  
HETATM   19  C   UNL     1      -8.185  11.770  69.416  1.00  0.00     0.634 C  
HETATM   20  C   UNL     1      -8.829  10.467  69.849  1.00  0.00     0.140 C  
HETATM   21  C   UNL     1     -10.154  10.202  69.128  1.00  0.00    -0.226 C  
HETATM   22  C   UNL     1     -11.404  10.416  69.967  1.00  0.00    -0.313 C  
HETATM   23  C   UNL     1     -10.326  10.850  67.729  1.00  0.00    -0.187 C  
HETATM   24  O   UNL     1     -11.337  11.364  70.922  1.00  0.00     0.351 OA 
HETATM   25  O   UNL     1     -12.439   9.788  69.774  1.00  0.00     0.306 OA 
ENDBRANCH  16  17
ENDBRANCH  15  16
ENDBRANCH   8  15
ENDBRANCH   3   7
TORSDOF 5
ENDMDL
MODEL      281
REMARK 921   NORMALIZED FREE ENERGY PREDICTED BY IDOCK:   -0.49 KCAL/MOL
REMARK 922        TOTAL FREE ENERGY PREDICTED BY IDOCK:   -2.13 KCAL/MOL
REMARK 923 INTER-LIGAND FREE ENERGY PREDICTED BY IDOCK:   -2.27 KCAL/MOL
REMARK 924 INTRA-LIGAND FREE ENERGY PREDICTED BY IDOCK:    0.14 KCAL/MOL
REMARK 927      BINDING AFFINITY PREDICTED BY RF-SCORE:    0.00 PKD
ROOT
HETATM    1  C   UNL     1      -8.752  20.122  66.231  1.00  0.00    -0.283 C  
HETATM    2  C   UNL     1      -9.755  19.212  66.865  1.00  0.00    -0.389 A  
HETATM    3  C   UNL     1      -9.541  17.939  67.421  1.00  0.00    -0.271 A  
HETATM    4  C   UNL     1     -11.941  18.630  67.477  1.00  0.00     2.629 A  
HETATM    5  S   UNL     1     -11.044  17.272  67.976  1.00  0.00     0.095 SA 
HETATM    6  C   UNL     1     -11.143  19.590  66.911  1.00  0.00    -0.262 A  
ENDROOT
BRANCH   3   7
HETATM    7  C   UNL     1      -8.353  17.105  67.538  1.00  0.00    -0.199 C  
HETATM    8  C   UNL     1      -8.341  15.885  66.945  1.00  0.00    -0.281 C  
BRANCH   7   9
HETATM    9  C   UNL     1      -7.131  17.571  68.200  1.00  0.00    -0.206 A  
HETATM   10  C   UNL     1      -6.152  18.517  67.847  1.00  0.00    -0.187 A  
HETATM   11  C   UNL     1      -5.365  17.872  69.961  1.00  0.00    -0.233 A  
HETATM   12  C   UNL     1      -5.143  18.662  68.866  1.00  0.00    -0.188 A  
HETATM   13  S   UNL     1      -6.760  16.924  69.780  1.00  0.00     0.210 SA 
HETATM   14  C   UNL     1      -6.057  19.361  66.611  1.00  0.00    -0.165 C  
ENDBRANCH   7   9
BRANCH   8  15
HETATM   15  C   UNL     1      -9.399  15.294  66.033  1.00  0.00    -0.346 C  
BRANCH  15  16
HETATM   16  C   UNL     1      -9.660  13.764  66.220  1.00  0.00    -0.249 C  
BRANCH  16  17
HETATM   17  N   UNL     1      -9.730  13.386  67.642  1.00  0.00    -0.217 NA 
HETATM   18  C   UNL     1     -10.939  13.782  68.343  1.00  0.00    -0.254 C  
HETATM   19  C   UNL     1     -11.963  12.659  68.412  1.00  0.00    -0.268 C  
HETATM   20  C   UNL     1     -11.413  11.533  69.266  1.00  0.00    -0.370 C  
HETATM   21  C   UNL     1     -10.044  11.048  68.783  1.00  0.00    -0.214 C  
HETATM   22  C   UNL     1     -10.046   9.710  68.061  1.00  0.00    -0.178 C  
HETATM   23  C   UNL     1      -9.174  12.076  68.011  1.00  0.00    -0.192 C  
HETATM   24  O   UNL     1     -11.153   9.403  67.358  1.00  0.00    -0.113 OA 
HETATM   25  O   UNL     1      -9.083   8.952  68.083  1.00  0.00    -0.139 OA 
ENDBRANCH  16  17
ENDBRANCH  15  16
ENDBRANCH   8  15
ENDBRANCH   3   7
TORSDOF 5
ENDMDL
MODEL      282
REMARK 921   NORMALIZED FREE ENERGY PREDICTED BY IDOCK:    1.00 KCAL/MOL
REMARK 922        TOTAL FREE ENERGY PREDICTED BY IDOCK:   -0.20 KCAL/MOL
REMARK 923 INTER-LIGAND FREE ENERGY PREDICTED BY IDOCK:   -0.23 KCAL/MOL
REMARK 924 INTRA-LIGAND FREE ENERGY PREDICTED BY IDOCK:    0.03 KCAL/MOL
REMARK 927      BINDING AFFINITY PREDICTED BY RF-SCORE:    0.00 PKD
ROOT
HETATM    1  C   UNL     1     -10.666  17.408  68.633  1.00  0.00    -0.249 C  
HETATM    2  C   UNL     1      -9.435  16.777  68.063  1.00  0.00    -0.233 A  
HETATM    3  C   UNL     1      -9.287  15.479  67.545  1.00  0.00    -0.206 A  
HETATM    4  C   UNL     1      -7.150  16.775  67.542  1.00  0.00    -0.147 A  
HETATM    5  S   UNL     1      -7.641  15.216  67.061  1.00  0.00     0.033 SA 
HETATM    6  C   UNL     1      -8.193  17.505  68.049  1.00  0.00    -0.239 A  
ENDROOT
BRANCH   3   7
HETATM    7  C   UNL     1     -10.210  14.361  67.419  1.00  0.00    -0.247 C  
HETATM    8  C   UNL     1     -10.460  13.584  68.504  1.00  0.00    -0.250 C  
BRANCH   7   9
HETATM    9  C   UNL     1     -10.953  14.092  66.184  1.00  0.00    -0.309 A  
HETATM   10  C   UNL     1     -11.475  12.915  65.619  1.00  0.00    -0.368 A  
HETATM   11  C   UNL     1     -12.211  14.494  64.048  1.00  0.00    -0.229 A  
HETATM   12  C   UNL     1     -12.181  13.168  64.387  1.00  0.00    -0.462 A  
HETATM   13  S   UNL     1     -11.376  15.451  65.172  1.00  0.00    -0.234 SA 
HETATM   14  C   UNL     1     -11.406  11.508  66.135  1.00  0.00    -0.200 C  
ENDBRANCH   7   9
BRANCH   8  15
HETATM   15  C   UNL     1      -9.978  13.806  69.925  1.00  0.00     1.318 C  
BRANCH  15  16
HETATM   16  C   UNL     1     -10.320  15.203  70.534  1.00  0.00     0.092 C  
BRANCH  16  17
HETATM   17  N   UNL     1     -11.577  15.178  71.301  1.00  0.00    -0.337 NA 
HETATM   18  C   UNL     1     -12.675  15.948  70.740  1.00  0.00    -0.159 C  
HETATM   19  C   UNL     1     -13.628  15.087  69.925  1.00  0.00     1.101 C  
HETATM   20  C   UNL     1     -14.323  14.101  70.845  1.00  0.00     0.645 C  
HETATM   21  C   UNL     1     -13.332  13.267  71.661  1.00  0.00    -0.406 C  
HETATM   22  C   UNL     1     -13.168  11.825  71.206  1.00  0.00     0.014 C  
HETATM   23  C   UNL     1     -11.945  13.906  71.938  1.00  0.00     0.469 C  
HETATM   24  O   UNL     1     -13.325  11.584  69.890  1.00  0.00     0.761 OA 
HETATM   25  O   UNL     1     -12.877  10.922  71.982  1.00  0.00    -0.393 OA 
ENDBRANCH  16  17
ENDBRANCH  15  16
ENDBRANCH   8  15
ENDBRANCH   3   7
TORSDOF 5
ENDMDL
MODEL      283
REMARK 921   NORMALIZED FREE ENERGY PREDICTED BY IDOCK:    2.20 KCAL/MOL
REMARK 922        TOTAL FREE ENERGY PREDICTED BY IDOCK:    1.35 KCAL/MOL
REMARK 923 INTER-LIGAND FREE ENERGY PREDICTED BY IDOCK:    1.94 KCAL/MOL
REMARK 924 INTRA-LIGAND FREE ENERGY PREDICTED BY IDOCK:   -0.59 KCAL/MOL
REMARK 927      BINDING AFFINITY PREDICTED BY RF-SCORE:    0.00 PKD
ROOT
HETATM    1  C   UNL     1      -8.302  15.720  66.227  1.00  0.00    -0.166 C  
HETATM    2  C   UNL     1      -7.516  16.617  67.130  1.00  0.00    -0.218 A  
HETATM    3  C   UNL     1      -7.990  17.421  68.180  1.00  0.00    -0.233 A  
HETATM    4  C   UNL     1      -5.531  17.661  67.810  1.00  0.00    -0.138 A  
HETATM    5  S   UNL     1      -6.680  18.317  68.882  1.00  0.00    -0.254 SA 
HETATM    6  C   UNL     1      -6.097  16.770  66.937  1.00  0.00    -0.212 A  
ENDROOT
BRANCH   3   7
HETATM    7  C   UNL     1      -9.327  17.668  68.701  1.00  0.00    -0.270 C  
HETATM    8  C   UNL     1      -9.946  16.698  69.422  1.00  0.00    -0.162 C  
BRANCH   7   9
HETATM    9  C   UNL     1     -10.000  18.961  68.551  1.00  0.00    -0.406 A  
HETATM   10  C   UNL     1     -10.616  19.598  67.459  1.00  0.00    -0.577 A  
HETATM   11  C   UNL     1     -11.036  21.170  69.150  1.00  0.00     1.818 A  
HETATM   12  C   UNL     1     -11.191  20.870  67.824  1.00  0.00     2.403 A  
HETATM   13  S   UNL     1     -10.180  19.959  69.973  1.00  0.00     0.950 SA 
HETATM   14  C   UNL     1     -10.756  19.122  66.043  1.00  0.00    -0.451 C  
ENDBRANCH   7   9
BRANCH   8  15
HETATM   15  C   UNL     1      -9.358  15.377  69.881  1.00  0.00    -0.003 C  
BRANCH  15  16
HETATM   16  C   UNL     1      -9.478  14.203  68.858  1.00  0.00    -0.025 C  
BRANCH  16  17
HETATM   17  N   UNL     1     -10.845  14.073  68.324  1.00  0.00    -0.248 NA 
HETATM   18  C   UNL     1     -11.022  14.472  66.938  1.00  0.00    -0.316 C  
HETATM   19  C   UNL     1     -10.972  13.288  65.984  1.00  0.00    -0.292 C  
HETATM   20  C   UNL     1     -12.161  12.383  66.246  1.00  0.00    -0.062 C  
HETATM   21  C   UNL     1     -12.255  11.951  67.712  1.00  0.00     0.349 C  
HETATM   22  C   UNL     1     -11.847  10.513  67.992  1.00  0.00     0.414 C  
HETATM   23  C   UNL     1     -11.623  12.904  68.760  1.00  0.00    -0.311 C  
HETATM   24  O   UNL     1     -10.896   9.987  67.196  1.00  0.00    -0.243 OA 
HETATM   25  O   UNL     1     -12.329   9.863  68.913  1.00  0.00     0.593 OA 
ENDBRANCH  16  17
ENDBRANCH  15  16
ENDBRANCH   8  15
ENDBRANCH   3   7
TORSDOF 5
ENDMDL
MODEL      284
REMARK 921   NORMALIZED FREE ENERGY PREDICTED BY IDOCK:    9.49 KCAL/MOL
REMARK 922        TOTAL FREE ENERGY PREDICTED BY IDOCK:   10.76 KCAL/MOL
REMARK 923 INTER-LIGAND FREE ENERGY PREDICTED BY IDOCK:   -0.12 KCAL/MOL
REMARK 924 INTRA-LIGAND FREE ENERGY PREDICTED BY IDOCK:   10.88 KCAL/MOL
REMARK 927      BINDING AFFINITY PREDICTED BY RF-SCORE:    0.00 PKD
ROOT
HETATM    1  C   UNL     1      -6.951  16.943  70.003  1.00  0.00     0.682 C  
HETATM    2  C   UNL     1      -7.305  17.345  68.606  1.00  0.00    -0.244 A  
HETATM    3  C   UNL     1      -8.076  16.636  67.669  1.00  0.00    -0.171 A  
HETATM    4  C   UNL     1      -7.165  18.776  66.755  1.00  0.00    -0.213 A  
HETATM    5  S   UNL     1      -8.142  17.509  66.170  1.00  0.00    -0.152 SA 
HETATM    6  C   UNL     1      -6.793  18.574  68.059  1.00  0.00    -0.228 A  
ENDROOT
BRANCH   3   7
HETATM    7  C   UNL     1      -8.730  15.337  67.718  1.00  0.00    -0.168 C  
HETATM    8  C   UNL     1      -7.986  14.231  67.977  1.00  0.00    -0.142 C  
BRANCH   7   9
HETATM    9  C   UNL     1     -10.182  15.184  67.584  1.00  0.00    -0.241 A  
HETATM   10  C   UNL     1     -11.002  14.090  67.251  1.00  0.00    -0.303 A  
HETATM   11  C   UNL     1     -12.633  15.723  67.673  1.00  0.00     1.821 A  
HETATM   12  C   UNL     1     -12.403  14.428  67.296  1.00  0.00    -0.090 A  
HETATM   13  S   UNL     1     -11.187  16.564  67.950  1.00  0.00    -0.053 SA 
HETATM   14  C   UNL     1     -10.608  12.687  66.897  1.00  0.00    -0.256 C  
ENDBRANCH   7   9
BRANCH   8  15
HETATM   15  C   UNL     1      -6.519  14.178  68.360  1.00  0.00    -0.103 C  
BRANCH  15  16
HETATM   16  C   UNL     1      -6.109  12.969  69.260  1.00  0.00    -0.098 C  
BRANCH  16  17
HETATM   17  N   UNL     1      -7.148  11.924  69.289  1.00  0.00    -0.054 NA 
HETATM   18  C   UNL     1      -8.517  12.391  69.149  1.00  0.00     0.616 C  
HETATM   19  C   UNL     1      -9.022  12.284  67.718  1.00  0.00    -0.177 C  
HETATM   20  C   UNL     1      -9.105  10.821  67.325  1.00  0.00    -0.151 C  
HETATM   21  C   UNL     1      -7.781  10.083  67.536  1.00  0.00    -0.091 C  
HETATM   22  C   UNL     1      -7.002   9.771  66.268  1.00  0.00    -0.094 C  
HETATM   23  C   UNL     1      -6.832  10.652  68.625  1.00  0.00    -0.059 C  
HETATM   24  O   UNL     1      -7.130  10.643  65.249  1.00  0.00    -0.089 OA 
HETATM   25  O   UNL     1      -6.266   8.795  66.174  1.00  0.00    -0.057 OA 
ENDBRANCH  16  17
ENDBRANCH  15  16
ENDBRANCH   8  15
ENDBRANCH   3   7
TORSDOF 5
ENDMDL
