MODEL        1
REMARK 921   NORMALIZED FREE ENERGY PREDICTED BY IDOCK:   -6.89 KCAL/MOL
REMARK 922        TOTAL FREE ENERGY PREDICTED BY IDOCK:   -7.96 KCAL/MOL
REMARK 923 INTER-LIGAND FREE ENERGY PREDICTED BY IDOCK:   -7.69 KCAL/MOL
REMARK 924 INTRA-LIGAND FREE ENERGY PREDICTED BY IDOCK:   -0.27 KCAL/MOL
REMARK 927      BINDING AFFINITY PREDICTED BY RF-SCORE:    0.00 PKD
ROOT
HETATM    1  C   UNL     1     -10.551  11.278  64.812  1.00  0.00    -0.376 C  
HETATM    2  C   UNL     1     -10.898  12.726  64.474  1.00  0.00    -0.373 C  
HETATM    3  C   UNL     1     -11.000  13.570  65.725  1.00  0.00    -0.278 A  
HETATM    4  C   UNL     1     -12.188  12.807  63.660  1.00  0.00    -0.512 C  
HETATM    5  C   UNL     1     -12.064  13.734  66.591  1.00  0.00    -0.471 A  
HETATM    6  O   UNL     1     -12.569  14.075  63.358  1.00  0.00    -0.845 OA 
HETATM    7  O   UNL     1     -12.825  11.843  63.261  1.00  0.00    -0.702 OA 
HETATM    8  C   UNL     1     -11.779  14.673  67.626  1.00  0.00    -0.389 A  
HETATM    9  C   UNL     1     -10.510  15.214  67.517  1.00  0.00    -0.258 A  
HETATM   10  S   UNL     1      -9.643  14.492  66.230  1.00  0.00    -0.289 SA 
ENDROOT
BRANCH   9  11
HETATM   11  C   UNL     1      -9.869  16.257  68.310  1.00  0.00    -0.227 C  
HETATM   12  O   UNL     1      -9.211  16.037  69.325  1.00  0.00    -0.247 OA 
BRANCH  11  13
HETATM   13  C   UNL     1     -10.003  17.680  67.865  1.00  0.00    -0.323 A  
HETATM   14  C   UNL     1      -9.882  18.744  68.772  1.00  0.00    -0.434 A  
HETATM   15  C   UNL     1      -9.980  20.062  68.329  1.00  0.00    -0.508 A  
HETATM   16  C   UNL     1     -10.227  20.326  66.983  1.00  0.00    -0.503 A  
HETATM   17  C   UNL     1     -10.392  19.274  66.083  1.00  0.00    -0.578 A  
HETATM   18  C   UNL     1     -10.286  17.952  66.522  1.00  0.00    -0.379 A  
ENDBRANCH  11  13
ENDBRANCH   9  11
TORSDOF 2
ENDMDL
MODEL        2
REMARK 921   NORMALIZED FREE ENERGY PREDICTED BY IDOCK:   -6.53 KCAL/MOL
REMARK 922        TOTAL FREE ENERGY PREDICTED BY IDOCK:   -7.56 KCAL/MOL
REMARK 923 INTER-LIGAND FREE ENERGY PREDICTED BY IDOCK:   -7.36 KCAL/MOL
REMARK 924 INTRA-LIGAND FREE ENERGY PREDICTED BY IDOCK:   -0.21 KCAL/MOL
REMARK 927      BINDING AFFINITY PREDICTED BY RF-SCORE:    0.00 PKD
ROOT
HETATM    1  C   UNL     1     -10.323  14.325  65.079  1.00  0.00    -0.448 C  
HETATM    2  C   UNL     1     -11.666  13.676  65.408  1.00  0.00    -0.347 C  
HETATM    3  C   UNL     1     -11.559  12.786  66.626  1.00  0.00    -0.370 A  
HETATM    4  C   UNL     1     -12.207  12.894  64.212  1.00  0.00    -0.410 C  
HETATM    5  C   UNL     1     -11.136  11.474  66.723  1.00  0.00    -0.361 A  
HETATM    6  O   UNL     1     -13.385  12.263  64.456  1.00  0.00    -0.769 OA 
HETATM    7  O   UNL     1     -11.682  12.850  63.110  1.00  0.00    -0.472 OA 
HETATM    8  C   UNL     1     -11.244  10.968  68.052  1.00  0.00    -0.372 A  
HETATM    9  C   UNL     1     -11.761  11.899  68.934  1.00  0.00    -0.323 A  
HETATM   10  S   UNL     1     -12.000  13.409  68.164  1.00  0.00    -0.258 SA 
ENDROOT
BRANCH   9  11
HETATM   11  C   UNL     1     -12.106  11.758  70.344  1.00  0.00    -0.352 C  
HETATM   12  O   UNL     1     -12.442  12.697  71.064  1.00  0.00    -0.368 OA 
BRANCH  11  13
HETATM   13  C   UNL     1     -12.066  10.393  70.959  1.00  0.00    -0.488 A  
HETATM   14  C   UNL     1     -10.857   9.697  71.113  1.00  0.00    -0.404 A  
HETATM   15  C   UNL     1     -10.841   8.440  71.716  1.00  0.00    -0.353 A  
HETATM   16  C   UNL     1     -12.033   7.859  72.144  1.00  0.00    -0.379 A  
HETATM   17  C   UNL     1     -13.242   8.525  71.955  1.00  0.00    -0.398 A  
HETATM   18  C   UNL     1     -13.262   9.789  71.359  1.00  0.00    -0.482 A  
ENDBRANCH  11  13
ENDBRANCH   9  11
TORSDOF 2
ENDMDL
MODEL        3
REMARK 921   NORMALIZED FREE ENERGY PREDICTED BY IDOCK:   -6.52 KCAL/MOL
REMARK 922        TOTAL FREE ENERGY PREDICTED BY IDOCK:   -7.55 KCAL/MOL
REMARK 923 INTER-LIGAND FREE ENERGY PREDICTED BY IDOCK:   -7.36 KCAL/MOL
REMARK 924 INTRA-LIGAND FREE ENERGY PREDICTED BY IDOCK:   -0.19 KCAL/MOL
REMARK 927      BINDING AFFINITY PREDICTED BY RF-SCORE:    0.00 PKD
ROOT
HETATM    1  C   UNL     1     -10.207  14.356  65.174  1.00  0.00    -0.420 C  
HETATM    2  C   UNL     1     -11.578  13.781  65.524  1.00  0.00    -0.335 C  
HETATM    3  C   UNL     1     -11.501  12.884  66.739  1.00  0.00    -0.340 A  
HETATM    4  C   UNL     1     -12.180  13.033  64.336  1.00  0.00    -0.406 C  
HETATM    5  C   UNL     1     -11.149  11.551  66.827  1.00  0.00    -0.361 A  
HETATM    6  O   UNL     1     -13.387  12.467  64.597  1.00  0.00    -0.804 OA 
HETATM    7  O   UNL     1     -11.676  12.963  63.225  1.00  0.00    -0.521 OA 
HETATM    8  C   UNL     1     -11.263  11.048  68.157  1.00  0.00    -0.364 A  
HETATM    9  C   UNL     1     -11.714  12.004  69.049  1.00  0.00    -0.325 A  
HETATM   10  S   UNL     1     -11.882  13.526  68.284  1.00  0.00    -0.352 SA 
ENDROOT
BRANCH   9  11
HETATM   11  C   UNL     1     -12.044  11.879  70.464  1.00  0.00    -0.331 C  
HETATM   12  O   UNL     1     -12.289  12.835  71.196  1.00  0.00    -0.314 OA 
BRANCH  11  13
HETATM   13  C   UNL     1     -12.103  10.510  71.068  1.00  0.00    -0.492 A  
HETATM   14  C   UNL     1     -13.310   9.969  71.537  1.00  0.00    -0.451 A  
HETATM   15  C   UNL     1     -13.345   8.680  72.068  1.00  0.00    -0.428 A  
HETATM   16  C   UNL     1     -12.172   7.933  72.157  1.00  0.00    -0.353 A  
HETATM   17  C   UNL     1     -10.961   8.480  71.733  1.00  0.00    -0.376 A  
HETATM   18  C   UNL     1     -10.923   9.768  71.193  1.00  0.00    -0.386 A  
ENDBRANCH  11  13
ENDBRANCH   9  11
TORSDOF 2
ENDMDL
MODEL        4
REMARK 921   NORMALIZED FREE ENERGY PREDICTED BY IDOCK:   -6.30 KCAL/MOL
REMARK 922        TOTAL FREE ENERGY PREDICTED BY IDOCK:   -7.30 KCAL/MOL
REMARK 923 INTER-LIGAND FREE ENERGY PREDICTED BY IDOCK:   -7.21 KCAL/MOL
REMARK 924 INTRA-LIGAND FREE ENERGY PREDICTED BY IDOCK:   -0.09 KCAL/MOL
REMARK 927      BINDING AFFINITY PREDICTED BY RF-SCORE:    0.00 PKD
ROOT
HETATM    1  C   UNL     1     -10.255  14.524  65.270  1.00  0.00    -0.431 C  
HETATM    2  C   UNL     1     -11.603  13.873  65.573  1.00  0.00    -0.332 C  
HETATM    3  C   UNL     1     -11.558  13.105  66.875  1.00  0.00    -0.368 A  
HETATM    4  C   UNL     1     -12.048  12.968  64.426  1.00  0.00    -0.411 C  
HETATM    5  C   UNL     1     -11.116  11.820  67.123  1.00  0.00    -0.350 A  
HETATM    6  O   UNL     1     -13.226  12.332  64.653  1.00  0.00    -0.763 OA 
HETATM    7  O   UNL     1     -11.451  12.835  63.368  1.00  0.00    -0.490 OA 
HETATM    8  C   UNL     1     -11.300  11.438  68.485  1.00  0.00    -0.333 A  
HETATM    9  C   UNL     1     -11.893  12.434  69.240  1.00  0.00    -0.304 A  
HETATM   10  S   UNL     1     -12.112  13.857  68.315  1.00  0.00    -0.178 SA 
ENDROOT
BRANCH   9  11
HETATM   11  C   UNL     1     -12.327  12.416  70.632  1.00  0.00    -0.279 C  
HETATM   12  O   UNL     1     -12.472  11.388  71.291  1.00  0.00    -0.364 OA 
BRANCH  11  13
HETATM   13  C   UNL     1     -12.605  13.721  71.313  1.00  0.00    -0.444 A  
HETATM   14  C   UNL     1     -13.908  14.092  71.677  1.00  0.00    -0.442 A  
HETATM   15  C   UNL     1     -14.137  15.299  72.337  1.00  0.00    -0.622 A  
HETATM   16  C   UNL     1     -13.072  16.154  72.613  1.00  0.00    -0.330 A  
HETATM   17  C   UNL     1     -11.780  15.812  72.215  1.00  0.00    -0.580 A  
HETATM   18  C   UNL     1     -11.545  14.600  71.561  1.00  0.00    -0.187 A  
ENDBRANCH  11  13
ENDBRANCH   9  11
TORSDOF 2
ENDMDL
MODEL        5
REMARK 921   NORMALIZED FREE ENERGY PREDICTED BY IDOCK:   -6.20 KCAL/MOL
REMARK 922        TOTAL FREE ENERGY PREDICTED BY IDOCK:   -7.19 KCAL/MOL
REMARK 923 INTER-LIGAND FREE ENERGY PREDICTED BY IDOCK:   -6.87 KCAL/MOL
REMARK 924 INTRA-LIGAND FREE ENERGY PREDICTED BY IDOCK:   -0.32 KCAL/MOL
REMARK 927      BINDING AFFINITY PREDICTED BY RF-SCORE:    0.00 PKD
ROOT
HETATM    1  C   UNL     1      -9.676  10.731  65.186  1.00  0.00    -0.319 C  
HETATM    2  C   UNL     1     -10.747  11.503  65.954  1.00  0.00    -0.325 C  
HETATM    3  C   UNL     1     -10.339  12.944  66.161  1.00  0.00    -0.276 A  
HETATM    4  C   UNL     1     -11.058  10.831  67.290  1.00  0.00    -0.270 C  
HETATM    5  C   UNL     1      -9.534  13.499  67.138  1.00  0.00    -0.244 A  
HETATM    6  O   UNL     1     -11.981  11.492  68.036  1.00  0.00    -0.595 OA 
HETATM    7  O   UNL     1     -10.577   9.774  67.670  1.00  0.00    -0.242 OA 
HETATM    8  C   UNL     1      -9.444  14.918  67.023  1.00  0.00    -0.239 A  
HETATM    9  C   UNL     1     -10.194  15.414  65.972  1.00  0.00    -0.324 A  
HETATM   10  S   UNL     1     -10.904  14.144  65.071  1.00  0.00    -0.422 SA 
ENDROOT
BRANCH   9  11
HETATM   11  C   UNL     1     -10.439  16.794  65.570  1.00  0.00    -0.237 C  
HETATM   12  O   UNL     1     -11.056  17.112  64.555  1.00  0.00    -1.105 OA 
BRANCH  11  13
HETATM   13  C   UNL     1      -9.925  17.897  66.443  1.00  0.00    -0.358 A  
HETATM   14  C   UNL     1     -10.777  18.606  67.303  1.00  0.00    -0.449 A  
HETATM   15  C   UNL     1     -10.269  19.608  68.129  1.00  0.00    -0.580 A  
HETATM   16  C   UNL     1      -8.913  19.928  68.081  1.00  0.00    -0.330 A  
HETATM   17  C   UNL     1      -8.069  19.258  67.196  1.00  0.00    -0.290 A  
HETATM   18  C   UNL     1      -8.572  18.247  66.374  1.00  0.00    -0.262 A  
ENDBRANCH  11  13
ENDBRANCH   9  11
TORSDOF 2
ENDMDL
MODEL        6
REMARK 921   NORMALIZED FREE ENERGY PREDICTED BY IDOCK:   -6.19 KCAL/MOL
REMARK 922        TOTAL FREE ENERGY PREDICTED BY IDOCK:   -7.18 KCAL/MOL
REMARK 923 INTER-LIGAND FREE ENERGY PREDICTED BY IDOCK:   -6.79 KCAL/MOL
REMARK 924 INTRA-LIGAND FREE ENERGY PREDICTED BY IDOCK:   -0.39 KCAL/MOL
REMARK 927      BINDING AFFINITY PREDICTED BY RF-SCORE:    0.00 PKD
ROOT
HETATM    1  C   UNL     1     -10.523  18.674  66.617  1.00  0.00    -0.459 C  
HETATM    2  C   UNL     1      -9.663  17.413  66.662  1.00  0.00    -0.296 C  
HETATM    3  C   UNL     1     -10.520  16.167  66.669  1.00  0.00    -0.300 A  
HETATM    4  C   UNL     1      -8.723  17.430  67.866  1.00  0.00    -0.237 C  
HETATM    5  C   UNL     1     -11.140  15.532  67.727  1.00  0.00    -0.315 A  
HETATM    6  O   UNL     1      -7.956  16.315  67.980  1.00  0.00    -0.143 OA 
HETATM    7  O   UNL     1      -8.611  18.359  68.653  1.00  0.00    -0.326 OA 
HETATM    8  C   UNL     1     -11.811  14.339  67.325  1.00  0.00    -0.444 A  
HETATM    9  C   UNL     1     -11.673  14.083  65.973  1.00  0.00    -0.369 A  
HETATM   10  S   UNL     1     -10.832  15.352  65.190  1.00  0.00    -0.444 SA 
ENDROOT
BRANCH   9  11
HETATM   11  C   UNL     1     -12.124  12.940  65.188  1.00  0.00    -0.445 C  
HETATM   12  O   UNL     1     -13.284  12.783  64.812  1.00  0.00    -0.812 OA 
BRANCH  11  13
HETATM   13  C   UNL     1     -11.123  11.895  64.803  1.00  0.00    -0.367 A  
HETATM   14  C   UNL     1     -10.680  11.761  63.478  1.00  0.00    -0.501 A  
HETATM   15  C   UNL     1      -9.725  10.800  63.149  1.00  0.00    -0.394 A  
HETATM   16  C   UNL     1      -9.225   9.951  64.134  1.00  0.00    -0.312 A  
HETATM   17  C   UNL     1      -9.693  10.049  65.444  1.00  0.00    -0.368 A  
HETATM   18  C   UNL     1     -10.644  11.016  65.779  1.00  0.00    -0.260 A  
ENDBRANCH  11  13
ENDBRANCH   9  11
TORSDOF 2
ENDMDL
MODEL        7
REMARK 921   NORMALIZED FREE ENERGY PREDICTED BY IDOCK:   -6.18 KCAL/MOL
REMARK 922        TOTAL FREE ENERGY PREDICTED BY IDOCK:   -7.17 KCAL/MOL
REMARK 923 INTER-LIGAND FREE ENERGY PREDICTED BY IDOCK:   -6.96 KCAL/MOL
REMARK 924 INTRA-LIGAND FREE ENERGY PREDICTED BY IDOCK:   -0.22 KCAL/MOL
REMARK 927      BINDING AFFINITY PREDICTED BY RF-SCORE:    0.00 PKD
ROOT
HETATM    1  C   UNL     1     -12.993   7.866  71.375  1.00  0.00    -0.301 C  
HETATM    2  C   UNL     1     -11.872   8.813  71.797  1.00  0.00    -0.414 C  
HETATM    3  C   UNL     1     -11.769   9.992  70.855  1.00  0.00    -0.374 A  
HETATM    4  C   UNL     1     -10.537   8.077  71.891  1.00  0.00    -0.245 C  
HETATM    5  C   UNL     1     -11.117  10.093  69.641  1.00  0.00    -0.308 A  
HETATM    6  O   UNL     1      -9.491   8.876  72.229  1.00  0.00    -0.327 OA 
HETATM    7  O   UNL     1     -10.387   6.875  71.728  1.00  0.00    -0.198 OA 
HETATM    8  C   UNL     1     -11.205  11.405  69.088  1.00  0.00    -0.335 A  
HETATM    9  C   UNL     1     -11.908  12.277  69.899  1.00  0.00    -0.311 A  
HETATM   10  S   UNL     1     -12.548  11.466  71.263  1.00  0.00    -0.320 SA 
ENDROOT
BRANCH   9  11
HETATM   11  C   UNL     1     -12.149  13.707  69.745  1.00  0.00    -0.334 C  
HETATM   12  O   UNL     1     -12.050  14.306  68.676  1.00  0.00    -0.325 OA 
BRANCH  11  13
HETATM   13  C   UNL     1     -12.551  14.500  70.950  1.00  0.00    -0.414 A  
HETATM   14  C   UNL     1     -13.901  14.756  71.239  1.00  0.00    -0.460 A  
HETATM   15  C   UNL     1     -14.253  15.471  72.383  1.00  0.00    -0.571 A  
HETATM   16  C   UNL     1     -13.260  15.958  73.231  1.00  0.00    -0.698 A  
HETATM   17  C   UNL     1     -11.916  15.746  72.927  1.00  0.00    -0.599 A  
HETATM   18  C   UNL     1     -11.559  15.023  71.786  1.00  0.00    -0.425 A  
ENDBRANCH  11  13
ENDBRANCH   9  11
TORSDOF 2
ENDMDL
MODEL        8
REMARK 921   NORMALIZED FREE ENERGY PREDICTED BY IDOCK:   -6.12 KCAL/MOL
REMARK 922        TOTAL FREE ENERGY PREDICTED BY IDOCK:   -7.11 KCAL/MOL
REMARK 923 INTER-LIGAND FREE ENERGY PREDICTED BY IDOCK:   -7.22 KCAL/MOL
REMARK 924 INTRA-LIGAND FREE ENERGY PREDICTED BY IDOCK:    0.11 KCAL/MOL
REMARK 927      BINDING AFFINITY PREDICTED BY RF-SCORE:    0.00 PKD
ROOT
HETATM    1  C   UNL     1     -12.407  14.414  64.116  1.00  0.00    -0.340 C  
HETATM    2  C   UNL     1     -11.096  14.606  64.875  1.00  0.00    -0.409 C  
HETATM    3  C   UNL     1     -11.171  13.996  66.258  1.00  0.00    -0.320 A  
HETATM    4  C   UNL     1     -10.717  16.083  64.955  1.00  0.00    -0.378 C  
HETATM    5  C   UNL     1     -11.685  14.526  67.426  1.00  0.00    -0.425 A  
HETATM    6  O   UNL     1      -9.576  16.321  65.652  1.00  0.00    -0.466 OA 
HETATM    7  O   UNL     1     -11.333  16.993  64.420  1.00  0.00    -1.140 OA 
HETATM    8  C   UNL     1     -11.508  13.652  68.539  1.00  0.00    -0.347 A  
HETATM    9  C   UNL     1     -10.850  12.484  68.198  1.00  0.00    -0.222 A  
HETATM   10  S   UNL     1     -10.559  12.413  66.513  1.00  0.00    -0.240 SA 
ENDROOT
BRANCH   9  11
HETATM   11  C   UNL     1     -10.402  11.384  69.045  1.00  0.00    -0.142 C  
HETATM   12  O   UNL     1      -9.284  10.878  68.974  1.00  0.00    -0.176 OA 
BRANCH  11  13
HETATM   13  C   UNL     1     -11.347  10.838  70.071  1.00  0.00    -0.397 A  
HETATM   14  C   UNL     1     -12.270  11.666  70.727  1.00  0.00    -0.443 A  
HETATM   15  C   UNL     1     -13.160  11.130  71.657  1.00  0.00    -0.529 A  
HETATM   16  C   UNL     1     -13.116   9.769  71.956  1.00  0.00    -0.546 A  
HETATM   17  C   UNL     1     -12.172   8.949  71.340  1.00  0.00    -0.374 A  
HETATM   18  C   UNL     1     -11.285   9.481  70.402  1.00  0.00    -0.323 A  
ENDBRANCH  11  13
ENDBRANCH   9  11
TORSDOF 2
ENDMDL
MODEL        9
REMARK 921   NORMALIZED FREE ENERGY PREDICTED BY IDOCK:   -6.12 KCAL/MOL
REMARK 922        TOTAL FREE ENERGY PREDICTED BY IDOCK:   -7.11 KCAL/MOL
REMARK 923 INTER-LIGAND FREE ENERGY PREDICTED BY IDOCK:   -6.74 KCAL/MOL
REMARK 924 INTRA-LIGAND FREE ENERGY PREDICTED BY IDOCK:   -0.37 KCAL/MOL
REMARK 927      BINDING AFFINITY PREDICTED BY RF-SCORE:    0.00 PKD
ROOT
HETATM    1  C   UNL     1     -12.758  12.322  64.196  1.00  0.00    -0.431 C  
HETATM    2  C   UNL     1     -11.594  12.230  65.180  1.00  0.00    -0.402 C  
HETATM    3  C   UNL     1     -11.136  13.604  65.615  1.00  0.00    -0.294 A  
HETATM    4  C   UNL     1     -10.433  11.435  64.586  1.00  0.00    -0.315 C  
HETATM    5  C   UNL     1     -10.269  14.480  64.991  1.00  0.00    -0.398 A  
HETATM    6  O   UNL     1      -9.352  11.348  65.403  1.00  0.00    -0.215 OA 
HETATM    7  O   UNL     1     -10.451  10.876  63.499  1.00  0.00    -0.333 OA 
HETATM    8  C   UNL     1     -10.044  15.660  65.761  1.00  0.00    -0.394 A  
HETATM    9  C   UNL     1     -10.733  15.649  66.960  1.00  0.00    -0.314 A  
HETATM   10  S   UNL     1     -11.730  14.263  67.084  1.00  0.00    -0.418 SA 
ENDROOT
BRANCH   9  11
HETATM   11  C   UNL     1     -10.710  16.608  68.059  1.00  0.00    -0.350 C  
HETATM   12  O   UNL     1     -11.190  16.389  69.169  1.00  0.00    -0.314 OA 
BRANCH  11  13
HETATM   13  C   UNL     1     -10.055  17.937  67.836  1.00  0.00    -0.350 A  
HETATM   14  C   UNL     1      -8.785  18.222  68.360  1.00  0.00    -0.325 A  
HETATM   15  C   UNL     1      -8.182  19.455  68.114  1.00  0.00    -0.359 A  
HETATM   16  C   UNL     1      -8.855  20.420  67.367  1.00  0.00    -0.430 A  
HETATM   17  C   UNL     1     -10.135  20.160  66.881  1.00  0.00    -0.592 A  
HETATM   18  C   UNL     1     -10.739  18.923  67.117  1.00  0.00    -0.506 A  
ENDBRANCH  11  13
ENDBRANCH   9  11
TORSDOF 2
ENDMDL
MODEL       10
REMARK 921   NORMALIZED FREE ENERGY PREDICTED BY IDOCK:   -6.08 KCAL/MOL
REMARK 922        TOTAL FREE ENERGY PREDICTED BY IDOCK:   -7.07 KCAL/MOL
REMARK 923 INTER-LIGAND FREE ENERGY PREDICTED BY IDOCK:   -7.27 KCAL/MOL
REMARK 924 INTRA-LIGAND FREE ENERGY PREDICTED BY IDOCK:    0.21 KCAL/MOL
REMARK 927      BINDING AFFINITY PREDICTED BY RF-SCORE:    0.00 PKD
ROOT
HETATM    1  C   UNL     1      -9.977  12.370  64.350  1.00  0.00    -0.220 C  
HETATM    2  C   UNL     1     -10.744  13.645  64.690  1.00  0.00    -0.433 C  
HETATM    3  C   UNL     1     -11.029  13.733  66.173  1.00  0.00    -0.292 A  
HETATM    4  C   UNL     1     -12.038  13.741  63.884  1.00  0.00    -0.376 C  
HETATM    5  C   UNL     1     -12.055  13.167  66.906  1.00  0.00    -0.377 A  
HETATM    6  O   UNL     1     -12.783  14.839  64.169  1.00  0.00    -0.758 OA 
HETATM    7  O   UNL     1     -12.385  12.947  63.022  1.00  0.00    -0.509 OA 
HETATM    8  C   UNL     1     -12.007  13.543  68.281  1.00  0.00    -0.377 A  
HETATM    9  C   UNL     1     -10.957  14.398  68.562  1.00  0.00    -0.251 A  
HETATM   10  S   UNL     1      -9.977  14.641  67.180  1.00  0.00    -0.243 SA 
ENDROOT
BRANCH   9  11
HETATM   11  C   UNL     1     -10.610  15.074  69.807  1.00  0.00    -0.215 C  
HETATM   12  O   UNL     1      -9.495  15.531  70.049  1.00  0.00    -0.195 OA 
BRANCH  11  13
HETATM   13  C   UNL     1     -11.669  15.236  70.853  1.00  0.00    -0.386 A  
HETATM   14  C   UNL     1     -13.031  15.133  70.535  1.00  0.00    -0.366 A  
HETATM   15  C   UNL     1     -13.998  15.258  71.532  1.00  0.00    -0.627 A  
HETATM   16  C   UNL     1     -13.612  15.513  72.847  1.00  0.00    -0.633 A  
HETATM   17  C   UNL     1     -12.262  15.661  73.162  1.00  0.00    -0.587 A  
HETATM   18  C   UNL     1     -11.290  15.528  72.168  1.00  0.00    -0.428 A  
ENDBRANCH  11  13
ENDBRANCH   9  11
TORSDOF 2
ENDMDL
MODEL       11
REMARK 921   NORMALIZED FREE ENERGY PREDICTED BY IDOCK:   -6.06 KCAL/MOL
REMARK 922        TOTAL FREE ENERGY PREDICTED BY IDOCK:   -7.03 KCAL/MOL
REMARK 923 INTER-LIGAND FREE ENERGY PREDICTED BY IDOCK:   -6.72 KCAL/MOL
REMARK 924 INTRA-LIGAND FREE ENERGY PREDICTED BY IDOCK:   -0.31 KCAL/MOL
REMARK 927      BINDING AFFINITY PREDICTED BY RF-SCORE:    0.00 PKD
ROOT
HETATM    1  C   UNL     1      -7.479  19.552  68.894  1.00  0.00    -0.392 C  
HETATM    2  C   UNL     1      -8.133  18.713  67.798  1.00  0.00    -0.269 C  
HETATM    3  C   UNL     1      -8.723  17.440  68.363  1.00  0.00    -0.271 A  
HETATM    4  C   UNL     1      -7.142  18.400  66.679  1.00  0.00    -0.210 C  
HETATM    5  C   UNL     1      -8.110  16.232  68.635  1.00  0.00    -0.213 A  
HETATM    6  O   UNL     1      -7.657  17.625  65.690  1.00  0.00    -0.521 OA 
HETATM    7  O   UNL     1      -5.997  18.824  66.619  1.00  0.00    -0.157 OA 
HETATM    8  C   UNL     1      -9.033  15.251  69.106  1.00  0.00    -0.233 A  
HETATM    9  C   UNL     1     -10.329  15.729  69.167  1.00  0.00    -0.240 A  
HETATM   10  S   UNL     1     -10.391  17.391  68.764  1.00  0.00    -0.337 SA 
ENDROOT
BRANCH   9  11
HETATM   11  C   UNL     1     -11.565  15.034  69.508  1.00  0.00    -0.311 C  
HETATM   12  O   UNL     1     -12.126  14.232  68.763  1.00  0.00    -0.324 OA 
BRANCH  11  13
HETATM   13  C   UNL     1     -12.190  15.295  70.843  1.00  0.00    -0.409 A  
HETATM   14  C   UNL     1     -11.443  15.820  71.909  1.00  0.00    -0.477 A  
HETATM   15  C   UNL     1     -12.055  16.083  73.134  1.00  0.00    -0.616 A  
HETATM   16  C   UNL     1     -13.408  15.800  73.311  1.00  0.00    -0.649 A  
HETATM   17  C   UNL     1     -14.145  15.237  72.271  1.00  0.00    -0.651 A  
HETATM   18  C   UNL     1     -13.539  14.980  71.039  1.00  0.00    -0.442 A  
ENDBRANCH  11  13
ENDBRANCH   9  11
TORSDOF 2
ENDMDL
MODEL       12
REMARK 921   NORMALIZED FREE ENERGY PREDICTED BY IDOCK:   -6.04 KCAL/MOL
REMARK 922        TOTAL FREE ENERGY PREDICTED BY IDOCK:   -7.01 KCAL/MOL
REMARK 923 INTER-LIGAND FREE ENERGY PREDICTED BY IDOCK:   -6.85 KCAL/MOL
REMARK 924 INTRA-LIGAND FREE ENERGY PREDICTED BY IDOCK:   -0.16 KCAL/MOL
REMARK 927      BINDING AFFINITY PREDICTED BY RF-SCORE:    0.00 PKD
ROOT
HETATM    1  C   UNL     1     -10.636  18.807  66.363  1.00  0.00    -0.429 C  
HETATM    2  C   UNL     1      -9.720  17.772  67.011  1.00  0.00    -0.290 C  
HETATM    3  C   UNL     1     -10.500  16.554  67.456  1.00  0.00    -0.310 A  
HETATM    4  C   UNL     1      -8.947  18.376  68.181  1.00  0.00    -0.309 C  
HETATM    5  C   UNL     1     -11.216  16.345  68.619  1.00  0.00    -0.332 A  
HETATM    6  O   UNL     1      -8.140  17.492  68.822  1.00  0.00    -0.275 OA 
HETATM    7  O   UNL     1      -8.990  19.551  68.516  1.00  0.00    -0.349 OA 
HETATM    8  C   UNL     1     -11.760  15.028  68.689  1.00  0.00    -0.363 A  
HETATM    9  C   UNL     1     -11.434  14.260  67.586  1.00  0.00    -0.346 A  
HETATM   10  S   UNL     1     -10.571  15.180  66.430  1.00  0.00    -0.312 SA 
ENDROOT
BRANCH   9  11
HETATM   11  C   UNL     1     -11.715  12.855  67.311  1.00  0.00    -0.373 C  
HETATM   12  O   UNL     1     -12.134  12.064  68.153  1.00  0.00    -0.480 OA 
BRANCH  11  13
HETATM   13  C   UNL     1     -11.496  12.339  65.922  1.00  0.00    -0.428 A  
HETATM   14  C   UNL     1     -12.392  12.635  64.884  1.00  0.00    -0.563 A  
HETATM   15  C   UNL     1     -12.151  12.168  63.592  1.00  0.00    -0.648 A  
HETATM   16  C   UNL     1     -11.029  11.382  63.335  1.00  0.00    -0.342 A  
HETATM   17  C   UNL     1     -10.158  11.047  64.372  1.00  0.00    -0.393 A  
HETATM   18  C   UNL     1     -10.392  11.520  65.665  1.00  0.00    -0.308 A  
ENDBRANCH  11  13
ENDBRANCH   9  11
TORSDOF 2
ENDMDL
MODEL       13
REMARK 921   NORMALIZED FREE ENERGY PREDICTED BY IDOCK:   -6.04 KCAL/MOL
REMARK 922        TOTAL FREE ENERGY PREDICTED BY IDOCK:   -7.01 KCAL/MOL
REMARK 923 INTER-LIGAND FREE ENERGY PREDICTED BY IDOCK:   -6.69 KCAL/MOL
REMARK 924 INTRA-LIGAND FREE ENERGY PREDICTED BY IDOCK:   -0.32 KCAL/MOL
REMARK 927      BINDING AFFINITY PREDICTED BY RF-SCORE:    0.00 PKD
ROOT
HETATM    1  C   UNL     1     -10.256  20.032  67.320  1.00  0.00    -0.565 C  
HETATM    2  C   UNL     1      -9.698  18.756  66.693  1.00  0.00    -0.370 C  
HETATM    3  C   UNL     1      -9.800  17.588  67.648  1.00  0.00    -0.291 A  
HETATM    4  C   UNL     1      -8.255  18.954  66.234  1.00  0.00    -0.268 C  
HETATM    5  C   UNL     1      -8.951  17.210  68.671  1.00  0.00    -0.267 A  
HETATM    6  O   UNL     1      -7.690  17.841  65.699  1.00  0.00    -0.545 OA 
HETATM    7  O   UNL     1      -7.643  20.011  66.286  1.00  0.00    -0.288 OA 
HETATM    8  C   UNL     1      -9.370  16.002  69.304  1.00  0.00    -0.244 A  
HETATM    9  C   UNL     1     -10.519  15.479  68.740  1.00  0.00    -0.234 A  
HETATM   10  S   UNL     1     -11.138  16.518  67.528  1.00  0.00     0.016 SA 
ENDROOT
BRANCH   9  11
HETATM   11  C   UNL     1     -11.218  14.232  69.031  1.00  0.00    -0.266 C  
HETATM   12  O   UNL     1     -11.070  13.198  68.382  1.00  0.00    -0.242 OA 
BRANCH  11  13
HETATM   13  C   UNL     1     -12.163  14.193  70.192  1.00  0.00    -0.415 A  
HETATM   14  C   UNL     1     -12.448  12.994  70.861  1.00  0.00    -0.396 A  
HETATM   15  C   UNL     1     -13.308  12.988  71.959  1.00  0.00    -0.588 A  
HETATM   16  C   UNL     1     -13.909  14.174  72.378  1.00  0.00    -0.638 A  
HETATM   17  C   UNL     1     -13.664  15.362  71.689  1.00  0.00    -0.606 A  
HETATM   18  C   UNL     1     -12.796  15.373  70.595  1.00  0.00    -0.484 A  
ENDBRANCH  11  13
ENDBRANCH   9  11
TORSDOF 2
ENDMDL
MODEL       14
REMARK 921   NORMALIZED FREE ENERGY PREDICTED BY IDOCK:   -5.99 KCAL/MOL
REMARK 922        TOTAL FREE ENERGY PREDICTED BY IDOCK:   -6.97 KCAL/MOL
REMARK 923 INTER-LIGAND FREE ENERGY PREDICTED BY IDOCK:   -6.68 KCAL/MOL
REMARK 924 INTRA-LIGAND FREE ENERGY PREDICTED BY IDOCK:   -0.29 KCAL/MOL
REMARK 927      BINDING AFFINITY PREDICTED BY RF-SCORE:    0.00 PKD
ROOT
HETATM    1  C   UNL     1      -9.147  11.393  68.064  1.00  0.00    -0.171 C  
HETATM    2  C   UNL     1      -9.454  11.642  66.589  1.00  0.00    -0.213 C  
HETATM    3  C   UNL     1     -10.294  12.887  66.408  1.00  0.00    -0.268 A  
HETATM    4  C   UNL     1     -10.139  10.431  65.957  1.00  0.00    -0.243 C  
HETATM    5  C   UNL     1     -11.662  13.047  66.507  1.00  0.00    -0.437 A  
HETATM    6  O   UNL     1     -10.470  10.606  64.652  1.00  0.00    -0.336 OA 
HETATM    7  O   UNL     1     -10.349   9.370  66.526  1.00  0.00    -0.251 OA 
HETATM    8  C   UNL     1     -12.075  14.378  66.200  1.00  0.00    -0.373 A  
HETATM    9  C   UNL     1     -11.014  15.197  65.860  1.00  0.00    -0.339 A  
HETATM   10  S   UNL     1      -9.523  14.373  66.028  1.00  0.00    -0.141 SA 
ENDROOT
BRANCH   9  11
HETATM   11  C   UNL     1     -11.013  16.582  65.403  1.00  0.00    -0.131 C  
HETATM   12  O   UNL     1     -11.295  16.924  64.256  1.00  0.00    -1.202 OA 
BRANCH  11  13
HETATM   13  C   UNL     1     -10.661  17.660  66.381  1.00  0.00    -0.208 A  
HETATM   14  C   UNL     1     -10.540  17.390  67.753  1.00  0.00    -0.371 A  
HETATM   15  C   UNL     1     -10.181  18.403  68.641  1.00  0.00    -0.370 A  
HETATM   16  C   UNL     1      -9.968  19.697  68.169  1.00  0.00    -0.547 A  
HETATM   17  C   UNL     1     -10.130  19.982  66.814  1.00  0.00    -0.607 A  
HETATM   18  C   UNL     1     -10.480  18.968  65.920  1.00  0.00    -0.468 A  
ENDBRANCH  11  13
ENDBRANCH   9  11
TORSDOF 2
ENDMDL
MODEL       15
REMARK 921   NORMALIZED FREE ENERGY PREDICTED BY IDOCK:   -5.98 KCAL/MOL
REMARK 922        TOTAL FREE ENERGY PREDICTED BY IDOCK:   -6.95 KCAL/MOL
REMARK 923 INTER-LIGAND FREE ENERGY PREDICTED BY IDOCK:   -6.63 KCAL/MOL
REMARK 924 INTRA-LIGAND FREE ENERGY PREDICTED BY IDOCK:   -0.32 KCAL/MOL
REMARK 927      BINDING AFFINITY PREDICTED BY RF-SCORE:    0.00 PKD
ROOT
HETATM    1  C   UNL     1     -10.726  12.588  63.787  1.00  0.00    -0.483 C  
HETATM    2  C   UNL     1     -11.061  11.949  65.133  1.00  0.00    -0.360 C  
HETATM    3  C   UNL     1     -10.753  12.889  66.277  1.00  0.00    -0.274 A  
HETATM    4  C   UNL     1     -10.326  10.622  65.310  1.00  0.00    -0.251 C  
HETATM    5  C   UNL     1      -9.555  13.126  66.922  1.00  0.00    -0.248 A  
HETATM    6  O   UNL     1     -10.556  10.021  66.506  1.00  0.00    -0.180 OA 
HETATM    7  O   UNL     1      -9.621  10.094  64.463  1.00  0.00    -0.283 OA 
HETATM    8  C   UNL     1      -9.694  14.048  68.002  1.00  0.00    -0.221 A  
HETATM    9  C   UNL     1     -10.998  14.480  68.165  1.00  0.00    -0.251 A  
HETATM   10  S   UNL     1     -12.011  13.852  66.937  1.00  0.00    -0.428 SA 
ENDROOT
BRANCH   9  11
HETATM   11  C   UNL     1     -11.574  15.344  69.189  1.00  0.00    -0.339 C  
HETATM   12  O   UNL     1     -11.456  16.567  69.198  1.00  0.00    -0.237 OA 
BRANCH  11  13
HETATM   13  C   UNL     1     -12.368  14.716  70.293  1.00  0.00    -0.406 A  
HETATM   14  C   UNL     1     -13.235  15.475  71.093  1.00  0.00    -0.576 A  
HETATM   15  C   UNL     1     -13.986  14.863  72.095  1.00  0.00    -0.598 A  
HETATM   16  C   UNL     1     -13.857  13.494  72.323  1.00  0.00    -0.680 A  
HETATM   17  C   UNL     1     -12.964  12.741  71.561  1.00  0.00    -0.388 A  
HETATM   18  C   UNL     1     -12.216  13.349  70.550  1.00  0.00    -0.425 A  
ENDBRANCH  11  13
ENDBRANCH   9  11
TORSDOF 2
ENDMDL
MODEL       16
REMARK 921   NORMALIZED FREE ENERGY PREDICTED BY IDOCK:   -5.96 KCAL/MOL
REMARK 922        TOTAL FREE ENERGY PREDICTED BY IDOCK:   -6.93 KCAL/MOL
REMARK 923 INTER-LIGAND FREE ENERGY PREDICTED BY IDOCK:   -6.54 KCAL/MOL
REMARK 924 INTRA-LIGAND FREE ENERGY PREDICTED BY IDOCK:   -0.38 KCAL/MOL
REMARK 927      BINDING AFFINITY PREDICTED BY RF-SCORE:    0.00 PKD
ROOT
HETATM    1  C   UNL     1     -12.361  12.207  70.888  1.00  0.00    -0.370 C  
HETATM    2  C   UNL     1     -13.034  13.524  70.507  1.00  0.00    -0.025 C  
HETATM    3  C   UNL     1     -12.044  14.485  69.888  1.00  0.00    -0.336 A  
HETATM    4  C   UNL     1     -13.722  14.159  71.713  1.00  0.00    -0.408 C  
HETATM    5  C   UNL     1     -11.160  15.353  70.500  1.00  0.00    -0.361 A  
HETATM    6  O   UNL     1     -14.310  15.354  71.445  1.00  0.00    -0.502 OA 
HETATM    7  O   UNL     1     -13.797  13.653  72.823  1.00  0.00    -0.727 OA 
HETATM    8  C   UNL     1     -10.436  16.141  69.557  1.00  0.00    -0.295 A  
HETATM    9  C   UNL     1     -10.795  15.868  68.250  1.00  0.00    -0.315 A  
HETATM   10  S   UNL     1     -11.920  14.581  68.178  1.00  0.00    -0.204 SA 
ENDROOT
BRANCH   9  11
HETATM   11  C   UNL     1     -10.363  16.505  67.011  1.00  0.00    -0.301 C  
HETATM   12  O   UNL     1     -10.442  15.973  65.905  1.00  0.00    -0.329 OA 
BRANCH  11  13
HETATM   13  C   UNL     1      -9.800  17.891  67.075  1.00  0.00    -0.314 A  
HETATM   14  C   UNL     1     -10.631  19.020  67.017  1.00  0.00    -0.543 A  
HETATM   15  C   UNL     1     -10.086  20.300  67.110  1.00  0.00    -0.556 A  
HETATM   16  C   UNL     1      -8.707  20.462  67.233  1.00  0.00    -0.429 A  
HETATM   17  C   UNL     1      -7.872  19.346  67.247  1.00  0.00    -0.285 A  
HETATM   18  C   UNL     1      -8.414  18.061  67.163  1.00  0.00    -0.241 A  
ENDBRANCH  11  13
ENDBRANCH   9  11
TORSDOF 2
ENDMDL
MODEL       17
REMARK 921   NORMALIZED FREE ENERGY PREDICTED BY IDOCK:   -5.94 KCAL/MOL
REMARK 922        TOTAL FREE ENERGY PREDICTED BY IDOCK:   -6.91 KCAL/MOL
REMARK 923 INTER-LIGAND FREE ENERGY PREDICTED BY IDOCK:   -6.59 KCAL/MOL
REMARK 924 INTRA-LIGAND FREE ENERGY PREDICTED BY IDOCK:   -0.32 KCAL/MOL
REMARK 927      BINDING AFFINITY PREDICTED BY RF-SCORE:    0.00 PKD
ROOT
HETATM    1  C   UNL     1      -7.457  17.206  66.392  1.00  0.00    -0.341 C  
HETATM    2  C   UNL     1      -8.649  17.558  67.280  1.00  0.00    -0.234 C  
HETATM    3  C   UNL     1      -9.599  16.388  67.407  1.00  0.00    -0.231 A  
HETATM    4  C   UNL     1      -9.379  18.793  66.757  1.00  0.00    -0.318 C  
HETATM    5  C   UNL     1     -10.613  15.982  66.560  1.00  0.00    -0.284 A  
HETATM    6  O   UNL     1     -10.472  19.135  67.487  1.00  0.00    -0.400 OA 
HETATM    7  O   UNL     1      -9.021  19.466  65.802  1.00  0.00    -0.385 OA 
HETATM    8  C   UNL     1     -11.328  14.858  67.071  1.00  0.00    -0.345 A  
HETATM    9  C   UNL     1     -10.853  14.443  68.302  1.00  0.00    -0.242 A  
HETATM   10  S   UNL     1      -9.476  15.347  68.766  1.00  0.00    -0.224 SA 
ENDROOT
BRANCH   9  11
HETATM   11  C   UNL     1     -11.352  13.401  69.192  1.00  0.00    -0.280 C  
HETATM   12  O   UNL     1     -11.055  12.212  69.088  1.00  0.00    -0.232 OA 
BRANCH  11  13
HETATM   13  C   UNL     1     -12.271  13.791  70.308  1.00  0.00    -0.429 A  
HETATM   14  C   UNL     1     -12.657  15.125  70.503  1.00  0.00    -0.429 A  
HETATM   15  C   UNL     1     -13.538  15.460  71.531  1.00  0.00    -0.604 A  
HETATM   16  C   UNL     1     -14.016  14.470  72.387  1.00  0.00    -0.580 A  
HETATM   17  C   UNL     1     -13.601  13.148  72.227  1.00  0.00    -0.677 A  
HETATM   18  C   UNL     1     -12.726  12.807  71.193  1.00  0.00    -0.355 A  
ENDBRANCH  11  13
ENDBRANCH   9  11
TORSDOF 2
ENDMDL
MODEL       18
REMARK 921   NORMALIZED FREE ENERGY PREDICTED BY IDOCK:   -5.91 KCAL/MOL
REMARK 922        TOTAL FREE ENERGY PREDICTED BY IDOCK:   -6.87 KCAL/MOL
REMARK 923 INTER-LIGAND FREE ENERGY PREDICTED BY IDOCK:   -6.48 KCAL/MOL
REMARK 924 INTRA-LIGAND FREE ENERGY PREDICTED BY IDOCK:   -0.39 KCAL/MOL
REMARK 927      BINDING AFFINITY PREDICTED BY RF-SCORE:    0.00 PKD
ROOT
HETATM    1  C   UNL     1      -9.854  19.117  68.892  1.00  0.00    -0.487 C  
HETATM    2  C   UNL     1     -10.562  18.629  67.630  1.00  0.00    -0.458 C  
HETATM    3  C   UNL     1     -10.143  17.218  67.279  1.00  0.00    -0.300 A  
HETATM    4  C   UNL     1     -10.311  19.575  66.457  1.00  0.00    -0.482 C  
HETATM    5  C   UNL     1      -9.037  16.778  66.579  1.00  0.00    -0.302 A  
HETATM    6  O   UNL     1     -10.888  19.174  65.295  1.00  0.00    -0.528 OA 
HETATM    7  O   UNL     1      -9.692  20.626  66.526  1.00  0.00    -0.286 OA 
HETATM    8  C   UNL     1      -9.036  15.362  66.405  1.00  0.00    -0.351 A  
HETATM    9  C   UNL     1     -10.148  14.758  66.962  1.00  0.00    -0.245 A  
HETATM   10  S   UNL     1     -11.119  15.901  67.787  1.00  0.00    -0.244 SA 
ENDROOT
BRANCH   9  11
HETATM   11  C   UNL     1     -10.566  13.361  66.930  1.00  0.00    -0.273 C  
HETATM   12  O   UNL     1     -10.510  12.608  67.900  1.00  0.00    -0.209 OA 
BRANCH  11  13
HETATM   13  C   UNL     1     -11.108  12.805  65.649  1.00  0.00    -0.311 A  
HETATM   14  C   UNL     1     -10.277  12.150  64.728  1.00  0.00    -0.310 A  
HETATM   15  C   UNL     1     -10.811  11.613  63.556  1.00  0.00    -0.497 A  
HETATM   16  C   UNL     1     -12.171  11.750  63.285  1.00  0.00    -0.400 A  
HETATM   17  C   UNL     1     -12.995  12.438  64.175  1.00  0.00    -0.267 A  
HETATM   18  C   UNL     1     -12.466  12.970  65.354  1.00  0.00    -0.531 A  
ENDBRANCH  11  13
ENDBRANCH   9  11
TORSDOF 2
ENDMDL
MODEL       19
REMARK 921   NORMALIZED FREE ENERGY PREDICTED BY IDOCK:   -5.90 KCAL/MOL
REMARK 922        TOTAL FREE ENERGY PREDICTED BY IDOCK:   -6.86 KCAL/MOL
REMARK 923 INTER-LIGAND FREE ENERGY PREDICTED BY IDOCK:   -6.48 KCAL/MOL
REMARK 924 INTRA-LIGAND FREE ENERGY PREDICTED BY IDOCK:   -0.38 KCAL/MOL
REMARK 927      BINDING AFFINITY PREDICTED BY RF-SCORE:    0.00 PKD
ROOT
HETATM    1  C   UNL     1      -9.250  19.082  69.034  1.00  0.00    -0.262 C  
HETATM    2  C   UNL     1     -10.271  18.801  67.934  1.00  0.00    -0.448 C  
HETATM    3  C   UNL     1     -10.178  17.369  67.456  1.00  0.00    -0.332 A  
HETATM    4  C   UNL     1     -10.104  19.773  66.768  1.00  0.00    -0.444 C  
HETATM    5  C   UNL     1      -9.327  16.806  66.524  1.00  0.00    -0.288 A  
HETATM    6  O   UNL     1     -10.963  19.550  65.740  1.00  0.00    -0.382 OA 
HETATM    7  O   UNL     1      -9.314  20.705  66.741  1.00  0.00    -0.279 OA 
HETATM    8  C   UNL     1      -9.602  15.424  66.305  1.00  0.00    -0.342 A  
HETATM    9  C   UNL     1     -10.665  14.968  67.063  1.00  0.00    -0.304 A  
HETATM   10  S   UNL     1     -11.241  16.192  68.112  1.00  0.00    -0.265 SA 
ENDROOT
BRANCH   9  11
HETATM   11  C   UNL     1     -11.313  13.662  67.072  1.00  0.00    -0.324 C  
HETATM   12  O   UNL     1     -11.941  13.216  68.031  1.00  0.00    -0.351 OA 
BRANCH  11  13
HETATM   13  C   UNL     1     -11.226  12.810  65.843  1.00  0.00    -0.334 A  
HETATM   14  C   UNL     1     -12.178  12.907  64.818  1.00  0.00    -0.499 A  
HETATM   15  C   UNL     1     -12.059  12.125  63.670  1.00  0.00    -0.648 A  
HETATM   16  C   UNL     1     -11.004  11.223  63.550  1.00  0.00    -0.329 A  
HETATM   17  C   UNL     1     -10.078  11.089  64.584  1.00  0.00    -0.370 A  
HETATM   18  C   UNL     1     -10.190  11.877  65.732  1.00  0.00    -0.276 A  
ENDBRANCH  11  13
ENDBRANCH   9  11
TORSDOF 2
ENDMDL
MODEL       20
REMARK 921   NORMALIZED FREE ENERGY PREDICTED BY IDOCK:   -5.86 KCAL/MOL
REMARK 922        TOTAL FREE ENERGY PREDICTED BY IDOCK:   -6.82 KCAL/MOL
REMARK 923 INTER-LIGAND FREE ENERGY PREDICTED BY IDOCK:   -6.64 KCAL/MOL
REMARK 924 INTRA-LIGAND FREE ENERGY PREDICTED BY IDOCK:   -0.18 KCAL/MOL
REMARK 927      BINDING AFFINITY PREDICTED BY RF-SCORE:    0.00 PKD
ROOT
HETATM    1  C   UNL     1     -10.021  15.041  65.242  1.00  0.00    -0.325 C  
HETATM    2  C   UNL     1     -11.206  14.426  65.983  1.00  0.00    -0.333 C  
HETATM    3  C   UNL     1     -10.863  13.054  66.520  1.00  0.00    -0.279 A  
HETATM    4  C   UNL     1     -12.443  14.364  65.089  1.00  0.00    -0.357 C  
HETATM    5  C   UNL     1     -10.891  11.829  65.883  1.00  0.00    -0.339 A  
HETATM    6  O   UNL     1     -13.522  13.793  65.684  1.00  0.00    -0.522 OA 
HETATM    7  O   UNL     1     -12.510  14.813  63.955  1.00  0.00    -0.811 OA 
HETATM    8  C   UNL     1     -10.554  10.756  66.760  1.00  0.00    -0.307 A  
HETATM    9  C   UNL     1     -10.291  11.186  68.048  1.00  0.00    -0.185 A  
HETATM   10  S   UNL     1     -10.345  12.893  68.148  1.00  0.00    -0.244 SA 
ENDROOT
BRANCH   9  11
HETATM   11  C   UNL     1      -9.997  10.412  69.249  1.00  0.00    -0.228 C  
HETATM   12  O   UNL     1      -8.874  10.008  69.545  1.00  0.00    -0.175 OA 
BRANCH  11  13
HETATM   13  C   UNL     1     -11.119  10.095  70.189  1.00  0.00    -0.378 A  
HETATM   14  C   UNL     1     -11.323   8.793  70.670  1.00  0.00    -0.289 A  
HETATM   15  C   UNL     1     -12.356   8.528  71.569  1.00  0.00    -0.354 A  
HETATM   16  C   UNL     1     -13.207   9.556  71.972  1.00  0.00    -0.539 A  
HETATM   17  C   UNL     1     -13.037  10.843  71.464  1.00  0.00    -0.503 A  
HETATM   18  C   UNL     1     -11.998  11.114  70.570  1.00  0.00    -0.475 A  
ENDBRANCH  11  13
ENDBRANCH   9  11
TORSDOF 2
ENDMDL
MODEL       21
REMARK 921   NORMALIZED FREE ENERGY PREDICTED BY IDOCK:   -5.85 KCAL/MOL
REMARK 922        TOTAL FREE ENERGY PREDICTED BY IDOCK:   -6.81 KCAL/MOL
REMARK 923 INTER-LIGAND FREE ENERGY PREDICTED BY IDOCK:   -6.48 KCAL/MOL
REMARK 924 INTRA-LIGAND FREE ENERGY PREDICTED BY IDOCK:   -0.33 KCAL/MOL
REMARK 927      BINDING AFFINITY PREDICTED BY RF-SCORE:    0.00 PKD
ROOT
HETATM    1  C   UNL     1      -8.234  17.847  68.533  1.00  0.00    -0.300 C  
HETATM    2  C   UNL     1      -9.707  18.043  68.179  1.00  0.00    -0.323 C  
HETATM    3  C   UNL     1     -10.163  17.024  67.159  1.00  0.00    -0.306 A  
HETATM    4  C   UNL     1      -9.969  19.462  67.680  1.00  0.00    -0.371 C  
HETATM    5  C   UNL     1     -10.043  17.042  65.782  1.00  0.00    -0.219 A  
HETATM    6  O   UNL     1     -11.257  19.687  67.314  1.00  0.00    -0.316 OA 
HETATM    7  O   UNL     1      -9.135  20.355  67.638  1.00  0.00    -0.333 OA 
HETATM    8  C   UNL     1     -10.664  15.913  65.170  1.00  0.00    -0.449 A  
HETATM    9  C   UNL     1     -11.256  15.069  66.092  1.00  0.00    -0.307 A  
HETATM   10  S   UNL     1     -10.952  15.595  67.691  1.00  0.00    -0.296 SA 
ENDROOT
BRANCH   9  11
HETATM   11  C   UNL     1     -12.056  13.868  65.878  1.00  0.00    -0.433 C  
HETATM   12  O   UNL     1     -13.240  13.885  65.547  1.00  0.00    -0.698 OA 
BRANCH  11  13
HETATM   13  C   UNL     1     -11.406  12.531  66.059  1.00  0.00    -0.386 A  
HETATM   14  C   UNL     1     -11.432  11.867  67.294  1.00  0.00    -0.385 A  
HETATM   15  C   UNL     1     -10.846  10.609  67.430  1.00  0.00    -0.353 A  
HETATM   16  C   UNL     1     -10.206  10.020  66.342  1.00  0.00    -0.290 A  
HETATM   17  C   UNL     1     -10.137  10.694  65.123  1.00  0.00    -0.374 A  
HETATM   18  C   UNL     1     -10.731  11.950  64.980  1.00  0.00    -0.341 A  
ENDBRANCH  11  13
ENDBRANCH   9  11
TORSDOF 2
ENDMDL
MODEL       22
REMARK 921   NORMALIZED FREE ENERGY PREDICTED BY IDOCK:   -5.83 KCAL/MOL
REMARK 922        TOTAL FREE ENERGY PREDICTED BY IDOCK:   -6.78 KCAL/MOL
REMARK 923 INTER-LIGAND FREE ENERGY PREDICTED BY IDOCK:   -6.46 KCAL/MOL
REMARK 924 INTRA-LIGAND FREE ENERGY PREDICTED BY IDOCK:   -0.32 KCAL/MOL
REMARK 927      BINDING AFFINITY PREDICTED BY RF-SCORE:    0.00 PKD
ROOT
HETATM    1  C   UNL     1      -7.156  17.871  67.359  1.00  0.00    -0.201 C  
HETATM    2  C   UNL     1      -8.337  18.072  68.305  1.00  0.00    -0.295 C  
HETATM    3  C   UNL     1      -9.342  16.949  68.170  1.00  0.00    -0.240 A  
HETATM    4  C   UNL     1      -9.005  19.425  68.072  1.00  0.00    -0.322 C  
HETATM    5  C   UNL     1     -10.366  16.790  67.257  1.00  0.00    -0.304 A  
HETATM    6  O   UNL     1     -10.088  19.647  68.861  1.00  0.00    -0.447 OA 
HETATM    7  O   UNL     1      -8.608  20.276  67.289  1.00  0.00    -0.333 OA 
HETATM    8  C   UNL     1     -11.136  15.615  67.506  1.00  0.00    -0.289 A  
HETATM    9  C   UNL     1     -10.691  14.914  68.612  1.00  0.00    -0.250 A  
HETATM   10  S   UNL     1      -9.278  15.627  69.263  1.00  0.00    -0.274 SA 
ENDROOT
BRANCH   9  11
HETATM   11  C   UNL     1     -11.245  13.725  69.249  1.00  0.00    -0.242 C  
HETATM   12  O   UNL     1     -10.939  12.576  68.937  1.00  0.00    -0.237 OA 
BRANCH  11  13
HETATM   13  C   UNL     1     -12.237  13.901  70.357  1.00  0.00    -0.438 A  
HETATM   14  C   UNL     1     -12.695  12.809  71.109  1.00  0.00    -0.355 A  
HETATM   15  C   UNL     1     -13.596  13.002  72.156  1.00  0.00    -0.618 A  
HETATM   16  C   UNL     1     -14.065  14.283  72.441  1.00  0.00    -0.561 A  
HETATM   17  C   UNL     1     -13.649  15.367  71.670  1.00  0.00    -0.603 A  
HETATM   18  C   UNL     1     -12.740  15.179  70.626  1.00  0.00    -0.451 A  
ENDBRANCH  11  13
ENDBRANCH   9  11
TORSDOF 2
ENDMDL
MODEL       23
REMARK 921   NORMALIZED FREE ENERGY PREDICTED BY IDOCK:   -5.82 KCAL/MOL
REMARK 922        TOTAL FREE ENERGY PREDICTED BY IDOCK:   -6.77 KCAL/MOL
REMARK 923 INTER-LIGAND FREE ENERGY PREDICTED BY IDOCK:   -6.43 KCAL/MOL
REMARK 924 INTRA-LIGAND FREE ENERGY PREDICTED BY IDOCK:   -0.35 KCAL/MOL
REMARK 927      BINDING AFFINITY PREDICTED BY RF-SCORE:    0.00 PKD
ROOT
HETATM    1  C   UNL     1      -9.902  17.975  68.693  1.00  0.00    -0.383 C  
HETATM    2  C   UNL     1     -10.659  17.500  67.455  1.00  0.00    -0.311 C  
HETATM    3  C   UNL     1     -10.449  16.020  67.221  1.00  0.00    -0.308 A  
HETATM    4  C   UNL     1     -10.258  18.305  66.221  1.00  0.00    -0.401 C  
HETATM    5  C   UNL     1      -9.412  15.369  66.581  1.00  0.00    -0.281 A  
HETATM    6  O   UNL     1     -10.873  17.904  65.079  1.00  0.00    -0.767 OA 
HETATM    7  O   UNL     1      -9.491  19.257  66.225  1.00  0.00    -0.342 OA 
HETATM    8  C   UNL     1      -9.618  13.960  66.513  1.00  0.00    -0.299 A  
HETATM    9  C   UNL     1     -10.814  13.570  67.088  1.00  0.00    -0.284 A  
HETATM   10  S   UNL     1     -11.615  14.903  67.803  1.00  0.00    -0.306 SA 
ENDROOT
BRANCH   9  11
HETATM   11  C   UNL     1     -11.434  12.251  67.151  1.00  0.00    -0.352 C  
HETATM   12  O   UNL     1     -12.161  11.794  66.271  1.00  0.00    -0.446 OA 
BRANCH  11  13
HETATM   13  C   UNL     1     -11.166  11.389  68.346  1.00  0.00    -0.324 A  
HETATM   14  C   UNL     1     -12.006  11.416  69.469  1.00  0.00    -0.409 A  
HETATM   15  C   UNL     1     -11.753  10.582  70.558  1.00  0.00    -0.443 A  
HETATM   16  C   UNL     1     -10.646   9.736  70.543  1.00  0.00    -0.376 A  
HETATM   17  C   UNL     1      -9.782   9.736  69.449  1.00  0.00    -0.214 A  
HETATM   18  C   UNL     1     -10.036  10.564  68.353  1.00  0.00    -0.181 A  
ENDBRANCH  11  13
ENDBRANCH   9  11
TORSDOF 2
ENDMDL
MODEL       24
REMARK 921   NORMALIZED FREE ENERGY PREDICTED BY IDOCK:   -5.79 KCAL/MOL
REMARK 922        TOTAL FREE ENERGY PREDICTED BY IDOCK:   -6.74 KCAL/MOL
REMARK 923 INTER-LIGAND FREE ENERGY PREDICTED BY IDOCK:   -6.61 KCAL/MOL
REMARK 924 INTRA-LIGAND FREE ENERGY PREDICTED BY IDOCK:   -0.13 KCAL/MOL
REMARK 927      BINDING AFFINITY PREDICTED BY RF-SCORE:    0.00 PKD
ROOT
HETATM    1  C   UNL     1      -9.947   7.429  73.904  1.00  0.00    -0.258 C  
HETATM    2  C   UNL     1     -10.489   7.248  72.488  1.00  0.00    -0.273 C  
HETATM    3  C   UNL     1     -11.365   8.414  72.085  1.00  0.00    -0.366 A  
HETATM    4  C   UNL     1     -11.247   5.930  72.352  1.00  0.00    -0.291 C  
HETATM    5  C   UNL     1     -12.702   8.640  72.346  1.00  0.00    -0.423 A  
HETATM    6  O   UNL     1     -11.784   5.729  71.121  1.00  0.00    -0.013 OA 
HETATM    7  O   UNL     1     -11.348   5.087  73.231  1.00  0.00    -0.325 OA 
HETATM    8  C   UNL     1     -13.178   9.837  71.733  1.00  0.00    -0.532 A  
HETATM    9  C   UNL     1     -12.197  10.487  71.007  1.00  0.00    -0.400 A  
HETATM   10  S   UNL     1     -10.687   9.700  71.173  1.00  0.00    -0.214 SA 
ENDROOT
BRANCH   9  11
HETATM   11  C   UNL     1     -12.290  11.679  70.171  1.00  0.00    -0.219 C  
HETATM   12  O   UNL     1     -12.184  11.666  68.946  1.00  0.00    -0.377 OA 
BRANCH  11  13
HETATM   13  C   UNL     1     -12.540  13.000  70.831  1.00  0.00    -0.364 A  
HETATM   14  C   UNL     1     -13.334  13.101  71.984  1.00  0.00    -0.587 A  
HETATM   15  C   UNL     1     -13.528  14.338  72.599  1.00  0.00    -0.623 A  
HETATM   16  C   UNL     1     -12.954  15.484  72.051  1.00  0.00    -0.517 A  
HETATM   17  C   UNL     1     -12.201  15.397  70.881  1.00  0.00    -0.425 A  
HETATM   18  C   UNL     1     -11.997  14.159  70.267  1.00  0.00    -0.404 A  
ENDBRANCH  11  13
ENDBRANCH   9  11
TORSDOF 2
ENDMDL
MODEL       25
REMARK 921   NORMALIZED FREE ENERGY PREDICTED BY IDOCK:   -5.76 KCAL/MOL
REMARK 922        TOTAL FREE ENERGY PREDICTED BY IDOCK:   -6.71 KCAL/MOL
REMARK 923 INTER-LIGAND FREE ENERGY PREDICTED BY IDOCK:   -6.39 KCAL/MOL
REMARK 924 INTRA-LIGAND FREE ENERGY PREDICTED BY IDOCK:   -0.32 KCAL/MOL
REMARK 927      BINDING AFFINITY PREDICTED BY RF-SCORE:    0.00 PKD
ROOT
HETATM    1  C   UNL     1     -12.644  12.061  63.765  1.00  0.00    -0.567 C  
HETATM    2  C   UNL     1     -11.517  12.791  64.493  1.00  0.00    -0.389 C  
HETATM    3  C   UNL     1     -11.437  12.365  65.942  1.00  0.00    -0.374 A  
HETATM    4  C   UNL     1     -11.681  14.305  64.382  1.00  0.00    -0.389 C  
HETATM    5  C   UNL     1     -12.155  12.818  67.033  1.00  0.00    -0.252 A  
HETATM    6  O   UNL     1     -10.726  15.011  65.041  1.00  0.00    -0.380 OA 
HETATM    7  O   UNL     1     -12.550  14.870  63.734  1.00  0.00    -0.791 OA 
HETATM    8  C   UNL     1     -11.735  12.203  68.249  1.00  0.00    -0.401 A  
HETATM    9  C   UNL     1     -10.697  11.309  68.061  1.00  0.00    -0.203 A  
HETATM   10  S   UNL     1     -10.324  11.142  66.399  1.00  0.00    -0.259 SA 
ENDROOT
BRANCH   9  11
HETATM   11  C   UNL     1      -9.932  10.547  69.042  1.00  0.00    -0.211 C  
HETATM   12  O   UNL     1      -8.730  10.707  69.247  1.00  0.00    -0.149 OA 
BRANCH  11  13
HETATM   13  C   UNL     1     -10.643   9.515  69.861  1.00  0.00    -0.269 A  
HETATM   14  C   UNL     1     -11.385   9.869  70.998  1.00  0.00    -0.460 A  
HETATM   15  C   UNL     1     -12.064   8.894  71.727  1.00  0.00    -0.432 A  
HETATM   16  C   UNL     1     -11.985   7.557  71.342  1.00  0.00    -0.336 A  
HETATM   17  C   UNL     1     -11.214   7.192  70.240  1.00  0.00    -0.309 A  
HETATM   18  C   UNL     1     -10.539   8.167  69.501  1.00  0.00    -0.215 A  
ENDBRANCH  11  13
ENDBRANCH   9  11
TORSDOF 2
ENDMDL
MODEL       26
REMARK 921   NORMALIZED FREE ENERGY PREDICTED BY IDOCK:   -5.74 KCAL/MOL
REMARK 922        TOTAL FREE ENERGY PREDICTED BY IDOCK:   -6.68 KCAL/MOL
REMARK 923 INTER-LIGAND FREE ENERGY PREDICTED BY IDOCK:   -6.33 KCAL/MOL
REMARK 924 INTRA-LIGAND FREE ENERGY PREDICTED BY IDOCK:   -0.35 KCAL/MOL
REMARK 927      BINDING AFFINITY PREDICTED BY RF-SCORE:    0.00 PKD
ROOT
HETATM    1  C   UNL     1     -14.411  15.165  71.113  1.00  0.00    -0.406 C  
HETATM    2  C   UNL     1     -12.914  15.455  71.206  1.00  0.00    -0.541 C  
HETATM    3  C   UNL     1     -12.142  14.678  70.163  1.00  0.00    -0.327 A  
HETATM    4  C   UNL     1     -12.382  15.158  72.606  1.00  0.00    -0.378 C  
HETATM    5  C   UNL     1     -11.681  13.376  70.198  1.00  0.00    -0.266 A  
HETATM    6  O   UNL     1     -11.046  15.363  72.741  1.00  0.00    -0.125 OA 
HETATM    7  O   UNL     1     -13.067  14.808  73.556  1.00  0.00    -0.551 OA 
HETATM    8  C   UNL     1     -10.935  13.035  69.032  1.00  0.00    -0.242 A  
HETATM    9  C   UNL     1     -10.830  14.088  68.142  1.00  0.00    -0.248 A  
HETATM   10  S   UNL     1     -11.734  15.439  68.679  1.00  0.00    -0.317 SA 
ENDROOT
BRANCH   9  11
HETATM   11  C   UNL     1     -10.090  14.182  66.889  1.00  0.00    -0.258 C  
HETATM   12  O   UNL     1      -9.048  14.821  66.756  1.00  0.00    -0.239 OA 
BRANCH  11  13
HETATM   13  C   UNL     1     -10.613  13.451  65.691  1.00  0.00    -0.286 A  
HETATM   14  C   UNL     1     -10.283  12.108  65.454  1.00  0.00    -0.299 A  
HETATM   15  C   UNL     1     -10.807  11.439  64.348  1.00  0.00    -0.397 A  
HETATM   16  C   UNL     1     -11.641  12.114  63.458  1.00  0.00    -0.562 A  
HETATM   17  C   UNL     1     -11.936  13.461  63.663  1.00  0.00    -0.504 A  
HETATM   18  C   UNL     1     -11.421  14.132  64.775  1.00  0.00    -0.384 A  
ENDBRANCH  11  13
ENDBRANCH   9  11
TORSDOF 2
ENDMDL
MODEL       27
REMARK 921   NORMALIZED FREE ENERGY PREDICTED BY IDOCK:   -5.73 KCAL/MOL
REMARK 922        TOTAL FREE ENERGY PREDICTED BY IDOCK:   -6.67 KCAL/MOL
REMARK 923 INTER-LIGAND FREE ENERGY PREDICTED BY IDOCK:   -6.43 KCAL/MOL
REMARK 924 INTRA-LIGAND FREE ENERGY PREDICTED BY IDOCK:   -0.25 KCAL/MOL
REMARK 927      BINDING AFFINITY PREDICTED BY RF-SCORE:    0.00 PKD
ROOT
HETATM    1  C   UNL     1     -10.315  10.463  66.566  1.00  0.00    -0.287 C  
HETATM    2  C   UNL     1     -10.011  11.888  66.109  1.00  0.00    -0.254 C  
HETATM    3  C   UNL     1     -10.753  12.902  66.951  1.00  0.00    -0.257 A  
HETATM    4  C   UNL     1     -10.337  12.072  64.628  1.00  0.00    -0.287 C  
HETATM    5  C   UNL     1     -12.051  13.362  66.834  1.00  0.00    -0.406 A  
HETATM    6  O   UNL     1     -10.121  13.332  64.171  1.00  0.00    -0.347 OA 
HETATM    7  O   UNL     1     -10.718  11.184  63.880  1.00  0.00    -0.376 OA 
HETATM    8  C   UNL     1     -12.355  14.373  67.793  1.00  0.00    -0.022 A  
HETATM    9  C   UNL     1     -11.279  14.672  68.608  1.00  0.00    -0.275 A  
HETATM   10  S   UNL     1      -9.952  13.643  68.276  1.00  0.00    -0.236 SA 
ENDROOT
BRANCH   9  11
HETATM   11  C   UNL     1     -11.146  15.691  69.643  1.00  0.00    -0.299 C  
HETATM   12  O   UNL     1     -10.549  16.754  69.485  1.00  0.00    -0.324 OA 
BRANCH  11  13
HETATM   13  C   UNL     1     -11.781  15.444  70.977  1.00  0.00    -0.408 A  
HETATM   14  C   UNL     1     -11.666  16.372  72.024  1.00  0.00    -0.434 A  
HETATM   15  C   UNL     1     -12.291  16.134  73.247  1.00  0.00    -0.647 A  
HETATM   16  C   UNL     1     -13.012  14.958  73.442  1.00  0.00    -0.597 A  
HETATM   17  C   UNL     1     -13.094  14.011  72.422  1.00  0.00    -0.536 A  
HETATM   18  C   UNL     1     -12.476  14.250  71.192  1.00  0.00    -0.433 A  
ENDBRANCH  11  13
ENDBRANCH   9  11
TORSDOF 2
ENDMDL
MODEL       28
REMARK 921   NORMALIZED FREE ENERGY PREDICTED BY IDOCK:   -5.73 KCAL/MOL
REMARK 922        TOTAL FREE ENERGY PREDICTED BY IDOCK:   -6.67 KCAL/MOL
REMARK 923 INTER-LIGAND FREE ENERGY PREDICTED BY IDOCK:   -6.63 KCAL/MOL
REMARK 924 INTRA-LIGAND FREE ENERGY PREDICTED BY IDOCK:   -0.04 KCAL/MOL
REMARK 927      BINDING AFFINITY PREDICTED BY RF-SCORE:    0.00 PKD
ROOT
HETATM    1  C   UNL     1      -9.532   7.511  73.891  1.00  0.00    -0.286 C  
HETATM    2  C   UNL     1     -10.161   7.223  72.530  1.00  0.00    -0.236 C  
HETATM    3  C   UNL     1     -11.077   8.348  72.102  1.00  0.00    -0.345 A  
HETATM    4  C   UNL     1     -10.908   5.891  72.540  1.00  0.00    -0.247 C  
HETATM    5  C   UNL     1     -12.399   8.580  72.433  1.00  0.00    -0.424 A  
HETATM    6  O   UNL     1     -11.521   5.596  71.364  1.00  0.00    -0.125 OA 
HETATM    7  O   UNL     1     -10.940   5.113  73.482  1.00  0.00    -0.281 OA 
HETATM    8  C   UNL     1     -12.930   9.724  71.767  1.00  0.00    -0.536 A  
HETATM    9  C   UNL     1     -12.007  10.329  70.934  1.00  0.00    -0.375 A  
HETATM   10  S   UNL     1     -10.478   9.570  71.057  1.00  0.00    -0.266 SA 
ENDROOT
BRANCH   9  11
HETATM   11  C   UNL     1     -12.169  11.456  70.022  1.00  0.00    -0.301 C  
HETATM   12  O   UNL     1     -12.085  11.364  68.799  1.00  0.00    -0.480 OA 
BRANCH  11  13
HETATM   13  C   UNL     1     -12.469  12.806  70.597  1.00  0.00    -0.328 A  
HETATM   14  C   UNL     1     -12.157  13.983  69.900  1.00  0.00    -0.406 A  
HETATM   15  C   UNL     1     -12.473  15.228  70.443  1.00  0.00    -0.426 A  
HETATM   16  C   UNL     1     -13.078  15.306  71.696  1.00  0.00    -0.507 A  
HETATM   17  C   UNL     1     -13.350  14.143  72.414  1.00  0.00    -0.591 A  
HETATM   18  C   UNL     1     -13.043  12.893  71.870  1.00  0.00    -0.474 A  
ENDBRANCH  11  13
ENDBRANCH   9  11
TORSDOF 2
ENDMDL
MODEL       29
REMARK 921   NORMALIZED FREE ENERGY PREDICTED BY IDOCK:   -5.72 KCAL/MOL
REMARK 922        TOTAL FREE ENERGY PREDICTED BY IDOCK:   -6.66 KCAL/MOL
REMARK 923 INTER-LIGAND FREE ENERGY PREDICTED BY IDOCK:   -6.26 KCAL/MOL
REMARK 924 INTRA-LIGAND FREE ENERGY PREDICTED BY IDOCK:   -0.39 KCAL/MOL
REMARK 927      BINDING AFFINITY PREDICTED BY RF-SCORE:    0.00 PKD
ROOT
HETATM    1  C   UNL     1      -6.688  20.239  67.931  1.00  0.00    -0.319 C  
HETATM    2  C   UNL     1      -6.773  18.720  68.063  1.00  0.00    -0.237 C  
HETATM    3  C   UNL     1      -8.146  18.214  67.678  1.00  0.00    -0.234 A  
HETATM    4  C   UNL     1      -6.407  18.270  69.476  1.00  0.00    -0.230 C  
HETATM    5  C   UNL     1      -9.299  18.137  68.435  1.00  0.00    -0.319 A  
HETATM    6  O   UNL     1      -6.499  16.928  69.665  1.00  0.00    -0.232 OA 
HETATM    7  O   UNL     1      -6.021  19.010  70.368  1.00  0.00    -0.212 OA 
HETATM    8  C   UNL     1     -10.377  17.536  67.720  1.00  0.00    -0.367 A  
HETATM    9  C   UNL     1     -10.017  17.155  66.440  1.00  0.00    -0.306 A  
HETATM   10  S   UNL     1      -8.413  17.634  66.085  1.00  0.00    -0.062 SA 
ENDROOT
BRANCH   9  11
HETATM   11  C   UNL     1     -10.785  16.439  65.429  1.00  0.00    -0.296 C  
HETATM   12  O   UNL     1     -11.241  16.966  64.416  1.00  0.00    -1.159 OA 
BRANCH  11  13
HETATM   13  C   UNL     1     -11.029  14.973  65.618  1.00  0.00    -0.357 A  
HETATM   14  C   UNL     1     -12.249  14.383  65.252  1.00  0.00    -0.377 A  
HETATM   15  C   UNL     1     -12.441  13.011  65.409  1.00  0.00    -0.531 A  
HETATM   16  C   UNL     1     -11.429  12.225  65.957  1.00  0.00    -0.434 A  
HETATM   17  C   UNL     1     -10.231  12.812  66.363  1.00  0.00    -0.263 A  
HETATM   18  C   UNL     1     -10.031  14.185  66.199  1.00  0.00    -0.328 A  
ENDBRANCH  11  13
ENDBRANCH   9  11
TORSDOF 2
ENDMDL
MODEL       30
REMARK 921   NORMALIZED FREE ENERGY PREDICTED BY IDOCK:   -5.70 KCAL/MOL
REMARK 922        TOTAL FREE ENERGY PREDICTED BY IDOCK:   -6.64 KCAL/MOL
REMARK 923 INTER-LIGAND FREE ENERGY PREDICTED BY IDOCK:   -6.40 KCAL/MOL
REMARK 924 INTRA-LIGAND FREE ENERGY PREDICTED BY IDOCK:   -0.24 KCAL/MOL
REMARK 927      BINDING AFFINITY PREDICTED BY RF-SCORE:    0.00 PKD
ROOT
HETATM    1  C   UNL     1      -7.199  16.016  67.428  1.00  0.00    -0.219 C  
HETATM    2  C   UNL     1      -8.369  16.947  67.735  1.00  0.00    -0.198 C  
HETATM    3  C   UNL     1      -9.631  16.163  68.018  1.00  0.00    -0.220 A  
HETATM    4  C   UNL     1      -8.594  17.942  66.599  1.00  0.00    -0.262 C  
HETATM    5  C   UNL     1     -10.554  15.633  67.137  1.00  0.00    -0.308 A  
HETATM    6  O   UNL     1      -9.647  18.776  66.799  1.00  0.00    -0.297 OA 
HETATM    7  O   UNL     1      -7.889  18.041  65.606  1.00  0.00    -0.531 OA 
HETATM    8  C   UNL     1     -11.649  15.012  67.807  1.00  0.00    -0.336 A  
HETATM    9  C   UNL     1     -11.544  15.097  69.184  1.00  0.00    -0.323 A  
HETATM   10  S   UNL     1     -10.066  15.825  69.644  1.00  0.00    -0.276 SA 
ENDROOT
BRANCH   9  11
HETATM   11  C   UNL     1     -12.480  14.672  70.219  1.00  0.00    -0.346 C  
HETATM   12  O   UNL     1     -13.259  15.433  70.791  1.00  0.00    -0.451 OA 
BRANCH  11  13
HETATM   13  C   UNL     1     -12.512  13.226  70.607  1.00  0.00    -0.373 A  
HETATM   14  C   UNL     1     -13.223  12.789  71.735  1.00  0.00    -0.471 A  
HETATM   15  C   UNL     1     -13.263  11.433  72.060  1.00  0.00    -0.432 A  
HETATM   16  C   UNL     1     -12.573  10.510  71.276  1.00  0.00    -0.531 A  
HETATM   17  C   UNL     1     -11.829  10.943  70.179  1.00  0.00    -0.438 A  
HETATM   18  C   UNL     1     -11.793  12.299  69.846  1.00  0.00    -0.383 A  
ENDBRANCH  11  13
ENDBRANCH   9  11
TORSDOF 2
ENDMDL
MODEL       31
REMARK 921   NORMALIZED FREE ENERGY PREDICTED BY IDOCK:   -5.70 KCAL/MOL
REMARK 922        TOTAL FREE ENERGY PREDICTED BY IDOCK:   -6.63 KCAL/MOL
REMARK 923 INTER-LIGAND FREE ENERGY PREDICTED BY IDOCK:   -6.28 KCAL/MOL
REMARK 924 INTRA-LIGAND FREE ENERGY PREDICTED BY IDOCK:   -0.36 KCAL/MOL
REMARK 927      BINDING AFFINITY PREDICTED BY RF-SCORE:    0.00 PKD
ROOT
HETATM    1  C   UNL     1      -9.561  10.860  66.761  1.00  0.00    -0.210 C  
HETATM    2  C   UNL     1      -9.615  12.165  65.969  1.00  0.00    -0.242 C  
HETATM    3  C   UNL     1     -10.331  13.247  66.747  1.00  0.00    -0.257 A  
HETATM    4  C   UNL     1     -10.271  11.955  64.606  1.00  0.00    -0.278 C  
HETATM    5  C   UNL     1     -11.685  13.500  66.860  1.00  0.00    -0.424 A  
HETATM    6  O   UNL     1     -10.381  13.090  63.868  1.00  0.00    -0.382 OA 
HETATM    7  O   UNL     1     -10.638  10.876  64.165  1.00  0.00    -0.375 OA 
HETATM    8  C   UNL     1     -11.954  14.661  67.643  1.00  0.00    -0.307 A  
HETATM    9  C   UNL     1     -10.801  15.275  68.096  1.00  0.00    -0.273 A  
HETATM   10  S   UNL     1      -9.413  14.372  67.663  1.00  0.00    -0.219 SA 
ENDROOT
BRANCH   9  11
HETATM   11  C   UNL     1     -10.636  16.517  68.844  1.00  0.00    -0.326 C  
HETATM   12  O   UNL     1     -10.698  16.590  70.069  1.00  0.00    -0.312 OA 
BRANCH  11  13
HETATM   13  C   UNL     1     -10.362  17.779  68.086  1.00  0.00    -0.393 A  
HETATM   14  C   UNL     1     -10.634  17.880  66.713  1.00  0.00    -0.253 A  
HETATM   15  C   UNL     1     -10.400  19.076  66.035  1.00  0.00    -0.512 A  
HETATM   16  C   UNL     1      -9.867  20.169  66.717  1.00  0.00    -0.591 A  
HETATM   17  C   UNL     1      -9.553  20.061  68.071  1.00  0.00    -0.460 A  
HETATM   18  C   UNL     1      -9.795  18.868  68.756  1.00  0.00    -0.461 A  
ENDBRANCH  11  13
ENDBRANCH   9  11
TORSDOF 2
ENDMDL
MODEL       32
REMARK 921   NORMALIZED FREE ENERGY PREDICTED BY IDOCK:   -5.68 KCAL/MOL
REMARK 922        TOTAL FREE ENERGY PREDICTED BY IDOCK:   -6.62 KCAL/MOL
REMARK 923 INTER-LIGAND FREE ENERGY PREDICTED BY IDOCK:   -6.29 KCAL/MOL
REMARK 924 INTRA-LIGAND FREE ENERGY PREDICTED BY IDOCK:   -0.33 KCAL/MOL
REMARK 927      BINDING AFFINITY PREDICTED BY RF-SCORE:    0.00 PKD
ROOT
HETATM    1  C   UNL     1     -10.122  11.668  64.476  1.00  0.00    -0.321 C  
HETATM    2  C   UNL     1     -10.775  13.013  64.167  1.00  0.00    -0.429 C  
HETATM    3  C   UNL     1     -10.932  13.844  65.421  1.00  0.00    -0.316 A  
HETATM    4  C   UNL     1     -12.122  12.824  63.472  1.00  0.00    -0.559 C  
HETATM    5  C   UNL     1     -11.928  13.814  66.378  1.00  0.00    -0.473 A  
HETATM    6  O   UNL     1     -12.770  13.988  63.204  1.00  0.00    -0.676 OA 
HETATM    7  O   UNL     1     -12.589  11.747  63.132  1.00  0.00    -0.514 OA 
HETATM    8  C   UNL     1     -11.744  14.810  67.383  1.00  0.00    -0.371 A  
HETATM    9  C   UNL     1     -10.622  15.586  67.160  1.00  0.00    -0.300 A  
HETATM   10  S   UNL     1      -9.745  15.024  65.803  1.00  0.00    -0.300 SA 
ENDROOT
BRANCH   9  11
HETATM   11  C   UNL     1     -10.131  16.749  67.891  1.00  0.00    -0.284 C  
HETATM   12  O   UNL     1     -10.773  17.788  68.034  1.00  0.00    -0.382 OA 
BRANCH  11  13
HETATM   13  C   UNL     1      -8.773  16.681  68.519  1.00  0.00    -0.242 A  
HETATM   14  C   UNL     1      -7.869  17.749  68.420  1.00  0.00    -0.284 A  
HETATM   15  C   UNL     1      -6.621  17.675  69.039  1.00  0.00    -0.244 A  
HETATM   16  C   UNL     1      -6.259  16.524  69.736  1.00  0.00    -0.205 A  
HETATM   17  C   UNL     1      -7.135  15.441  69.801  1.00  0.00    -0.139 A  
HETATM   18  C   UNL     1      -8.389  15.515  69.190  1.00  0.00    -0.253 A  
ENDBRANCH  11  13
ENDBRANCH   9  11
TORSDOF 2
ENDMDL
MODEL       33
REMARK 921   NORMALIZED FREE ENERGY PREDICTED BY IDOCK:   -5.68 KCAL/MOL
REMARK 922        TOTAL FREE ENERGY PREDICTED BY IDOCK:   -6.61 KCAL/MOL
REMARK 923 INTER-LIGAND FREE ENERGY PREDICTED BY IDOCK:   -6.49 KCAL/MOL
REMARK 924 INTRA-LIGAND FREE ENERGY PREDICTED BY IDOCK:   -0.12 KCAL/MOL
REMARK 927      BINDING AFFINITY PREDICTED BY RF-SCORE:    0.00 PKD
ROOT
HETATM    1  C   UNL     1     -10.173   9.186  70.974  1.00  0.00    -0.372 C  
HETATM    2  C   UNL     1     -11.557   9.500  70.410  1.00  0.00    -0.268 C  
HETATM    3  C   UNL     1     -11.621  10.912  69.873  1.00  0.00    -0.331 A  
HETATM    4  C   UNL     1     -12.643   9.270  71.459  1.00  0.00    -0.352 C  
HETATM    5  C   UNL     1     -11.852  12.098  70.543  1.00  0.00    -0.185 A  
HETATM    6  O   UNL     1     -13.896   9.567  71.026  1.00  0.00    -0.226 OA 
HETATM    7  O   UNL     1     -12.450   8.821  72.579  1.00  0.00    -0.382 OA 
HETATM    8  C   UNL     1     -11.897  13.218  69.660  1.00  0.00    -0.391 A  
HETATM    9  C   UNL     1     -11.714  12.859  68.338  1.00  0.00    -0.345 A  
HETATM   10  S   UNL     1     -11.377  11.187  68.196  1.00  0.00    -0.315 SA 
ENDROOT
BRANCH   9  11
HETATM   11  C   UNL     1     -11.774  13.676  67.131  1.00  0.00    -0.383 C  
HETATM   12  O   UNL     1     -11.999  14.885  67.134  1.00  0.00    -0.304 OA 
BRANCH  11  13
HETATM   13  C   UNL     1     -11.537  13.019  65.807  1.00  0.00    -0.396 A  
HETATM   14  C   UNL     1     -10.240  12.718  65.362  1.00  0.00    -0.299 A  
HETATM   15  C   UNL     1     -10.046  12.078  64.139  1.00  0.00    -0.340 A  
HETATM   16  C   UNL     1     -11.143  11.758  63.341  1.00  0.00    -0.448 A  
HETATM   17  C   UNL     1     -12.431  12.093  63.756  1.00  0.00    -0.620 A  
HETATM   18  C   UNL     1     -12.630  12.726  64.985  1.00  0.00    -0.538 A  
ENDBRANCH  11  13
ENDBRANCH   9  11
TORSDOF 2
ENDMDL
MODEL       34
REMARK 921   NORMALIZED FREE ENERGY PREDICTED BY IDOCK:   -5.67 KCAL/MOL
REMARK 922        TOTAL FREE ENERGY PREDICTED BY IDOCK:   -6.60 KCAL/MOL
REMARK 923 INTER-LIGAND FREE ENERGY PREDICTED BY IDOCK:   -6.30 KCAL/MOL
REMARK 924 INTRA-LIGAND FREE ENERGY PREDICTED BY IDOCK:   -0.30 KCAL/MOL
REMARK 927      BINDING AFFINITY PREDICTED BY RF-SCORE:    0.00 PKD
ROOT
HETATM    1  C   UNL     1      -9.350   8.109  72.872  1.00  0.00    -0.343 C  
HETATM    2  C   UNL     1     -10.172   7.848  71.612  1.00  0.00    -0.239 C  
HETATM    3  C   UNL     1     -10.969   9.071  71.216  1.00  0.00    -0.313 A  
HETATM    4  C   UNL     1     -11.090   6.641  71.795  1.00  0.00    -0.249 C  
HETATM    5  C   UNL     1     -12.196   9.509  71.676  1.00  0.00    -0.477 A  
HETATM    6  O   UNL     1     -11.875   6.379  70.718  1.00  0.00    -0.361 OA 
HETATM    7  O   UNL     1     -11.115   5.924  72.785  1.00  0.00    -0.253 OA 
HETATM    8  C   UNL     1     -12.639  10.684  71.000  1.00  0.00    -0.516 A  
HETATM    9  C   UNL     1     -11.749  11.105  70.029  1.00  0.00    -0.356 A  
HETATM   10  S   UNL     1     -10.336  10.139  70.031  1.00  0.00    -0.203 SA 
ENDROOT
BRANCH   9  11
HETATM   11  C   UNL     1     -11.863  12.196  69.068  1.00  0.00    -0.306 C  
HETATM   12  O   UNL     1     -12.110  12.034  67.875  1.00  0.00    -0.531 OA 
BRANCH  11  13
HETATM   13  C   UNL     1     -11.683  13.601  69.554  1.00  0.00    -0.380 A  
HETATM   14  C   UNL     1     -12.636  14.216  70.380  1.00  0.00    -0.397 A  
HETATM   15  C   UNL     1     -12.432  15.515  70.845  1.00  0.00    -0.494 A  
HETATM   16  C   UNL     1     -11.288  16.217  70.467  1.00  0.00    -0.392 A  
HETATM   17  C   UNL     1     -10.358  15.628  69.611  1.00  0.00    -0.287 A  
HETATM   18  C   UNL     1     -10.555  14.324  69.150  1.00  0.00    -0.201 A  
ENDBRANCH  11  13
ENDBRANCH   9  11
TORSDOF 2
ENDMDL
MODEL       35
REMARK 921   NORMALIZED FREE ENERGY PREDICTED BY IDOCK:   -5.64 KCAL/MOL
REMARK 922        TOTAL FREE ENERGY PREDICTED BY IDOCK:   -6.56 KCAL/MOL
REMARK 923 INTER-LIGAND FREE ENERGY PREDICTED BY IDOCK:   -6.20 KCAL/MOL
REMARK 924 INTRA-LIGAND FREE ENERGY PREDICTED BY IDOCK:   -0.36 KCAL/MOL
REMARK 927      BINDING AFFINITY PREDICTED BY RF-SCORE:    0.00 PKD
ROOT
HETATM    1  C   UNL     1     -12.558  12.077  63.505  1.00  0.00    -0.625 C  
HETATM    2  C   UNL     1     -11.434  12.733  64.305  1.00  0.00    -0.427 C  
HETATM    3  C   UNL     1     -11.306  12.111  65.678  1.00  0.00    -0.347 A  
HETATM    4  C   UNL     1     -11.643  14.242  64.412  1.00  0.00    -0.344 C  
HETATM    5  C   UNL     1     -12.009  12.383  66.836  1.00  0.00    -0.266 A  
HETATM    6  O   UNL     1     -10.693  14.878  65.144  1.00  0.00    -0.353 OA 
HETATM    7  O   UNL     1     -12.544  14.864  63.869  1.00  0.00    -0.831 OA 
HETATM    8  C   UNL     1     -11.541  11.617  67.944  1.00  0.00    -0.369 A  
HETATM    9  C   UNL     1     -10.483  10.791  67.611  1.00  0.00    -0.214 A  
HETATM   10  S   UNL     1     -10.147  10.871  65.934  1.00  0.00    -0.262 SA 
ENDROOT
BRANCH   9  11
HETATM   11  C   UNL     1      -9.673   9.923  68.458  1.00  0.00    -0.154 C  
HETATM   12  O   UNL     1      -8.504  10.157  68.756  1.00  0.00    -0.117 OA 
BRANCH  11  13
HETATM   13  C   UNL     1     -10.295   8.678  69.011  1.00  0.00    -0.226 A  
HETATM   14  C   UNL     1     -10.366   7.499  68.254  1.00  0.00    -0.233 A  
HETATM   15  C   UNL     1     -10.922   6.344  68.802  1.00  0.00    -0.404 A  
HETATM   16  C   UNL     1     -11.434   6.366  70.098  1.00  0.00    -0.484 A  
HETATM   17  C   UNL     1     -11.407   7.546  70.840  1.00  0.00    -0.297 A  
HETATM   18  C   UNL     1     -10.843   8.703  70.298  1.00  0.00    -0.250 A  
ENDBRANCH  11  13
ENDBRANCH   9  11
TORSDOF 2
ENDMDL
MODEL       36
REMARK 921   NORMALIZED FREE ENERGY PREDICTED BY IDOCK:   -5.59 KCAL/MOL
REMARK 922        TOTAL FREE ENERGY PREDICTED BY IDOCK:   -6.51 KCAL/MOL
REMARK 923 INTER-LIGAND FREE ENERGY PREDICTED BY IDOCK:   -6.14 KCAL/MOL
REMARK 924 INTRA-LIGAND FREE ENERGY PREDICTED BY IDOCK:   -0.37 KCAL/MOL
REMARK 927      BINDING AFFINITY PREDICTED BY RF-SCORE:    0.00 PKD
ROOT
HETATM    1  C   UNL     1     -10.657  18.657  66.583  1.00  0.00    -0.410 C  
HETATM    2  C   UNL     1      -9.689  17.629  67.163  1.00  0.00    -0.291 C  
HETATM    3  C   UNL     1     -10.423  16.397  67.644  1.00  0.00    -0.302 A  
HETATM    4  C   UNL     1      -8.853  18.235  68.289  1.00  0.00    -0.287 C  
HETATM    5  C   UNL     1     -11.062  16.168  68.847  1.00  0.00    -0.347 A  
HETATM    6  O   UNL     1      -7.996  17.356  68.871  1.00  0.00    -0.256 OA 
HETATM    7  O   UNL     1      -8.891  19.406  68.637  1.00  0.00    -0.369 OA 
HETATM    8  C   UNL     1     -11.584  14.843  68.939  1.00  0.00    -0.339 A  
HETATM    9  C   UNL     1     -11.316  14.089  67.811  1.00  0.00    -0.303 A  
HETATM   10  S   UNL     1     -10.539  15.031  66.612  1.00  0.00    -0.307 SA 
ENDROOT
BRANCH   9  11
HETATM   11  C   UNL     1     -11.595  12.683  67.540  1.00  0.00    -0.359 C  
HETATM   12  O   UNL     1     -12.159  12.280  66.525  1.00  0.00    -0.616 OA 
BRANCH  11  13
HETATM   13  C   UNL     1     -11.162  11.660  68.545  1.00  0.00    -0.312 A  
HETATM   14  C   UNL     1     -12.008  11.258  69.589  1.00  0.00    -0.423 A  
HETATM   15  C   UNL     1     -11.594  10.282  70.495  1.00  0.00    -0.424 A  
HETATM   16  C   UNL     1     -10.324   9.721  70.380  1.00  0.00    -0.354 A  
HETATM   17  C   UNL     1      -9.461  10.148  69.372  1.00  0.00    -0.240 A  
HETATM   18  C   UNL     1      -9.875  11.119  68.457  1.00  0.00    -0.199 A  
ENDBRANCH  11  13
ENDBRANCH   9  11
TORSDOF 2
ENDMDL
MODEL       37
REMARK 921   NORMALIZED FREE ENERGY PREDICTED BY IDOCK:   -5.53 KCAL/MOL
REMARK 922        TOTAL FREE ENERGY PREDICTED BY IDOCK:   -6.45 KCAL/MOL
REMARK 923 INTER-LIGAND FREE ENERGY PREDICTED BY IDOCK:   -6.05 KCAL/MOL
REMARK 924 INTRA-LIGAND FREE ENERGY PREDICTED BY IDOCK:   -0.40 KCAL/MOL
REMARK 927      BINDING AFFINITY PREDICTED BY RF-SCORE:    0.00 PKD
ROOT
HETATM    1  C   UNL     1     -14.357  15.436  70.739  1.00  0.00     0.257 C  
HETATM    2  C   UNL     1     -13.089  14.966  71.448  1.00  0.00    -0.441 C  
HETATM    3  C   UNL     1     -12.964  13.459  71.401  1.00  0.00    -0.328 A  
HETATM    4  C   UNL     1     -13.046  15.467  72.890  1.00  0.00    -0.507 C  
HETATM    5  C   UNL     1     -13.530  12.503  72.223  1.00  0.00    -0.490 A  
HETATM    6  O   UNL     1     -11.956  15.050  73.584  1.00  0.00    -0.412 OA 
HETATM    7  O   UNL     1     -13.872  16.211  73.397  1.00  0.00    -0.558 OA 
HETATM    8  C   UNL     1     -13.113  11.182  71.884  1.00  0.00    -0.513 A  
HETATM    9  C   UNL     1     -12.228  11.162  70.821  1.00  0.00    -0.385 A  
HETATM   10  S   UNL     1     -12.004  12.732  70.178  1.00  0.00    -0.217 SA 
ENDROOT
BRANCH   9  11
HETATM   11  C   UNL     1     -11.508  10.041  70.227  1.00  0.00    -0.300 C  
HETATM   12  O   UNL     1     -11.120  10.018  69.061  1.00  0.00    -0.223 OA 
BRANCH  11  13
HETATM   13  C   UNL     1     -11.209   8.848  71.081  1.00  0.00    -0.352 A  
HETATM   14  C   UNL     1     -11.991   7.685  71.011  1.00  0.00    -0.296 A  
HETATM   15  C   UNL     1     -11.675   6.575  71.794  1.00  0.00    -0.373 A  
HETATM   16  C   UNL     1     -10.592   6.629  72.670  1.00  0.00    -0.249 A  
HETATM   17  C   UNL     1      -9.837   7.796  72.777  1.00  0.00    -0.307 A  
HETATM   18  C   UNL     1     -10.146   8.907  71.988  1.00  0.00    -0.351 A  
ENDBRANCH  11  13
ENDBRANCH   9  11
TORSDOF 2
ENDMDL
MODEL       38
REMARK 921   NORMALIZED FREE ENERGY PREDICTED BY IDOCK:   -5.53 KCAL/MOL
REMARK 922        TOTAL FREE ENERGY PREDICTED BY IDOCK:   -6.45 KCAL/MOL
REMARK 923 INTER-LIGAND FREE ENERGY PREDICTED BY IDOCK:   -6.48 KCAL/MOL
REMARK 924 INTRA-LIGAND FREE ENERGY PREDICTED BY IDOCK:    0.03 KCAL/MOL
REMARK 927      BINDING AFFINITY PREDICTED BY RF-SCORE:    0.00 PKD
ROOT
HETATM    1  C   UNL     1      -7.955  18.555  68.644  1.00  0.00    -0.334 C  
HETATM    2  C   UNL     1      -9.226  18.729  67.816  1.00  0.00    -0.316 C  
HETATM    3  C   UNL     1      -9.653  17.421  67.189  1.00  0.00    -0.265 A  
HETATM    4  C   UNL     1      -9.044  19.806  66.748  1.00  0.00    -0.361 C  
HETATM    5  C   UNL     1      -9.222  16.822  66.021  1.00  0.00    -0.236 A  
HETATM    6  O   UNL     1     -10.132  19.982  65.954  1.00  0.00    -0.465 OA 
HETATM    7  O   UNL     1      -8.045  20.498  66.615  1.00  0.00    -0.222 OA 
HETATM    8  C   UNL     1      -9.922  15.611  65.743  1.00  0.00    -0.390 A  
HETATM    9  C   UNL     1     -10.882  15.322  66.696  1.00  0.00    -0.310 A  
HETATM   10  S   UNL     1     -10.841  16.461  67.973  1.00  0.00    -0.323 SA 
ENDROOT
BRANCH   9  11
HETATM   11  C   UNL     1     -11.859  14.241  66.738  1.00  0.00    -0.426 C  
HETATM   12  O   UNL     1     -12.704  14.047  65.866  1.00  0.00    -0.495 OA 
BRANCH  11  13
HETATM   13  C   UNL     1     -11.834  13.297  67.901  1.00  0.00    -0.388 A  
HETATM   14  C   UNL     1     -12.160  13.726  69.196  1.00  0.00    -0.374 A  
HETATM   15  C   UNL     1     -12.159  12.822  70.258  1.00  0.00    -0.373 A  
HETATM   16  C   UNL     1     -11.807  11.491  70.038  1.00  0.00    -0.435 A  
HETATM   17  C   UNL     1     -11.439  11.068  68.761  1.00  0.00    -0.372 A  
HETATM   18  C   UNL     1     -11.447  11.969  67.694  1.00  0.00    -0.392 A  
ENDBRANCH  11  13
ENDBRANCH   9  11
TORSDOF 2
ENDMDL
MODEL       39
REMARK 921   NORMALIZED FREE ENERGY PREDICTED BY IDOCK:   -5.52 KCAL/MOL
REMARK 922        TOTAL FREE ENERGY PREDICTED BY IDOCK:   -6.44 KCAL/MOL
REMARK 923 INTER-LIGAND FREE ENERGY PREDICTED BY IDOCK:   -6.05 KCAL/MOL
REMARK 924 INTRA-LIGAND FREE ENERGY PREDICTED BY IDOCK:   -0.39 KCAL/MOL
REMARK 927      BINDING AFFINITY PREDICTED BY RF-SCORE:    0.00 PKD
ROOT
HETATM    1  C   UNL     1     -12.009  12.756  67.469  1.00  0.00    -0.342 C  
HETATM    2  C   UNL     1     -11.085  12.922  66.264  1.00  0.00    -0.317 C  
HETATM    3  C   UNL     1     -10.318  14.223  66.340  1.00  0.00    -0.286 A  
HETATM    4  C   UNL     1     -11.866  12.830  64.955  1.00  0.00    -0.382 C  
HETATM    5  C   UNL     1     -10.702  15.495  65.959  1.00  0.00    -0.331 A  
HETATM    6  O   UNL     1     -11.102  13.006  63.846  1.00  0.00    -0.400 OA 
HETATM    7  O   UNL     1     -13.059  12.579  64.868  1.00  0.00    -0.833 OA 
HETATM    8  C   UNL     1      -9.659  16.451  66.136  1.00  0.00    -0.356 A  
HETATM    9  C   UNL     1      -8.499  15.885  66.632  1.00  0.00    -0.287 A  
HETATM   10  S   UNL     1      -8.727  14.226  66.985  1.00  0.00    -0.183 SA 
ENDROOT
BRANCH   9  11
HETATM   11  C   UNL     1      -7.193  16.489  66.872  1.00  0.00    -0.228 C  
HETATM   12  O   UNL     1      -6.150  15.847  66.973  1.00  0.00    -0.328 OA 
BRANCH  11  13
HETATM   13  C   UNL     1      -7.104  17.979  66.991  1.00  0.00    -0.218 A  
HETATM   14  C   UNL     1      -6.725  18.778  65.901  1.00  0.00    -0.294 A  
HETATM   15  C   UNL     1      -6.678  20.166  66.027  1.00  0.00    -0.270 A  
HETATM   16  C   UNL     1      -6.984  20.763  67.249  1.00  0.00    -0.414 A  
HETATM   17  C   UNL     1      -7.318  19.973  68.348  1.00  0.00    -0.285 A  
HETATM   18  C   UNL     1      -7.374  18.583  68.223  1.00  0.00    -0.294 A  
ENDBRANCH  11  13
ENDBRANCH   9  11
TORSDOF 2
ENDMDL
MODEL       40
REMARK 921   NORMALIZED FREE ENERGY PREDICTED BY IDOCK:   -5.50 KCAL/MOL
REMARK 922        TOTAL FREE ENERGY PREDICTED BY IDOCK:   -6.42 KCAL/MOL
REMARK 923 INTER-LIGAND FREE ENERGY PREDICTED BY IDOCK:   -6.02 KCAL/MOL
REMARK 924 INTRA-LIGAND FREE ENERGY PREDICTED BY IDOCK:   -0.39 KCAL/MOL
REMARK 927      BINDING AFFINITY PREDICTED BY RF-SCORE:    0.00 PKD
ROOT
HETATM    1  C   UNL     1     -13.054   8.140  71.730  1.00  0.00    -0.367 C  
HETATM    2  C   UNL     1     -11.844   9.055  71.904  1.00  0.00    -0.447 C  
HETATM    3  C   UNL     1     -11.679   9.975  70.714  1.00  0.00    -0.350 A  
HETATM    4  C   UNL     1     -10.571   8.244  72.141  1.00  0.00    -0.310 C  
HETATM    5  C   UNL     1     -11.066   9.739  69.499  1.00  0.00    -0.226 A  
HETATM    6  O   UNL     1      -9.452   9.003  72.269  1.00  0.00    -0.315 OA 
HETATM    7  O   UNL     1     -10.527   7.028  72.257  1.00  0.00    -0.202 OA 
HETATM    8  C   UNL     1     -11.065  10.894  68.661  1.00  0.00    -0.305 A  
HETATM    9  C   UNL     1     -11.663  11.986  69.262  1.00  0.00    -0.330 A  
HETATM   10  S   UNL     1     -12.318  11.566  70.786  1.00  0.00    -0.324 SA 
ENDROOT
BRANCH   9  11
HETATM   11  C   UNL     1     -11.791  13.359  68.787  1.00  0.00    -0.351 C  
HETATM   12  O   UNL     1     -12.127  14.302  69.502  1.00  0.00    -0.313 OA 
BRANCH  11  13
HETATM   13  C   UNL     1     -11.486  13.653  67.351  1.00  0.00    -0.365 A  
HETATM   14  C   UNL     1     -10.228  14.133  66.955  1.00  0.00    -0.267 A  
HETATM   15  C   UNL     1      -9.958  14.370  65.607  1.00  0.00    -0.365 A  
HETATM   16  C   UNL     1     -10.949  14.154  64.651  1.00  0.00    -0.393 A  
HETATM   17  C   UNL     1     -12.214  13.720  65.043  1.00  0.00    -0.448 A  
HETATM   18  C   UNL     1     -12.487  13.473  66.390  1.00  0.00    -0.349 A  
ENDBRANCH  11  13
ENDBRANCH   9  11
TORSDOF 2
ENDMDL
MODEL       41
REMARK 921   NORMALIZED FREE ENERGY PREDICTED BY IDOCK:   -5.50 KCAL/MOL
REMARK 922        TOTAL FREE ENERGY PREDICTED BY IDOCK:   -6.41 KCAL/MOL
REMARK 923 INTER-LIGAND FREE ENERGY PREDICTED BY IDOCK:   -6.24 KCAL/MOL
REMARK 924 INTRA-LIGAND FREE ENERGY PREDICTED BY IDOCK:   -0.17 KCAL/MOL
REMARK 927      BINDING AFFINITY PREDICTED BY RF-SCORE:    0.00 PKD
ROOT
HETATM    1  C   UNL     1     -12.480  12.155  71.422  1.00  0.00    -0.222 C  
HETATM    2  C   UNL     1     -13.008  13.398  70.708  1.00  0.00    -0.131 C  
HETATM    3  C   UNL     1     -11.968  13.972  69.771  1.00  0.00    -0.334 A  
HETATM    4  C   UNL     1     -13.475  14.451  71.709  1.00  0.00    -0.373 C  
HETATM    5  C   UNL     1     -10.918  14.827  70.042  1.00  0.00    -0.189 A  
HETATM    6  O   UNL     1     -13.923  15.597  71.133  1.00  0.00    -0.564 OA 
HETATM    7  O   UNL     1     -13.501  14.302  72.922  1.00  0.00    -0.593 OA 
HETATM    8  C   UNL     1     -10.197  15.189  68.865  1.00  0.00    -0.236 A  
HETATM    9  C   UNL     1     -10.725  14.614  67.723  1.00  0.00    -0.265 A  
HETATM   10  S   UNL     1     -12.013  13.554  68.107  1.00  0.00    -0.283 SA 
ENDROOT
BRANCH   9  11
HETATM   11  C   UNL     1     -10.344  14.793  66.326  1.00  0.00    -0.297 C  
HETATM   12  O   UNL     1      -9.604  15.690  65.929  1.00  0.00    -0.318 OA 
BRANCH  11  13
HETATM   13  C   UNL     1     -10.869  13.826  65.311  1.00  0.00    -0.326 A  
HETATM   14  C   UNL     1     -12.028  14.102  64.570  1.00  0.00    -0.476 A  
HETATM   15  C   UNL     1     -12.481  13.200  63.608  1.00  0.00    -0.374 A  
HETATM   16  C   UNL     1     -11.795  12.005  63.399  1.00  0.00    -0.542 A  
HETATM   17  C   UNL     1     -10.668  11.704  64.162  1.00  0.00    -0.418 A  
HETATM   18  C   UNL     1     -10.206  12.609  65.120  1.00  0.00    -0.300 A  
ENDBRANCH  11  13
ENDBRANCH   9  11
TORSDOF 2
ENDMDL
MODEL       42
REMARK 921   NORMALIZED FREE ENERGY PREDICTED BY IDOCK:   -5.45 KCAL/MOL
REMARK 922        TOTAL FREE ENERGY PREDICTED BY IDOCK:   -6.36 KCAL/MOL
REMARK 923 INTER-LIGAND FREE ENERGY PREDICTED BY IDOCK:   -5.98 KCAL/MOL
REMARK 924 INTRA-LIGAND FREE ENERGY PREDICTED BY IDOCK:   -0.38 KCAL/MOL
REMARK 927      BINDING AFFINITY PREDICTED BY RF-SCORE:    0.00 PKD
ROOT
HETATM    1  C   UNL     1     -10.947  14.333  69.277  1.00  0.00    -0.271 C  
HETATM    2  C   UNL     1     -11.772  13.190  68.690  1.00  0.00    -0.362 C  
HETATM    3  C   UNL     1     -11.544  11.904  69.454  1.00  0.00    -0.325 A  
HETATM    4  C   UNL     1     -11.469  12.999  67.206  1.00  0.00    -0.332 C  
HETATM    5  C   UNL     1     -10.535  10.969  69.320  1.00  0.00    -0.210 A  
HETATM    6  O   UNL     1     -12.148  11.970  66.634  1.00  0.00    -0.615 OA 
HETATM    7  O   UNL     1     -10.726  13.710  66.546  1.00  0.00    -0.282 OA 
HETATM    8  C   UNL     1     -10.713   9.854  70.192  1.00  0.00    -0.361 A  
HETATM    9  C   UNL     1     -11.860   9.956  70.957  1.00  0.00    -0.376 A  
HETATM   10  S   UNL     1     -12.643  11.455  70.693  1.00  0.00    -0.230 SA 
ENDROOT
BRANCH   9  11
HETATM   11  C   UNL     1     -12.444   9.005  71.896  1.00  0.00    -0.384 C  
HETATM   12  O   UNL     1     -13.540   9.157  72.432  1.00  0.00    -0.453 OA 
BRANCH  11  13
HETATM   13  C   UNL     1     -11.679   7.760  72.224  1.00  0.00    -0.390 A  
HETATM   14  C   UNL     1     -10.659   7.762  73.187  1.00  0.00    -0.415 A  
HETATM   15  C   UNL     1      -9.981   6.584  73.497  1.00  0.00    -0.232 A  
HETATM   16  C   UNL     1     -10.298   5.403  72.829  1.00  0.00    -0.235 A  
HETATM   17  C   UNL     1     -11.280   5.403  71.839  1.00  0.00    -0.126 A  
HETATM   18  C   UNL     1     -11.967   6.579  71.532  1.00  0.00    -0.383 A  
ENDBRANCH  11  13
ENDBRANCH   9  11
TORSDOF 2
ENDMDL
MODEL       43
REMARK 921   NORMALIZED FREE ENERGY PREDICTED BY IDOCK:   -5.45 KCAL/MOL
REMARK 922        TOTAL FREE ENERGY PREDICTED BY IDOCK:   -6.35 KCAL/MOL
REMARK 923 INTER-LIGAND FREE ENERGY PREDICTED BY IDOCK:   -5.96 KCAL/MOL
REMARK 924 INTRA-LIGAND FREE ENERGY PREDICTED BY IDOCK:   -0.39 KCAL/MOL
REMARK 927      BINDING AFFINITY PREDICTED BY RF-SCORE:    0.00 PKD
ROOT
HETATM    1  C   UNL     1     -11.357  14.631  66.607  1.00  0.00    -0.358 C  
HETATM    2  C   UNL     1     -12.176  13.394  66.243  1.00  0.00    -0.456 C  
HETATM    3  C   UNL     1     -11.403  12.125  66.525  1.00  0.00    -0.350 A  
HETATM    4  C   UNL     1     -12.625  13.441  64.784  1.00  0.00    -0.314 C  
HETATM    5  C   UNL     1     -10.463  11.476  65.748  1.00  0.00    -0.308 A  
HETATM    6  O   UNL     1     -13.329  12.349  64.390  1.00  0.00    -0.789 OA 
HETATM    7  O   UNL     1     -12.427  14.375  64.021  1.00  0.00    -0.748 OA 
HETATM    8  C   UNL     1     -10.010  10.264  66.347  1.00  0.00    -0.287 A  
HETATM    9  C   UNL     1     -10.626  10.008  67.559  1.00  0.00    -0.280 A  
HETATM   10  S   UNL     1     -11.658  11.297  68.007  1.00  0.00    -0.234 SA 
ENDROOT
BRANCH   9  11
HETATM   11  C   UNL     1     -10.512   8.849  68.438  1.00  0.00    -0.187 C  
HETATM   12  O   UNL     1     -10.756   8.878  69.642  1.00  0.00    -0.233 OA 
BRANCH  11  13
HETATM   13  C   UNL     1     -10.085   7.541  67.847  1.00  0.00    -0.226 A  
HETATM   14  C   UNL     1      -8.761   7.089  67.954  1.00  0.00    -0.125 A  
HETATM   15  C   UNL     1      -8.394   5.853  67.423  1.00  0.00    -0.105 A  
HETATM   16  C   UNL     1      -9.340   5.073  66.759  1.00  0.00    -0.136 A  
HETATM   17  C   UNL     1     -10.646   5.536  66.611  1.00  0.00    -0.365 A  
HETATM   18  C   UNL     1     -11.020   6.770  67.149  1.00  0.00    -0.458 A  
ENDBRANCH  11  13
ENDBRANCH   9  11
TORSDOF 2
ENDMDL
MODEL       44
REMARK 921   NORMALIZED FREE ENERGY PREDICTED BY IDOCK:   -5.45 KCAL/MOL
REMARK 922        TOTAL FREE ENERGY PREDICTED BY IDOCK:   -6.35 KCAL/MOL
REMARK 923 INTER-LIGAND FREE ENERGY PREDICTED BY IDOCK:   -6.01 KCAL/MOL
REMARK 924 INTRA-LIGAND FREE ENERGY PREDICTED BY IDOCK:   -0.35 KCAL/MOL
REMARK 927      BINDING AFFINITY PREDICTED BY RF-SCORE:    0.00 PKD
ROOT
HETATM    1  C   UNL     1     -13.439   9.026  71.599  1.00  0.00    -0.442 C  
HETATM    2  C   UNL     1     -12.004   9.545  71.641  1.00  0.00    -0.474 C  
HETATM    3  C   UNL     1     -11.510   9.899  70.256  1.00  0.00    -0.281 A  
HETATM    4  C   UNL     1     -11.072   8.533  72.305  1.00  0.00    -0.360 C  
HETATM    5  C   UNL     1     -10.967   9.085  69.280  1.00  0.00    -0.052 A  
HETATM    6  O   UNL     1      -9.772   8.924  72.340  1.00  0.00    -0.239 OA 
HETATM    7  O   UNL     1     -11.430   7.479  72.809  1.00  0.00    -0.334 OA 
HETATM    8  C   UNL     1     -10.565   9.819  68.125  1.00  0.00    -0.276 A  
HETATM    9  C   UNL     1     -10.794  11.176  68.253  1.00  0.00    -0.212 A  
HETATM   10  S   UNL     1     -11.599  11.528  69.721  1.00  0.00    -0.320 SA 
ENDROOT
BRANCH   9  11
HETATM   11  C   UNL     1     -10.453  12.270  67.349  1.00  0.00    -0.210 C  
HETATM   12  O   UNL     1      -9.709  13.200  67.653  1.00  0.00    -0.203 OA 
BRANCH  11  13
HETATM   13  C   UNL     1     -11.027  12.262  65.966  1.00  0.00    -0.327 A  
HETATM   14  C   UNL     1     -12.277  12.836  65.691  1.00  0.00    -0.503 A  
HETATM   15  C   UNL     1     -12.777  12.844  64.389  1.00  0.00    -0.322 A  
HETATM   16  C   UNL     1     -12.045  12.256  63.360  1.00  0.00    -0.615 A  
HETATM   17  C   UNL     1     -10.822  11.645  63.634  1.00  0.00    -0.503 A  
HETATM   18  C   UNL     1     -10.314  11.643  64.935  1.00  0.00    -0.331 A  
ENDBRANCH  11  13
ENDBRANCH   9  11
TORSDOF 2
ENDMDL
MODEL       45
REMARK 921   NORMALIZED FREE ENERGY PREDICTED BY IDOCK:   -5.42 KCAL/MOL
REMARK 922        TOTAL FREE ENERGY PREDICTED BY IDOCK:   -6.33 KCAL/MOL
REMARK 923 INTER-LIGAND FREE ENERGY PREDICTED BY IDOCK:   -6.02 KCAL/MOL
REMARK 924 INTRA-LIGAND FREE ENERGY PREDICTED BY IDOCK:   -0.31 KCAL/MOL
REMARK 927      BINDING AFFINITY PREDICTED BY RF-SCORE:    0.00 PKD
ROOT
HETATM    1  C   UNL     1     -13.157  13.816  71.217  1.00  0.00    -0.370 C  
HETATM    2  C   UNL     1     -11.922  13.196  70.567  1.00  0.00    -0.303 C  
HETATM    3  C   UNL     1     -11.600  13.871  69.252  1.00  0.00    -0.309 A  
HETATM    4  C   UNL     1     -12.099  11.692  70.374  1.00  0.00    -0.373 C  
HETATM    5  C   UNL     1     -12.123  13.641  67.994  1.00  0.00    -0.309 A  
HETATM    6  O   UNL     1     -11.045  11.088  69.766  1.00  0.00    -0.259 OA 
HETATM    7  O   UNL     1     -13.064  11.046  70.756  1.00  0.00    -0.236 OA 
HETATM    8  C   UNL     1     -11.505  14.451  66.996  1.00  0.00    -0.376 A  
HETATM    9  C   UNL     1     -10.516  15.267  67.512  1.00  0.00    -0.265 A  
HETATM   10  S   UNL     1     -10.428  15.125  69.215  1.00  0.00    -0.270 SA 
ENDROOT
BRANCH   9  11
HETATM   11  C   UNL     1      -9.598  16.170  66.826  1.00  0.00    -0.240 C  
HETATM   12  O   UNL     1      -8.797  15.808  65.966  1.00  0.00    -0.327 OA 
BRANCH  11  13
HETATM   13  C   UNL     1      -9.633  17.627  67.172  1.00  0.00    -0.278 A  
HETATM   14  C   UNL     1     -10.600  18.484  66.626  1.00  0.00    -0.383 A  
HETATM   15  C   UNL     1     -10.632  19.831  66.987  1.00  0.00    -0.586 A  
HETATM   16  C   UNL     1      -9.682  20.335  67.873  1.00  0.00    -0.472 A  
HETATM   17  C   UNL     1      -8.691  19.498  68.385  1.00  0.00    -0.389 A  
HETATM   18  C   UNL     1      -8.662  18.147  68.033  1.00  0.00    -0.276 A  
ENDBRANCH  11  13
ENDBRANCH   9  11
TORSDOF 2
ENDMDL
MODEL       46
REMARK 921   NORMALIZED FREE ENERGY PREDICTED BY IDOCK:   -5.41 KCAL/MOL
REMARK 922        TOTAL FREE ENERGY PREDICTED BY IDOCK:   -6.31 KCAL/MOL
REMARK 923 INTER-LIGAND FREE ENERGY PREDICTED BY IDOCK:   -6.08 KCAL/MOL
REMARK 924 INTRA-LIGAND FREE ENERGY PREDICTED BY IDOCK:   -0.23 KCAL/MOL
REMARK 927      BINDING AFFINITY PREDICTED BY RF-SCORE:    0.00 PKD
ROOT
HETATM    1  C   UNL     1      -9.509   8.311  72.833  1.00  0.00    -0.321 C  
HETATM    2  C   UNL     1     -10.256   7.925  71.558  1.00  0.00    -0.232 C  
HETATM    3  C   UNL     1     -11.010   9.105  70.988  1.00  0.00    -0.305 A  
HETATM    4  C   UNL     1     -11.199   6.749  71.807  1.00  0.00    -0.259 C  
HETATM    5  C   UNL     1     -12.258   9.597  71.322  1.00  0.00    -0.452 A  
HETATM    6  O   UNL     1     -11.919   6.382  70.716  1.00  0.00    -0.338 OA 
HETATM    7  O   UNL     1     -11.294   6.141  72.863  1.00  0.00    -0.242 OA 
HETATM    8  C   UNL     1     -12.643  10.697  70.501  1.00  0.00    -0.433 A  
HETATM    9  C   UNL     1     -11.690  11.009  69.550  1.00  0.00    -0.329 A  
HETATM   10  S   UNL     1     -10.292  10.039  69.740  1.00  0.00    -0.265 SA 
ENDROOT
BRANCH   9  11
HETATM   11  C   UNL     1     -11.730  11.995  68.475  1.00  0.00    -0.332 C  
HETATM   12  O   UNL     1     -11.957  11.716  67.299  1.00  0.00    -0.627 OA 
BRANCH  11  13
HETATM   13  C   UNL     1     -11.495  13.434  68.814  1.00  0.00    -0.344 A  
HETATM   14  C   UNL     1     -10.504  14.186  68.163  1.00  0.00    -0.244 A  
HETATM   15  C   UNL     1     -10.324  15.533  68.474  1.00  0.00    -0.225 A  
HETATM   16  C   UNL     1     -11.114  16.131  69.455  1.00  0.00    -0.344 A  
HETATM   17  C   UNL     1     -12.070  15.379  70.137  1.00  0.00    -0.400 A  
HETATM   18  C   UNL     1     -12.259  14.032  69.822  1.00  0.00    -0.396 A  
ENDBRANCH  11  13
ENDBRANCH   9  11
TORSDOF 2
ENDMDL
MODEL       47
REMARK 921   NORMALIZED FREE ENERGY PREDICTED BY IDOCK:   -5.40 KCAL/MOL
REMARK 922        TOTAL FREE ENERGY PREDICTED BY IDOCK:   -6.30 KCAL/MOL
REMARK 923 INTER-LIGAND FREE ENERGY PREDICTED BY IDOCK:   -5.96 KCAL/MOL
REMARK 924 INTRA-LIGAND FREE ENERGY PREDICTED BY IDOCK:   -0.35 KCAL/MOL
REMARK 927      BINDING AFFINITY PREDICTED BY RF-SCORE:    0.00 PKD
ROOT
HETATM    1  C   UNL     1     -10.877  14.270  66.932  1.00  0.00    -0.298 C  
HETATM    2  C   UNL     1     -11.815  13.151  66.485  1.00  0.00    -0.456 C  
HETATM    3  C   UNL     1     -11.143  11.800  66.589  1.00  0.00    -0.310 A  
HETATM    4  C   UNL     1     -12.324  13.393  65.066  1.00  0.00    -0.436 C  
HETATM    5  C   UNL     1     -10.298  11.166  65.698  1.00  0.00    -0.311 A  
HETATM    6  O   UNL     1     -13.137  12.411  64.598  1.00  0.00    -0.825 OA 
HETATM    7  O   UNL     1     -12.082  14.386  64.395  1.00  0.00    -0.460 OA 
HETATM    8  C   UNL     1      -9.924   9.863  66.140  1.00  0.00    -0.331 A  
HETATM    9  C   UNL     1     -10.504   9.526  67.349  1.00  0.00    -0.272 A  
HETATM   10  S   UNL     1     -11.400  10.838  67.987  1.00  0.00    -0.258 SA 
ENDROOT
BRANCH   9  11
HETATM   11  C   UNL     1     -10.450   8.273  68.094  1.00  0.00    -0.171 C  
HETATM   12  O   UNL     1     -10.570   7.164  67.576  1.00  0.00    -0.230 OA 
BRANCH  11  13
HETATM   13  C   UNL     1     -10.224   8.327  69.573  1.00  0.00    -0.210 A  
HETATM   14  C   UNL     1      -9.006   8.771  70.110  1.00  0.00    -0.173 A  
HETATM   15  C   UNL     1      -8.829   8.842  71.491  1.00  0.00    -0.295 A  
HETATM   16  C   UNL     1      -9.857   8.445  72.345  1.00  0.00    -0.378 A  
HETATM   17  C   UNL     1     -11.054   7.961  71.818  1.00  0.00    -0.299 A  
HETATM   18  C   UNL     1     -11.238   7.897  70.435  1.00  0.00    -0.240 A  
ENDBRANCH  11  13
ENDBRANCH   9  11
TORSDOF 2
ENDMDL
MODEL       48
REMARK 921   NORMALIZED FREE ENERGY PREDICTED BY IDOCK:   -5.40 KCAL/MOL
REMARK 922        TOTAL FREE ENERGY PREDICTED BY IDOCK:   -6.30 KCAL/MOL
REMARK 923 INTER-LIGAND FREE ENERGY PREDICTED BY IDOCK:   -5.98 KCAL/MOL
REMARK 924 INTRA-LIGAND FREE ENERGY PREDICTED BY IDOCK:   -0.32 KCAL/MOL
REMARK 927      BINDING AFFINITY PREDICTED BY RF-SCORE:    0.00 PKD
ROOT
HETATM    1  C   UNL     1      -9.861   4.690  70.313  1.00  0.00    -0.314 C  
HETATM    2  C   UNL     1     -10.645   4.886  71.608  1.00  0.00    -0.143 C  
HETATM    3  C   UNL     1     -10.925   6.351  71.860  1.00  0.00    -0.253 A  
HETATM    4  C   UNL     1      -9.912   4.264  72.795  1.00  0.00    -0.153 C  
HETATM    5  C   UNL     1     -10.123   7.313  72.443  1.00  0.00    -0.218 A  
HETATM    6  O   UNL     1     -10.545   4.438  73.984  1.00  0.00    -0.222 OA 
HETATM    7  O   UNL     1      -8.874   3.624  72.719  1.00  0.00    -0.092 OA 
HETATM    8  C   UNL     1     -10.782   8.573  72.555  1.00  0.00    -0.303 A  
HETATM    9  C   UNL     1     -12.077   8.539  72.070  1.00  0.00    -0.364 A  
HETATM   10  S   UNL     1     -12.435   7.013  71.381  1.00  0.00    -0.375 SA 
ENDROOT
BRANCH   9  11
HETATM   11  C   UNL     1     -13.104   9.574  72.078  1.00  0.00    -0.438 C  
HETATM   12  O   UNL     1     -14.222   9.425  72.567  1.00  0.00    -0.400 OA 
BRANCH  11  13
HETATM   13  C   UNL     1     -12.786  10.904  71.467  1.00  0.00    -0.560 A  
HETATM   14  C   UNL     1     -11.989  11.008  70.317  1.00  0.00    -0.452 A  
HETATM   15  C   UNL     1     -11.732  12.255  69.749  1.00  0.00    -0.368 A  
HETATM   16  C   UNL     1     -12.246  13.408  70.341  1.00  0.00    -0.415 A  
HETATM   17  C   UNL     1     -13.001  13.316  71.509  1.00  0.00    -0.426 A  
HETATM   18  C   UNL     1     -13.269  12.067  72.076  1.00  0.00    -0.481 A  
ENDBRANCH  11  13
ENDBRANCH   9  11
TORSDOF 2
ENDMDL
MODEL       49
REMARK 921   NORMALIZED FREE ENERGY PREDICTED BY IDOCK:   -5.38 KCAL/MOL
REMARK 922        TOTAL FREE ENERGY PREDICTED BY IDOCK:   -6.28 KCAL/MOL
REMARK 923 INTER-LIGAND FREE ENERGY PREDICTED BY IDOCK:   -5.97 KCAL/MOL
REMARK 924 INTRA-LIGAND FREE ENERGY PREDICTED BY IDOCK:   -0.31 KCAL/MOL
REMARK 927      BINDING AFFINITY PREDICTED BY RF-SCORE:    0.00 PKD
ROOT
HETATM    1  C   UNL     1     -10.709  19.401  67.259  1.00  0.00    -0.603 C  
HETATM    2  C   UNL     1      -9.790  18.777  66.211  1.00  0.00    -0.382 C  
HETATM    3  C   UNL     1      -9.675  17.282  66.406  1.00  0.00    -0.290 A  
HETATM    4  C   UNL     1      -8.411  19.433  66.228  1.00  0.00    -0.336 C  
HETATM    5  C   UNL     1      -8.851  16.566  67.253  1.00  0.00    -0.206 A  
HETATM    6  O   UNL     1      -7.536  18.895  65.340  1.00  0.00    -0.452 OA 
HETATM    7  O   UNL     1      -8.096  20.383  66.930  1.00  0.00    -0.308 OA 
HETATM    8  C   UNL     1      -9.002  15.157  67.091  1.00  0.00    -0.231 A  
HETATM    9  C   UNL     1      -9.925  14.831  66.114  1.00  0.00    -0.304 A  
HETATM   10  S   UNL     1     -10.679  16.234  65.488  1.00  0.00    -0.248 SA 
ENDROOT
BRANCH   9  11
HETATM   11  C   UNL     1     -10.305  13.525  65.587  1.00  0.00    -0.297 C  
HETATM   12  O   UNL     1     -10.330  13.252  64.388  1.00  0.00    -0.413 OA 
BRANCH  11  13
HETATM   13  C   UNL     1     -10.675  12.442  66.553  1.00  0.00    -0.265 A  
HETATM   14  C   UNL     1     -11.435  12.715  67.700  1.00  0.00    -0.390 A  
HETATM   15  C   UNL     1     -11.793  11.685  68.569  1.00  0.00    -0.357 A  
HETATM   16  C   UNL     1     -11.374  10.381  68.312  1.00  0.00    -0.292 A  
HETATM   17  C   UNL     1     -10.582  10.109  67.197  1.00  0.00    -0.308 A  
HETATM   18  C   UNL     1     -10.228  11.137  66.320  1.00  0.00    -0.286 A  
ENDBRANCH  11  13
ENDBRANCH   9  11
TORSDOF 2
ENDMDL
MODEL       50
REMARK 921   NORMALIZED FREE ENERGY PREDICTED BY IDOCK:   -5.38 KCAL/MOL
REMARK 922        TOTAL FREE ENERGY PREDICTED BY IDOCK:   -6.27 KCAL/MOL
REMARK 923 INTER-LIGAND FREE ENERGY PREDICTED BY IDOCK:   -6.10 KCAL/MOL
REMARK 924 INTRA-LIGAND FREE ENERGY PREDICTED BY IDOCK:   -0.17 KCAL/MOL
REMARK 927      BINDING AFFINITY PREDICTED BY RF-SCORE:    0.00 PKD
ROOT
HETATM    1  C   UNL     1     -12.426  12.882  65.293  1.00  0.00    -0.552 C  
HETATM    2  C   UNL     1     -11.243  12.649  66.230  1.00  0.00    -0.354 C  
HETATM    3  C   UNL     1     -11.679  12.679  67.678  1.00  0.00    -0.361 A  
HETATM    4  C   UNL     1     -10.133  13.666  65.978  1.00  0.00    -0.312 C  
HETATM    5  C   UNL     1     -11.865  13.760  68.518  1.00  0.00    -0.406 A  
HETATM    6  O   UNL     1      -9.065  13.531  66.807  1.00  0.00    -0.243 OA 
HETATM    7  O   UNL     1     -10.144  14.510  65.094  1.00  0.00    -0.383 OA 
HETATM    8  C   UNL     1     -12.222  13.363  69.841  1.00  0.00    -0.337 A  
HETATM    9  C   UNL     1     -12.285  11.989  69.983  1.00  0.00    -0.206 A  
HETATM   10  S   UNL     1     -12.023  11.203  68.485  1.00  0.00    -0.042 SA 
ENDROOT
BRANCH   9  11
HETATM   11  C   UNL     1     -12.526  11.183  71.175  1.00  0.00    -0.393 C  
HETATM   12  O   UNL     1     -13.156  11.581  72.153  1.00  0.00    -0.466 OA 
BRANCH  11  13
HETATM   13  C   UNL     1     -11.992   9.785  71.215  1.00  0.00    -0.471 A  
HETATM   14  C   UNL     1     -12.847   8.680  71.351  1.00  0.00    -0.294 A  
HETATM   15  C   UNL     1     -12.329   7.386  71.356  1.00  0.00    -0.394 A  
HETATM   16  C   UNL     1     -10.953   7.187  71.252  1.00  0.00    -0.264 A  
HETATM   17  C   UNL     1     -10.094   8.282  71.161  1.00  0.00    -0.237 A  
HETATM   18  C   UNL     1     -10.610   9.580  71.147  1.00  0.00    -0.388 A  
ENDBRANCH  11  13
ENDBRANCH   9  11
TORSDOF 2
ENDMDL
MODEL       51
REMARK 921   NORMALIZED FREE ENERGY PREDICTED BY IDOCK:   -5.36 KCAL/MOL
REMARK 922        TOTAL FREE ENERGY PREDICTED BY IDOCK:   -6.25 KCAL/MOL
REMARK 923 INTER-LIGAND FREE ENERGY PREDICTED BY IDOCK:   -5.95 KCAL/MOL
REMARK 924 INTRA-LIGAND FREE ENERGY PREDICTED BY IDOCK:   -0.30 KCAL/MOL
REMARK 927      BINDING AFFINITY PREDICTED BY RF-SCORE:    0.00 PKD
ROOT
HETATM    1  C   UNL     1     -12.271  13.198  63.404  1.00  0.00    -0.521 C  
HETATM    2  C   UNL     1     -11.179  13.716  64.338  1.00  0.00    -0.382 C  
HETATM    3  C   UNL     1     -11.103  12.889  65.602  1.00  0.00    -0.279 A  
HETATM    4  C   UNL     1     -11.392  15.192  64.668  1.00  0.00    -0.356 C  
HETATM    5  C   UNL     1     -11.849  12.984  66.761  1.00  0.00    -0.451 A  
HETATM    6  O   UNL     1     -10.469  15.701  65.525  1.00  0.00    -0.349 OA 
HETATM    7  O   UNL     1     -12.271  15.895  64.194  1.00  0.00    -0.636 OA 
HETATM    8  C   UNL     1     -11.425  12.053  67.755  1.00  0.00    -0.394 A  
HETATM    9  C   UNL     1     -10.355  11.282  67.338  1.00  0.00    -0.200 A  
HETATM   10  S   UNL     1      -9.955  11.617  65.708  1.00  0.00    -0.246 SA 
ENDROOT
BRANCH   9  11
HETATM   11  C   UNL     1      -9.578  10.290  68.071  1.00  0.00    -0.145 C  
HETATM   12  O   UNL     1      -8.538  10.545  68.676  1.00  0.00    -0.124 OA 
BRANCH  11  13
HETATM   13  C   UNL     1     -10.071   8.876  68.106  1.00  0.00    -0.227 A  
HETATM   14  C   UNL     1     -10.424   8.255  69.314  1.00  0.00    -0.218 A  
HETATM   15  C   UNL     1     -10.909   6.948  69.318  1.00  0.00    -0.270 A  
HETATM   16  C   UNL     1     -11.021   6.244  68.120  1.00  0.00    -0.412 A  
HETATM   17  C   UNL     1     -10.630   6.839  66.921  1.00  0.00    -0.374 A  
HETATM   18  C   UNL     1     -10.151   8.152  66.912  1.00  0.00    -0.367 A  
ENDBRANCH  11  13
ENDBRANCH   9  11
TORSDOF 2
ENDMDL
MODEL       52
REMARK 921   NORMALIZED FREE ENERGY PREDICTED BY IDOCK:   -5.33 KCAL/MOL
REMARK 922        TOTAL FREE ENERGY PREDICTED BY IDOCK:   -6.22 KCAL/MOL
REMARK 923 INTER-LIGAND FREE ENERGY PREDICTED BY IDOCK:   -5.84 KCAL/MOL
REMARK 924 INTRA-LIGAND FREE ENERGY PREDICTED BY IDOCK:   -0.39 KCAL/MOL
REMARK 927      BINDING AFFINITY PREDICTED BY RF-SCORE:    0.00 PKD
ROOT
HETATM    1  C   UNL     1      -8.943  20.243  68.573  1.00  0.00     0.135 C  
HETATM    2  C   UNL     1      -8.693  20.109  67.073  1.00  0.00    -0.420 C  
HETATM    3  C   UNL     1      -8.976  18.702  66.595  1.00  0.00    -0.306 A  
HETATM    4  C   UNL     1      -7.268  20.526  66.713  1.00  0.00    -0.275 C  
HETATM    5  C   UNL     1      -8.165  17.585  66.620  1.00  0.00    -0.288 A  
HETATM    6  O   UNL     1      -6.974  20.395  65.394  1.00  0.00    -0.280 OA 
HETATM    7  O   UNL     1      -6.452  20.982  67.500  1.00  0.00    -0.304 OA 
HETATM    8  C   UNL     1      -8.784  16.453  66.012  1.00  0.00    -0.274 A  
HETATM    9  C   UNL     1     -10.046  16.737  65.523  1.00  0.00    -0.095 A  
HETATM   10  S   UNL     1     -10.508  18.339  65.910  1.00  0.00    -0.154 SA 
ENDROOT
BRANCH   9  11
HETATM   11  C   UNL     1     -10.965  15.895  64.766  1.00  0.00    -0.375 C  
HETATM   12  O   UNL     1     -11.667  16.306  63.843  1.00  0.00    -0.986 OA 
BRANCH  11  13
HETATM   13  C   UNL     1     -11.060  14.442  65.116  1.00  0.00    -0.365 A  
HETATM   14  C   UNL     1     -10.500  13.455  64.291  1.00  0.00    -0.325 A  
HETATM   15  C   UNL     1     -10.575  12.110  64.653  1.00  0.00    -0.340 A  
HETATM   16  C   UNL     1     -11.231  11.742  65.826  1.00  0.00    -0.337 A  
HETATM   17  C   UNL     1     -11.828  12.714  66.628  1.00  0.00    -0.449 A  
HETATM   18  C   UNL     1     -11.748  14.063  66.273  1.00  0.00    -0.401 A  
ENDBRANCH  11  13
ENDBRANCH   9  11
TORSDOF 2
ENDMDL
MODEL       53
REMARK 921   NORMALIZED FREE ENERGY PREDICTED BY IDOCK:   -5.32 KCAL/MOL
REMARK 922        TOTAL FREE ENERGY PREDICTED BY IDOCK:   -6.21 KCAL/MOL
REMARK 923 INTER-LIGAND FREE ENERGY PREDICTED BY IDOCK:   -5.83 KCAL/MOL
REMARK 924 INTRA-LIGAND FREE ENERGY PREDICTED BY IDOCK:   -0.39 KCAL/MOL
REMARK 927      BINDING AFFINITY PREDICTED BY RF-SCORE:    0.00 PKD
ROOT
HETATM    1  C   UNL     1      -9.602   8.317  72.296  1.00  0.00    -0.355 C  
HETATM    2  C   UNL     1     -10.090   8.075  70.869  1.00  0.00    -0.211 C  
HETATM    3  C   UNL     1     -10.529   9.367  70.215  1.00  0.00    -0.251 A  
HETATM    4  C   UNL     1     -11.216   7.044  70.840  1.00  0.00    -0.282 C  
HETATM    5  C   UNL     1     -11.740  10.026  70.297  1.00  0.00    -0.327 A  
HETATM    6  O   UNL     1     -11.717   6.812  69.599  1.00  0.00    -0.232 OA 
HETATM    7  O   UNL     1     -11.628   6.430  71.813  1.00  0.00    -0.290 OA 
HETATM    8  C   UNL     1     -11.778  11.191  69.475  1.00  0.00    -0.405 A  
HETATM    9  C   UNL     1     -10.602  11.384  68.774  1.00  0.00    -0.204 A  
HETATM   10  S   UNL     1      -9.428  10.217  69.209  1.00  0.00    -0.203 SA 
ENDROOT
BRANCH   9  11
HETATM   11  C   UNL     1     -10.266  12.392  67.774  1.00  0.00    -0.211 C  
HETATM   12  O   UNL     1      -9.530  13.352  67.992  1.00  0.00    -0.204 OA 
BRANCH  11  13
HETATM   13  C   UNL     1     -10.834  12.251  66.396  1.00  0.00    -0.299 A  
HETATM   14  C   UNL     1     -12.040  12.872  66.036  1.00  0.00    -0.484 A  
HETATM   15  C   UNL     1     -12.534  12.752  64.738  1.00  0.00    -0.539 A  
HETATM   16  C   UNL     1     -11.842  11.990  63.799  1.00  0.00    -0.581 A  
HETATM   17  C   UNL     1     -10.666  11.334  64.161  1.00  0.00    -0.436 A  
HETATM   18  C   UNL     1     -10.163  11.459  65.458  1.00  0.00    -0.312 A  
ENDBRANCH  11  13
ENDBRANCH   9  11
TORSDOF 2
ENDMDL
MODEL       54
REMARK 921   NORMALIZED FREE ENERGY PREDICTED BY IDOCK:   -5.30 KCAL/MOL
REMARK 922        TOTAL FREE ENERGY PREDICTED BY IDOCK:   -6.19 KCAL/MOL
REMARK 923 INTER-LIGAND FREE ENERGY PREDICTED BY IDOCK:   -5.81 KCAL/MOL
REMARK 924 INTRA-LIGAND FREE ENERGY PREDICTED BY IDOCK:   -0.39 KCAL/MOL
REMARK 927      BINDING AFFINITY PREDICTED BY RF-SCORE:    0.00 PKD
ROOT
HETATM    1  C   UNL     1     -10.065   8.109  72.675  1.00  0.00    -0.379 C  
HETATM    2  C   UNL     1     -10.417   7.889  71.205  1.00  0.00    -0.233 C  
HETATM    3  C   UNL     1     -10.799   9.189  70.534  1.00  0.00    -0.255 A  
HETATM    4  C   UNL     1     -11.531   6.855  71.055  1.00  0.00    -0.314 C  
HETATM    5  C   UNL     1     -12.015   9.844  70.512  1.00  0.00    -0.320 A  
HETATM    6  O   UNL     1     -11.913   6.642  69.769  1.00  0.00    -0.245 OA 
HETATM    7  O   UNL     1     -12.029   6.224  71.976  1.00  0.00    -0.330 OA 
HETATM    8  C   UNL     1     -11.981  11.022  69.708  1.00  0.00    -0.428 A  
HETATM    9  C   UNL     1     -10.746  11.229  69.123  1.00  0.00    -0.207 A  
HETATM   10  S   UNL     1      -9.613  10.059  69.648  1.00  0.00    -0.208 SA 
ENDROOT
BRANCH   9  11
HETATM   11  C   UNL     1     -10.322  12.253  68.174  1.00  0.00    -0.216 C  
HETATM   12  O   UNL     1      -9.540  13.160  68.451  1.00  0.00    -0.225 OA 
BRANCH  11  13
HETATM   13  C   UNL     1     -10.855  12.200  66.776  1.00  0.00    -0.289 A  
HETATM   14  C   UNL     1     -10.285  11.359  65.809  1.00  0.00    -0.295 A  
HETATM   15  C   UNL     1     -10.818  11.304  64.521  1.00  0.00    -0.354 A  
HETATM   16  C   UNL     1     -11.906  12.107  64.185  1.00  0.00    -0.490 A  
HETATM   17  C   UNL     1     -12.450  12.978  65.128  1.00  0.00    -0.552 A  
HETATM   18  C   UNL     1     -11.924  13.030  66.421  1.00  0.00    -0.466 A  
ENDBRANCH  11  13
ENDBRANCH   9  11
TORSDOF 2
ENDMDL
MODEL       55
REMARK 921   NORMALIZED FREE ENERGY PREDICTED BY IDOCK:   -5.30 KCAL/MOL
REMARK 922        TOTAL FREE ENERGY PREDICTED BY IDOCK:   -6.18 KCAL/MOL
REMARK 923 INTER-LIGAND FREE ENERGY PREDICTED BY IDOCK:   -5.79 KCAL/MOL
REMARK 924 INTRA-LIGAND FREE ENERGY PREDICTED BY IDOCK:   -0.40 KCAL/MOL
REMARK 927      BINDING AFFINITY PREDICTED BY RF-SCORE:    0.00 PKD
ROOT
HETATM    1  C   UNL     1      -8.736  16.250  66.157  1.00  0.00    -0.353 C  
HETATM    2  C   UNL     1      -9.536  15.839  67.391  1.00  0.00    -0.213 C  
HETATM    3  C   UNL     1     -10.265  14.534  67.160  1.00  0.00    -0.260 A  
HETATM    4  C   UNL     1     -10.512  16.938  67.806  1.00  0.00    -0.340 C  
HETATM    5  C   UNL     1     -11.483  14.303  66.550  1.00  0.00    -0.368 A  
HETATM    6  O   UNL     1     -11.279  16.616  68.880  1.00  0.00    -0.295 OA 
HETATM    7  O   UNL     1     -10.596  18.036  67.276  1.00  0.00    -0.380 OA 
HETATM    8  C   UNL     1     -11.854  12.927  66.587  1.00  0.00    -0.461 A  
HETATM    9  C   UNL     1     -10.920  12.143  67.239  1.00  0.00    -0.260 A  
HETATM   10  S   UNL     1      -9.553  13.066  67.694  1.00  0.00    -0.214 SA 
ENDROOT
BRANCH   9  11
HETATM   11  C   UNL     1     -10.959  10.722  67.566  1.00  0.00    -0.312 C  
HETATM   12  O   UNL     1     -10.733   9.827  66.754  1.00  0.00    -0.170 OA 
BRANCH  11  13
HETATM   13  C   UNL     1     -11.279  10.318  68.972  1.00  0.00    -0.260 A  
HETATM   14  C   UNL     1     -12.268  10.981  69.715  1.00  0.00    -0.388 A  
HETATM   15  C   UNL     1     -12.570  10.567  71.012  1.00  0.00    -0.499 A  
HETATM   16  C   UNL     1     -11.868   9.508  71.585  1.00  0.00    -0.468 A  
HETATM   17  C   UNL     1     -10.854   8.874  70.869  1.00  0.00    -0.308 A  
HETATM   18  C   UNL     1     -10.554   9.279  69.566  1.00  0.00    -0.236 A  
ENDBRANCH  11  13
ENDBRANCH   9  11
TORSDOF 2
ENDMDL
MODEL       56
REMARK 921   NORMALIZED FREE ENERGY PREDICTED BY IDOCK:   -5.26 KCAL/MOL
REMARK 922        TOTAL FREE ENERGY PREDICTED BY IDOCK:   -6.14 KCAL/MOL
REMARK 923 INTER-LIGAND FREE ENERGY PREDICTED BY IDOCK:   -6.01 KCAL/MOL
REMARK 924 INTRA-LIGAND FREE ENERGY PREDICTED BY IDOCK:   -0.13 KCAL/MOL
REMARK 927      BINDING AFFINITY PREDICTED BY RF-SCORE:    0.00 PKD
ROOT
HETATM    1  C   UNL     1     -10.457  12.465  64.091  1.00  0.00    -0.415 C  
HETATM    2  C   UNL     1     -11.103  13.116  65.312  1.00  0.00    -0.304 C  
HETATM    3  C   UNL     1     -10.372  14.380  65.708  1.00  0.00    -0.326 A  
HETATM    4  C   UNL     1     -11.170  12.140  66.485  1.00  0.00    -0.328 C  
HETATM    5  C   UNL     1      -9.239  14.534  66.483  1.00  0.00    -0.282 A  
HETATM    6  O   UNL     1     -11.704  12.674  67.614  1.00  0.00    -0.335 OA 
HETATM    7  O   UNL     1     -10.827  10.968  66.441  1.00  0.00    -0.257 OA 
HETATM    8  C   UNL     1      -8.899  15.906  66.677  1.00  0.00    -0.316 A  
HETATM    9  C   UNL     1      -9.789  16.765  66.059  1.00  0.00    -0.287 A  
HETATM   10  S   UNL     1     -10.956  15.897  65.158  1.00  0.00    -0.330 SA 
ENDROOT
BRANCH   9  11
HETATM   11  C   UNL     1      -9.850  18.222  66.084  1.00  0.00    -0.260 C  
HETATM   12  O   UNL     1     -10.762  18.878  65.584  1.00  0.00    -0.532 OA 
BRANCH  11  13
HETATM   13  C   UNL     1      -8.750  18.974  66.767  1.00  0.00    -0.318 A  
HETATM   14  C   UNL     1      -7.906  19.841  66.056  1.00  0.00    -0.344 A  
HETATM   15  C   UNL     1      -6.908  20.553  66.719  1.00  0.00    -0.326 A  
HETATM   16  C   UNL     1      -6.728  20.385  68.090  1.00  0.00    -0.326 A  
HETATM   17  C   UNL     1      -7.534  19.493  68.796  1.00  0.00    -0.387 A  
HETATM   18  C   UNL     1      -8.541  18.783  68.137  1.00  0.00    -0.338 A  
ENDBRANCH  11  13
ENDBRANCH   9  11
TORSDOF 2
ENDMDL
MODEL       57
REMARK 921   NORMALIZED FREE ENERGY PREDICTED BY IDOCK:   -5.25 KCAL/MOL
REMARK 922        TOTAL FREE ENERGY PREDICTED BY IDOCK:   -6.13 KCAL/MOL
REMARK 923 INTER-LIGAND FREE ENERGY PREDICTED BY IDOCK:   -6.09 KCAL/MOL
REMARK 924 INTRA-LIGAND FREE ENERGY PREDICTED BY IDOCK:   -0.04 KCAL/MOL
REMARK 927      BINDING AFFINITY PREDICTED BY RF-SCORE:    0.00 PKD
ROOT
HETATM    1  C   UNL     1      -9.556   8.537  66.287  1.00  0.00    -0.306 C  
HETATM    2  C   UNL     1      -9.058   9.759  67.055  1.00  0.00    -0.157 C  
HETATM    3  C   UNL     1     -10.200  10.476  67.741  1.00  0.00    -0.190 A  
HETATM    4  C   UNL     1      -8.294  10.711  66.138  1.00  0.00    -0.158 C  
HETATM    5  C   UNL     1     -11.081  11.411  67.235  1.00  0.00    -0.363 A  
HETATM    6  O   UNL     1      -7.855  11.838  66.758  1.00  0.00    -0.157 OA 
HETATM    7  O   UNL     1      -8.041  10.498  64.962  1.00  0.00    -0.152 OA 
HETATM    8  C   UNL     1     -11.982  11.898  68.228  1.00  0.00    -0.235 A  
HETATM    9  C   UNL     1     -11.756  11.336  69.471  1.00  0.00    -0.345 A  
HETATM   10  S   UNL     1     -10.533  10.142  69.391  1.00  0.00    -0.249 SA 
ENDROOT
BRANCH   9  11
HETATM   11  C   UNL     1     -12.389  11.621  70.754  1.00  0.00    -0.358 C  
HETATM   12  O   UNL     1     -12.669  10.760  71.585  1.00  0.00    -0.411 OA 
BRANCH  11  13
HETATM   13  C   UNL     1     -12.710  13.044  71.094  1.00  0.00    -0.372 A  
HETATM   14  C   UNL     1     -12.061  14.112  70.455  1.00  0.00    -0.420 A  
HETATM   15  C   UNL     1     -12.399  15.428  70.767  1.00  0.00    -0.447 A  
HETATM   16  C   UNL     1     -13.365  15.687  71.737  1.00  0.00    -0.541 A  
HETATM   17  C   UNL     1     -13.982  14.631  72.408  1.00  0.00    -0.578 A  
HETATM   18  C   UNL     1     -13.653  13.311  72.092  1.00  0.00    -0.655 A  
ENDBRANCH  11  13
ENDBRANCH   9  11
TORSDOF 2
ENDMDL
MODEL       58
REMARK 921   NORMALIZED FREE ENERGY PREDICTED BY IDOCK:   -5.24 KCAL/MOL
REMARK 922        TOTAL FREE ENERGY PREDICTED BY IDOCK:   -6.12 KCAL/MOL
REMARK 923 INTER-LIGAND FREE ENERGY PREDICTED BY IDOCK:   -5.72 KCAL/MOL
REMARK 924 INTRA-LIGAND FREE ENERGY PREDICTED BY IDOCK:   -0.41 KCAL/MOL
REMARK 927      BINDING AFFINITY PREDICTED BY RF-SCORE:    0.00 PKD
ROOT
HETATM    1  C   UNL     1     -10.226  19.951  66.034  1.00  0.00    -0.591 C  
HETATM    2  C   UNL     1      -9.322  18.787  66.434  1.00  0.00    -0.321 C  
HETATM    3  C   UNL     1     -10.130  17.631  66.982  1.00  0.00    -0.330 A  
HETATM    4  C   UNL     1      -8.263  19.232  67.440  1.00  0.00    -0.282 C  
HETATM    5  C   UNL     1     -10.613  17.424  68.260  1.00  0.00    -0.366 A  
HETATM    6  O   UNL     1      -7.449  18.229  67.861  1.00  0.00    -0.224 OA 
HETATM    7  O   UNL     1      -8.101  20.381  67.823  1.00  0.00    -0.274 OA 
HETATM    8  C   UNL     1     -11.279  16.170  68.390  1.00  0.00    -0.358 A  
HETATM    9  C   UNL     1     -11.276  15.443  67.213  1.00  0.00    -0.270 A  
HETATM   10  S   UNL     1     -10.566  16.339  65.940  1.00  0.00    -0.257 SA 
ENDROOT
BRANCH   9  11
HETATM   11  C   UNL     1     -11.766  14.095  66.947  1.00  0.00    -0.414 C  
HETATM   12  O   UNL     1     -12.678  13.842  66.162  1.00  0.00    -0.429 OA 
BRANCH  11  13
HETATM   13  C   UNL     1     -11.122  12.945  67.655  1.00  0.00    -0.297 A  
HETATM   14  C   UNL     1      -9.756  12.664  67.500  1.00  0.00    -0.196 A  
HETATM   15  C   UNL     1      -9.171  11.605  68.194  1.00  0.00    -0.184 A  
HETATM   16  C   UNL     1      -9.951  10.804  69.025  1.00  0.00    -0.214 A  
HETATM   17  C   UNL     1     -11.318  11.049  69.150  1.00  0.00    -0.348 A  
HETATM   18  C   UNL     1     -11.906  12.115  68.463  1.00  0.00    -0.365 A  
ENDBRANCH  11  13
ENDBRANCH   9  11
TORSDOF 2
ENDMDL
MODEL       59
REMARK 921   NORMALIZED FREE ENERGY PREDICTED BY IDOCK:   -5.22 KCAL/MOL
REMARK 922        TOTAL FREE ENERGY PREDICTED BY IDOCK:   -6.10 KCAL/MOL
REMARK 923 INTER-LIGAND FREE ENERGY PREDICTED BY IDOCK:   -5.71 KCAL/MOL
REMARK 924 INTRA-LIGAND FREE ENERGY PREDICTED BY IDOCK:   -0.39 KCAL/MOL
REMARK 927      BINDING AFFINITY PREDICTED BY RF-SCORE:    0.00 PKD
ROOT
HETATM    1  C   UNL     1     -11.892  13.081  67.772  1.00  0.00    -0.395 C  
HETATM    2  C   UNL     1     -10.579  13.672  68.279  1.00  0.00    -0.261 C  
HETATM    3  C   UNL     1     -10.269  14.984  67.593  1.00  0.00    -0.236 A  
HETATM    4  C   UNL     1      -9.427  12.685  68.104  1.00  0.00    -0.218 C  
HETATM    5  C   UNL     1      -9.663  15.218  66.374  1.00  0.00    -0.308 A  
HETATM    6  O   UNL     1      -8.223  13.168  68.505  1.00  0.00    -0.145 OA 
HETATM    7  O   UNL     1      -9.542  11.542  67.686  1.00  0.00    -0.167 OA 
HETATM    8  C   UNL     1      -9.495  16.609  66.111  1.00  0.00    -0.319 A  
HETATM    9  C   UNL     1      -9.962  17.404  67.142  1.00  0.00    -0.291 A  
HETATM   10  S   UNL     1     -10.701  16.457  68.361  1.00  0.00    -0.342 SA 
ENDROOT
BRANCH   9  11
HETATM   11  C   UNL     1      -9.901  18.852  67.305  1.00  0.00    -0.320 C  
HETATM   12  O   UNL     1     -10.860  19.601  67.132  1.00  0.00    -0.484 OA 
BRANCH  11  13
HETATM   13  C   UNL     1      -8.602  19.473  67.720  1.00  0.00    -0.356 A  
HETATM   14  C   UNL     1      -7.972  19.113  68.921  1.00  0.00    -0.340 A  
HETATM   15  C   UNL     1      -6.748  19.683  69.271  1.00  0.00    -0.391 A  
HETATM   16  C   UNL     1      -6.160  20.633  68.439  1.00  0.00    -0.373 A  
HETATM   17  C   UNL     1      -6.802  21.028  67.266  1.00  0.00    -0.434 A  
HETATM   18  C   UNL     1      -8.024  20.453  66.907  1.00  0.00    -0.326 A  
ENDBRANCH  11  13
ENDBRANCH   9  11
TORSDOF 2
ENDMDL
MODEL       60
REMARK 921   NORMALIZED FREE ENERGY PREDICTED BY IDOCK:   -5.19 KCAL/MOL
REMARK 922        TOTAL FREE ENERGY PREDICTED BY IDOCK:   -6.07 KCAL/MOL
REMARK 923 INTER-LIGAND FREE ENERGY PREDICTED BY IDOCK:   -5.79 KCAL/MOL
REMARK 924 INTRA-LIGAND FREE ENERGY PREDICTED BY IDOCK:   -0.27 KCAL/MOL
REMARK 927      BINDING AFFINITY PREDICTED BY RF-SCORE:    0.00 PKD
ROOT
HETATM    1  C   UNL     1     -11.670  14.210  69.853  1.00  0.00    -0.372 C  
HETATM    2  C   UNL     1     -12.145  13.028  69.011  1.00  0.00    -0.220 C  
HETATM    3  C   UNL     1     -11.648  11.717  69.580  1.00  0.00    -0.332 A  
HETATM    4  C   UNL     1     -11.717  13.183  67.554  1.00  0.00    -0.366 C  
HETATM    5  C   UNL     1     -10.431  11.087  69.403  1.00  0.00    -0.177 A  
HETATM    6  O   UNL     1     -12.081  12.142  66.760  1.00  0.00    -0.609 OA 
HETATM    7  O   UNL     1     -11.137  14.156  67.094  1.00  0.00    -0.293 OA 
HETATM    8  C   UNL     1     -10.375   9.824  70.063  1.00  0.00    -0.307 A  
HETATM    9  C   UNL     1     -11.555   9.513  70.715  1.00  0.00    -0.308 A  
HETATM   10  S   UNL     1     -12.672  10.806  70.613  1.00  0.00    -0.301 SA 
ENDROOT
BRANCH   9  11
HETATM   11  C   UNL     1     -11.936   8.298  71.426  1.00  0.00    -0.299 C  
HETATM   12  O   UNL     1     -12.777   8.266  72.323  1.00  0.00    -0.333 OA 
BRANCH  11  13
HETATM   13  C   UNL     1     -11.282   7.007  71.042  1.00  0.00    -0.309 A  
HETATM   14  C   UNL     1     -11.297   6.547  69.717  1.00  0.00    -0.456 A  
HETATM   15  C   UNL     1     -10.654   5.357  69.377  1.00  0.00    -0.295 A  
HETATM   16  C   UNL     1     -10.016   4.606  70.363  1.00  0.00    -0.300 A  
HETATM   17  C   UNL     1     -10.035   5.035  71.689  1.00  0.00    -0.249 A  
HETATM   18  C   UNL     1     -10.670   6.231  72.032  1.00  0.00    -0.268 A  
ENDBRANCH  11  13
ENDBRANCH   9  11
TORSDOF 2
ENDMDL
MODEL       61
REMARK 921   NORMALIZED FREE ENERGY PREDICTED BY IDOCK:   -5.19 KCAL/MOL
REMARK 922        TOTAL FREE ENERGY PREDICTED BY IDOCK:   -6.07 KCAL/MOL
REMARK 923 INTER-LIGAND FREE ENERGY PREDICTED BY IDOCK:   -5.74 KCAL/MOL
REMARK 924 INTRA-LIGAND FREE ENERGY PREDICTED BY IDOCK:   -0.33 KCAL/MOL
REMARK 927      BINDING AFFINITY PREDICTED BY RF-SCORE:    0.00 PKD
ROOT
HETATM    1  C   UNL     1     -12.097  16.230  72.541  1.00  0.00    -0.615 C  
HETATM    2  C   UNL     1     -11.705  14.969  71.773  1.00  0.00    -0.452 C  
HETATM    3  C   UNL     1     -11.510  15.263  70.302  1.00  0.00    -0.297 A  
HETATM    4  C   UNL     1     -12.737  13.861  71.971  1.00  0.00    -0.245 C  
HETATM    5  C   UNL     1     -12.446  15.339  69.289  1.00  0.00    -0.015 A  
HETATM    6  O   UNL     1     -12.460  12.723  71.283  1.00  0.00    -0.315 OA 
HETATM    7  O   UNL     1     -13.711  13.934  72.706  1.00  0.00    -0.686 OA 
HETATM    8  C   UNL     1     -11.848  15.578  68.017  1.00  0.00    -0.088 A  
HETATM    9  C   UNL     1     -10.469  15.663  68.086  1.00  0.00    -0.259 A  
HETATM   10  S   UNL     1      -9.929  15.567  69.707  1.00  0.00    -0.219 SA 
ENDROOT
BRANCH   9  11
HETATM   11  C   UNL     1      -9.487  15.811  67.017  1.00  0.00    -0.223 C  
HETATM   12  O   UNL     1      -9.058  14.873  66.348  1.00  0.00    -0.278 OA 
BRANCH  11  13
HETATM   13  C   UNL     1      -8.975  17.182  66.700  1.00  0.00    -0.278 A  
HETATM   14  C   UNL     1      -7.636  17.395  66.336  1.00  0.00    -0.342 A  
HETATM   15  C   UNL     1      -7.189  18.676  66.015  1.00  0.00    -0.293 A  
HETATM   16  C   UNL     1      -8.068  19.755  66.081  1.00  0.00    -0.357 A  
HETATM   17  C   UNL     1      -9.388  19.558  66.485  1.00  0.00    -0.437 A  
HETATM   18  C   UNL     1      -9.842  18.275  66.799  1.00  0.00    -0.344 A  
ENDBRANCH  11  13
ENDBRANCH   9  11
TORSDOF 2
ENDMDL
MODEL       62
REMARK 921   NORMALIZED FREE ENERGY PREDICTED BY IDOCK:   -5.17 KCAL/MOL
REMARK 922        TOTAL FREE ENERGY PREDICTED BY IDOCK:   -6.04 KCAL/MOL
REMARK 923 INTER-LIGAND FREE ENERGY PREDICTED BY IDOCK:   -5.68 KCAL/MOL
REMARK 924 INTRA-LIGAND FREE ENERGY PREDICTED BY IDOCK:   -0.36 KCAL/MOL
REMARK 927      BINDING AFFINITY PREDICTED BY RF-SCORE:    0.00 PKD
ROOT
HETATM    1  C   UNL     1     -11.131  12.789  63.526  1.00  0.00    -0.377 C  
HETATM    2  C   UNL     1     -10.958  11.600  64.469  1.00  0.00    -0.376 C  
HETATM    3  C   UNL     1     -10.704  12.060  65.887  1.00  0.00    -0.275 A  
HETATM    4  C   UNL     1      -9.841  10.676  63.990  1.00  0.00    -0.338 C  
HETATM    5  C   UNL     1      -9.520  12.443  66.488  1.00  0.00    -0.242 A  
HETATM    6  O   UNL     1      -9.616   9.616  64.809  1.00  0.00    -0.265 OA 
HETATM    7  O   UNL     1      -9.212  10.817  62.952  1.00  0.00    -0.252 OA 
HETATM    8  C   UNL     1      -9.690  12.749  67.871  1.00  0.00    -0.217 A  
HETATM    9  C   UNL     1     -10.995  12.578  68.296  1.00  0.00    -0.240 A  
HETATM   10  S   UNL     1     -12.017  12.159  66.988  1.00  0.00     0.099 SA 
ENDROOT
BRANCH   9  11
HETATM   11  C   UNL     1     -11.566  12.698  69.633  1.00  0.00    -0.251 C  
HETATM   12  O   UNL     1     -11.834  13.772  70.167  1.00  0.00    -0.295 OA 
BRANCH  11  13
HETATM   13  C   UNL     1     -11.856  11.448  70.404  1.00  0.00    -0.428 A  
HETATM   14  C   UNL     1     -12.884  11.400  71.358  1.00  0.00    -0.502 A  
HETATM   15  C   UNL     1     -13.155  10.215  72.041  1.00  0.00    -0.538 A  
HETATM   16  C   UNL     1     -12.385   9.079  71.796  1.00  0.00    -0.438 A  
HETATM   17  C   UNL     1     -11.334   9.132  70.882  1.00  0.00    -0.359 A  
HETATM   18  C   UNL     1     -11.064  10.314  70.189  1.00  0.00    -0.385 A  
ENDBRANCH  11  13
ENDBRANCH   9  11
TORSDOF 2
ENDMDL
MODEL       63
REMARK 921   NORMALIZED FREE ENERGY PREDICTED BY IDOCK:   -5.15 KCAL/MOL
REMARK 922        TOTAL FREE ENERGY PREDICTED BY IDOCK:   -6.02 KCAL/MOL
REMARK 923 INTER-LIGAND FREE ENERGY PREDICTED BY IDOCK:   -5.71 KCAL/MOL
REMARK 924 INTRA-LIGAND FREE ENERGY PREDICTED BY IDOCK:   -0.31 KCAL/MOL
REMARK 927      BINDING AFFINITY PREDICTED BY RF-SCORE:    0.00 PKD
ROOT
HETATM    1  C   UNL     1     -11.012  16.555  68.374  1.00  0.00    -0.348 C  
HETATM    2  C   UNL     1     -10.977  15.054  68.652  1.00  0.00    -0.261 C  
HETATM    3  C   UNL     1     -11.207  14.259  67.386  1.00  0.00    -0.316 A  
HETATM    4  C   UNL     1     -11.993  14.670  69.725  1.00  0.00    -0.329 C  
HETATM    5  C   UNL     1     -12.394  13.907  66.772  1.00  0.00    -0.370 A  
HETATM    6  O   UNL     1     -12.034  13.339  69.992  1.00  0.00    -0.325 OA 
HETATM    7  O   UNL     1     -12.693  15.460  70.342  1.00  0.00    -0.404 OA 
HETATM    8  C   UNL     1     -12.186  13.092  65.620  1.00  0.00    -0.521 A  
HETATM    9  C   UNL     1     -10.848  12.828  65.392  1.00  0.00    -0.286 A  
HETATM   10  S   UNL     1      -9.857  13.666  66.508  1.00  0.00    -0.298 SA 
ENDROOT
BRANCH   9  11
HETATM   11  C   UNL     1     -10.223  11.978  64.385  1.00  0.00    -0.302 C  
HETATM   12  O   UNL     1     -10.085  12.300  63.207  1.00  0.00    -0.388 OA 
BRANCH  11  13
HETATM   13  C   UNL     1      -9.704  10.636  64.802  1.00  0.00    -0.350 A  
HETATM   14  C   UNL     1      -8.813   9.914  63.994  1.00  0.00    -0.253 A  
HETATM   15  C   UNL     1      -8.321   8.680  64.418  1.00  0.00    -0.148 A  
HETATM   16  C   UNL     1      -8.734   8.148  65.638  1.00  0.00    -0.176 A  
HETATM   17  C   UNL     1      -9.653   8.840  66.426  1.00  0.00    -0.316 A  
HETATM   18  C   UNL     1     -10.142  10.080  66.009  1.00  0.00    -0.318 A  
ENDBRANCH  11  13
ENDBRANCH   9  11
TORSDOF 2
ENDMDL
MODEL       64
REMARK 921   NORMALIZED FREE ENERGY PREDICTED BY IDOCK:   -5.14 KCAL/MOL
REMARK 922        TOTAL FREE ENERGY PREDICTED BY IDOCK:   -6.02 KCAL/MOL
REMARK 923 INTER-LIGAND FREE ENERGY PREDICTED BY IDOCK:   -5.62 KCAL/MOL
REMARK 924 INTRA-LIGAND FREE ENERGY PREDICTED BY IDOCK:   -0.39 KCAL/MOL
REMARK 927      BINDING AFFINITY PREDICTED BY RF-SCORE:    0.00 PKD
ROOT
HETATM    1  C   UNL     1     -12.507   8.480  71.786  1.00  0.00    -0.388 C  
HETATM    2  C   UNL     1     -11.282   9.357  71.539  1.00  0.00    -0.457 C  
HETATM    3  C   UNL     1     -11.263   9.884  70.121  1.00  0.00    -0.289 A  
HETATM    4  C   UNL     1      -9.992   8.602  71.852  1.00  0.00    -0.322 C  
HETATM    5  C   UNL     1     -10.807   9.281  68.965  1.00  0.00    -0.136 A  
HETATM    6  O   UNL     1      -8.864   9.320  71.618  1.00  0.00    -0.312 OA 
HETATM    7  O   UNL     1      -9.938   7.471  72.314  1.00  0.00    -0.170 OA 
HETATM    8  C   UNL     1     -10.908  10.141  67.831  1.00  0.00    -0.336 A  
HETATM    9  C   UNL     1     -11.423  11.383  68.151  1.00  0.00    -0.305 A  
HETATM   10  S   UNL     1     -11.884  11.451  69.798  1.00  0.00    -0.385 SA 
ENDROOT
BRANCH   9  11
HETATM   11  C   UNL     1     -11.605  12.563  67.313  1.00  0.00    -0.367 C  
HETATM   12  O   UNL     1     -12.291  12.578  66.293  1.00  0.00    -0.570 OA 
BRANCH  11  13
HETATM   13  C   UNL     1     -10.931  13.838  67.715  1.00  0.00    -0.272 A  
HETATM   14  C   UNL     1      -9.532  13.941  67.764  1.00  0.00    -0.214 A  
HETATM   15  C   UNL     1      -8.927  15.149  68.112  1.00  0.00    -0.174 A  
HETATM   16  C   UNL     1      -9.714  16.252  68.438  1.00  0.00    -0.222 A  
HETATM   17  C   UNL     1     -11.104  16.144  68.434  1.00  0.00    -0.359 A  
HETATM   18  C   UNL     1     -11.714  14.939  68.078  1.00  0.00    -0.344 A  
ENDBRANCH  11  13
ENDBRANCH   9  11
TORSDOF 2
ENDMDL
MODEL       65
REMARK 921   NORMALIZED FREE ENERGY PREDICTED BY IDOCK:   -5.14 KCAL/MOL
REMARK 922        TOTAL FREE ENERGY PREDICTED BY IDOCK:   -6.01 KCAL/MOL
REMARK 923 INTER-LIGAND FREE ENERGY PREDICTED BY IDOCK:   -6.26 KCAL/MOL
REMARK 924 INTRA-LIGAND FREE ENERGY PREDICTED BY IDOCK:    0.25 KCAL/MOL
REMARK 927      BINDING AFFINITY PREDICTED BY RF-SCORE:    0.00 PKD
ROOT
HETATM    1  C   UNL     1     -10.993   6.103  72.307  1.00  0.00    -0.302 C  
HETATM    2  C   UNL     1     -10.622   7.499  72.802  1.00  0.00    -0.365 C  
HETATM    3  C   UNL     1     -10.619   8.499  71.667  1.00  0.00    -0.283 A  
HETATM    4  C   UNL     1      -9.273   7.489  73.518  1.00  0.00    -0.249 C  
HETATM    5  C   UNL     1      -9.625   8.785  70.751  1.00  0.00    -0.256 A  
HETATM    6  O   UNL     1      -8.872   8.712  73.952  1.00  0.00    -0.118 OA 
HETATM    7  O   UNL     1      -8.606   6.489  73.740  1.00  0.00    -0.121 OA 
HETATM    8  C   UNL     1      -9.991   9.847  69.871  1.00  0.00    -0.292 A  
HETATM    9  C   UNL     1     -11.247  10.355  70.146  1.00  0.00    -0.321 A  
HETATM   10  S   UNL     1     -12.011   9.463  71.391  1.00  0.00    -0.396 SA 
ENDROOT
BRANCH   9  11
HETATM   11  C   UNL     1     -11.950  11.484  69.546  1.00  0.00    -0.335 C  
HETATM   12  O   UNL     1     -12.217  11.566  68.349  1.00  0.00    -0.540 OA 
BRANCH  11  13
HETATM   13  C   UNL     1     -12.387  12.609  70.433  1.00  0.00    -0.315 A  
HETATM   14  C   UNL     1     -12.079  13.943  70.125  1.00  0.00    -0.418 A  
HETATM   15  C   UNL     1     -12.523  14.976  70.950  1.00  0.00    -0.407 A  
HETATM   16  C   UNL     1     -13.253  14.682  72.101  1.00  0.00    -0.450 A  
HETATM   17  C   UNL     1     -13.524  13.356  72.436  1.00  0.00    -0.685 A  
HETATM   18  C   UNL     1     -13.089  12.319  71.608  1.00  0.00    -0.408 A  
ENDBRANCH  11  13
ENDBRANCH   9  11
TORSDOF 2
ENDMDL
MODEL       66
REMARK 921   NORMALIZED FREE ENERGY PREDICTED BY IDOCK:   -5.12 KCAL/MOL
REMARK 922        TOTAL FREE ENERGY PREDICTED BY IDOCK:   -5.99 KCAL/MOL
REMARK 923 INTER-LIGAND FREE ENERGY PREDICTED BY IDOCK:   -5.69 KCAL/MOL
REMARK 924 INTRA-LIGAND FREE ENERGY PREDICTED BY IDOCK:   -0.30 KCAL/MOL
REMARK 927      BINDING AFFINITY PREDICTED BY RF-SCORE:    0.00 PKD
ROOT
HETATM    1  C   UNL     1     -10.017   7.686  66.912  1.00  0.00    -0.325 C  
HETATM    2  C   UNL     1      -9.264   9.014  66.965  1.00  0.00    -0.169 C  
HETATM    3  C   UNL     1      -9.977  10.079  66.161  1.00  0.00    -0.256 A  
HETATM    4  C   UNL     1      -7.823   8.849  66.488  1.00  0.00    -0.100 C  
HETATM    5  C   UNL     1      -9.923  10.340  64.805  1.00  0.00    -0.392 A  
HETATM    6  O   UNL     1      -7.111  10.006  66.479  1.00  0.00    -0.091 OA 
HETATM    7  O   UNL     1      -7.306   7.786  66.176  1.00  0.00    -0.075 OA 
HETATM    8  C   UNL     1     -10.700  11.480  64.443  1.00  0.00    -0.404 A  
HETATM    9  C   UNL     1     -11.314  12.071  65.532  1.00  0.00    -0.328 A  
HETATM   10  S   UNL     1     -11.035  11.169  66.959  1.00  0.00    -0.267 SA 
ENDROOT
BRANCH   9  11
HETATM   11  C   UNL     1     -12.114  13.289  65.606  1.00  0.00    -0.441 C  
HETATM   12  O   UNL     1     -13.252  13.389  65.150  1.00  0.00    -0.691 OA 
BRANCH  11  13
HETATM   13  C   UNL     1     -11.530  14.489  66.284  1.00  0.00    -0.358 A  
HETATM   14  C   UNL     1     -10.749  15.418  65.581  1.00  0.00    -0.381 A  
HETATM   15  C   UNL     1     -10.241  16.545  66.227  1.00  0.00    -0.343 A  
HETATM   16  C   UNL     1     -10.488  16.737  67.585  1.00  0.00    -0.328 A  
HETATM   17  C   UNL     1     -11.227  15.795  68.301  1.00  0.00    -0.356 A  
HETATM   18  C   UNL     1     -11.744  14.670  67.655  1.00  0.00    -0.389 A  
ENDBRANCH  11  13
ENDBRANCH   9  11
TORSDOF 2
ENDMDL
MODEL       67
REMARK 921   NORMALIZED FREE ENERGY PREDICTED BY IDOCK:   -5.11 KCAL/MOL
REMARK 922        TOTAL FREE ENERGY PREDICTED BY IDOCK:   -5.98 KCAL/MOL
REMARK 923 INTER-LIGAND FREE ENERGY PREDICTED BY IDOCK:   -5.57 KCAL/MOL
REMARK 924 INTRA-LIGAND FREE ENERGY PREDICTED BY IDOCK:   -0.41 KCAL/MOL
REMARK 927      BINDING AFFINITY PREDICTED BY RF-SCORE:    0.00 PKD
ROOT
HETATM    1  C   UNL     1     -11.330  15.960  70.684  1.00  0.00    -0.421 C  
HETATM    2  C   UNL     1     -11.389  15.903  69.159  1.00  0.00    -0.366 C  
HETATM    3  C   UNL     1     -10.761  14.631  68.635  1.00  0.00    -0.250 A  
HETATM    4  C   UNL     1     -10.725  17.130  68.537  1.00  0.00    -0.326 C  
HETATM    5  C   UNL     1      -9.432  14.342  68.388  1.00  0.00    -0.207 A  
HETATM    6  O   UNL     1     -10.715  17.119  67.179  1.00  0.00    -0.284 OA 
HETATM    7  O   UNL     1     -10.273  18.075  69.166  1.00  0.00    -0.349 OA 
HETATM    8  C   UNL     1      -9.256  13.040  67.833  1.00  0.00    -0.208 A  
HETATM    9  C   UNL     1     -10.453  12.373  67.655  1.00  0.00    -0.216 A  
HETATM   10  S   UNL     1     -11.764  13.287  68.269  1.00  0.00    -0.361 SA 
ENDROOT
BRANCH   9  11
HETATM   11  C   UNL     1     -10.717  11.074  67.045  1.00  0.00    -0.270 C  
HETATM   12  O   UNL     1     -11.297  10.154  67.618  1.00  0.00    -0.282 OA 
BRANCH  11  13
HETATM   13  C   UNL     1     -10.269  10.840  65.635  1.00  0.00    -0.320 A  
HETATM   14  C   UNL     1      -9.403   9.786  65.310  1.00  0.00    -0.315 A  
HETATM   15  C   UNL     1      -9.024   9.569  63.985  1.00  0.00    -0.228 A  
HETATM   16  C   UNL     1      -9.486  10.420  62.982  1.00  0.00    -0.362 A  
HETATM   17  C   UNL     1     -10.311  11.497  63.305  1.00  0.00    -0.435 A  
HETATM   18  C   UNL     1     -10.700  11.711  64.629  1.00  0.00    -0.371 A  
ENDBRANCH  11  13
ENDBRANCH   9  11
TORSDOF 2
ENDMDL
MODEL       68
REMARK 921   NORMALIZED FREE ENERGY PREDICTED BY IDOCK:   -5.11 KCAL/MOL
REMARK 922        TOTAL FREE ENERGY PREDICTED BY IDOCK:   -5.98 KCAL/MOL
REMARK 923 INTER-LIGAND FREE ENERGY PREDICTED BY IDOCK:   -5.73 KCAL/MOL
REMARK 924 INTRA-LIGAND FREE ENERGY PREDICTED BY IDOCK:   -0.25 KCAL/MOL
REMARK 927      BINDING AFFINITY PREDICTED BY RF-SCORE:    0.00 PKD
ROOT
HETATM    1  C   UNL     1     -10.063  10.224  65.675  1.00  0.00    -0.341 C  
HETATM    2  C   UNL     1     -10.298  10.326  67.180  1.00  0.00    -0.292 C  
HETATM    3  C   UNL     1     -10.202  11.759  67.653  1.00  0.00    -0.199 A  
HETATM    4  C   UNL     1      -9.325   9.436  67.950  1.00  0.00    -0.129 C  
HETATM    5  C   UNL     1      -9.086  12.502  67.986  1.00  0.00    -0.200 A  
HETATM    6  O   UNL     1      -9.461   9.510  69.299  1.00  0.00    -0.155 OA 
HETATM    7  O   UNL     1      -8.513   8.679  67.438  1.00  0.00    -0.121 OA 
HETATM    8  C   UNL     1      -9.424  13.808  68.450  1.00  0.00    -0.198 A  
HETATM    9  C   UNL     1     -10.789  14.025  68.475  1.00  0.00    -0.254 A  
HETATM   10  S   UNL     1     -11.636  12.686  67.827  1.00  0.00    -0.358 SA 
ENDROOT
BRANCH   9  11
HETATM   11  C   UNL     1     -11.543  15.177  68.956  1.00  0.00    -0.330 C  
HETATM   12  O   UNL     1     -11.794  16.166  68.270  1.00  0.00    -0.209 OA 
BRANCH  11  13
HETATM   13  C   UNL     1     -12.057  15.161  70.363  1.00  0.00    -0.373 A  
HETATM   14  C   UNL     1     -11.618  16.096  71.312  1.00  0.00    -0.470 A  
HETATM   15  C   UNL     1     -12.133  16.080  72.608  1.00  0.00    -0.640 A  
HETATM   16  C   UNL     1     -13.069  15.114  72.971  1.00  0.00    -0.605 A  
HETATM   17  C   UNL     1     -13.476  14.153  72.046  1.00  0.00    -0.518 A  
HETATM   18  C   UNL     1     -12.969  14.172  70.745  1.00  0.00    -0.337 A  
ENDBRANCH  11  13
ENDBRANCH   9  11
TORSDOF 2
ENDMDL
MODEL       69
REMARK 921   NORMALIZED FREE ENERGY PREDICTED BY IDOCK:   -5.07 KCAL/MOL
REMARK 922        TOTAL FREE ENERGY PREDICTED BY IDOCK:   -5.93 KCAL/MOL
REMARK 923 INTER-LIGAND FREE ENERGY PREDICTED BY IDOCK:   -5.71 KCAL/MOL
REMARK 924 INTRA-LIGAND FREE ENERGY PREDICTED BY IDOCK:   -0.22 KCAL/MOL
REMARK 927      BINDING AFFINITY PREDICTED BY RF-SCORE:    0.00 PKD
ROOT
HETATM    1  C   UNL     1      -7.387  18.433  65.974  1.00  0.00    -0.273 C  
HETATM    2  C   UNL     1      -8.485  17.989  66.938  1.00  0.00    -0.262 C  
HETATM    3  C   UNL     1      -9.213  16.771  66.413  1.00  0.00    -0.279 A  
HETATM    4  C   UNL     1      -9.465  19.126  67.218  1.00  0.00    -0.312 C  
HETATM    5  C   UNL     1     -10.258  16.691  65.512  1.00  0.00    -0.227 A  
HETATM    6  O   UNL     1     -10.488  18.780  68.043  1.00  0.00    -0.380 OA 
HETATM    7  O   UNL     1      -9.353  20.267  66.794  1.00  0.00    -0.369 OA 
HETATM    8  C   UNL     1     -10.709  15.351  65.324  1.00  0.00    -0.439 A  
HETATM    9  C   UNL     1     -10.009  14.443  66.097  1.00  0.00    -0.311 A  
HETATM   10  S   UNL     1      -8.741  15.211  66.951  1.00  0.00    -0.271 SA 
ENDROOT
BRANCH   9  11
HETATM   11  C   UNL     1     -10.210  13.008  66.263  1.00  0.00    -0.288 C  
HETATM   12  O   UNL     1      -9.871  12.169  65.431  1.00  0.00    -0.248 OA 
BRANCH  11  13
HETATM   13  C   UNL     1     -10.856  12.515  67.521  1.00  0.00    -0.264 A  
HETATM   14  C   UNL     1     -11.053  11.145  67.753  1.00  0.00    -0.344 A  
HETATM   15  C   UNL     1     -11.629  10.709  68.946  1.00  0.00    -0.320 A  
HETATM   16  C   UNL     1     -12.035  11.638  69.902  1.00  0.00    -0.414 A  
HETATM   17  C   UNL     1     -11.883  13.003  69.659  1.00  0.00    -0.385 A  
HETATM   18  C   UNL     1     -11.299  13.443  68.469  1.00  0.00    -0.324 A  
ENDBRANCH  11  13
ENDBRANCH   9  11
TORSDOF 2
ENDMDL
MODEL       70
REMARK 921   NORMALIZED FREE ENERGY PREDICTED BY IDOCK:   -5.05 KCAL/MOL
REMARK 922        TOTAL FREE ENERGY PREDICTED BY IDOCK:   -5.91 KCAL/MOL
REMARK 923 INTER-LIGAND FREE ENERGY PREDICTED BY IDOCK:   -5.51 KCAL/MOL
REMARK 924 INTRA-LIGAND FREE ENERGY PREDICTED BY IDOCK:   -0.41 KCAL/MOL
REMARK 927      BINDING AFFINITY PREDICTED BY RF-SCORE:    0.00 PKD
ROOT
HETATM    1  C   UNL     1      -7.473   9.521  64.461  1.00  0.00    -0.114 C  
HETATM    2  C   UNL     1      -8.608  10.353  65.054  1.00  0.00    -0.190 C  
HETATM    3  C   UNL     1      -9.108   9.749  66.348  1.00  0.00    -0.155 A  
HETATM    4  C   UNL     1      -9.751  10.517  64.055  1.00  0.00    -0.323 C  
HETATM    5  C   UNL     1     -10.025   8.735  66.548  1.00  0.00    -0.360 A  
HETATM    6  O   UNL     1     -10.807  11.219  64.540  1.00  0.00    -0.329 OA 
HETATM    7  O   UNL     1      -9.738  10.107  62.904  1.00  0.00    -0.261 OA 
HETATM    8  C   UNL     1     -10.276   8.498  67.932  1.00  0.00    -0.273 A  
HETATM    9  C   UNL     1      -9.558   9.347  68.754  1.00  0.00    -0.154 A  
HETATM   10  S   UNL     1      -8.505  10.340  67.842  1.00  0.00    -0.118 SA 
ENDROOT
BRANCH   9  11
HETATM   11  C   UNL     1      -9.592   9.491  70.205  1.00  0.00    -0.265 C  
HETATM   12  O   UNL     1      -8.586   9.559  70.909  1.00  0.00    -0.259 OA 
BRANCH  11  13
HETATM   13  C   UNL     1     -10.922   9.573  70.887  1.00  0.00    -0.407 A  
HETATM   14  C   UNL     1     -11.335   8.595  71.804  1.00  0.00    -0.393 A  
HETATM   15  C   UNL     1     -12.566   8.708  72.449  1.00  0.00    -0.426 A  
HETATM   16  C   UNL     1     -13.404   9.785  72.163  1.00  0.00    -0.527 A  
HETATM   17  C   UNL     1     -13.020  10.737  71.220  1.00  0.00    -0.502 A  
HETATM   18  C   UNL     1     -11.784  10.631  70.578  1.00  0.00    -0.451 A  
ENDBRANCH  11  13
ENDBRANCH   9  11
TORSDOF 2
ENDMDL
MODEL       71
REMARK 921   NORMALIZED FREE ENERGY PREDICTED BY IDOCK:   -5.04 KCAL/MOL
REMARK 922        TOTAL FREE ENERGY PREDICTED BY IDOCK:   -5.90 KCAL/MOL
REMARK 923 INTER-LIGAND FREE ENERGY PREDICTED BY IDOCK:   -5.78 KCAL/MOL
REMARK 924 INTRA-LIGAND FREE ENERGY PREDICTED BY IDOCK:   -0.12 KCAL/MOL
REMARK 927      BINDING AFFINITY PREDICTED BY RF-SCORE:    0.00 PKD
ROOT
HETATM    1  C   UNL     1      -6.020  20.768  67.241  1.00  0.00    -0.288 C  
HETATM    2  C   UNL     1      -6.237  19.666  68.276  1.00  0.00    -0.267 C  
HETATM    3  C   UNL     1      -7.661  19.156  68.240  1.00  0.00    -0.304 A  
HETATM    4  C   UNL     1      -5.870  20.148  69.678  1.00  0.00    -0.330 C  
HETATM    5  C   UNL     1      -8.793  19.664  68.847  1.00  0.00    -0.240 A  
HETATM    6  O   UNL     1      -6.077  19.221  70.649  1.00  0.00    -0.158 OA 
HETATM    7  O   UNL     1      -5.392  21.241  69.939  1.00  0.00    -0.492 OA 
HETATM    8  C   UNL     1      -9.941  18.850  68.618  1.00  0.00    -0.470 A  
HETATM    9  C   UNL     1      -9.656  17.732  67.855  1.00  0.00    -0.280 A  
HETATM   10  S   UNL     1      -8.027  17.746  67.331  1.00  0.00    -0.214 SA 
ENDROOT
BRANCH   9  11
HETATM   11  C   UNL     1     -10.516  16.618  67.473  1.00  0.00    -0.317 C  
HETATM   12  O   UNL     1     -10.828  16.362  66.312  1.00  0.00    -0.210 OA 
BRANCH  11  13
HETATM   13  C   UNL     1     -11.046  15.720  68.548  1.00  0.00    -0.335 A  
HETATM   14  C   UNL     1     -10.933  16.059  69.905  1.00  0.00    -0.353 A  
HETATM   15  C   UNL     1     -11.462  15.222  70.886  1.00  0.00    -0.377 A  
HETATM   16  C   UNL     1     -12.083  14.029  70.521  1.00  0.00    -0.424 A  
HETATM   17  C   UNL     1     -12.159  13.664  69.178  1.00  0.00    -0.361 A  
HETATM   18  C   UNL     1     -11.639  14.504  68.191  1.00  0.00    -0.359 A  
ENDBRANCH  11  13
ENDBRANCH   9  11
TORSDOF 2
ENDMDL
MODEL       72
REMARK 921   NORMALIZED FREE ENERGY PREDICTED BY IDOCK:   -5.04 KCAL/MOL
REMARK 922        TOTAL FREE ENERGY PREDICTED BY IDOCK:   -5.89 KCAL/MOL
REMARK 923 INTER-LIGAND FREE ENERGY PREDICTED BY IDOCK:   -5.58 KCAL/MOL
REMARK 924 INTRA-LIGAND FREE ENERGY PREDICTED BY IDOCK:   -0.31 KCAL/MOL
REMARK 927      BINDING AFFINITY PREDICTED BY RF-SCORE:    0.00 PKD
ROOT
HETATM    1  C   UNL     1     -12.804  13.491  65.508  1.00  0.00    -0.406 C  
HETATM    2  C   UNL     1     -11.554  13.421  66.382  1.00  0.00    -0.381 C  
HETATM    3  C   UNL     1     -10.839  14.753  66.423  1.00  0.00    -0.322 A  
HETATM    4  C   UNL     1     -10.612  12.316  65.908  1.00  0.00    -0.256 C  
HETATM    5  C   UNL     1      -9.932  15.292  65.530  1.00  0.00    -0.383 A  
HETATM    6  O   UNL     1      -9.463  12.227  66.626  1.00  0.00    -0.215 OA 
HETATM    7  O   UNL     1     -10.852  11.535  64.998  1.00  0.00    -0.296 OA 
HETATM    8  C   UNL     1      -9.435  16.557  65.962  1.00  0.00    -0.317 A  
HETATM    9  C   UNL     1      -9.961  16.946  67.181  1.00  0.00    -0.276 A  
HETATM   10  S   UNL     1     -11.136  15.828  67.727  1.00  0.00    -0.278 SA 
ENDROOT
BRANCH   9  11
HETATM   11  C   UNL     1      -9.654  18.112  68.001  1.00  0.00    -0.300 C  
HETATM   12  O   UNL     1     -10.466  18.997  68.264  1.00  0.00    -0.366 OA 
BRANCH  11  13
HETATM   13  C   UNL     1      -8.276  18.244  68.572  1.00  0.00    -0.329 A  
HETATM   14  C   UNL     1      -7.725  19.500  68.868  1.00  0.00    -0.369 A  
HETATM   15  C   UNL     1      -6.451  19.596  69.427  1.00  0.00    -0.370 A  
HETATM   16  C   UNL     1      -5.709  18.441  69.668  1.00  0.00    -0.242 A  
HETATM   17  C   UNL     1      -6.232  17.193  69.335  1.00  0.00    -0.234 A  
HETATM   18  C   UNL     1      -7.512  17.092  68.783  1.00  0.00    -0.242 A  
ENDBRANCH  11  13
ENDBRANCH   9  11
TORSDOF 2
ENDMDL
MODEL       73
REMARK 921   NORMALIZED FREE ENERGY PREDICTED BY IDOCK:   -5.02 KCAL/MOL
REMARK 922        TOTAL FREE ENERGY PREDICTED BY IDOCK:   -5.87 KCAL/MOL
REMARK 923 INTER-LIGAND FREE ENERGY PREDICTED BY IDOCK:   -5.49 KCAL/MOL
REMARK 924 INTRA-LIGAND FREE ENERGY PREDICTED BY IDOCK:   -0.39 KCAL/MOL
REMARK 927      BINDING AFFINITY PREDICTED BY RF-SCORE:    0.00 PKD
ROOT
HETATM    1  C   UNL     1     -10.205   6.610  70.875  1.00  0.00    -0.219 C  
HETATM    2  C   UNL     1     -11.118   7.730  70.380  1.00  0.00    -0.259 C  
HETATM    3  C   UNL     1     -10.342   8.756  69.584  1.00  0.00    -0.213 A  
HETATM    4  C   UNL     1     -11.856   8.391  71.542  1.00  0.00    -0.297 C  
HETATM    5  C   UNL     1      -9.602   9.835  70.026  1.00  0.00    -0.282 A  
HETATM    6  O   UNL     1     -12.658   9.421  71.167  1.00  0.00    -0.314 OA 
HETATM    7  O   UNL     1     -11.792   8.031  72.708  1.00  0.00    -0.372 OA 
HETATM    8  C   UNL     1      -9.071  10.605  68.948  1.00  0.00    -0.181 A  
HETATM    9  C   UNL     1      -9.432  10.103  67.710  1.00  0.00    -0.144 A  
HETATM   10  S   UNL     1     -10.311   8.644  67.871  1.00  0.00    -0.215 SA 
ENDROOT
BRANCH   9  11
HETATM   11  C   UNL     1      -9.174  10.634  66.377  1.00  0.00    -0.168 C  
HETATM   12  O   UNL     1      -8.089  10.549  65.804  1.00  0.00    -0.150 OA 
BRANCH  11  13
HETATM   13  C   UNL     1     -10.291  11.314  65.648  1.00  0.00    -0.310 A  
HETATM   14  C   UNL     1     -10.448  11.177  64.260  1.00  0.00    -0.427 A  
HETATM   15  C   UNL     1     -11.514  11.795  63.608  1.00  0.00    -0.524 A  
HETATM   16  C   UNL     1     -12.414  12.576  64.332  1.00  0.00    -0.530 A  
HETATM   17  C   UNL     1     -12.238  12.753  65.703  1.00  0.00    -0.503 A  
HETATM   18  C   UNL     1     -11.177  12.128  66.362  1.00  0.00    -0.380 A  
ENDBRANCH  11  13
ENDBRANCH   9  11
TORSDOF 2
ENDMDL
MODEL       74
REMARK 921   NORMALIZED FREE ENERGY PREDICTED BY IDOCK:   -5.01 KCAL/MOL
REMARK 922        TOTAL FREE ENERGY PREDICTED BY IDOCK:   -5.87 KCAL/MOL
REMARK 923 INTER-LIGAND FREE ENERGY PREDICTED BY IDOCK:   -5.52 KCAL/MOL
REMARK 924 INTRA-LIGAND FREE ENERGY PREDICTED BY IDOCK:   -0.34 KCAL/MOL
REMARK 927      BINDING AFFINITY PREDICTED BY RF-SCORE:    0.00 PKD
ROOT
HETATM    1  C   UNL     1     -10.335  11.585  65.113  1.00  0.00    -0.329 C  
HETATM    2  C   UNL     1     -10.346  11.590  66.640  1.00  0.00    -0.262 C  
HETATM    3  C   UNL     1      -9.890  12.925  67.186  1.00  0.00    -0.225 A  
HETATM    4  C   UNL     1      -9.492  10.456  67.201  1.00  0.00    -0.159 C  
HETATM    5  C   UNL     1      -8.608  13.395  67.400  1.00  0.00    -0.204 A  
HETATM    6  O   UNL     1      -9.434  10.430  68.558  1.00  0.00    -0.147 OA 
HETATM    7  O   UNL     1      -8.931   9.603  66.528  1.00  0.00    -0.142 OA 
HETATM    8  C   UNL     1      -8.601  14.693  67.992  1.00  0.00    -0.162 A  
HETATM    9  C   UNL     1      -9.875  15.176  68.229  1.00  0.00    -0.223 A  
HETATM   10  S   UNL     1     -11.061  14.099  67.627  1.00  0.00    -0.292 SA 
ENDROOT
BRANCH   9  11
HETATM   11  C   UNL     1     -10.300  16.405  68.889  1.00  0.00    -0.270 C  
HETATM   12  O   UNL     1     -10.688  16.457  70.055  1.00  0.00    -0.319 OA 
BRANCH  11  13
HETATM   13  C   UNL     1     -10.253  17.687  68.116  1.00  0.00    -0.371 A  
HETATM   14  C   UNL     1     -10.004  18.913  68.750  1.00  0.00    -0.466 A  
HETATM   15  C   UNL     1      -9.935  20.090  68.005  1.00  0.00    -0.550 A  
HETATM   16  C   UNL     1     -10.140  20.053  66.627  1.00  0.00    -0.607 A  
HETATM   17  C   UNL     1     -10.431  18.844  65.996  1.00  0.00    -0.507 A  
HETATM   18  C   UNL     1     -10.492  17.662  66.738  1.00  0.00    -0.289 A  
ENDBRANCH  11  13
ENDBRANCH   9  11
TORSDOF 2
ENDMDL
MODEL       75
REMARK 921   NORMALIZED FREE ENERGY PREDICTED BY IDOCK:   -4.97 KCAL/MOL
REMARK 922        TOTAL FREE ENERGY PREDICTED BY IDOCK:   -5.82 KCAL/MOL
REMARK 923 INTER-LIGAND FREE ENERGY PREDICTED BY IDOCK:   -5.49 KCAL/MOL
REMARK 924 INTRA-LIGAND FREE ENERGY PREDICTED BY IDOCK:   -0.34 KCAL/MOL
REMARK 927      BINDING AFFINITY PREDICTED BY RF-SCORE:    0.00 PKD
ROOT
HETATM    1  C   UNL     1     -13.073  11.635  71.855  1.00  0.00    -0.490 C  
HETATM    2  C   UNL     1     -12.761  10.725  70.669  1.00  0.00    -0.417 C  
HETATM    3  C   UNL     1     -11.872   9.574  71.083  1.00  0.00    -0.358 A  
HETATM    4  C   UNL     1     -12.129  11.512  69.523  1.00  0.00    -0.284 C  
HETATM    5  C   UNL     1     -10.497   9.527  71.214  1.00  0.00    -0.320 A  
HETATM    6  O   UNL     1     -11.795  10.748  68.450  1.00  0.00    -0.478 OA 
HETATM    7  O   UNL     1     -11.961  12.722  69.514  1.00  0.00    -0.309 OA 
HETATM    8  C   UNL     1     -10.031   8.226  71.568  1.00  0.00    -0.260 A  
HETATM    9  C   UNL     1     -11.058   7.308  71.682  1.00  0.00    -0.233 A  
HETATM   10  S   UNL     1     -12.581   8.060  71.473  1.00  0.00    -0.296 SA 
ENDROOT
BRANCH   9  11
HETATM   11  C   UNL     1     -11.004   5.873  71.938  1.00  0.00    -0.266 C  
HETATM   12  O   UNL     1     -11.484   5.337  72.935  1.00  0.00    -0.307 OA 
BRANCH  11  13
HETATM   13  C   UNL     1     -10.337   4.990  70.930  1.00  0.00    -0.260 A  
HETATM   14  C   UNL     1      -9.668   3.818  71.314  1.00  0.00    -0.245 A  
HETATM   15  C   UNL     1      -9.080   2.995  70.353  1.00  0.00    -0.192 A  
HETATM   16  C   UNL     1      -9.134   3.351  69.007  1.00  0.00    -0.205 A  
HETATM   17  C   UNL     1      -9.758   4.537  68.622  1.00  0.00    -0.203 A  
HETATM   18  C   UNL     1     -10.356   5.359  69.581  1.00  0.00    -0.361 A  
ENDBRANCH  11  13
ENDBRANCH   9  11
TORSDOF 2
ENDMDL
MODEL       76
REMARK 921   NORMALIZED FREE ENERGY PREDICTED BY IDOCK:   -4.97 KCAL/MOL
REMARK 922        TOTAL FREE ENERGY PREDICTED BY IDOCK:   -5.82 KCAL/MOL
REMARK 923 INTER-LIGAND FREE ENERGY PREDICTED BY IDOCK:   -5.53 KCAL/MOL
REMARK 924 INTRA-LIGAND FREE ENERGY PREDICTED BY IDOCK:   -0.28 KCAL/MOL
REMARK 927      BINDING AFFINITY PREDICTED BY RF-SCORE:    0.00 PKD
ROOT
HETATM    1  C   UNL     1     -12.077   6.784  70.802  1.00  0.00    -0.402 C  
HETATM    2  C   UNL     1     -10.634   7.077  70.396  1.00  0.00    -0.244 C  
HETATM    3  C   UNL     1     -10.580   7.910  69.135  1.00  0.00    -0.173 A  
HETATM    4  C   UNL     1      -9.837   5.786  70.227  1.00  0.00    -0.189 C  
HETATM    5  C   UNL     1     -10.652   7.511  67.814  1.00  0.00    -0.274 A  
HETATM    6  O   UNL     1      -8.553   5.981  69.831  1.00  0.00    -0.127 OA 
HETATM    7  O   UNL     1     -10.264   4.664  70.458  1.00  0.00    -0.223 OA 
HETATM    8  C   UNL     1     -10.497   8.603  66.910  1.00  0.00    -0.329 A  
HETATM    9  C   UNL     1     -10.295   9.806  67.561  1.00  0.00    -0.237 A  
HETATM   10  S   UNL     1     -10.411   9.613  69.257  1.00  0.00    -0.221 SA 
ENDROOT
BRANCH   9  11
HETATM   11  C   UNL     1     -10.012  11.128  67.013  1.00  0.00    -0.192 C  
HETATM   12  O   UNL     1      -9.130  11.871  67.441  1.00  0.00    -0.170 OA 
BRANCH  11  13
HETATM   13  C   UNL     1     -10.827  11.614  65.855  1.00  0.00    -0.339 A  
HETATM   14  C   UNL     1     -10.556  11.195  64.544  1.00  0.00    -0.397 A  
HETATM   15  C   UNL     1     -11.348  11.637  63.485  1.00  0.00    -0.447 A  
HETATM   16  C   UNL     1     -12.398  12.522  63.725  1.00  0.00    -0.595 A  
HETATM   17  C   UNL     1     -12.646  12.977  65.019  1.00  0.00    -0.515 A  
HETATM   18  C   UNL     1     -11.860  12.529  66.084  1.00  0.00    -0.459 A  
ENDBRANCH  11  13
ENDBRANCH   9  11
TORSDOF 2
ENDMDL
MODEL       77
REMARK 921   NORMALIZED FREE ENERGY PREDICTED BY IDOCK:   -4.95 KCAL/MOL
REMARK 922        TOTAL FREE ENERGY PREDICTED BY IDOCK:   -5.80 KCAL/MOL
REMARK 923 INTER-LIGAND FREE ENERGY PREDICTED BY IDOCK:   -6.28 KCAL/MOL
REMARK 924 INTRA-LIGAND FREE ENERGY PREDICTED BY IDOCK:    0.48 KCAL/MOL
REMARK 927      BINDING AFFINITY PREDICTED BY RF-SCORE:    0.00 PKD
ROOT
HETATM    1  C   UNL     1      -9.791  16.194  65.962  1.00  0.00    -0.375 C  
HETATM    2  C   UNL     1     -10.995  15.268  65.802  1.00  0.00    -0.340 C  
HETATM    3  C   UNL     1     -10.572  13.816  65.805  1.00  0.00    -0.293 A  
HETATM    4  C   UNL     1     -11.780  15.600  64.534  1.00  0.00    -0.220 C  
HETATM    5  C   UNL     1     -10.096  13.036  64.769  1.00  0.00    -0.239 A  
HETATM    6  O   UNL     1     -12.845  14.785  64.318  1.00  0.00    -0.622 OA 
HETATM    7  O   UNL     1     -11.532  16.530  63.781  1.00  0.00    -1.065 OA 
HETATM    8  C   UNL     1      -9.867  11.686  65.169  1.00  0.00    -0.281 A  
HETATM    9  C   UNL     1     -10.188  11.464  66.496  1.00  0.00    -0.221 A  
HETATM   10  S   UNL     1     -10.653  12.920  67.267  1.00  0.00    -0.234 SA 
ENDROOT
BRANCH   9  11
HETATM   11  C   UNL     1     -10.183  10.224  67.263  1.00  0.00    -0.218 C  
HETATM   12  O   UNL     1      -9.735   9.160  66.840  1.00  0.00    -0.166 OA 
BRANCH  11  13
HETATM   13  C   UNL     1     -10.741  10.238  68.653  1.00  0.00    -0.255 A  
HETATM   14  C   UNL     1     -11.921  10.932  68.959  1.00  0.00    -0.322 A  
HETATM   15  C   UNL     1     -12.438  10.905  70.254  1.00  0.00    -0.383 A  
HETATM   16  C   UNL     1     -11.766  10.208  71.256  1.00  0.00    -0.426 A  
HETATM   17  C   UNL     1     -10.569   9.553  70.969  1.00  0.00    -0.392 A  
HETATM   18  C   UNL     1     -10.053   9.570  69.671  1.00  0.00    -0.228 A  
ENDBRANCH  11  13
ENDBRANCH   9  11
TORSDOF 2
ENDMDL
MODEL       78
REMARK 921   NORMALIZED FREE ENERGY PREDICTED BY IDOCK:   -4.92 KCAL/MOL
REMARK 922        TOTAL FREE ENERGY PREDICTED BY IDOCK:   -5.77 KCAL/MOL
REMARK 923 INTER-LIGAND FREE ENERGY PREDICTED BY IDOCK:   -5.64 KCAL/MOL
REMARK 924 INTRA-LIGAND FREE ENERGY PREDICTED BY IDOCK:   -0.13 KCAL/MOL
REMARK 927      BINDING AFFINITY PREDICTED BY RF-SCORE:    0.00 PKD
ROOT
HETATM    1  C   UNL     1     -14.392  15.530  70.861  1.00  0.00     0.207 C  
HETATM    2  C   UNL     1     -13.087  15.082  71.516  1.00  0.00    -0.454 C  
HETATM    3  C   UNL     1     -12.930  13.579  71.451  1.00  0.00    -0.339 A  
HETATM    4  C   UNL     1     -12.999  15.573  72.960  1.00  0.00    -0.499 C  
HETATM    5  C   UNL     1     -13.442  12.605  72.286  1.00  0.00    -0.541 A  
HETATM    6  O   UNL     1     -11.874  15.176  73.608  1.00  0.00    -0.413 OA 
HETATM    7  O   UNL     1     -13.821  16.295  73.505  1.00  0.00    -0.531 OA 
HETATM    8  C   UNL     1     -13.010  11.296  71.919  1.00  0.00    -0.471 A  
HETATM    9  C   UNL     1     -12.166  11.304  70.824  1.00  0.00    -0.380 A  
HETATM   10  S   UNL     1     -12.002  12.884  70.186  1.00  0.00    -0.225 SA 
ENDROOT
BRANCH   9  11
HETATM   11  C   UNL     1     -11.445  10.204  70.192  1.00  0.00    -0.296 C  
HETATM   12  O   UNL     1     -11.469   9.046  70.602  1.00  0.00    -0.263 OA 
BRANCH  11  13
HETATM   13  C   UNL     1     -10.635  10.489  68.965  1.00  0.00    -0.250 A  
HETATM   14  C   UNL     1     -11.241  10.637  67.708  1.00  0.00    -0.383 A  
HETATM   15  C   UNL     1     -10.469  10.932  66.585  1.00  0.00    -0.307 A  
HETATM   16  C   UNL     1      -9.086  11.055  66.705  1.00  0.00    -0.177 A  
HETATM   17  C   UNL     1      -8.473  10.865  67.942  1.00  0.00    -0.129 A  
HETATM   18  C   UNL     1      -9.243  10.578  69.072  1.00  0.00    -0.193 A  
ENDBRANCH  11  13
ENDBRANCH   9  11
TORSDOF 2
ENDMDL
MODEL       79
REMARK 921   NORMALIZED FREE ENERGY PREDICTED BY IDOCK:   -4.91 KCAL/MOL
REMARK 922        TOTAL FREE ENERGY PREDICTED BY IDOCK:   -5.76 KCAL/MOL
REMARK 923 INTER-LIGAND FREE ENERGY PREDICTED BY IDOCK:   -5.39 KCAL/MOL
REMARK 924 INTRA-LIGAND FREE ENERGY PREDICTED BY IDOCK:   -0.37 KCAL/MOL
REMARK 927      BINDING AFFINITY PREDICTED BY RF-SCORE:    0.00 PKD
ROOT
HETATM    1  C   UNL     1     -12.365  14.029  66.351  1.00  0.00    -0.468 C  
HETATM    2  C   UNL     1     -11.166  13.799  67.268  1.00  0.00    -0.329 C  
HETATM    3  C   UNL     1     -11.353  12.555  68.109  1.00  0.00    -0.295 A  
HETATM    4  C   UNL     1     -10.908  15.016  68.153  1.00  0.00    -0.263 C  
HETATM    5  C   UNL     1     -12.033  12.393  69.301  1.00  0.00    -0.308 A  
HETATM    6  O   UNL     1      -9.874  14.858  69.019  1.00  0.00    -0.219 OA 
HETATM    7  O   UNL     1     -11.524  16.070  68.091  1.00  0.00    -0.338 OA 
HETATM    8  C   UNL     1     -11.920  11.066  69.812  1.00  0.00    -0.428 A  
HETATM    9  C   UNL     1     -11.144  10.252  69.007  1.00  0.00    -0.230 A  
HETATM   10  S   UNL     1     -10.659  11.074  67.586  1.00  0.00    -0.234 SA 
ENDROOT
BRANCH   9  11
HETATM   11  C   UNL     1     -10.715   8.873  69.211  1.00  0.00    -0.162 C  
HETATM   12  O   UNL     1     -10.256   8.160  68.320  1.00  0.00    -0.196 OA 
BRANCH  11  13
HETATM   13  C   UNL     1     -10.825   8.283  70.583  1.00  0.00    -0.254 A  
HETATM   14  C   UNL     1      -9.938   8.648  71.607  1.00  0.00    -0.353 A  
HETATM   15  C   UNL     1     -10.079   8.108  72.886  1.00  0.00    -0.349 A  
HETATM   16  C   UNL     1     -11.089   7.183  73.142  1.00  0.00    -0.302 A  
HETATM   17  C   UNL     1     -11.946   6.783  72.118  1.00  0.00    -0.309 A  
HETATM   18  C   UNL     1     -11.814   7.327  70.838  1.00  0.00    -0.351 A  
ENDBRANCH  11  13
ENDBRANCH   9  11
TORSDOF 2
ENDMDL
MODEL       80
REMARK 921   NORMALIZED FREE ENERGY PREDICTED BY IDOCK:   -4.91 KCAL/MOL
REMARK 922        TOTAL FREE ENERGY PREDICTED BY IDOCK:   -5.75 KCAL/MOL
REMARK 923 INTER-LIGAND FREE ENERGY PREDICTED BY IDOCK:   -5.41 KCAL/MOL
REMARK 924 INTRA-LIGAND FREE ENERGY PREDICTED BY IDOCK:   -0.34 KCAL/MOL
REMARK 927      BINDING AFFINITY PREDICTED BY RF-SCORE:    0.00 PKD
ROOT
HETATM    1  C   UNL     1     -12.109  14.767  64.554  1.00  0.00    -0.460 C  
HETATM    2  C   UNL     1     -11.869  14.569  66.049  1.00  0.00    -0.339 C  
HETATM    3  C   UNL     1     -10.483  15.030  66.444  1.00  0.00    -0.294 A  
HETATM    4  C   UNL     1     -12.091  13.114  66.454  1.00  0.00    -0.382 C  
HETATM    5  C   UNL     1      -9.279  14.357  66.372  1.00  0.00    -0.242 A  
HETATM    6  O   UNL     1     -11.857  12.868  67.769  1.00  0.00    -0.349 OA 
HETATM    7  O   UNL     1     -12.485  12.231  65.706  1.00  0.00    -0.564 OA 
HETATM    8  C   UNL     1      -8.200  15.121  66.908  1.00  0.00    -0.234 A  
HETATM    9  C   UNL     1      -8.608  16.351  67.390  1.00  0.00    -0.178 A  
HETATM   10  S   UNL     1     -10.272  16.609  67.083  1.00  0.00    -0.292 SA 
ENDROOT
BRANCH   9  11
HETATM   11  C   UNL     1      -7.846  17.382  68.085  1.00  0.00    -0.234 C  
HETATM   12  O   UNL     1      -7.522  17.312  69.270  1.00  0.00    -0.180 OA 
BRANCH  11  13
HETATM   13  C   UNL     1      -7.415  18.594  67.319  1.00  0.00    -0.225 A  
HETATM   14  C   UNL     1      -7.260  18.560  65.925  1.00  0.00    -0.265 A  
HETATM   15  C   UNL     1      -6.888  19.710  65.229  1.00  0.00    -0.262 A  
HETATM   16  C   UNL     1      -6.641  20.893  65.924  1.00  0.00    -0.185 A  
HETATM   17  C   UNL     1      -6.749  20.922  67.313  1.00  0.00    -0.414 A  
HETATM   18  C   UNL     1      -7.131  19.775  68.013  1.00  0.00    -0.312 A  
ENDBRANCH  11  13
ENDBRANCH   9  11
TORSDOF 2
ENDMDL
MODEL       81
REMARK 921   NORMALIZED FREE ENERGY PREDICTED BY IDOCK:   -4.89 KCAL/MOL
REMARK 922        TOTAL FREE ENERGY PREDICTED BY IDOCK:   -5.73 KCAL/MOL
REMARK 923 INTER-LIGAND FREE ENERGY PREDICTED BY IDOCK:   -5.75 KCAL/MOL
REMARK 924 INTRA-LIGAND FREE ENERGY PREDICTED BY IDOCK:    0.02 KCAL/MOL
REMARK 927      BINDING AFFINITY PREDICTED BY RF-SCORE:    0.00 PKD
ROOT
HETATM    1  C   UNL     1     -11.665   5.884  72.129  1.00  0.00    -0.287 C  
HETATM    2  C   UNL     1     -11.108   7.127  72.818  1.00  0.00    -0.339 C  
HETATM    3  C   UNL     1     -11.030   8.295  71.860  1.00  0.00    -0.287 A  
HETATM    4  C   UNL     1      -9.741   6.846  73.439  1.00  0.00    -0.200 C  
HETATM    5  C   UNL     1     -10.049   8.616  70.942  1.00  0.00    -0.262 A  
HETATM    6  O   UNL     1      -9.176   7.926  74.038  1.00  0.00    -0.228 OA 
HETATM    7  O   UNL     1      -9.192   5.754  73.456  1.00  0.00    -0.132 OA 
HETATM    8  C   UNL     1     -10.319   9.843  70.268  1.00  0.00    -0.339 A  
HETATM    9  C   UNL     1     -11.492  10.437  70.697  1.00  0.00    -0.349 A  
HETATM   10  S   UNL     1     -12.306   9.443  71.828  1.00  0.00    -0.399 SA 
ENDROOT
BRANCH   9  11
HETATM   11  C   UNL     1     -12.077  11.722  70.331  1.00  0.00    -0.352 C  
HETATM   12  O   UNL     1     -12.748  12.412  71.096  1.00  0.00    -0.351 OA 
BRANCH  11  13
HETATM   13  C   UNL     1     -11.843  12.248  68.948  1.00  0.00    -0.355 A  
HETATM   14  C   UNL     1     -11.864  13.624  68.676  1.00  0.00    -0.409 A  
HETATM   15  C   UNL     1     -11.613  14.091  67.387  1.00  0.00    -0.397 A  
HETATM   16  C   UNL     1     -11.366  13.187  66.356  1.00  0.00    -0.349 A  
HETATM   17  C   UNL     1     -11.388  11.816  66.609  1.00  0.00    -0.381 A  
HETATM   18  C   UNL     1     -11.630  11.344  67.901  1.00  0.00    -0.337 A  
ENDBRANCH  11  13
ENDBRANCH   9  11
TORSDOF 2
ENDMDL
MODEL       82
REMARK 921   NORMALIZED FREE ENERGY PREDICTED BY IDOCK:   -4.87 KCAL/MOL
REMARK 922        TOTAL FREE ENERGY PREDICTED BY IDOCK:   -5.71 KCAL/MOL
REMARK 923 INTER-LIGAND FREE ENERGY PREDICTED BY IDOCK:   -5.39 KCAL/MOL
REMARK 924 INTRA-LIGAND FREE ENERGY PREDICTED BY IDOCK:   -0.32 KCAL/MOL
REMARK 927      BINDING AFFINITY PREDICTED BY RF-SCORE:    0.00 PKD
ROOT
HETATM    1  C   UNL     1     -10.477  16.617  66.703  1.00  0.00    -0.258 C  
HETATM    2  C   UNL     1     -11.486  15.588  66.197  1.00  0.00     0.094 C  
HETATM    3  C   UNL     1     -11.041  14.180  66.524  1.00  0.00    -0.318 A  
HETATM    4  C   UNL     1     -11.726  15.745  64.697  1.00  0.00    -0.147 C  
HETATM    5  C   UNL     1     -10.169  13.353  65.843  1.00  0.00    -0.302 A  
HETATM    6  O   UNL     1     -12.589  14.833  64.180  1.00  0.00    -0.784 OA 
HETATM    7  O   UNL     1     -11.240  16.623  63.998  1.00  0.00    -1.052 OA 
HETATM    8  C   UNL     1     -10.061  12.065  66.447  1.00  0.00    -0.242 A  
HETATM    9  C   UNL     1     -10.866  11.935  67.565  1.00  0.00    -0.238 A  
HETATM   10  S   UNL     1     -11.651  13.410  67.931  1.00  0.00    -0.360 SA 
ENDROOT
BRANCH   9  11
HETATM   11  C   UNL     1     -11.112  10.770  68.407  1.00  0.00    -0.266 C  
HETATM   12  O   UNL     1     -11.977  10.727  69.280  1.00  0.00    -0.308 OA 
BRANCH  11  13
HETATM   13  C   UNL     1     -10.277   9.545  68.198  1.00  0.00    -0.231 A  
HETATM   14  C   UNL     1      -9.162   9.274  69.006  1.00  0.00    -0.144 A  
HETATM   15  C   UNL     1      -8.417   8.111  68.812  1.00  0.00    -0.126 A  
HETATM   16  C   UNL     1      -8.764   7.226  67.793  1.00  0.00    -0.126 A  
HETATM   17  C   UNL     1      -9.844   7.510  66.958  1.00  0.00    -0.280 A  
HETATM   18  C   UNL     1     -10.598   8.670  67.155  1.00  0.00    -0.304 A  
ENDBRANCH  11  13
ENDBRANCH   9  11
TORSDOF 2
ENDMDL
MODEL       83
REMARK 921   NORMALIZED FREE ENERGY PREDICTED BY IDOCK:   -4.81 KCAL/MOL
REMARK 922        TOTAL FREE ENERGY PREDICTED BY IDOCK:   -5.64 KCAL/MOL
REMARK 923 INTER-LIGAND FREE ENERGY PREDICTED BY IDOCK:   -5.42 KCAL/MOL
REMARK 924 INTRA-LIGAND FREE ENERGY PREDICTED BY IDOCK:   -0.22 KCAL/MOL
REMARK 927      BINDING AFFINITY PREDICTED BY RF-SCORE:    0.00 PKD
ROOT
HETATM    1  C   UNL     1     -11.149  12.584  65.465  1.00  0.00    -0.336 C  
HETATM    2  C   UNL     1     -11.238  12.877  66.961  1.00  0.00    -0.329 C  
HETATM    3  C   UNL     1     -10.037  13.663  67.437  1.00  0.00    -0.241 A  
HETATM    4  C   UNL     1     -11.395  11.588  67.765  1.00  0.00    -0.296 C  
HETATM    5  C   UNL     1      -8.785  13.215  67.810  1.00  0.00    -0.188 A  
HETATM    6  O   UNL     1     -11.445  11.782  69.109  1.00  0.00    -0.248 OA 
HETATM    7  O   UNL     1     -11.512  10.472  67.282  1.00  0.00    -0.366 OA 
HETATM    8  C   UNL     1      -7.943  14.274  68.262  1.00  0.00    -0.140 A  
HETATM    9  C   UNL     1      -8.578  15.503  68.237  1.00  0.00    -0.161 A  
HETATM   10  S   UNL     1     -10.144  15.372  67.560  1.00  0.00    -0.235 SA 
ENDROOT
BRANCH   9  11
HETATM   11  C   UNL     1      -8.107  16.807  68.691  1.00  0.00    -0.251 C  
HETATM   12  O   UNL     1      -7.205  16.960  69.512  1.00  0.00    -0.160 OA 
BRANCH  11  13
HETATM   13  C   UNL     1      -8.744  18.037  68.123  1.00  0.00    -0.277 A  
HETATM   14  C   UNL     1      -8.330  18.572  66.894  1.00  0.00    -0.270 A  
HETATM   15  C   UNL     1      -8.958  19.701  66.370  1.00  0.00    -0.427 A  
HETATM   16  C   UNL     1      -9.986  20.318  67.082  1.00  0.00    -0.593 A  
HETATM   17  C   UNL     1     -10.373  19.817  68.324  1.00  0.00    -0.536 A  
HETATM   18  C   UNL     1      -9.751  18.681  68.848  1.00  0.00    -0.363 A  
ENDBRANCH  11  13
ENDBRANCH   9  11
TORSDOF 2
ENDMDL
MODEL       84
REMARK 921   NORMALIZED FREE ENERGY PREDICTED BY IDOCK:   -4.78 KCAL/MOL
REMARK 922        TOTAL FREE ENERGY PREDICTED BY IDOCK:   -5.61 KCAL/MOL
REMARK 923 INTER-LIGAND FREE ENERGY PREDICTED BY IDOCK:   -5.22 KCAL/MOL
REMARK 924 INTRA-LIGAND FREE ENERGY PREDICTED BY IDOCK:   -0.39 KCAL/MOL
REMARK 927      BINDING AFFINITY PREDICTED BY RF-SCORE:    0.00 PKD
ROOT
HETATM    1  C   UNL     1     -11.324  15.811  69.245  1.00  0.00    -0.350 C  
HETATM    2  C   UNL     1     -10.447  15.670  68.003  1.00  0.00    -0.263 C  
HETATM    3  C   UNL     1      -9.987  17.021  67.502  1.00  0.00    -0.274 A  
HETATM    4  C   UNL     1     -11.173  14.903  66.901  1.00  0.00    -0.343 C  
HETATM    5  C   UNL     1     -10.639  17.925  66.685  1.00  0.00    -0.243 A  
HETATM    6  O   UNL     1     -10.455  14.775  65.755  1.00  0.00    -0.298 OA 
HETATM    7  O   UNL     1     -12.280  14.397  67.013  1.00  0.00    -0.400 OA 
HETATM    8  C   UNL     1      -9.836  19.066  66.391  1.00  0.00    -0.422 A  
HETATM    9  C   UNL     1      -8.585  18.999  66.976  1.00  0.00    -0.293 A  
HETATM   10  S   UNL     1      -8.444  17.611  67.967  1.00  0.00    -0.251 SA 
ENDROOT
BRANCH   9  11
HETATM   11  C   UNL     1      -7.448  19.905  66.856  1.00  0.00    -0.251 C  
HETATM   12  O   UNL     1      -7.080  20.664  67.751  1.00  0.00    -0.302 OA 
BRANCH  11  13
HETATM   13  C   UNL     1      -6.668  19.910  65.577  1.00  0.00    -0.318 A  
HETATM   14  C   UNL     1      -5.931  18.790  65.166  1.00  0.00    -0.304 A  
HETATM   15  C   UNL     1      -5.237  18.808  63.957  1.00  0.00    -0.204 A  
HETATM   16  C   UNL     1      -5.254  19.954  63.164  1.00  0.00    -0.274 A  
HETATM   17  C   UNL     1      -5.948  21.086  63.587  1.00  0.00    -0.344 A  
HETATM   18  C   UNL     1      -6.651  21.069  64.794  1.00  0.00    -0.085 A  
ENDBRANCH  11  13
ENDBRANCH   9  11
TORSDOF 2
ENDMDL
MODEL       85
REMARK 921   NORMALIZED FREE ENERGY PREDICTED BY IDOCK:   -4.78 KCAL/MOL
REMARK 922        TOTAL FREE ENERGY PREDICTED BY IDOCK:   -5.61 KCAL/MOL
REMARK 923 INTER-LIGAND FREE ENERGY PREDICTED BY IDOCK:   -5.23 KCAL/MOL
REMARK 924 INTRA-LIGAND FREE ENERGY PREDICTED BY IDOCK:   -0.38 KCAL/MOL
REMARK 927      BINDING AFFINITY PREDICTED BY RF-SCORE:    0.00 PKD
ROOT
HETATM    1  C   UNL     1     -10.180  11.292  65.425  1.00  0.00    -0.323 C  
HETATM    2  C   UNL     1     -11.054  11.924  66.506  1.00  0.00    -0.357 C  
HETATM    3  C   UNL     1     -10.396  13.156  67.089  1.00  0.00    -0.247 A  
HETATM    4  C   UNL     1     -11.386  10.917  67.604  1.00  0.00    -0.270 C  
HETATM    5  C   UNL     1      -9.448  13.256  68.088  1.00  0.00    -0.222 A  
HETATM    6  O   UNL     1     -12.134  11.432  68.614  1.00  0.00    -0.518 OA 
HETATM    7  O   UNL     1     -11.066   9.738  67.592  1.00  0.00    -0.244 OA 
HETATM    8  C   UNL     1      -9.127  14.612  68.396  1.00  0.00    -0.192 A  
HETATM    9  C   UNL     1      -9.850  15.513  67.635  1.00  0.00    -0.213 A  
HETATM   10  S   UNL     1     -10.820  14.704  66.481  1.00  0.00    -0.321 SA 
ENDROOT
BRANCH   9  11
HETATM   11  C   UNL     1      -9.884  16.970  67.697  1.00  0.00    -0.257 C  
HETATM   12  O   UNL     1     -10.884  17.618  68.000  1.00  0.00    -0.369 OA 
BRANCH  11  13
HETATM   13  C   UNL     1      -8.632  17.730  67.388  1.00  0.00    -0.233 A  
HETATM   14  C   UNL     1      -8.244  18.841  68.152  1.00  0.00    -0.332 A  
HETATM   15  C   UNL     1      -7.058  19.515  67.864  1.00  0.00    -0.295 A  
HETATM   16  C   UNL     1      -6.266  19.101  66.795  1.00  0.00    -0.185 A  
HETATM   17  C   UNL     1      -6.667  18.026  66.003  1.00  0.00    -0.323 A  
HETATM   18  C   UNL     1      -7.851  17.343  66.294  1.00  0.00    -0.330 A  
ENDBRANCH  11  13
ENDBRANCH   9  11
TORSDOF 2
ENDMDL
MODEL       86
REMARK 921   NORMALIZED FREE ENERGY PREDICTED BY IDOCK:   -4.77 KCAL/MOL
REMARK 922        TOTAL FREE ENERGY PREDICTED BY IDOCK:   -5.60 KCAL/MOL
REMARK 923 INTER-LIGAND FREE ENERGY PREDICTED BY IDOCK:   -5.25 KCAL/MOL
REMARK 924 INTRA-LIGAND FREE ENERGY PREDICTED BY IDOCK:   -0.35 KCAL/MOL
REMARK 927      BINDING AFFINITY PREDICTED BY RF-SCORE:    0.00 PKD
ROOT
HETATM    1  C   UNL     1     -14.410  15.284  70.977  1.00  0.00    -0.232 C  
HETATM    2  C   UNL     1     -12.889  15.416  70.936  1.00  0.00    -0.536 C  
HETATM    3  C   UNL     1     -12.286  14.473  69.919  1.00  0.00    -0.298 A  
HETATM    4  C   UNL     1     -12.279  15.184  72.317  1.00  0.00    -0.376 C  
HETATM    5  C   UNL     1     -11.959  13.136  70.044  1.00  0.00    -0.391 A  
HETATM    6  O   UNL     1     -10.923  15.254  72.337  1.00  0.00    -0.170 OA 
HETATM    7  O   UNL     1     -12.918  14.994  73.342  1.00  0.00    -0.498 OA 
HETATM    8  C   UNL     1     -11.347  12.616  68.865  1.00  0.00    -0.345 A  
HETATM    9  C   UNL     1     -11.207  13.572  67.875  1.00  0.00    -0.274 A  
HETATM   10  S   UNL     1     -11.923  15.053  68.345  1.00  0.00    -0.114 SA 
ENDROOT
BRANCH   9  11
HETATM   11  C   UNL     1     -10.564  13.475  66.569  1.00  0.00    -0.281 C  
HETATM   12  O   UNL     1     -10.587  14.372  65.728  1.00  0.00    -0.295 OA 
BRANCH  11  13
HETATM   13  C   UNL     1      -9.820  12.222  66.227  1.00  0.00    -0.254 A  
HETATM   14  C   UNL     1     -10.386  11.237  65.403  1.00  0.00    -0.328 A  
HETATM   15  C   UNL     1      -9.662  10.092  65.074  1.00  0.00    -0.384 A  
HETATM   16  C   UNL     1      -8.379   9.910  65.587  1.00  0.00    -0.140 A  
HETATM   17  C   UNL     1      -7.827  10.863  66.443  1.00  0.00    -0.154 A  
HETATM   18  C   UNL     1      -8.546  12.016  66.767  1.00  0.00    -0.177 A  
ENDBRANCH  11  13
ENDBRANCH   9  11
TORSDOF 2
ENDMDL
MODEL       87
REMARK 921   NORMALIZED FREE ENERGY PREDICTED BY IDOCK:   -4.76 KCAL/MOL
REMARK 922        TOTAL FREE ENERGY PREDICTED BY IDOCK:   -5.59 KCAL/MOL
REMARK 923 INTER-LIGAND FREE ENERGY PREDICTED BY IDOCK:   -5.40 KCAL/MOL
REMARK 924 INTRA-LIGAND FREE ENERGY PREDICTED BY IDOCK:   -0.18 KCAL/MOL
REMARK 927      BINDING AFFINITY PREDICTED BY RF-SCORE:    0.00 PKD
ROOT
HETATM    1  C   UNL     1     -12.135   9.287  71.645  1.00  0.00    -0.451 C  
HETATM    2  C   UNL     1     -10.737   9.603  71.119  1.00  0.00    -0.365 C  
HETATM    3  C   UNL     1     -10.660   9.408  69.621  1.00  0.00    -0.225 A  
HETATM    4  C   UNL     1      -9.679   8.763  71.829  1.00  0.00    -0.310 C  
HETATM    5  C   UNL     1     -10.446   8.253  68.894  1.00  0.00    -0.209 A  
HETATM    6  O   UNL     1      -8.415   8.975  71.378  1.00  0.00    -0.267 OA 
HETATM    7  O   UNL     1      -9.900   7.992  72.752  1.00  0.00    -0.234 OA 
HETATM    8  C   UNL     1     -10.379   8.500  67.491  1.00  0.00    -0.334 A  
HETATM    9  C   UNL     1     -10.528   9.840  67.181  1.00  0.00    -0.250 A  
HETATM   10  S   UNL     1     -10.861  10.762  68.584  1.00  0.00    -0.241 SA 
ENDROOT
BRANCH   9  11
HETATM   11  C   UNL     1     -10.437  10.515  65.892  1.00  0.00    -0.153 C  
HETATM   12  O   UNL     1     -10.121   9.952  64.845  1.00  0.00    -0.268 OA 
BRANCH  11  13
HETATM   13  C   UNL     1     -10.757  11.977  65.824  1.00  0.00    -0.319 A  
HETATM   14  C   UNL     1     -12.071  12.428  65.627  1.00  0.00    -0.396 A  
HETATM   15  C   UNL     1     -12.349  13.795  65.598  1.00  0.00    -0.517 A  
HETATM   16  C   UNL     1     -11.314  14.717  65.738  1.00  0.00    -0.336 A  
HETATM   17  C   UNL     1     -10.000  14.276  65.890  1.00  0.00    -0.340 A  
HETATM   18  C   UNL     1      -9.719  12.908  65.929  1.00  0.00    -0.190 A  
ENDBRANCH  11  13
ENDBRANCH   9  11
TORSDOF 2
ENDMDL
MODEL       88
REMARK 921   NORMALIZED FREE ENERGY PREDICTED BY IDOCK:   -4.74 KCAL/MOL
REMARK 922        TOTAL FREE ENERGY PREDICTED BY IDOCK:   -5.57 KCAL/MOL
REMARK 923 INTER-LIGAND FREE ENERGY PREDICTED BY IDOCK:   -5.25 KCAL/MOL
REMARK 924 INTRA-LIGAND FREE ENERGY PREDICTED BY IDOCK:   -0.32 KCAL/MOL
REMARK 927      BINDING AFFINITY PREDICTED BY RF-SCORE:    0.00 PKD
ROOT
HETATM    1  C   UNL     1     -10.994   7.293  69.762  1.00  0.00    -0.235 C  
HETATM    2  C   UNL     1      -9.943   8.400  69.719  1.00  0.00    -0.191 C  
HETATM    3  C   UNL     1     -10.400   9.554  68.855  1.00  0.00    -0.208 A  
HETATM    4  C   UNL     1      -8.597   7.862  69.237  1.00  0.00    -0.138 C  
HETATM    5  C   UNL     1     -10.321   9.712  67.485  1.00  0.00    -0.297 A  
HETATM    6  O   UNL     1      -7.629   8.810  69.144  1.00  0.00    -0.084 OA 
HETATM    7  O   UNL     1      -8.360   6.689  68.989  1.00  0.00    -0.118 OA 
HETATM    8  C   UNL     1     -10.810  10.982  67.058  1.00  0.00    -0.334 A  
HETATM    9  C   UNL     1     -11.235  11.769  68.113  1.00  0.00    -0.260 A  
HETATM   10  S   UNL     1     -11.142  10.915  69.593  1.00  0.00    -0.256 SA 
ENDROOT
BRANCH   9  11
HETATM   11  C   UNL     1     -11.715  13.146  68.116  1.00  0.00    -0.355 C  
HETATM   12  O   UNL     1     -12.240  13.685  69.088  1.00  0.00    -0.326 OA 
BRANCH  11  13
HETATM   13  C   UNL     1     -11.554  13.965  66.872  1.00  0.00    -0.400 A  
HETATM   14  C   UNL     1     -12.421  13.812  65.780  1.00  0.00    -0.527 A  
HETATM   15  C   UNL     1     -12.270  14.607  64.644  1.00  0.00    -0.447 A  
HETATM   16  C   UNL     1     -11.236  15.539  64.582  1.00  0.00    -0.381 A  
HETATM   17  C   UNL     1     -10.343  15.665  65.645  1.00  0.00    -0.408 A  
HETATM   18  C   UNL     1     -10.497  14.877  66.788  1.00  0.00    -0.284 A  
ENDBRANCH  11  13
ENDBRANCH   9  11
TORSDOF 2
ENDMDL
MODEL       89
REMARK 921   NORMALIZED FREE ENERGY PREDICTED BY IDOCK:   -4.74 KCAL/MOL
REMARK 922        TOTAL FREE ENERGY PREDICTED BY IDOCK:   -5.56 KCAL/MOL
REMARK 923 INTER-LIGAND FREE ENERGY PREDICTED BY IDOCK:   -5.23 KCAL/MOL
REMARK 924 INTRA-LIGAND FREE ENERGY PREDICTED BY IDOCK:   -0.33 KCAL/MOL
REMARK 927      BINDING AFFINITY PREDICTED BY RF-SCORE:    0.00 PKD
ROOT
HETATM    1  C   UNL     1     -12.405  12.279  63.378  1.00  0.00    -0.624 C  
HETATM    2  C   UNL     1     -11.332  12.965  64.221  1.00  0.00    -0.417 C  
HETATM    3  C   UNL     1     -11.167  12.278  65.559  1.00  0.00    -0.332 A  
HETATM    4  C   UNL     1     -11.645  14.448  64.409  1.00  0.00    -0.334 C  
HETATM    5  C   UNL     1     -11.892  12.438  66.725  1.00  0.00    -0.385 A  
HETATM    6  O   UNL     1     -10.743  15.106  65.182  1.00  0.00    -0.362 OA 
HETATM    7  O   UNL     1     -12.584  15.036  63.893  1.00  0.00    -0.813 OA 
HETATM    8  C   UNL     1     -11.377  11.646  67.794  1.00  0.00    -0.356 A  
HETATM    9  C   UNL     1     -10.264  10.914  67.424  1.00  0.00    -0.201 A  
HETATM   10  S   UNL     1      -9.927  11.108  65.757  1.00  0.00    -0.258 SA 
ENDROOT
BRANCH   9  11
HETATM   11  C   UNL     1      -9.400  10.058  68.229  1.00  0.00    -0.132 C  
HETATM   12  O   UNL     1      -8.985  10.362  69.346  1.00  0.00    -0.194 OA 
BRANCH  11  13
HETATM   13  C   UNL     1      -8.998   8.725  67.678  1.00  0.00    -0.141 A  
HETATM   14  C   UNL     1      -9.912   7.663  67.594  1.00  0.00    -0.225 A  
HETATM   15  C   UNL     1      -9.522   6.440  67.050  1.00  0.00    -0.159 A  
HETATM   16  C   UNL     1      -8.212   6.261  66.611  1.00  0.00    -0.111 A  
HETATM   17  C   UNL     1      -7.286   7.296  66.732  1.00  0.00    -0.088 A  
HETATM   18  C   UNL     1      -7.675   8.526  67.269  1.00  0.00    -0.097 A  
ENDBRANCH  11  13
ENDBRANCH   9  11
TORSDOF 2
ENDMDL
MODEL       90
REMARK 921   NORMALIZED FREE ENERGY PREDICTED BY IDOCK:   -4.68 KCAL/MOL
REMARK 922        TOTAL FREE ENERGY PREDICTED BY IDOCK:   -5.50 KCAL/MOL
REMARK 923 INTER-LIGAND FREE ENERGY PREDICTED BY IDOCK:   -5.10 KCAL/MOL
REMARK 924 INTRA-LIGAND FREE ENERGY PREDICTED BY IDOCK:   -0.40 KCAL/MOL
REMARK 927      BINDING AFFINITY PREDICTED BY RF-SCORE:    0.00 PKD
ROOT
HETATM    1  C   UNL     1     -12.222  13.037  63.540  1.00  0.00    -0.580 C  
HETATM    2  C   UNL     1     -10.971  13.139  64.409  1.00  0.00    -0.412 C  
HETATM    3  C   UNL     1     -11.040  12.184  65.580  1.00  0.00    -0.316 A  
HETATM    4  C   UNL     1     -10.751  14.571  64.891  1.00  0.00    -0.429 C  
HETATM    5  C   UNL     1     -11.654  12.341  66.808  1.00  0.00    -0.434 A  
HETATM    6  O   UNL     1      -9.670  14.719  65.700  1.00  0.00    -0.332 OA 
HETATM    7  O   UNL     1     -11.435  15.531  64.568  1.00  0.00    -0.408 OA 
HETATM    8  C   UNL     1     -11.434  11.225  67.669  1.00  0.00    -0.341 A  
HETATM    9  C   UNL     1     -10.645  10.251  67.085  1.00  0.00    -0.260 A  
HETATM   10  S   UNL     1     -10.278  10.651  65.461  1.00  0.00    -0.238 SA 
ENDROOT
BRANCH   9  11
HETATM   11  C   UNL     1     -10.121   9.012  67.648  1.00  0.00    -0.216 C  
HETATM   12  O   UNL     1     -10.236   7.913  67.109  1.00  0.00    -0.231 OA 
BRANCH  11  13
HETATM   13  C   UNL     1      -9.387   9.072  68.952  1.00  0.00    -0.143 A  
HETATM   14  C   UNL     1      -8.087   9.591  69.036  1.00  0.00    -0.101 A  
HETATM   15  C   UNL     1      -7.435   9.664  70.266  1.00  0.00    -0.165 A  
HETATM   16  C   UNL     1      -8.068   9.195  71.416  1.00  0.00    -0.003 A  
HETATM   17  C   UNL     1      -9.342   8.636  71.334  1.00  0.00    -0.305 A  
HETATM   18  C   UNL     1     -10.002   8.570  70.104  1.00  0.00    -0.187 A  
ENDBRANCH  11  13
ENDBRANCH   9  11
TORSDOF 2
ENDMDL
MODEL       91
REMARK 921   NORMALIZED FREE ENERGY PREDICTED BY IDOCK:   -4.64 KCAL/MOL
REMARK 922        TOTAL FREE ENERGY PREDICTED BY IDOCK:   -5.45 KCAL/MOL
REMARK 923 INTER-LIGAND FREE ENERGY PREDICTED BY IDOCK:   -5.29 KCAL/MOL
REMARK 924 INTRA-LIGAND FREE ENERGY PREDICTED BY IDOCK:   -0.16 KCAL/MOL
REMARK 927      BINDING AFFINITY PREDICTED BY RF-SCORE:    0.00 PKD
ROOT
HETATM    1  C   UNL     1     -12.246  13.660  63.546  1.00  0.00    -0.329 C  
HETATM    2  C   UNL     1     -11.177  14.139  64.525  1.00  0.00    -0.345 C  
HETATM    3  C   UNL     1     -11.417  13.585  65.911  1.00  0.00    -0.320 A  
HETATM    4  C   UNL     1     -11.104  15.664  64.557  1.00  0.00    -0.286 C  
HETATM    5  C   UNL     1     -12.248  14.049  66.913  1.00  0.00    -0.415 A  
HETATM    6  O   UNL     1     -10.193  16.153  65.438  1.00  0.00    -0.479 OA 
HETATM    7  O   UNL     1     -11.756  16.411  63.843  1.00  0.00    -1.085 OA 
HETATM    8  C   UNL     1     -12.142  13.275  68.106  1.00  0.00    -0.248 A  
HETATM    9  C   UNL     1     -11.223  12.248  67.993  1.00  0.00    -0.269 A  
HETATM   10  S   UNL     1     -10.586  12.167  66.406  1.00  0.00    -0.250 SA 
ENDROOT
BRANCH   9  11
HETATM   11  C   UNL     1     -10.760  11.295  68.994  1.00  0.00    -0.217 C  
HETATM   12  O   UNL     1     -11.346  11.076  70.053  1.00  0.00    -0.285 OA 
BRANCH  11  13
HETATM   13  C   UNL     1      -9.505  10.524  68.724  1.00  0.00    -0.181 A  
HETATM   14  C   UNL     1      -8.247  11.145  68.745  1.00  0.00    -0.135 A  
HETATM   15  C   UNL     1      -7.090  10.399  68.520  1.00  0.00    -0.074 A  
HETATM   16  C   UNL     1      -7.184   9.036  68.246  1.00  0.00    -0.078 A  
HETATM   17  C   UNL     1      -8.433   8.421  68.179  1.00  0.00    -0.132 A  
HETATM   18  C   UNL     1      -9.594   9.163  68.413  1.00  0.00    -0.162 A  
ENDBRANCH  11  13
ENDBRANCH   9  11
TORSDOF 2
ENDMDL
MODEL       92
REMARK 921   NORMALIZED FREE ENERGY PREDICTED BY IDOCK:   -4.64 KCAL/MOL
REMARK 922        TOTAL FREE ENERGY PREDICTED BY IDOCK:   -5.45 KCAL/MOL
REMARK 923 INTER-LIGAND FREE ENERGY PREDICTED BY IDOCK:   -5.10 KCAL/MOL
REMARK 924 INTRA-LIGAND FREE ENERGY PREDICTED BY IDOCK:   -0.34 KCAL/MOL
REMARK 927      BINDING AFFINITY PREDICTED BY RF-SCORE:    0.00 PKD
ROOT
HETATM    1  C   UNL     1      -6.352  20.563  67.184  1.00  0.00    -0.280 C  
HETATM    2  C   UNL     1      -6.200  19.441  68.209  1.00  0.00    -0.254 C  
HETATM    3  C   UNL     1      -7.428  18.559  68.240  1.00  0.00    -0.281 A  
HETATM    4  C   UNL     1      -5.902  20.002  69.598  1.00  0.00    -0.309 C  
HETATM    5  C   UNL     1      -8.620  18.733  68.915  1.00  0.00    -0.234 A  
HETATM    6  O   UNL     1      -5.791  19.051  70.562  1.00  0.00    -0.212 OA 
HETATM    7  O   UNL     1      -5.729  21.185  69.854  1.00  0.00    -0.424 OA 
HETATM    8  C   UNL     1      -9.511  17.635  68.733  1.00  0.00    -0.250 A  
HETATM    9  C   UNL     1      -8.972  16.641  67.936  1.00  0.00    -0.217 A  
HETATM   10  S   UNL     1      -7.441  17.105  67.327  1.00  0.00    -0.170 SA 
ENDROOT
BRANCH   9  11
HETATM   11  C   UNL     1      -9.513  15.334  67.580  1.00  0.00    -0.205 C  
HETATM   12  O   UNL     1      -9.217  14.290  68.159  1.00  0.00    -0.188 OA 
BRANCH  11  13
HETATM   13  C   UNL     1     -10.495  15.247  66.453  1.00  0.00    -0.307 A  
HETATM   14  C   UNL     1     -10.489  16.180  65.406  1.00  0.00    -0.396 A  
HETATM   15  C   UNL     1     -11.394  16.062  64.352  1.00  0.00    -0.253 A  
HETATM   16  C   UNL     1     -12.328  15.027  64.351  1.00  0.00    -0.283 A  
HETATM   17  C   UNL     1     -12.369  14.122  65.411  1.00  0.00    -0.475 A  
HETATM   18  C   UNL     1     -11.458  14.233  66.464  1.00  0.00    -0.368 A  
ENDBRANCH  11  13
ENDBRANCH   9  11
TORSDOF 2
ENDMDL
MODEL       93
REMARK 921   NORMALIZED FREE ENERGY PREDICTED BY IDOCK:   -4.63 KCAL/MOL
REMARK 922        TOTAL FREE ENERGY PREDICTED BY IDOCK:   -5.44 KCAL/MOL
REMARK 923 INTER-LIGAND FREE ENERGY PREDICTED BY IDOCK:   -5.07 KCAL/MOL
REMARK 924 INTRA-LIGAND FREE ENERGY PREDICTED BY IDOCK:   -0.37 KCAL/MOL
REMARK 927      BINDING AFFINITY PREDICTED BY RF-SCORE:    0.00 PKD
ROOT
HETATM    1  C   UNL     1      -7.390   7.969  65.646  1.00  0.00    -0.079 C  
HETATM    2  C   UNL     1      -8.486   8.843  66.252  1.00  0.00    -0.129 C  
HETATM    3  C   UNL     1      -9.346   8.053  67.213  1.00  0.00    -0.144 A  
HETATM    4  C   UNL     1      -9.342   9.486  65.163  1.00  0.00    -0.252 C  
HETATM    5  C   UNL     1     -10.428   7.234  66.955  1.00  0.00    -0.369 A  
HETATM    6  O   UNL     1     -10.359  10.248  65.642  1.00  0.00    -0.243 OA 
HETATM    7  O   UNL     1      -9.139   9.384  63.962  1.00  0.00    -0.202 OA 
HETATM    8  C   UNL     1     -11.012   6.715  68.149  1.00  0.00    -0.323 A  
HETATM    9  C   UNL     1     -10.371   7.163  69.290  1.00  0.00    -0.203 A  
HETATM   10  S   UNL     1      -9.002   8.112  68.894  1.00  0.00    -0.140 SA 
ENDROOT
BRANCH   9  11
HETATM   11  C   UNL     1     -10.700   6.943  70.694  1.00  0.00    -0.236 C  
HETATM   12  O   UNL     1     -10.011   6.273  71.461  1.00  0.00    -0.183 OA 
BRANCH  11  13
HETATM   13  C   UNL     1     -11.941   7.573  71.246  1.00  0.00    -0.333 A  
HETATM   14  C   UNL     1     -11.914   8.847  71.833  1.00  0.00    -0.441 A  
HETATM   15  C   UNL     1     -13.089   9.426  72.313  1.00  0.00    -0.509 A  
HETATM   16  C   UNL     1     -14.291   8.726  72.234  1.00  0.00    -0.468 A  
HETATM   17  C   UNL     1     -14.318   7.442  71.693  1.00  0.00    -0.614 A  
HETATM   18  C   UNL     1     -13.145   6.862  71.203  1.00  0.00    -0.202 A  
ENDBRANCH  11  13
ENDBRANCH   9  11
TORSDOF 2
ENDMDL
MODEL       94
REMARK 921   NORMALIZED FREE ENERGY PREDICTED BY IDOCK:   -4.62 KCAL/MOL
REMARK 922        TOTAL FREE ENERGY PREDICTED BY IDOCK:   -5.43 KCAL/MOL
REMARK 923 INTER-LIGAND FREE ENERGY PREDICTED BY IDOCK:   -5.59 KCAL/MOL
REMARK 924 INTRA-LIGAND FREE ENERGY PREDICTED BY IDOCK:    0.16 KCAL/MOL
REMARK 927      BINDING AFFINITY PREDICTED BY RF-SCORE:    0.00 PKD
ROOT
HETATM    1  C   UNL     1     -11.199   6.005  70.375  1.00  0.00    -0.380 C  
HETATM    2  C   UNL     1     -10.496   7.033  71.259  1.00  0.00    -0.224 C  
HETATM    3  C   UNL     1     -10.865   8.443  70.857  1.00  0.00    -0.231 A  
HETATM    4  C   UNL     1      -8.982   6.840  71.230  1.00  0.00    -0.139 C  
HETATM    5  C   UNL     1     -10.332   9.242  69.863  1.00  0.00    -0.241 A  
HETATM    6  O   UNL     1      -8.297   7.749  71.972  1.00  0.00    -0.104 OA 
HETATM    7  O   UNL     1      -8.402   5.938  70.642  1.00  0.00    -0.120 OA 
HETATM    8  C   UNL     1     -10.916  10.543  69.843  1.00  0.00    -0.359 A  
HETATM    9  C   UNL     1     -11.868  10.712  70.832  1.00  0.00    -0.331 A  
HETATM   10  S   UNL     1     -12.122   9.256  71.695  1.00  0.00    -0.400 SA 
ENDROOT
BRANCH   9  11
HETATM   11  C   UNL     1     -12.626  11.901  71.205  1.00  0.00    -0.288 C  
HETATM   12  O   UNL     1     -13.502  11.912  72.068  1.00  0.00    -0.431 OA 
BRANCH  11  13
HETATM   13  C   UNL     1     -12.320  13.193  70.512  1.00  0.00    -0.380 A  
HETATM   14  C   UNL     1     -12.013  13.232  69.143  1.00  0.00    -0.343 A  
HETATM   15  C   UNL     1     -11.761  14.451  68.513  1.00  0.00    -0.370 A  
HETATM   16  C   UNL     1     -11.787  15.633  69.250  1.00  0.00    -0.378 A  
HETATM   17  C   UNL     1     -12.048  15.597  70.619  1.00  0.00    -0.443 A  
HETATM   18  C   UNL     1     -12.309  14.379  71.253  1.00  0.00    -0.432 A  
ENDBRANCH  11  13
ENDBRANCH   9  11
TORSDOF 2
ENDMDL
MODEL       95
REMARK 921   NORMALIZED FREE ENERGY PREDICTED BY IDOCK:   -4.61 KCAL/MOL
REMARK 922        TOTAL FREE ENERGY PREDICTED BY IDOCK:   -5.42 KCAL/MOL
REMARK 923 INTER-LIGAND FREE ENERGY PREDICTED BY IDOCK:   -5.05 KCAL/MOL
REMARK 924 INTRA-LIGAND FREE ENERGY PREDICTED BY IDOCK:   -0.37 KCAL/MOL
REMARK 927      BINDING AFFINITY PREDICTED BY RF-SCORE:    0.00 PKD
ROOT
HETATM    1  C   UNL     1      -8.767   8.272  72.672  1.00  0.00    -0.291 C  
HETATM    2  C   UNL     1      -9.728   7.682  71.642  1.00  0.00    -0.191 C  
HETATM    3  C   UNL     1     -10.250   8.751  70.708  1.00  0.00    -0.211 A  
HETATM    4  C   UNL     1     -10.881   6.948  72.322  1.00  0.00    -0.230 C  
HETATM    5  C   UNL     1     -11.301   9.632  70.879  1.00  0.00    -0.431 A  
HETATM    6  O   UNL     1     -11.790   6.431  71.456  1.00  0.00    -0.315 OA 
HETATM    7  O   UNL     1     -10.990   6.780  73.528  1.00  0.00    -0.252 OA 
HETATM    8  C   UNL     1     -11.516  10.448  69.729  1.00  0.00    -0.348 A  
HETATM    9  C   UNL     1     -10.635  10.160  68.703  1.00  0.00    -0.210 A  
HETATM   10  S   UNL     1      -9.488   8.987  69.188  1.00  0.00    -0.155 SA 
ENDROOT
BRANCH   9  11
HETATM   11  C   UNL     1     -10.572  10.697  67.348  1.00  0.00    -0.256 C  
HETATM   12  O   UNL     1     -10.477  10.000  66.340  1.00  0.00    -0.203 OA 
BRANCH  11  13
HETATM   13  C   UNL     1     -10.640  12.182  67.162  1.00  0.00    -0.254 A  
HETATM   14  C   UNL     1      -9.515  12.995  67.363  1.00  0.00    -0.210 A  
HETATM   15  C   UNL     1      -9.594  14.372  67.154  1.00  0.00    -0.251 A  
HETATM   16  C   UNL     1     -10.803  14.947  66.768  1.00  0.00    -0.320 A  
HETATM   17  C   UNL     1     -11.937  14.151  66.609  1.00  0.00    -0.470 A  
HETATM   18  C   UNL     1     -11.859  12.770  66.809  1.00  0.00    -0.452 A  
ENDBRANCH  11  13
ENDBRANCH   9  11
TORSDOF 2
ENDMDL
MODEL       96
REMARK 921   NORMALIZED FREE ENERGY PREDICTED BY IDOCK:   -4.54 KCAL/MOL
REMARK 922        TOTAL FREE ENERGY PREDICTED BY IDOCK:   -5.34 KCAL/MOL
REMARK 923 INTER-LIGAND FREE ENERGY PREDICTED BY IDOCK:   -4.93 KCAL/MOL
REMARK 924 INTRA-LIGAND FREE ENERGY PREDICTED BY IDOCK:   -0.41 KCAL/MOL
REMARK 927      BINDING AFFINITY PREDICTED BY RF-SCORE:    0.00 PKD
ROOT
HETATM    1  C   UNL     1     -12.395  14.376  69.870  1.00  0.00    -0.365 C  
HETATM    2  C   UNL     1     -11.043  14.195  69.182  1.00  0.00    -0.295 C  
HETATM    3  C   UNL     1     -10.620  15.459  68.467  1.00  0.00    -0.240 A  
HETATM    4  C   UNL     1     -11.071  13.012  68.217  1.00  0.00    -0.263 C  
HETATM    5  C   UNL     1     -10.966  15.917  67.210  1.00  0.00    -0.234 A  
HETATM    6  O   UNL     1      -9.905  12.822  67.547  1.00  0.00    -0.204 OA 
HETATM    7  O   UNL     1     -12.018  12.255  68.065  1.00  0.00    -0.425 OA 
HETATM    8  C   UNL     1     -10.300  17.133  66.875  1.00  0.00    -0.308 A  
HETATM    9  C   UNL     1      -9.451  17.566  67.877  1.00  0.00    -0.277 A  
HETATM   10  S   UNL     1      -9.560  16.556  69.254  1.00  0.00    -0.112 SA 
ENDROOT
BRANCH   9  11
HETATM   11  C   UNL     1      -8.535  18.701  67.898  1.00  0.00    -0.276 C  
HETATM   12  O   UNL     1      -8.531  19.561  68.777  1.00  0.00    -0.358 OA 
BRANCH  11  13
HETATM   13  C   UNL     1      -7.528  18.829  66.797  1.00  0.00    -0.237 A  
HETATM   14  C   UNL     1      -6.569  17.832  66.564  1.00  0.00    -0.256 A  
HETATM   15  C   UNL     1      -5.661  17.960  65.514  1.00  0.00    -0.130 A  
HETATM   16  C   UNL     1      -5.687  19.096  64.707  1.00  0.00    -0.295 A  
HETATM   17  C   UNL     1      -6.608  20.112  64.960  1.00  0.00    -0.325 A  
HETATM   18  C   UNL     1      -7.525  19.983  66.006  1.00  0.00    -0.328 A  
ENDBRANCH  11  13
ENDBRANCH   9  11
TORSDOF 2
ENDMDL
MODEL       97
REMARK 921   NORMALIZED FREE ENERGY PREDICTED BY IDOCK:   -4.52 KCAL/MOL
REMARK 922        TOTAL FREE ENERGY PREDICTED BY IDOCK:   -5.32 KCAL/MOL
REMARK 923 INTER-LIGAND FREE ENERGY PREDICTED BY IDOCK:   -5.03 KCAL/MOL
REMARK 924 INTRA-LIGAND FREE ENERGY PREDICTED BY IDOCK:   -0.29 KCAL/MOL
REMARK 927      BINDING AFFINITY PREDICTED BY RF-SCORE:    0.00 PKD
ROOT
HETATM    1  C   UNL     1     -10.512   7.620  67.124  1.00  0.00    -0.412 C  
HETATM    2  C   UNL     1     -10.106   8.655  68.171  1.00  0.00    -0.236 C  
HETATM    3  C   UNL     1     -10.225  10.060  67.624  1.00  0.00    -0.204 A  
HETATM    4  C   UNL     1      -8.693   8.392  68.686  1.00  0.00    -0.133 C  
HETATM    5  C   UNL     1      -9.330  10.786  66.862  1.00  0.00    -0.179 A  
HETATM    6  O   UNL     1      -8.261   9.303  69.596  1.00  0.00    -0.107 OA 
HETATM    7  O   UNL     1      -7.998   7.439  68.367  1.00  0.00    -0.120 OA 
HETATM    8  C   UNL     1      -9.791  12.110  66.600  1.00  0.00    -0.224 A  
HETATM    9  C   UNL     1     -11.018  12.369  67.182  1.00  0.00    -0.262 A  
HETATM   10  S   UNL     1     -11.647  10.969  67.939  1.00  0.00    -0.130 SA 
ENDROOT
BRANCH   9  11
HETATM   11  C   UNL     1     -11.787  13.608  67.229  1.00  0.00    -0.391 C  
HETATM   12  O   UNL     1     -12.503  14.003  66.311  1.00  0.00    -0.465 OA 
BRANCH  11  13
HETATM   13  C   UNL     1     -11.717  14.449  68.466  1.00  0.00    -0.370 A  
HETATM   14  C   UNL     1     -12.411  14.091  69.632  1.00  0.00    -0.309 A  
HETATM   15  C   UNL     1     -12.306  14.874  70.781  1.00  0.00    -0.392 A  
HETATM   16  C   UNL     1     -11.531  16.032  70.765  1.00  0.00    -0.444 A  
HETATM   17  C   UNL     1     -10.875  16.417  69.596  1.00  0.00    -0.346 A  
HETATM   18  C   UNL     1     -10.970  15.631  68.446  1.00  0.00    -0.308 A  
ENDBRANCH  11  13
ENDBRANCH   9  11
TORSDOF 2
ENDMDL
MODEL       98
REMARK 921   NORMALIZED FREE ENERGY PREDICTED BY IDOCK:   -4.50 KCAL/MOL
REMARK 922        TOTAL FREE ENERGY PREDICTED BY IDOCK:   -5.30 KCAL/MOL
REMARK 923 INTER-LIGAND FREE ENERGY PREDICTED BY IDOCK:   -5.05 KCAL/MOL
REMARK 924 INTRA-LIGAND FREE ENERGY PREDICTED BY IDOCK:   -0.25 KCAL/MOL
REMARK 927      BINDING AFFINITY PREDICTED BY RF-SCORE:    0.00 PKD
ROOT
HETATM    1  C   UNL     1      -7.947   8.489  69.292  1.00  0.00    -0.111 C  
HETATM    2  C   UNL     1      -9.126   8.606  68.328  1.00  0.00    -0.141 C  
HETATM    3  C   UNL     1     -10.028   9.760  68.707  1.00  0.00    -0.169 A  
HETATM    4  C   UNL     1      -9.915   7.301  68.263  1.00  0.00    -0.160 C  
HETATM    5  C   UNL     1     -11.050   9.809  69.636  1.00  0.00    -0.251 A  
HETATM    6  O   UNL     1     -10.999   7.355  67.447  1.00  0.00    -0.243 OA 
HETATM    7  O   UNL     1      -9.609   6.268  68.840  1.00  0.00    -0.126 OA 
HETATM    8  C   UNL     1     -11.707  11.075  69.650  1.00  0.00    -0.401 A  
HETATM    9  C   UNL     1     -11.183  11.955  68.722  1.00  0.00    -0.259 A  
HETATM   10  S   UNL     1      -9.828  11.276  67.928  1.00  0.00    -0.181 SA 
ENDROOT
BRANCH   9  11
HETATM   11  C   UNL     1     -11.618  13.300  68.361  1.00  0.00    -0.337 C  
HETATM   12  O   UNL     1     -11.958  14.152  69.180  1.00  0.00    -0.324 OA 
BRANCH  11  13
HETATM   13  C   UNL     1     -11.644  13.680  66.913  1.00  0.00    -0.397 A  
HETATM   14  C   UNL     1     -12.268  12.867  65.955  1.00  0.00    -0.431 A  
HETATM   15  C   UNL     1     -12.305  13.257  64.617  1.00  0.00    -0.447 A  
HETATM   16  C   UNL     1     -11.697  14.448  64.223  1.00  0.00    -0.328 A  
HETATM   17  C   UNL     1     -11.037  15.239  65.162  1.00  0.00    -0.412 A  
HETATM   18  C   UNL     1     -11.005  14.856  66.505  1.00  0.00    -0.327 A  
ENDBRANCH  11  13
ENDBRANCH   9  11
TORSDOF 2
ENDMDL
MODEL       99
REMARK 921   NORMALIZED FREE ENERGY PREDICTED BY IDOCK:   -4.50 KCAL/MOL
REMARK 922        TOTAL FREE ENERGY PREDICTED BY IDOCK:   -5.29 KCAL/MOL
REMARK 923 INTER-LIGAND FREE ENERGY PREDICTED BY IDOCK:   -4.92 KCAL/MOL
REMARK 924 INTRA-LIGAND FREE ENERGY PREDICTED BY IDOCK:   -0.37 KCAL/MOL
REMARK 927      BINDING AFFINITY PREDICTED BY RF-SCORE:    0.00 PKD
ROOT
HETATM    1  C   UNL     1      -7.751  10.803  67.026  1.00  0.00    -0.121 C  
HETATM    2  C   UNL     1      -7.756  11.690  68.270  1.00  0.00    -0.128 C  
HETATM    3  C   UNL     1      -8.233  13.087  67.943  1.00  0.00    -0.166 A  
HETATM    4  C   UNL     1      -6.377  11.728  68.923  1.00  0.00    -0.067 C  
HETATM    5  C   UNL     1      -7.528  14.161  67.433  1.00  0.00    -0.155 A  
HETATM    6  O   UNL     1      -6.309  12.531  70.017  1.00  0.00    -0.104 OA 
HETATM    7  O   UNL     1      -5.409  11.079  68.555  1.00  0.00    -0.044 OA 
HETATM    8  C   UNL     1      -8.331  15.334  67.326  1.00  0.00    -0.225 A  
HETATM    9  C   UNL     1      -9.626  15.133  67.770  1.00  0.00    -0.203 A  
HETATM   10  S   UNL     1      -9.880  13.497  68.202  1.00  0.00    -0.239 SA 
ENDROOT
BRANCH   9  11
HETATM   11  C   UNL     1     -10.724  16.083  67.907  1.00  0.00    -0.316 C  
HETATM   12  O   UNL     1     -11.852  15.775  68.286  1.00  0.00    -0.301 OA 
BRANCH  11  13
HETATM   13  C   UNL     1     -10.470  17.523  67.583  1.00  0.00    -0.370 A  
HETATM   14  C   UNL     1     -10.528  17.996  66.263  1.00  0.00    -0.340 A  
HETATM   15  C   UNL     1     -10.318  19.347  65.989  1.00  0.00    -0.584 A  
HETATM   16  C   UNL     1     -10.023  20.229  67.027  1.00  0.00    -0.601 A  
HETATM   17  C   UNL     1      -9.921  19.758  68.336  1.00  0.00    -0.549 A  
HETATM   18  C   UNL     1     -10.139  18.407  68.615  1.00  0.00    -0.407 A  
ENDBRANCH  11  13
ENDBRANCH   9  11
TORSDOF 2
ENDMDL
MODEL      100
REMARK 921   NORMALIZED FREE ENERGY PREDICTED BY IDOCK:   -4.49 KCAL/MOL
REMARK 922        TOTAL FREE ENERGY PREDICTED BY IDOCK:   -5.29 KCAL/MOL
REMARK 923 INTER-LIGAND FREE ENERGY PREDICTED BY IDOCK:   -4.90 KCAL/MOL
REMARK 924 INTRA-LIGAND FREE ENERGY PREDICTED BY IDOCK:   -0.39 KCAL/MOL
REMARK 927      BINDING AFFINITY PREDICTED BY RF-SCORE:    0.00 PKD
ROOT
HETATM    1  C   UNL     1      -7.997   9.621  64.637  1.00  0.00    -0.135 C  
HETATM    2  C   UNL     1      -9.370   9.575  65.305  1.00  0.00    -0.317 C  
HETATM    3  C   UNL     1      -9.662  10.863  66.042  1.00  0.00    -0.224 A  
HETATM    4  C   UNL     1      -9.485   8.377  66.245  1.00  0.00    -0.224 C  
HETATM    5  C   UNL     1      -9.286  11.255  67.313  1.00  0.00    -0.173 A  
HETATM    6  O   UNL     1     -10.674   8.302  66.897  1.00  0.00    -0.299 OA 
HETATM    7  O   UNL     1      -8.628   7.518  66.392  1.00  0.00    -0.126 OA 
HETATM    8  C   UNL     1      -9.820  12.530  67.666  1.00  0.00    -0.202 A  
HETATM    9  C   UNL     1     -10.602  13.073  66.664  1.00  0.00    -0.266 A  
HETATM   10  S   UNL     1     -10.585  12.085  65.266  1.00  0.00    -0.298 SA 
ENDROOT
BRANCH   9  11
HETATM   11  C   UNL     1     -11.389  14.302  66.656  1.00  0.00    -0.349 C  
HETATM   12  O   UNL     1     -12.600  14.337  66.446  1.00  0.00    -0.396 OA 
BRANCH  11  13
HETATM   13  C   UNL     1     -10.694  15.600  66.931  1.00  0.00    -0.307 A  
HETATM   14  C   UNL     1     -11.105  16.441  67.976  1.00  0.00    -0.292 A  
HETATM   15  C   UNL     1     -10.423  17.630  68.232  1.00  0.00    -0.376 A  
HETATM   16  C   UNL     1      -9.345  17.999  67.430  1.00  0.00    -0.254 A  
HETATM   17  C   UNL     1      -8.959  17.190  66.362  1.00  0.00    -0.291 A  
HETATM   18  C   UNL     1      -9.634  15.994  66.108  1.00  0.00    -0.366 A  
ENDBRANCH  11  13
ENDBRANCH   9  11
TORSDOF 2
ENDMDL
MODEL      101
REMARK 921   NORMALIZED FREE ENERGY PREDICTED BY IDOCK:   -4.49 KCAL/MOL
REMARK 922        TOTAL FREE ENERGY PREDICTED BY IDOCK:   -5.29 KCAL/MOL
REMARK 923 INTER-LIGAND FREE ENERGY PREDICTED BY IDOCK:   -4.91 KCAL/MOL
REMARK 924 INTRA-LIGAND FREE ENERGY PREDICTED BY IDOCK:   -0.38 KCAL/MOL
REMARK 927      BINDING AFFINITY PREDICTED BY RF-SCORE:    0.00 PKD
ROOT
HETATM    1  C   UNL     1      -9.787  14.704  66.196  1.00  0.00    -0.334 C  
HETATM    2  C   UNL     1      -9.843  14.604  67.718  1.00  0.00    -0.216 C  
HETATM    3  C   UNL     1     -10.403  13.269  68.158  1.00  0.00    -0.244 A  
HETATM    4  C   UNL     1     -10.653  15.753  68.316  1.00  0.00    -0.271 C  
HETATM    5  C   UNL     1     -11.718  12.868  68.290  1.00  0.00    -0.390 A  
HETATM    6  O   UNL     1     -10.769  15.699  69.668  1.00  0.00    -0.232 OA 
HETATM    7  O   UNL     1     -11.131  16.679  67.677  1.00  0.00    -0.244 OA 
HETATM    8  C   UNL     1     -11.830  11.539  68.796  1.00  0.00    -0.394 A  
HETATM    9  C   UNL     1     -10.599  10.964  69.054  1.00  0.00    -0.216 A  
HETATM   10  S   UNL     1      -9.324  11.999  68.570  1.00  0.00    -0.065 SA 
ENDROOT
BRANCH   9  11
HETATM   11  C   UNL     1     -10.278   9.672  69.650  1.00  0.00    -0.222 C  
HETATM   12  O   UNL     1      -9.866   9.533  70.800  1.00  0.00    -0.272 OA 
BRANCH  11  13
HETATM   13  C   UNL     1     -10.469   8.436  68.827  1.00  0.00    -0.202 A  
HETATM   14  C   UNL     1     -10.189   8.423  67.452  1.00  0.00    -0.328 A  
HETATM   15  C   UNL     1     -10.346   7.251  66.713  1.00  0.00    -0.311 A  
HETATM   16  C   UNL     1     -10.808   6.093  67.335  1.00  0.00    -0.431 A  
HETATM   17  C   UNL     1     -11.130   6.110  68.692  1.00  0.00    -0.378 A  
HETATM   18  C   UNL     1     -10.966   7.279  69.438  1.00  0.00    -0.157 A  
ENDBRANCH  11  13
ENDBRANCH   9  11
TORSDOF 2
ENDMDL
MODEL      102
REMARK 921   NORMALIZED FREE ENERGY PREDICTED BY IDOCK:   -4.46 KCAL/MOL
REMARK 922        TOTAL FREE ENERGY PREDICTED BY IDOCK:   -5.25 KCAL/MOL
REMARK 923 INTER-LIGAND FREE ENERGY PREDICTED BY IDOCK:   -5.00 KCAL/MOL
REMARK 924 INTRA-LIGAND FREE ENERGY PREDICTED BY IDOCK:   -0.25 KCAL/MOL
REMARK 927      BINDING AFFINITY PREDICTED BY RF-SCORE:    0.00 PKD
ROOT
HETATM    1  C   UNL     1     -12.442  12.524  63.268  1.00  0.00    -0.411 C  
HETATM    2  C   UNL     1     -11.375  13.209  64.121  1.00  0.00    -0.440 C  
HETATM    3  C   UNL     1     -11.252  12.547  65.476  1.00  0.00    -0.314 A  
HETATM    4  C   UNL     1     -11.665  14.700  64.271  1.00  0.00    -0.275 C  
HETATM    5  C   UNL     1     -11.999  12.744  66.622  1.00  0.00    -0.411 A  
HETATM    6  O   UNL     1     -10.768  15.358  65.051  1.00  0.00    -0.405 OA 
HETATM    7  O   UNL     1     -12.582  15.294  63.723  1.00  0.00    -0.733 OA 
HETATM    8  C   UNL     1     -11.523  11.965  67.718  1.00  0.00    -0.389 A  
HETATM    9  C   UNL     1     -10.415  11.206  67.388  1.00  0.00    -0.220 A  
HETATM   10  S   UNL     1     -10.039  11.359  65.725  1.00  0.00    -0.257 SA 
ENDROOT
BRANCH   9  11
HETATM   11  C   UNL     1      -9.584  10.352  68.229  1.00  0.00    -0.144 C  
HETATM   12  O   UNL     1      -9.867   9.190  68.515  1.00  0.00    -0.156 OA 
BRANCH  11  13
HETATM   13  C   UNL     1      -8.304  10.908  68.771  1.00  0.00    -0.151 A  
HETATM   14  C   UNL     1      -7.784  12.127  68.311  1.00  0.00    -0.135 A  
HETATM   15  C   UNL     1      -6.606  12.640  68.853  1.00  0.00    -0.095 A  
HETATM   16  C   UNL     1      -5.926  11.925  69.838  1.00  0.00    -0.148 A  
HETATM   17  C   UNL     1      -6.412  10.692  70.268  1.00  0.00    -0.138 A  
HETATM   18  C   UNL     1      -7.597  10.179  69.734  1.00  0.00    -0.175 A  
ENDBRANCH  11  13
ENDBRANCH   9  11
TORSDOF 2
ENDMDL
MODEL      103
REMARK 921   NORMALIZED FREE ENERGY PREDICTED BY IDOCK:   -4.42 KCAL/MOL
REMARK 922        TOTAL FREE ENERGY PREDICTED BY IDOCK:   -5.21 KCAL/MOL
REMARK 923 INTER-LIGAND FREE ENERGY PREDICTED BY IDOCK:   -4.86 KCAL/MOL
REMARK 924 INTRA-LIGAND FREE ENERGY PREDICTED BY IDOCK:   -0.35 KCAL/MOL
REMARK 927      BINDING AFFINITY PREDICTED BY RF-SCORE:    0.00 PKD
ROOT
HETATM    1  C   UNL     1     -10.434  16.452  67.831  1.00  0.00    -0.307 C  
HETATM    2  C   UNL     1     -11.008  15.291  67.022  1.00  0.00    -0.324 C  
HETATM    3  C   UNL     1     -10.752  13.968  67.708  1.00  0.00    -0.243 A  
HETATM    4  C   UNL     1     -10.449  15.281  65.601  1.00  0.00    -0.358 C  
HETATM    5  C   UNL     1      -9.629  13.163  67.676  1.00  0.00    -0.210 A  
HETATM    6  O   UNL     1     -10.897  14.248  64.841  1.00  0.00    -0.373 OA 
HETATM    7  O   UNL     1      -9.700  16.129  65.137  1.00  0.00    -0.346 OA 
HETATM    8  C   UNL     1      -9.809  11.955  68.412  1.00  0.00    -0.201 A  
HETATM    9  C   UNL     1     -11.068  11.859  68.975  1.00  0.00    -0.246 A  
HETATM   10  S   UNL     1     -11.975  13.284  68.700  1.00  0.00    -0.243 SA 
ENDROOT
BRANCH   9  11
HETATM   11  C   UNL     1     -11.676  10.762  69.721  1.00  0.00    -0.324 C  
HETATM   12  O   UNL     1     -12.847  10.757  70.097  1.00  0.00    -0.265 OA 
BRANCH  11  13
HETATM   13  C   UNL     1     -10.839   9.563  70.042  1.00  0.00    -0.286 A  
HETATM   14  C   UNL     1     -10.619   8.551  69.096  1.00  0.00    -0.188 A  
HETATM   15  C   UNL     1      -9.811   7.458  69.408  1.00  0.00    -0.168 A  
HETATM   16  C   UNL     1      -9.240   7.356  70.675  1.00  0.00    -0.157 A  
HETATM   17  C   UNL     1      -9.490   8.336  71.636  1.00  0.00    -0.258 A  
HETATM   18  C   UNL     1     -10.292   9.436  71.324  1.00  0.00    -0.363 A  
ENDBRANCH  11  13
ENDBRANCH   9  11
TORSDOF 2
ENDMDL
MODEL      104
REMARK 921   NORMALIZED FREE ENERGY PREDICTED BY IDOCK:   -4.41 KCAL/MOL
REMARK 922        TOTAL FREE ENERGY PREDICTED BY IDOCK:   -5.20 KCAL/MOL
REMARK 923 INTER-LIGAND FREE ENERGY PREDICTED BY IDOCK:   -4.85 KCAL/MOL
REMARK 924 INTRA-LIGAND FREE ENERGY PREDICTED BY IDOCK:   -0.35 KCAL/MOL
REMARK 927      BINDING AFFINITY PREDICTED BY RF-SCORE:    0.00 PKD
ROOT
HETATM    1  C   UNL     1      -7.252  10.106  65.253  1.00  0.00    -0.141 C  
HETATM    2  C   UNL     1      -8.661  10.691  65.326  1.00  0.00    -0.198 C  
HETATM    3  C   UNL     1      -9.431  10.116  66.495  1.00  0.00    -0.169 A  
HETATM    4  C   UNL     1      -9.418  10.468  64.018  1.00  0.00    -0.289 C  
HETATM    5  C   UNL     1     -10.140   8.934  66.585  1.00  0.00    -0.357 A  
HETATM    6  O   UNL     1     -10.693  10.936  64.034  1.00  0.00    -0.353 OA 
HETATM    7  O   UNL     1      -8.943   9.960  63.013  1.00  0.00    -0.223 OA 
HETATM    8  C   UNL     1     -10.783   8.784  67.849  1.00  0.00    -0.171 A  
HETATM    9  C   UNL     1     -10.562   9.861  68.688  1.00  0.00    -0.217 A  
HETATM   10  S   UNL     1      -9.486  10.985  67.974  1.00  0.00    -0.172 SA 
ENDROOT
BRANCH   9  11
HETATM   11  C   UNL     1     -11.102  10.138  70.014  1.00  0.00    -0.308 C  
HETATM   12  O   UNL     1     -11.572  11.223  70.349  1.00  0.00    -0.311 OA 
BRANCH  11  13
HETATM   13  C   UNL     1     -11.099   9.040  71.032  1.00  0.00    -0.356 A  
HETATM   14  C   UNL     1     -12.194   8.174  71.176  1.00  0.00    -0.257 A  
HETATM   15  C   UNL     1     -12.156   7.140  72.110  1.00  0.00    -0.284 A  
HETATM   16  C   UNL     1     -11.037   6.980  72.925  1.00  0.00    -0.314 A  
HETATM   17  C   UNL     1      -9.963   7.864  72.819  1.00  0.00    -0.348 A  
HETATM   18  C   UNL     1      -9.994   8.896  71.878  1.00  0.00    -0.384 A  
ENDBRANCH  11  13
ENDBRANCH   9  11
TORSDOF 2
ENDMDL
MODEL      105
REMARK 921   NORMALIZED FREE ENERGY PREDICTED BY IDOCK:   -4.41 KCAL/MOL
REMARK 922        TOTAL FREE ENERGY PREDICTED BY IDOCK:   -5.20 KCAL/MOL
REMARK 923 INTER-LIGAND FREE ENERGY PREDICTED BY IDOCK:   -4.84 KCAL/MOL
REMARK 924 INTRA-LIGAND FREE ENERGY PREDICTED BY IDOCK:   -0.36 KCAL/MOL
REMARK 927      BINDING AFFINITY PREDICTED BY RF-SCORE:    0.00 PKD
ROOT
HETATM    1  C   UNL     1      -9.282  10.899  64.223  1.00  0.00    -0.221 C  
HETATM    2  C   UNL     1      -9.960  11.565  65.418  1.00  0.00    -0.288 C  
HETATM    3  C   UNL     1      -9.960  10.652  66.624  1.00  0.00    -0.212 A  
HETATM    4  C   UNL     1     -11.382  12.003  65.071  1.00  0.00    -0.310 C  
HETATM    5  C   UNL     1     -10.835   9.635  66.958  1.00  0.00    -0.148 A  
HETATM    6  O   UNL     1     -12.050  12.571  66.108  1.00  0.00    -0.571 OA 
HETATM    7  O   UNL     1     -11.892  11.909  63.965  1.00  0.00    -0.383 OA 
HETATM    8  C   UNL     1     -10.526   9.048  68.221  1.00  0.00    -0.247 A  
HETATM    9  C   UNL     1      -9.434   9.641  68.828  1.00  0.00    -0.148 A  
HETATM   10  S   UNL     1      -8.729  10.821  67.808  1.00  0.00    -0.132 SA 
ENDROOT
BRANCH   9  11
HETATM   11  C   UNL     1      -8.853   9.400  70.144  1.00  0.00    -0.223 C  
HETATM   12  O   UNL     1      -7.832   9.950  70.552  1.00  0.00    -0.246 OA 
BRANCH  11  13
HETATM   13  C   UNL     1      -9.537   8.438  71.065  1.00  0.00    -0.212 A  
HETATM   14  C   UNL     1      -9.101   7.111  71.191  1.00  0.00    -0.152 A  
HETATM   15  C   UNL     1      -9.736   6.242  72.077  1.00  0.00    -0.164 A  
HETATM   16  C   UNL     1     -10.826   6.685  72.824  1.00  0.00    -0.283 A  
HETATM   17  C   UNL     1     -11.293   7.990  72.671  1.00  0.00    -0.469 A  
HETATM   18  C   UNL     1     -10.655   8.866  71.790  1.00  0.00    -0.432 A  
ENDBRANCH  11  13
ENDBRANCH   9  11
TORSDOF 2
ENDMDL
MODEL      106
REMARK 921   NORMALIZED FREE ENERGY PREDICTED BY IDOCK:   -4.40 KCAL/MOL
REMARK 922        TOTAL FREE ENERGY PREDICTED BY IDOCK:   -5.19 KCAL/MOL
REMARK 923 INTER-LIGAND FREE ENERGY PREDICTED BY IDOCK:   -4.81 KCAL/MOL
REMARK 924 INTRA-LIGAND FREE ENERGY PREDICTED BY IDOCK:   -0.37 KCAL/MOL
REMARK 927      BINDING AFFINITY PREDICTED BY RF-SCORE:    0.00 PKD
ROOT
HETATM    1  C   UNL     1     -11.417  12.019  65.515  1.00  0.00    -0.368 C  
HETATM    2  C   UNL     1     -10.627  12.604  66.684  1.00  0.00    -0.267 C  
HETATM    3  C   UNL     1     -10.646  11.673  67.876  1.00  0.00    -0.193 A  
HETATM    4  C   UNL     1     -11.153  13.985  67.067  1.00  0.00    -0.304 C  
HETATM    5  C   UNL     1     -11.602  11.529  68.864  1.00  0.00    -0.384 A  
HETATM    6  O   UNL     1     -10.511  14.543  68.126  1.00  0.00    -0.232 OA 
HETATM    7  O   UNL     1     -12.037  14.586  66.475  1.00  0.00    -0.396 OA 
HETATM    8  C   UNL     1     -11.215  10.580  69.856  1.00  0.00    -0.374 A  
HETATM    9  C   UNL     1      -9.968  10.034  69.611  1.00  0.00    -0.236 A  
HETATM   10  S   UNL     1      -9.335  10.594  68.123  1.00  0.00    -0.156 SA 
ENDROOT
BRANCH   9  11
HETATM   11  C   UNL     1      -9.181   9.106  70.415  1.00  0.00    -0.233 C  
HETATM   12  O   UNL     1      -8.156   9.422  71.017  1.00  0.00    -0.300 OA 
BRANCH  11  13
HETATM   13  C   UNL     1      -9.644   7.687  70.531  1.00  0.00    -0.167 A  
HETATM   14  C   UNL     1     -10.292   7.041  69.467  1.00  0.00    -0.225 A  
HETATM   15  C   UNL     1     -10.687   5.709  69.588  1.00  0.00    -0.398 A  
HETATM   16  C   UNL     1     -10.462   5.023  70.780  1.00  0.00    -0.222 A  
HETATM   17  C   UNL     1      -9.859   5.672  71.857  1.00  0.00    -0.203 A  
HETATM   18  C   UNL     1      -9.454   7.003  71.737  1.00  0.00    -0.157 A  
ENDBRANCH  11  13
ENDBRANCH   9  11
TORSDOF 2
ENDMDL
MODEL      107
REMARK 921   NORMALIZED FREE ENERGY PREDICTED BY IDOCK:   -4.40 KCAL/MOL
REMARK 922        TOTAL FREE ENERGY PREDICTED BY IDOCK:   -5.19 KCAL/MOL
REMARK 923 INTER-LIGAND FREE ENERGY PREDICTED BY IDOCK:   -4.84 KCAL/MOL
REMARK 924 INTRA-LIGAND FREE ENERGY PREDICTED BY IDOCK:   -0.35 KCAL/MOL
REMARK 927      BINDING AFFINITY PREDICTED BY RF-SCORE:    0.00 PKD
ROOT
HETATM    1  C   UNL     1     -10.418   4.534  65.608  1.00  0.00    -0.261 C  
HETATM    2  C   UNL     1      -9.233   5.300  66.191  1.00  0.00    -0.158 C  
HETATM    3  C   UNL     1      -9.698   6.429  67.084  1.00  0.00    -0.141 A  
HETATM    4  C   UNL     1      -8.320   5.827  65.086  1.00  0.00    -0.146 C  
HETATM    5  C   UNL     1     -10.096   7.709  66.749  1.00  0.00    -0.325 A  
HETATM    6  O   UNL     1      -7.265   6.549  65.542  1.00  0.00    -0.069 OA 
HETATM    7  O   UNL     1      -8.466   5.605  63.893  1.00  0.00    -0.099 OA 
HETATM    8  C   UNL     1     -10.403   8.498  67.897  1.00  0.00    -0.281 A  
HETATM    9  C   UNL     1     -10.218   7.807  69.081  1.00  0.00    -0.208 A  
HETATM   10  S   UNL     1      -9.786   6.179  68.780  1.00  0.00    -0.133 SA 
ENDROOT
BRANCH   9  11
HETATM   11  C   UNL     1     -10.335   8.269  70.460  1.00  0.00    -0.202 C  
HETATM   12  O   UNL     1      -9.373   8.566  71.166  1.00  0.00    -0.165 OA 
BRANCH  11  13
HETATM   13  C   UNL     1     -11.702   8.404  71.057  1.00  0.00    -0.296 A  
HETATM   14  C   UNL     1     -12.158   9.628  71.567  1.00  0.00    -0.482 A  
HETATM   15  C   UNL     1     -13.446   9.737  72.091  1.00  0.00    -0.491 A  
HETATM   16  C   UNL     1     -14.276   8.618  72.132  1.00  0.00    -0.520 A  
HETATM   17  C   UNL     1     -13.814   7.388  71.667  1.00  0.00    -0.490 A  
HETATM   18  C   UNL     1     -12.527   7.277  71.134  1.00  0.00    -0.373 A  
ENDBRANCH  11  13
ENDBRANCH   9  11
TORSDOF 2
ENDMDL
MODEL      108
REMARK 921   NORMALIZED FREE ENERGY PREDICTED BY IDOCK:   -4.39 KCAL/MOL
REMARK 922        TOTAL FREE ENERGY PREDICTED BY IDOCK:   -5.17 KCAL/MOL
REMARK 923 INTER-LIGAND FREE ENERGY PREDICTED BY IDOCK:   -4.78 KCAL/MOL
REMARK 924 INTRA-LIGAND FREE ENERGY PREDICTED BY IDOCK:   -0.39 KCAL/MOL
REMARK 927      BINDING AFFINITY PREDICTED BY RF-SCORE:    0.00 PKD
ROOT
HETATM    1  C   UNL     1     -10.966   6.333  67.967  1.00  0.00    -0.418 C  
HETATM    2  C   UNL     1      -9.763   7.245  68.193  1.00  0.00    -0.155 C  
HETATM    3  C   UNL     1      -9.995   8.615  67.594  1.00  0.00    -0.194 A  
HETATM    4  C   UNL     1      -8.486   6.620  67.635  1.00  0.00    -0.121 C  
HETATM    5  C   UNL     1      -9.817   9.047  66.294  1.00  0.00    -0.361 A  
HETATM    6  O   UNL     1      -7.384   7.402  67.775  1.00  0.00    -0.088 OA 
HETATM    7  O   UNL     1      -8.411   5.504  67.141  1.00  0.00    -0.111 OA 
HETATM    8  C   UNL     1     -10.088  10.440  66.145  1.00  0.00    -0.299 A  
HETATM    9  C   UNL     1     -10.451  11.040  67.337  1.00  0.00    -0.218 A  
HETATM   10  S   UNL     1     -10.569   9.885  68.595  1.00  0.00    -0.221 SA 
ENDROOT
BRANCH   9  11
HETATM   11  C   UNL     1     -10.722  12.442  67.631  1.00  0.00    -0.221 C  
HETATM   12  O   UNL     1     -10.649  12.931  68.757  1.00  0.00    -0.242 OA 
BRANCH  11  13
HETATM   13  C   UNL     1     -11.101  13.351  66.503  1.00  0.00    -0.312 A  
HETATM   14  C   UNL     1     -10.179  14.253  65.951  1.00  0.00    -0.338 A  
HETATM   15  C   UNL     1     -10.546  15.068  64.881  1.00  0.00    -0.400 A  
HETATM   16  C   UNL     1     -11.843  15.007  64.373  1.00  0.00    -0.349 A  
HETATM   17  C   UNL     1     -12.777  14.145  64.946  1.00  0.00    -0.284 A  
HETATM   18  C   UNL     1     -12.411  13.320  66.012  1.00  0.00    -0.449 A  
ENDBRANCH  11  13
ENDBRANCH   9  11
TORSDOF 2
ENDMDL
MODEL      109
REMARK 921   NORMALIZED FREE ENERGY PREDICTED BY IDOCK:   -4.35 KCAL/MOL
REMARK 922        TOTAL FREE ENERGY PREDICTED BY IDOCK:   -5.13 KCAL/MOL
REMARK 923 INTER-LIGAND FREE ENERGY PREDICTED BY IDOCK:   -4.89 KCAL/MOL
REMARK 924 INTRA-LIGAND FREE ENERGY PREDICTED BY IDOCK:   -0.25 KCAL/MOL
REMARK 927      BINDING AFFINITY PREDICTED BY RF-SCORE:    0.00 PKD
ROOT
HETATM    1  C   UNL     1      -9.435  10.932  66.421  1.00  0.00    -0.214 C  
HETATM    2  C   UNL     1      -9.419  11.667  67.759  1.00  0.00    -0.178 C  
HETATM    3  C   UNL     1     -10.573  11.233  68.635  1.00  0.00    -0.202 A  
HETATM    4  C   UNL     1      -9.434  13.181  67.555  1.00  0.00    -0.212 C  
HETATM    5  C   UNL     1     -11.883  11.671  68.645  1.00  0.00    -0.370 A  
HETATM    6  O   UNL     1      -9.457  13.891  68.713  1.00  0.00    -0.158 OA 
HETATM    7  O   UNL     1      -9.387  13.741  66.470  1.00  0.00    -0.269 OA 
HETATM    8  C   UNL     1     -12.653  11.053  69.674  1.00  0.00    -0.084 A  
HETATM    9  C   UNL     1     -11.909  10.169  70.434  1.00  0.00    -0.288 A  
HETATM   10  S   UNL     1     -10.320  10.016  69.819  1.00  0.00    -0.265 SA 
ENDROOT
BRANCH   9  11
HETATM   11  C   UNL     1     -12.289   9.408  71.619  1.00  0.00    -0.385 C  
HETATM   12  O   UNL     1     -13.109   9.797  72.448  1.00  0.00    -0.388 OA 
BRANCH  11  13
HETATM   13  C   UNL     1     -11.660   8.067  71.841  1.00  0.00    -0.348 A  
HETATM   14  C   UNL     1     -11.856   7.009  70.941  1.00  0.00    -0.401 A  
HETATM   15  C   UNL     1     -11.235   5.779  71.154  1.00  0.00    -0.211 A  
HETATM   16  C   UNL     1     -10.436   5.590  72.280  1.00  0.00    -0.266 A  
HETATM   17  C   UNL     1     -10.272   6.622  73.202  1.00  0.00    -0.238 A  
HETATM   18  C   UNL     1     -10.885   7.859  72.988  1.00  0.00    -0.408 A  
ENDBRANCH  11  13
ENDBRANCH   9  11
TORSDOF 2
ENDMDL
MODEL      110
REMARK 921   NORMALIZED FREE ENERGY PREDICTED BY IDOCK:   -4.34 KCAL/MOL
REMARK 922        TOTAL FREE ENERGY PREDICTED BY IDOCK:   -5.12 KCAL/MOL
REMARK 923 INTER-LIGAND FREE ENERGY PREDICTED BY IDOCK:   -4.75 KCAL/MOL
REMARK 924 INTRA-LIGAND FREE ENERGY PREDICTED BY IDOCK:   -0.37 KCAL/MOL
REMARK 927      BINDING AFFINITY PREDICTED BY RF-SCORE:    0.00 PKD
ROOT
HETATM    1  C   UNL     1      -7.774   9.698  68.466  1.00  0.00    -0.081 C  
HETATM    2  C   UNL     1      -8.820   9.370  67.403  1.00  0.00    -0.135 C  
HETATM    3  C   UNL     1      -9.967  10.356  67.444  1.00  0.00    -0.187 A  
HETATM    4  C   UNL     1      -9.331   7.939  67.555  1.00  0.00    -0.143 C  
HETATM    5  C   UNL     1     -11.089  10.366  68.250  1.00  0.00    -0.338 A  
HETATM    6  O   UNL     1     -10.292   7.600  66.658  1.00  0.00    -0.273 OA 
HETATM    7  O   UNL     1      -8.909   7.129  68.367  1.00  0.00    -0.128 OA 
HETATM    8  C   UNL     1     -11.973  11.440  67.934  1.00  0.00    -0.120 A  
HETATM    9  C   UNL     1     -11.512  12.214  66.884  1.00  0.00    -0.351 A  
HETATM   10  S   UNL     1      -9.962  11.698  66.374  1.00  0.00    -0.213 SA 
ENDROOT
BRANCH   9  11
HETATM   11  C   UNL     1     -12.147  13.338  66.205  1.00  0.00    -0.421 C  
HETATM   12  O   UNL     1     -13.145  13.233  65.495  1.00  0.00    -0.529 OA 
BRANCH  11  13
HETATM   13  C   UNL     1     -11.564  14.706  66.385  1.00  0.00    -0.343 A  
HETATM   14  C   UNL     1     -11.127  15.464  65.288  1.00  0.00    -0.367 A  
HETATM   15  C   UNL     1     -10.616  16.747  65.477  1.00  0.00    -0.243 A  
HETATM   16  C   UNL     1     -10.514  17.271  66.764  1.00  0.00    -0.261 A  
HETATM   17  C   UNL     1     -10.905  16.507  67.863  1.00  0.00    -0.326 A  
HETATM   18  C   UNL     1     -11.425  15.224  67.676  1.00  0.00    -0.287 A  
ENDBRANCH  11  13
ENDBRANCH   9  11
TORSDOF 2
ENDMDL
MODEL      111
REMARK 921   NORMALIZED FREE ENERGY PREDICTED BY IDOCK:   -4.34 KCAL/MOL
REMARK 922        TOTAL FREE ENERGY PREDICTED BY IDOCK:   -5.11 KCAL/MOL
REMARK 923 INTER-LIGAND FREE ENERGY PREDICTED BY IDOCK:   -4.74 KCAL/MOL
REMARK 924 INTRA-LIGAND FREE ENERGY PREDICTED BY IDOCK:   -0.38 KCAL/MOL
REMARK 927      BINDING AFFINITY PREDICTED BY RF-SCORE:    0.00 PKD
ROOT
HETATM    1  C   UNL     1      -6.919  20.099  66.288  1.00  0.00    -0.281 C  
HETATM    2  C   UNL     1      -7.044  18.966  67.304  1.00  0.00    -0.216 C  
HETATM    3  C   UNL     1      -8.405  18.311  67.227  1.00  0.00    -0.246 A  
HETATM    4  C   UNL     1      -6.762  19.463  68.720  1.00  0.00    -0.303 C  
HETATM    5  C   UNL     1      -9.598  18.689  67.813  1.00  0.00    -0.332 A  
HETATM    6  O   UNL     1      -6.893  18.505  69.675  1.00  0.00    -0.141 OA 
HETATM    7  O   UNL     1      -6.407  20.596  69.007  1.00  0.00    -0.294 OA 
HETATM    8  C   UNL     1     -10.649  17.763  67.546  1.00  0.00    -0.365 A  
HETATM    9  C   UNL     1     -10.231  16.693  66.777  1.00  0.00    -0.301 A  
HETATM   10  S   UNL     1      -8.601  16.884  66.293  1.00  0.00    -0.258 SA 
ENDROOT
BRANCH   9  11
HETATM   11  C   UNL     1     -10.961  15.501  66.360  1.00  0.00    -0.238 C  
HETATM   12  O   UNL     1     -11.548  15.399  65.285  1.00  0.00    -0.212 OA 
BRANCH  11  13
HETATM   13  C   UNL     1     -10.995  14.322  67.283  1.00  0.00    -0.302 A  
HETATM   14  C   UNL     1      -9.982  13.351  67.264  1.00  0.00    -0.232 A  
HETATM   15  C   UNL     1     -10.019  12.277  68.153  1.00  0.00    -0.210 A  
HETATM   16  C   UNL     1     -11.080  12.153  69.048  1.00  0.00    -0.290 A  
HETATM   17  C   UNL     1     -12.113  13.090  69.042  1.00  0.00    -0.220 A  
HETATM   18  C   UNL     1     -12.075  14.171  68.159  1.00  0.00    -0.297 A  
ENDBRANCH  11  13
ENDBRANCH   9  11
TORSDOF 2
ENDMDL
MODEL      112
REMARK 921   NORMALIZED FREE ENERGY PREDICTED BY IDOCK:   -4.34 KCAL/MOL
REMARK 922        TOTAL FREE ENERGY PREDICTED BY IDOCK:   -5.11 KCAL/MOL
REMARK 923 INTER-LIGAND FREE ENERGY PREDICTED BY IDOCK:   -4.71 KCAL/MOL
REMARK 924 INTRA-LIGAND FREE ENERGY PREDICTED BY IDOCK:   -0.40 KCAL/MOL
REMARK 927      BINDING AFFINITY PREDICTED BY RF-SCORE:    0.00 PKD
ROOT
HETATM    1  C   UNL     1     -14.337  15.442  71.019  1.00  0.00    -0.138 C  
HETATM    2  C   UNL     1     -12.824  15.244  71.054  1.00  0.00    -0.505 C  
HETATM    3  C   UNL     1     -12.437  13.892  70.495  1.00  0.00    -0.352 A  
HETATM    4  C   UNL     1     -12.278  15.420  72.469  1.00  0.00    -0.404 C  
HETATM    5  C   UNL     1     -12.405  12.659  71.117  1.00  0.00    -0.245 A  
HETATM    6  O   UNL     1     -10.939  15.220  72.571  1.00  0.00    -0.111 OA 
HETATM    7  O   UNL     1     -12.943  15.752  73.440  1.00  0.00    -0.489 OA 
HETATM    8  C   UNL     1     -11.919  11.631  70.256  1.00  0.00    -0.445 A  
HETATM    9  C   UNL     1     -11.576  12.106  69.003  1.00  0.00    -0.319 A  
HETATM   10  S   UNL     1     -11.957  13.768  68.851  1.00  0.00    -0.330 SA 
ENDROOT
BRANCH   9  11
HETATM   11  C   UNL     1     -10.968  11.410  67.875  1.00  0.00    -0.240 C  
HETATM   12  O   UNL     1     -11.568  11.136  66.837  1.00  0.00    -0.428 OA 
BRANCH  11  13
HETATM   13  C   UNL     1      -9.528  11.012  67.970  1.00  0.00    -0.169 A  
HETATM   14  C   UNL     1      -9.143   9.663  68.002  1.00  0.00    -0.128 A  
HETATM   15  C   UNL     1      -7.794   9.317  68.060  1.00  0.00    -0.092 A  
HETATM   16  C   UNL     1      -6.822  10.315  68.114  1.00  0.00    -0.066 A  
HETATM   17  C   UNL     1      -7.199  11.657  68.128  1.00  0.00    -0.085 A  
HETATM   18  C   UNL     1      -8.549  12.008  68.061  1.00  0.00    -0.170 A  
ENDBRANCH  11  13
ENDBRANCH   9  11
TORSDOF 2
ENDMDL
MODEL      113
REMARK 921   NORMALIZED FREE ENERGY PREDICTED BY IDOCK:   -4.32 KCAL/MOL
REMARK 922        TOTAL FREE ENERGY PREDICTED BY IDOCK:   -5.09 KCAL/MOL
REMARK 923 INTER-LIGAND FREE ENERGY PREDICTED BY IDOCK:   -4.71 KCAL/MOL
REMARK 924 INTRA-LIGAND FREE ENERGY PREDICTED BY IDOCK:   -0.38 KCAL/MOL
REMARK 927      BINDING AFFINITY PREDICTED BY RF-SCORE:    0.00 PKD
ROOT
HETATM    1  C   UNL     1     -11.481  12.135  69.351  1.00  0.00    -0.355 C  
HETATM    2  C   UNL     1     -11.369  10.638  69.075  1.00  0.00    -0.340 C  
HETATM    3  C   UNL     1     -10.356   9.988  69.990  1.00  0.00    -0.272 A  
HETATM    4  C   UNL     1     -11.025  10.372  67.611  1.00  0.00    -0.312 C  
HETATM    5  C   UNL     1      -8.982   9.904  69.863  1.00  0.00    -0.231 A  
HETATM    6  O   UNL     1     -10.877   9.056  67.312  1.00  0.00    -0.223 OA 
HETATM    7  O   UNL     1     -10.926  11.232  66.748  1.00  0.00    -0.282 OA 
HETATM    8  C   UNL     1      -8.387   9.147  70.915  1.00  0.00    -0.231 A  
HETATM    9  C   UNL     1      -9.321   8.659  71.811  1.00  0.00    -0.273 A  
HETATM   10  S   UNL     1     -10.891   9.220  71.429  1.00  0.00    -0.363 SA 
ENDROOT
BRANCH   9  11
HETATM   11  C   UNL     1      -9.140   7.780  72.962  1.00  0.00    -0.211 C  
HETATM   12  O   UNL     1      -8.686   8.152  74.042  1.00  0.00    -0.258 OA 
BRANCH  11  13
HETATM   13  C   UNL     1      -9.540   6.342  72.835  1.00  0.00    -0.158 A  
HETATM   14  C   UNL     1     -10.716   5.856  73.426  1.00  0.00    -0.293 A  
HETATM   15  C   UNL     1     -11.082   4.520  73.269  1.00  0.00    -0.389 A  
HETATM   16  C   UNL     1     -10.264   3.656  72.544  1.00  0.00    -0.229 A  
HETATM   17  C   UNL     1      -9.072   4.121  71.991  1.00  0.00    -0.160 A  
HETATM   18  C   UNL     1      -8.706   5.461  72.139  1.00  0.00    -0.130 A  
ENDBRANCH  11  13
ENDBRANCH   9  11
TORSDOF 2
ENDMDL
MODEL      114
REMARK 921   NORMALIZED FREE ENERGY PREDICTED BY IDOCK:   -4.32 KCAL/MOL
REMARK 922        TOTAL FREE ENERGY PREDICTED BY IDOCK:   -5.09 KCAL/MOL
REMARK 923 INTER-LIGAND FREE ENERGY PREDICTED BY IDOCK:   -4.72 KCAL/MOL
REMARK 924 INTRA-LIGAND FREE ENERGY PREDICTED BY IDOCK:   -0.37 KCAL/MOL
REMARK 927      BINDING AFFINITY PREDICTED BY RF-SCORE:    0.00 PKD
ROOT
HETATM    1  C   UNL     1      -7.321   6.676  68.289  1.00  0.00    -0.090 C  
HETATM    2  C   UNL     1      -8.145   6.103  69.441  1.00  0.00    -0.112 C  
HETATM    3  C   UNL     1      -8.948   7.185  70.128  1.00  0.00    -0.145 A  
HETATM    4  C   UNL     1      -7.256   5.370  70.443  1.00  0.00    -0.063 C  
HETATM    5  C   UNL     1      -8.564   8.071  71.117  1.00  0.00    -0.145 A  
HETATM    6  O   UNL     1      -7.929   4.868  71.510  1.00  0.00    -0.104 OA 
HETATM    7  O   UNL     1      -6.054   5.191  70.312  1.00  0.00    -0.017 OA 
HETATM    8  C   UNL     1      -9.642   8.900  71.548  1.00  0.00    -0.362 A  
HETATM    9  C   UNL     1     -10.825   8.617  70.890  1.00  0.00    -0.239 A  
HETATM   10  S   UNL     1     -10.586   7.431  69.680  1.00  0.00    -0.232 SA 
ENDROOT
BRANCH   9  11
HETATM   11  C   UNL     1     -12.161   9.167  71.093  1.00  0.00    -0.299 C  
HETATM   12  O   UNL     1     -13.151   8.483  71.344  1.00  0.00    -0.303 OA 
BRANCH  11  13
HETATM   13  C   UNL     1     -12.346  10.650  71.004  1.00  0.00    -0.507 A  
HETATM   14  C   UNL     1     -13.084  11.354  71.968  1.00  0.00    -0.423 A  
HETATM   15  C   UNL     1     -13.217  12.739  71.880  1.00  0.00    -0.511 A  
HETATM   16  C   UNL     1     -12.638  13.427  70.816  1.00  0.00    -0.369 A  
HETATM   17  C   UNL     1     -11.941  12.729  69.830  1.00  0.00    -0.362 A  
HETATM   18  C   UNL     1     -11.798  11.343  69.919  1.00  0.00    -0.435 A  
ENDBRANCH  11  13
ENDBRANCH   9  11
TORSDOF 2
ENDMDL
MODEL      115
REMARK 921   NORMALIZED FREE ENERGY PREDICTED BY IDOCK:   -4.32 KCAL/MOL
REMARK 922        TOTAL FREE ENERGY PREDICTED BY IDOCK:   -5.09 KCAL/MOL
REMARK 923 INTER-LIGAND FREE ENERGY PREDICTED BY IDOCK:   -4.73 KCAL/MOL
REMARK 924 INTRA-LIGAND FREE ENERGY PREDICTED BY IDOCK:   -0.36 KCAL/MOL
REMARK 927      BINDING AFFINITY PREDICTED BY RF-SCORE:    0.00 PKD
ROOT
HETATM    1  C   UNL     1     -10.468   4.995  66.084  1.00  0.00    -0.334 C  
HETATM    2  C   UNL     1      -9.891   4.423  67.377  1.00  0.00    -0.193 C  
HETATM    3  C   UNL     1      -9.611   5.519  68.382  1.00  0.00    -0.124 A  
HETATM    4  C   UNL     1      -8.630   3.606  67.103  1.00  0.00    -0.108 C  
HETATM    5  C   UNL     1      -8.510   6.345  68.499  1.00  0.00    -0.119 A  
HETATM    6  O   UNL     1      -8.048   3.101  68.221  1.00  0.00    -0.068 OA 
HETATM    7  O   UNL     1      -8.177   3.370  65.992  1.00  0.00    -0.092 OA 
HETATM    8  C   UNL     1      -8.603   7.213  69.627  1.00  0.00    -0.137 A  
HETATM    9  C   UNL     1      -9.764   7.017  70.353  1.00  0.00    -0.176 A  
HETATM   10  S   UNL     1     -10.777   5.867  69.593  1.00  0.00    -0.365 SA 
ENDROOT
BRANCH   9  11
HETATM   11  C   UNL     1     -10.196   7.629  71.605  1.00  0.00    -0.185 C  
HETATM   12  O   UNL     1      -9.768   7.301  72.710  1.00  0.00    -0.148 OA 
BRANCH  11  13
HETATM   13  C   UNL     1     -11.211   8.729  71.552  1.00  0.00    -0.377 A  
HETATM   14  C   UNL     1     -10.967   9.914  70.842  1.00  0.00    -0.392 A  
HETATM   15  C   UNL     1     -11.939  10.912  70.782  1.00  0.00    -0.449 A  
HETATM   16  C   UNL     1     -13.150  10.744  71.452  1.00  0.00    -0.469 A  
HETATM   17  C   UNL     1     -13.382   9.587  72.196  1.00  0.00    -0.545 A  
HETATM   18  C   UNL     1     -12.413   8.582  72.251  1.00  0.00    -0.448 A  
ENDBRANCH  11  13
ENDBRANCH   9  11
TORSDOF 2
ENDMDL
MODEL      116
REMARK 921   NORMALIZED FREE ENERGY PREDICTED BY IDOCK:   -4.31 KCAL/MOL
REMARK 922        TOTAL FREE ENERGY PREDICTED BY IDOCK:   -5.08 KCAL/MOL
REMARK 923 INTER-LIGAND FREE ENERGY PREDICTED BY IDOCK:   -4.75 KCAL/MOL
REMARK 924 INTRA-LIGAND FREE ENERGY PREDICTED BY IDOCK:   -0.34 KCAL/MOL
REMARK 927      BINDING AFFINITY PREDICTED BY RF-SCORE:    0.00 PKD
ROOT
HETATM    1  C   UNL     1     -10.131   8.963  66.664  1.00  0.00    -0.357 C  
HETATM    2  C   UNL     1     -10.232   9.456  68.105  1.00  0.00    -0.239 C  
HETATM    3  C   UNL     1     -10.105  10.962  68.177  1.00  0.00    -0.173 A  
HETATM    4  C   UNL     1      -9.189   8.782  68.993  1.00  0.00    -0.141 C  
HETATM    5  C   UNL     1      -8.969  11.748  68.207  1.00  0.00    -0.180 A  
HETATM    6  O   UNL     1      -9.206   9.207  70.282  1.00  0.00    -0.181 OA 
HETATM    7  O   UNL     1      -8.420   7.905  68.627  1.00  0.00    -0.127 OA 
HETATM    8  C   UNL     1      -9.274  13.135  68.342  1.00  0.00    -0.141 A  
HETATM    9  C   UNL     1     -10.634  13.373  68.428  1.00  0.00    -0.248 A  
HETATM   10  S   UNL     1     -11.525  11.925  68.229  1.00  0.00    -0.334 SA 
ENDROOT
BRANCH   9  11
HETATM   11  C   UNL     1     -11.350  14.622  68.656  1.00  0.00    -0.283 C  
HETATM   12  O   UNL     1     -12.257  14.751  69.476  1.00  0.00    -0.296 OA 
BRANCH  11  13
HETATM   13  C   UNL     1     -10.959  15.829  67.860  1.00  0.00    -0.324 A  
HETATM   14  C   UNL     1     -10.763  17.076  68.473  1.00  0.00    -0.352 A  
HETATM   15  C   UNL     1     -10.368  18.178  67.715  1.00  0.00    -0.413 A  
HETATM   16  C   UNL     1     -10.194  18.049  66.339  1.00  0.00    -0.393 A  
HETATM   17  C   UNL     1     -10.430  16.823  65.717  1.00  0.00    -0.305 A  
HETATM   18  C   UNL     1     -10.816  15.715  66.473  1.00  0.00    -0.260 A  
ENDBRANCH  11  13
ENDBRANCH   9  11
TORSDOF 2
ENDMDL
MODEL      117
REMARK 921   NORMALIZED FREE ENERGY PREDICTED BY IDOCK:   -4.30 KCAL/MOL
REMARK 922        TOTAL FREE ENERGY PREDICTED BY IDOCK:   -5.07 KCAL/MOL
REMARK 923 INTER-LIGAND FREE ENERGY PREDICTED BY IDOCK:   -4.68 KCAL/MOL
REMARK 924 INTRA-LIGAND FREE ENERGY PREDICTED BY IDOCK:   -0.40 KCAL/MOL
REMARK 927      BINDING AFFINITY PREDICTED BY RF-SCORE:    0.00 PKD
ROOT
HETATM    1  C   UNL     1      -9.438   4.939  69.803  1.00  0.00    -0.223 C  
HETATM    2  C   UNL     1      -8.876   5.267  68.421  1.00  0.00    -0.105 C  
HETATM    3  C   UNL     1      -9.446   6.565  67.894  1.00  0.00    -0.120 A  
HETATM    4  C   UNL     1      -9.129   4.126  67.439  1.00  0.00    -0.144 C  
HETATM    5  C   UNL     1     -10.638   6.799  67.236  1.00  0.00    -0.390 A  
HETATM    6  O   UNL     1      -8.681   4.375  66.181  1.00  0.00    -0.113 OA 
HETATM    7  O   UNL     1      -9.643   3.055  67.727  1.00  0.00    -0.196 OA 
HETATM    8  C   UNL     1     -10.781   8.163  66.843  1.00  0.00    -0.186 A  
HETATM    9  C   UNL     1      -9.688   8.934  67.196  1.00  0.00    -0.184 A  
HETATM   10  S   UNL     1      -8.557   8.020  68.099  1.00  0.00    -0.126 SA 
ENDROOT
BRANCH   9  11
HETATM   11  C   UNL     1      -9.401  10.335  66.908  1.00  0.00    -0.158 C  
HETATM   12  O   UNL     1      -8.478  10.964  67.422  1.00  0.00    -0.119 OA 
BRANCH  11  13
HETATM   13  C   UNL     1     -10.268  11.055  65.922  1.00  0.00    -0.309 A  
HETATM   14  C   UNL     1     -10.040  10.957  64.541  1.00  0.00    -0.404 A  
HETATM   15  C   UNL     1     -10.878  11.613  63.641  1.00  0.00    -0.503 A  
HETATM   16  C   UNL     1     -11.933  12.392  64.114  1.00  0.00    -0.518 A  
HETATM   17  C   UNL     1     -12.138  12.530  65.486  1.00  0.00    -0.481 A  
HETATM   18  C   UNL     1     -11.305  11.868  66.391  1.00  0.00    -0.400 A  
ENDBRANCH  11  13
ENDBRANCH   9  11
TORSDOF 2
ENDMDL
MODEL      118
REMARK 921   NORMALIZED FREE ENERGY PREDICTED BY IDOCK:   -4.30 KCAL/MOL
REMARK 922        TOTAL FREE ENERGY PREDICTED BY IDOCK:   -5.07 KCAL/MOL
REMARK 923 INTER-LIGAND FREE ENERGY PREDICTED BY IDOCK:   -4.72 KCAL/MOL
REMARK 924 INTRA-LIGAND FREE ENERGY PREDICTED BY IDOCK:   -0.36 KCAL/MOL
REMARK 927      BINDING AFFINITY PREDICTED BY RF-SCORE:    0.00 PKD
ROOT
HETATM    1  C   UNL     1      -7.685   4.205  69.779  1.00  0.00    -0.053 C  
HETATM    2  C   UNL     1      -8.031   5.571  69.191  1.00  0.00    -0.095 C  
HETATM    3  C   UNL     1      -9.349   6.081  69.731  1.00  0.00    -0.149 A  
HETATM    4  C   UNL     1      -8.053   5.524  67.665  1.00  0.00    -0.101 C  
HETATM    5  C   UNL     1     -10.636   5.806  69.312  1.00  0.00    -0.376 A  
HETATM    6  O   UNL     1      -8.390   6.704  67.083  1.00  0.00    -0.112 OA 
HETATM    7  O   UNL     1      -7.760   4.547  66.991  1.00  0.00    -0.088 OA 
HETATM    8  C   UNL     1     -11.613   6.541  70.046  1.00  0.00    -0.455 A  
HETATM    9  C   UNL     1     -11.047   7.372  70.997  1.00  0.00    -0.258 A  
HETATM   10  S   UNL     1      -9.350   7.162  71.064  1.00  0.00    -0.158 SA 
ENDROOT
BRANCH   9  11
HETATM   11  C   UNL     1     -11.680   8.340  71.885  1.00  0.00    -0.322 C  
HETATM   12  O   UNL     1     -11.993   8.098  73.049  1.00  0.00    -0.269 OA 
BRANCH  11  13
HETATM   13  C   UNL     1     -11.958   9.716  71.364  1.00  0.00    -0.480 A  
HETATM   14  C   UNL     1     -11.191  10.274  70.330  1.00  0.00    -0.395 A  
HETATM   15  C   UNL     1     -11.489  11.546  69.840  1.00  0.00    -0.340 A  
HETATM   16  C   UNL     1     -12.535  12.278  70.398  1.00  0.00    -0.221 A  
HETATM   17  C   UNL     1     -13.273  11.748  71.456  1.00  0.00    -0.292 A  
HETATM   18  C   UNL     1     -12.984  10.471  71.943  1.00  0.00    -0.553 A  
ENDBRANCH  11  13
ENDBRANCH   9  11
TORSDOF 2
ENDMDL
MODEL      119
REMARK 921   NORMALIZED FREE ENERGY PREDICTED BY IDOCK:   -4.30 KCAL/MOL
REMARK 922        TOTAL FREE ENERGY PREDICTED BY IDOCK:   -5.07 KCAL/MOL
REMARK 923 INTER-LIGAND FREE ENERGY PREDICTED BY IDOCK:   -4.77 KCAL/MOL
REMARK 924 INTRA-LIGAND FREE ENERGY PREDICTED BY IDOCK:   -0.30 KCAL/MOL
REMARK 927      BINDING AFFINITY PREDICTED BY RF-SCORE:    0.00 PKD
ROOT
HETATM    1  C   UNL     1      -9.176   7.546  66.182  1.00  0.00    -0.156 C  
HETATM    2  C   UNL     1     -10.304   7.700  67.199  1.00  0.00    -0.385 C  
HETATM    3  C   UNL     1     -10.211   9.027  67.920  1.00  0.00    -0.221 A  
HETATM    4  C   UNL     1     -10.308   6.543  68.196  1.00  0.00    -0.187 C  
HETATM    5  C   UNL     1      -9.451   9.380  69.018  1.00  0.00    -0.160 A  
HETATM    6  O   UNL     1     -11.269   6.643  69.150  1.00  0.00    -0.278 OA 
HETATM    7  O   UNL     1      -9.563   5.576  68.148  1.00  0.00    -0.111 OA 
HETATM    8  C   UNL     1      -9.696  10.722  69.437  1.00  0.00    -0.088 A  
HETATM    9  C   UNL     1     -10.648  11.355  68.659  1.00  0.00    -0.199 A  
HETATM   10  S   UNL     1     -11.147  10.354  67.363  1.00  0.00    -0.119 SA 
ENDROOT
BRANCH   9  11
HETATM   11  C   UNL     1     -11.240  12.680  68.802  1.00  0.00    -0.280 C  
HETATM   12  O   UNL     1     -11.273  13.516  67.901  1.00  0.00    -0.254 OA 
BRANCH  11  13
HETATM   13  C   UNL     1     -11.858  13.051  70.115  1.00  0.00    -0.324 A  
HETATM   14  C   UNL     1     -12.496  12.093  70.918  1.00  0.00    -0.374 A  
HETATM   15  C   UNL     1     -13.037  12.456  72.151  1.00  0.00    -0.419 A  
HETATM   16  C   UNL     1     -12.969  13.782  72.577  1.00  0.00    -0.431 A  
HETATM   17  C   UNL     1     -12.376  14.747  71.764  1.00  0.00    -0.414 A  
HETATM   18  C   UNL     1     -11.825  14.385  70.532  1.00  0.00    -0.367 A  
ENDBRANCH  11  13
ENDBRANCH   9  11
TORSDOF 2
ENDMDL
MODEL      120
REMARK 921   NORMALIZED FREE ENERGY PREDICTED BY IDOCK:   -4.25 KCAL/MOL
REMARK 922        TOTAL FREE ENERGY PREDICTED BY IDOCK:   -5.01 KCAL/MOL
REMARK 923 INTER-LIGAND FREE ENERGY PREDICTED BY IDOCK:   -5.11 KCAL/MOL
REMARK 924 INTRA-LIGAND FREE ENERGY PREDICTED BY IDOCK:    0.10 KCAL/MOL
REMARK 927      BINDING AFFINITY PREDICTED BY RF-SCORE:    0.00 PKD
ROOT
HETATM    1  C   UNL     1     -11.725  14.470  64.110  1.00  0.00    -0.222 C  
HETATM    2  C   UNL     1     -10.454  14.260  64.929  1.00  0.00    -0.454 C  
HETATM    3  C   UNL     1     -10.625  13.134  65.924  1.00  0.00    -0.280 A  
HETATM    4  C   UNL     1     -10.035  15.547  65.636  1.00  0.00    -0.360 C  
HETATM    5  C   UNL     1     -11.188  13.153  67.186  1.00  0.00    -0.326 A  
HETATM    6  O   UNL     1      -8.928  15.414  66.411  1.00  0.00    -0.281 OA 
HETATM    7  O   UNL     1     -10.591  16.628  65.509  1.00  0.00    -0.466 OA 
HETATM    8  C   UNL     1     -11.101  11.886  67.837  1.00  0.00    -0.297 A  
HETATM    9  C   UNL     1     -10.461  10.936  67.063  1.00  0.00    -0.244 A  
HETATM   10  S   UNL     1     -10.077  11.559  65.516  1.00  0.00    -0.254 SA 
ENDROOT
BRANCH   9  11
HETATM   11  C   UNL     1     -10.095   9.561  67.386  1.00  0.00    -0.208 C  
HETATM   12  O   UNL     1      -9.498   8.813  66.615  1.00  0.00    -0.170 OA 
BRANCH  11  13
HETATM   13  C   UNL     1     -10.452   9.023  68.737  1.00  0.00    -0.230 A  
HETATM   14  C   UNL     1     -10.314   9.805  69.894  1.00  0.00    -0.291 A  
HETATM   15  C   UNL     1     -10.682   9.293  71.138  1.00  0.00    -0.403 A  
HETATM   16  C   UNL     1     -11.163   7.988  71.238  1.00  0.00    -0.287 A  
HETATM   17  C   UNL     1     -11.260   7.191  70.098  1.00  0.00    -0.295 A  
HETATM   18  C   UNL     1     -10.901   7.703  68.849  1.00  0.00    -0.043 A  
ENDBRANCH  11  13
ENDBRANCH   9  11
TORSDOF 2
ENDMDL
MODEL      121
REMARK 921   NORMALIZED FREE ENERGY PREDICTED BY IDOCK:   -4.22 KCAL/MOL
REMARK 922        TOTAL FREE ENERGY PREDICTED BY IDOCK:   -4.99 KCAL/MOL
REMARK 923 INTER-LIGAND FREE ENERGY PREDICTED BY IDOCK:   -4.96 KCAL/MOL
REMARK 924 INTRA-LIGAND FREE ENERGY PREDICTED BY IDOCK:   -0.03 KCAL/MOL
REMARK 927      BINDING AFFINITY PREDICTED BY RF-SCORE:    0.00 PKD
ROOT
HETATM    1  C   UNL     1      -9.190   7.103  71.325  1.00  0.00    -0.151 C  
HETATM    2  C   UNL     1     -10.586   7.243  70.723  1.00  0.00    -0.237 C  
HETATM    3  C   UNL     1     -10.781   8.611  70.107  1.00  0.00    -0.234 A  
HETATM    4  C   UNL     1     -11.666   6.959  71.765  1.00  0.00    -0.302 C  
HETATM    5  C   UNL     1     -11.146   9.801  70.707  1.00  0.00    -0.415 A  
HETATM    6  O   UNL     1     -12.933   7.103  71.297  1.00  0.00    -0.383 OA 
HETATM    7  O   UNL     1     -11.453   6.593  72.911  1.00  0.00    -0.191 OA 
HETATM    8  C   UNL     1     -11.284  10.862  69.764  1.00  0.00    -0.351 A  
HETATM    9  C   UNL     1     -11.037  10.453  68.466  1.00  0.00    -0.266 A  
HETATM   10  S   UNL     1     -10.530   8.819  68.422  1.00  0.00    -0.136 SA 
ENDROOT
BRANCH   9  11
HETATM   11  C   UNL     1     -11.153  11.195  67.215  1.00  0.00    -0.302 C  
HETATM   12  O   UNL     1     -12.003  12.059  67.009  1.00  0.00    -0.609 OA 
BRANCH  11  13
HETATM   13  C   UNL     1     -10.178  10.904  66.116  1.00  0.00    -0.304 A  
HETATM   14  C   UNL     1     -10.603  10.727  64.791  1.00  0.00    -0.264 A  
HETATM   15  C   UNL     1      -9.674  10.487  63.779  1.00  0.00    -0.385 A  
HETATM   16  C   UNL     1      -8.318  10.396  64.089  1.00  0.00    -0.139 A  
HETATM   17  C   UNL     1      -7.893  10.527  65.410  1.00  0.00    -0.119 A  
HETATM   18  C   UNL     1      -8.820  10.776  66.425  1.00  0.00    -0.174 A  
ENDBRANCH  11  13
ENDBRANCH   9  11
TORSDOF 2
ENDMDL
MODEL      122
REMARK 921   NORMALIZED FREE ENERGY PREDICTED BY IDOCK:   -4.22 KCAL/MOL
REMARK 922        TOTAL FREE ENERGY PREDICTED BY IDOCK:   -4.98 KCAL/MOL
REMARK 923 INTER-LIGAND FREE ENERGY PREDICTED BY IDOCK:   -4.61 KCAL/MOL
REMARK 924 INTRA-LIGAND FREE ENERGY PREDICTED BY IDOCK:   -0.37 KCAL/MOL
REMARK 927      BINDING AFFINITY PREDICTED BY RF-SCORE:    0.00 PKD
ROOT
HETATM    1  C   UNL     1     -11.635  14.255  69.778  1.00  0.00    -0.350 C  
HETATM    2  C   UNL     1     -11.722  13.819  68.317  1.00  0.00    -0.394 C  
HETATM    3  C   UNL     1     -10.841  12.618  68.052  1.00  0.00    -0.225 A  
HETATM    4  C   UNL     1     -11.367  14.969  67.377  1.00  0.00    -0.332 C  
HETATM    5  C   UNL     1      -9.490  12.564  67.771  1.00  0.00    -0.197 A  
HETATM    6  O   UNL     1     -11.392  14.632  66.062  1.00  0.00    -0.339 OA 
HETATM    7  O   UNL     1     -11.119  16.112  67.732  1.00  0.00    -0.323 OA 
HETATM    8  C   UNL     1      -9.042  11.233  67.519  1.00  0.00    -0.151 A  
HETATM    9  C   UNL     1     -10.066  10.306  67.597  1.00  0.00    -0.191 A  
HETATM   10  S   UNL     1     -11.529  11.046  68.088  1.00  0.00    -0.274 SA 
ENDROOT
BRANCH   9  11
HETATM   11  C   UNL     1     -10.049   8.873  67.326  1.00  0.00    -0.239 C  
HETATM   12  O   UNL     1      -9.942   8.391  66.201  1.00  0.00    -0.211 OA 
BRANCH  11  13
HETATM   13  C   UNL     1     -10.157   7.925  68.480  1.00  0.00    -0.216 A  
HETATM   14  C   UNL     1      -9.313   8.033  69.596  1.00  0.00    -0.156 A  
HETATM   15  C   UNL     1      -9.452   7.157  70.672  1.00  0.00    -0.161 A  
HETATM   16  C   UNL     1     -10.417   6.151  70.629  1.00  0.00    -0.292 A  
HETATM   17  C   UNL     1     -11.229   6.010  69.505  1.00  0.00    -0.416 A  
HETATM   18  C   UNL     1     -11.099   6.891  68.429  1.00  0.00    -0.142 A  
ENDBRANCH  11  13
ENDBRANCH   9  11
TORSDOF 2
ENDMDL
MODEL      123
REMARK 921   NORMALIZED FREE ENERGY PREDICTED BY IDOCK:   -4.21 KCAL/MOL
REMARK 922        TOTAL FREE ENERGY PREDICTED BY IDOCK:   -4.97 KCAL/MOL
REMARK 923 INTER-LIGAND FREE ENERGY PREDICTED BY IDOCK:   -4.79 KCAL/MOL
REMARK 924 INTRA-LIGAND FREE ENERGY PREDICTED BY IDOCK:   -0.18 KCAL/MOL
REMARK 927      BINDING AFFINITY PREDICTED BY RF-SCORE:    0.00 PKD
ROOT
HETATM    1  C   UNL     1      -8.053  16.608  66.519  1.00  0.00    -0.337 C  
HETATM    2  C   UNL     1      -9.095  15.893  67.376  1.00  0.00    -0.205 C  
HETATM    3  C   UNL     1      -9.637  14.671  66.669  1.00  0.00    -0.278 A  
HETATM    4  C   UNL     1     -10.227  16.838  67.770  1.00  0.00    -0.303 C  
HETATM    5  C   UNL     1     -10.646  14.574  65.730  1.00  0.00    -0.326 A  
HETATM    6  O   UNL     1     -11.205  16.248  68.505  1.00  0.00    -0.350 OA 
HETATM    7  O   UNL     1     -10.268  18.031  67.505  1.00  0.00    -0.335 OA 
HETATM    8  C   UNL     1     -10.904  13.223  65.350  1.00  0.00    -0.304 A  
HETATM    9  C   UNL     1     -10.097  12.321  66.020  1.00  0.00    -0.248 A  
HETATM   10  S   UNL     1      -8.962  13.130  67.012  1.00  0.00    -0.212 SA 
ENDROOT
BRANCH   9  11
HETATM   11  C   UNL     1     -10.100  10.862  65.987  1.00  0.00    -0.249 C  
HETATM   12  O   UNL     1     -10.548  10.159  66.891  1.00  0.00    -0.238 OA 
BRANCH  11  13
HETATM   13  C   UNL     1      -9.540  10.172  64.783  1.00  0.00    -0.378 A  
HETATM   14  C   UNL     1      -9.616  10.751  63.507  1.00  0.00    -0.359 A  
HETATM   15  C   UNL     1      -9.060  10.102  62.405  1.00  0.00    -0.306 A  
HETATM   16  C   UNL     1      -8.448   8.860  62.565  1.00  0.00    -0.207 A  
HETATM   17  C   UNL     1      -8.408   8.258  63.822  1.00  0.00    -0.027 A  
HETATM   18  C   UNL     1      -8.956   8.909  64.930  1.00  0.00    -0.128 A  
ENDBRANCH  11  13
ENDBRANCH   9  11
TORSDOF 2
ENDMDL
MODEL      124
REMARK 921   NORMALIZED FREE ENERGY PREDICTED BY IDOCK:   -4.19 KCAL/MOL
REMARK 922        TOTAL FREE ENERGY PREDICTED BY IDOCK:   -4.95 KCAL/MOL
REMARK 923 INTER-LIGAND FREE ENERGY PREDICTED BY IDOCK:   -4.63 KCAL/MOL
REMARK 924 INTRA-LIGAND FREE ENERGY PREDICTED BY IDOCK:   -0.31 KCAL/MOL
REMARK 927      BINDING AFFINITY PREDICTED BY RF-SCORE:    0.00 PKD
ROOT
HETATM    1  C   UNL     1     -10.371  11.074  64.547  1.00  0.00    -0.420 C  
HETATM    2  C   UNL     1      -9.839  11.760  65.803  1.00  0.00    -0.267 C  
HETATM    3  C   UNL     1     -10.508  11.217  67.047  1.00  0.00    -0.234 A  
HETATM    4  C   UNL     1     -10.007  13.275  65.716  1.00  0.00    -0.251 C  
HETATM    5  C   UNL     1     -11.716  11.566  67.619  1.00  0.00    -0.283 A  
HETATM    6  O   UNL     1      -9.584  13.940  66.823  1.00  0.00    -0.263 OA 
HETATM    7  O   UNL     1     -10.438  13.877  64.743  1.00  0.00    -0.408 OA 
HETATM    8  C   UNL     1     -11.963  10.860  68.833  1.00  0.00    -0.277 A  
HETATM    9  C   UNL     1     -10.932  10.001  69.167  1.00  0.00    -0.220 A  
HETATM   10  S   UNL     1      -9.732   9.978  67.947  1.00  0.00    -0.149 SA 
ENDROOT
BRANCH   9  11
HETATM   11  C   UNL     1     -10.754   9.173  70.355  1.00  0.00    -0.238 C  
HETATM   12  O   UNL     1      -9.662   8.763  70.746  1.00  0.00    -0.180 OA 
BRANCH  11  13
HETATM   13  C   UNL     1     -11.962   8.805  71.160  1.00  0.00    -0.331 A  
HETATM   14  C   UNL     1     -12.508   9.688  72.103  1.00  0.00    -0.350 A  
HETATM   15  C   UNL     1     -13.651   9.335  72.819  1.00  0.00    -0.240 A  
HETATM   16  C   UNL     1     -14.240   8.088  72.617  1.00  0.00     0.062 A  
HETATM   17  C   UNL     1     -13.677   7.188  71.713  1.00  0.00    -0.361 A  
HETATM   18  C   UNL     1     -12.537   7.541  70.988  1.00  0.00    -0.223 A  
ENDBRANCH  11  13
ENDBRANCH   9  11
TORSDOF 2
ENDMDL
MODEL      125
REMARK 921   NORMALIZED FREE ENERGY PREDICTED BY IDOCK:   -4.18 KCAL/MOL
REMARK 922        TOTAL FREE ENERGY PREDICTED BY IDOCK:   -4.94 KCAL/MOL
REMARK 923 INTER-LIGAND FREE ENERGY PREDICTED BY IDOCK:   -4.56 KCAL/MOL
REMARK 924 INTRA-LIGAND FREE ENERGY PREDICTED BY IDOCK:   -0.37 KCAL/MOL
REMARK 927      BINDING AFFINITY PREDICTED BY RF-SCORE:    0.00 PKD
ROOT
HETATM    1  C   UNL     1     -10.680  18.047  65.835  1.00  0.00    -0.124 C  
HETATM    2  C   UNL     1      -9.911  17.069  66.720  1.00  0.00    -0.283 C  
HETATM    3  C   UNL     1     -10.564  15.704  66.722  1.00  0.00    -0.307 A  
HETATM    4  C   UNL     1      -9.774  17.605  68.144  1.00  0.00    -0.310 C  
HETATM    5  C   UNL     1     -11.620  15.236  67.480  1.00  0.00    -0.223 A  
HETATM    6  O   UNL     1      -9.128  16.761  68.989  1.00  0.00    -0.256 OA 
HETATM    7  O   UNL     1     -10.157  18.704  68.517  1.00  0.00    -0.366 OA 
HETATM    8  C   UNL     1     -11.898  13.860  67.228  1.00  0.00    -0.442 A  
HETATM    9  C   UNL     1     -11.037  13.306  66.297  1.00  0.00    -0.290 A  
HETATM   10  S   UNL     1      -9.980  14.491  65.658  1.00  0.00    -0.326 SA 
ENDROOT
BRANCH   9  11
HETATM   11  C   UNL     1     -10.927  11.929  65.831  1.00  0.00    -0.307 C  
HETATM   12  O   UNL     1     -11.510  11.494  64.839  1.00  0.00    -0.187 OA 
BRANCH  11  13
HETATM   13  C   UNL     1     -10.046  10.984  66.588  1.00  0.00    -0.262 A  
HETATM   14  C   UNL     1     -10.544  10.213  67.649  1.00  0.00    -0.316 A  
HETATM   15  C   UNL     1      -9.711   9.317  68.319  1.00  0.00    -0.167 A  
HETATM   16  C   UNL     1      -8.372   9.205  67.952  1.00  0.00    -0.117 A  
HETATM   17  C   UNL     1      -7.860  10.000  66.927  1.00  0.00    -0.106 A  
HETATM   18  C   UNL     1      -8.692  10.892  66.248  1.00  0.00    -0.175 A  
ENDBRANCH  11  13
ENDBRANCH   9  11
TORSDOF 2
ENDMDL
MODEL      126
REMARK 921   NORMALIZED FREE ENERGY PREDICTED BY IDOCK:   -4.16 KCAL/MOL
REMARK 922        TOTAL FREE ENERGY PREDICTED BY IDOCK:   -4.92 KCAL/MOL
REMARK 923 INTER-LIGAND FREE ENERGY PREDICTED BY IDOCK:   -4.68 KCAL/MOL
REMARK 924 INTRA-LIGAND FREE ENERGY PREDICTED BY IDOCK:   -0.24 KCAL/MOL
REMARK 927      BINDING AFFINITY PREDICTED BY RF-SCORE:    0.00 PKD
ROOT
HETATM    1  C   UNL     1      -7.903   5.992  67.224  1.00  0.00    -0.102 C  
HETATM    2  C   UNL     1      -8.857   6.496  68.304  1.00  0.00    -0.119 C  
HETATM    3  C   UNL     1      -9.105   7.982  68.164  1.00  0.00    -0.134 A  
HETATM    4  C   UNL     1      -8.333   6.165  69.699  1.00  0.00    -0.124 C  
HETATM    5  C   UNL     1      -8.353   9.046  68.622  1.00  0.00    -0.123 A  
HETATM    6  O   UNL     1      -9.123   6.620  70.706  1.00  0.00    -0.150 OA 
HETATM    7  O   UNL     1      -7.325   5.514  69.932  1.00  0.00    -0.065 OA 
HETATM    8  C   UNL     1      -8.964  10.303  68.338  1.00  0.00    -0.132 A  
HETATM    9  C   UNL     1     -10.175  10.168  67.683  1.00  0.00    -0.203 A  
HETATM   10  S   UNL     1     -10.498   8.527  67.321  1.00  0.00    -0.257 SA 
ENDROOT
BRANCH   9  11
HETATM   11  C   UNL     1     -11.144  11.186  67.294  1.00  0.00    -0.302 C  
HETATM   12  O   UNL     1     -11.947  11.699  68.072  1.00  0.00    -0.577 OA 
BRANCH  11  13
HETATM   13  C   UNL     1     -11.165  11.650  65.871  1.00  0.00    -0.296 A  
HETATM   14  C   UNL     1     -12.165  12.513  65.398  1.00  0.00    -0.475 A  
HETATM   15  C   UNL     1     -12.145  12.956  64.076  1.00  0.00    -0.526 A  
HETATM   16  C   UNL     1     -11.144  12.519  63.211  1.00  0.00    -0.286 A  
HETATM   17  C   UNL     1     -10.172  11.626  63.662  1.00  0.00    -0.451 A  
HETATM   18  C   UNL     1     -10.183  11.187  64.988  1.00  0.00    -0.354 A  
ENDBRANCH  11  13
ENDBRANCH   9  11
TORSDOF 2
ENDMDL
MODEL      127
REMARK 921   NORMALIZED FREE ENERGY PREDICTED BY IDOCK:   -4.15 KCAL/MOL
REMARK 922        TOTAL FREE ENERGY PREDICTED BY IDOCK:   -4.90 KCAL/MOL
REMARK 923 INTER-LIGAND FREE ENERGY PREDICTED BY IDOCK:   -4.66 KCAL/MOL
REMARK 924 INTRA-LIGAND FREE ENERGY PREDICTED BY IDOCK:   -0.25 KCAL/MOL
REMARK 927      BINDING AFFINITY PREDICTED BY RF-SCORE:    0.00 PKD
ROOT
HETATM    1  C   UNL     1     -10.679  18.453  67.125  1.00  0.00    -0.366 C  
HETATM    2  C   UNL     1      -9.537  17.551  67.586  1.00  0.00    -0.266 C  
HETATM    3  C   UNL     1     -10.063  16.273  68.200  1.00  0.00    -0.244 A  
HETATM    4  C   UNL     1      -8.617  18.282  68.561  1.00  0.00    -0.306 C  
HETATM    5  C   UNL     1     -10.498  16.031  69.490  1.00  0.00    -0.286 A  
HETATM    6  O   UNL     1      -7.599  17.518  69.035  1.00  0.00    -0.245 OA 
HETATM    7  O   UNL     1      -8.727  19.457  68.879  1.00  0.00    -0.365 OA 
HETATM    8  C   UNL     1     -10.860  14.667  69.691  1.00  0.00    -0.211 A  
HETATM    9  C   UNL     1     -10.679  13.896  68.557  1.00  0.00    -0.257 A  
HETATM   10  S   UNL     1     -10.182  14.860  67.233  1.00  0.00    -0.242 SA 
ENDROOT
BRANCH   9  11
HETATM   11  C   UNL     1     -10.845  12.460  68.368  1.00  0.00    -0.238 C  
HETATM   12  O   UNL     1     -11.612  11.766  69.033  1.00  0.00    -0.257 OA 
BRANCH  11  13
HETATM   13  C   UNL     1     -10.051  11.781  67.295  1.00  0.00    -0.211 A  
HETATM   14  C   UNL     1      -8.678  11.534  67.449  1.00  0.00    -0.147 A  
HETATM   15  C   UNL     1      -7.965  10.873  66.448  1.00  0.00    -0.157 A  
HETATM   16  C   UNL     1      -8.612  10.480  65.278  1.00  0.00    -0.185 A  
HETATM   17  C   UNL     1      -9.966  10.762  65.100  1.00  0.00    -0.351 A  
HETATM   18  C   UNL     1     -10.685  11.416  66.103  1.00  0.00    -0.320 A  
ENDBRANCH  11  13
ENDBRANCH   9  11
TORSDOF 2
ENDMDL
MODEL      128
REMARK 921   NORMALIZED FREE ENERGY PREDICTED BY IDOCK:   -4.13 KCAL/MOL
REMARK 922        TOTAL FREE ENERGY PREDICTED BY IDOCK:   -4.88 KCAL/MOL
REMARK 923 INTER-LIGAND FREE ENERGY PREDICTED BY IDOCK:   -4.53 KCAL/MOL
REMARK 924 INTRA-LIGAND FREE ENERGY PREDICTED BY IDOCK:   -0.36 KCAL/MOL
REMARK 927      BINDING AFFINITY PREDICTED BY RF-SCORE:    0.00 PKD
ROOT
HETATM    1  C   UNL     1      -7.585  16.119  69.256  1.00  0.00    -0.218 C  
HETATM    2  C   UNL     1      -8.592  15.968  68.118  1.00  0.00    -0.171 C  
HETATM    3  C   UNL     1      -8.907  14.512  67.858  1.00  0.00    -0.176 A  
HETATM    4  C   UNL     1      -8.092  16.650  66.846  1.00  0.00    -0.214 C  
HETATM    5  C   UNL     1      -8.220  13.586  67.096  1.00  0.00    -0.126 A  
HETATM    6  O   UNL     1      -8.932  16.518  65.787  1.00  0.00    -0.481 OA 
HETATM    7  O   UNL     1      -7.061  17.299  66.759  1.00  0.00    -0.169 OA 
HETATM    8  C   UNL     1      -8.883  12.324  67.051  1.00  0.00    -0.205 A  
HETATM    9  C   UNL     1     -10.067  12.320  67.766  1.00  0.00    -0.201 A  
HETATM   10  S   UNL     1     -10.300  13.810  68.575  1.00  0.00    -0.233 SA 
ENDROOT
BRANCH   9  11
HETATM   11  C   UNL     1     -11.073  11.273  67.901  1.00  0.00    -0.267 C  
HETATM   12  O   UNL     1     -12.284  11.486  67.920  1.00  0.00    -0.586 OA 
BRANCH  11  13
HETATM   13  C   UNL     1     -10.617   9.851  68.011  1.00  0.00    -0.288 A  
HETATM   14  C   UNL     1     -10.243   9.297  69.244  1.00  0.00    -0.211 A  
HETATM   15  C   UNL     1      -9.851   7.961  69.327  1.00  0.00    -0.177 A  
HETATM   16  C   UNL     1      -9.804   7.179  68.174  1.00  0.00    -0.157 A  
HETATM   17  C   UNL     1     -10.132   7.735  66.938  1.00  0.00    -0.356 A  
HETATM   18  C   UNL     1     -10.533   9.070  66.853  1.00  0.00    -0.293 A  
ENDBRANCH  11  13
ENDBRANCH   9  11
TORSDOF 2
ENDMDL
MODEL      129
REMARK 921   NORMALIZED FREE ENERGY PREDICTED BY IDOCK:   -4.12 KCAL/MOL
REMARK 922        TOTAL FREE ENERGY PREDICTED BY IDOCK:   -4.87 KCAL/MOL
REMARK 923 INTER-LIGAND FREE ENERGY PREDICTED BY IDOCK:   -4.48 KCAL/MOL
REMARK 924 INTRA-LIGAND FREE ENERGY PREDICTED BY IDOCK:   -0.39 KCAL/MOL
REMARK 927      BINDING AFFINITY PREDICTED BY RF-SCORE:    0.00 PKD
ROOT
HETATM    1  C   UNL     1     -12.221   6.424  72.140  1.00  0.00    -0.278 C  
HETATM    2  C   UNL     1     -12.505   7.614  71.226  1.00  0.00    -0.324 C  
HETATM    3  C   UNL     1     -11.227   8.156  70.623  1.00  0.00    -0.260 A  
HETATM    4  C   UNL     1     -13.261   8.712  71.969  1.00  0.00    -0.386 C  
HETATM    5  C   UNL     1     -10.314   9.046  71.153  1.00  0.00    -0.362 A  
HETATM    6  O   UNL     1     -13.511   9.814  71.216  1.00  0.00    -0.376 OA 
HETATM    7  O   UNL     1     -13.660   8.630  73.122  1.00  0.00    -0.134 OA 
HETATM    8  C   UNL     1      -9.266   9.356  70.236  1.00  0.00    -0.285 A  
HETATM    9  C   UNL     1      -9.413   8.707  69.024  1.00  0.00    -0.153 A  
HETATM   10  S   UNL     1     -10.754   7.645  69.054  1.00  0.00    -0.054 SA 
ENDROOT
BRANCH   9  11
HETATM   11  C   UNL     1      -8.619   8.815  67.805  1.00  0.00    -0.129 C  
HETATM   12  O   UNL     1      -7.538   8.252  67.640  1.00  0.00    -0.095 OA 
BRANCH  11  13
HETATM   13  C   UNL     1      -9.147   9.647  66.677  1.00  0.00    -0.176 A  
HETATM   14  C   UNL     1      -9.915  10.797  66.915  1.00  0.00    -0.240 A  
HETATM   15  C   UNL     1     -10.370  11.573  65.850  1.00  0.00    -0.293 A  
HETATM   16  C   UNL     1     -10.083  11.192  64.540  1.00  0.00    -0.364 A  
HETATM   17  C   UNL     1      -9.358  10.027  64.295  1.00  0.00    -0.345 A  
HETATM   18  C   UNL     1      -8.893   9.251  65.360  1.00  0.00    -0.230 A  
ENDBRANCH  11  13
ENDBRANCH   9  11
TORSDOF 2
ENDMDL
MODEL      130
REMARK 921   NORMALIZED FREE ENERGY PREDICTED BY IDOCK:   -4.07 KCAL/MOL
REMARK 922        TOTAL FREE ENERGY PREDICTED BY IDOCK:   -4.82 KCAL/MOL
REMARK 923 INTER-LIGAND FREE ENERGY PREDICTED BY IDOCK:   -4.47 KCAL/MOL
REMARK 924 INTRA-LIGAND FREE ENERGY PREDICTED BY IDOCK:   -0.35 KCAL/MOL
REMARK 927      BINDING AFFINITY PREDICTED BY RF-SCORE:    0.00 PKD
ROOT
HETATM    1  C   UNL     1      -8.505   6.088  65.050  1.00  0.00    -0.089 C  
HETATM    2  C   UNL     1      -9.386   5.830  66.270  1.00  0.00    -0.171 C  
HETATM    3  C   UNL     1      -9.234   6.930  67.296  1.00  0.00    -0.127 A  
HETATM    4  C   UNL     1      -9.082   4.467  66.889  1.00  0.00    -0.124 C  
HETATM    5  C   UNL     1      -8.277   7.090  68.280  1.00  0.00    -0.124 A  
HETATM    6  O   UNL     1      -9.811   4.194  68.002  1.00  0.00    -0.122 OA 
HETATM    7  O   UNL     1      -8.296   3.650  66.432  1.00  0.00    -0.102 OA 
HETATM    8  C   UNL     1      -8.522   8.237  69.092  1.00  0.00    -0.127 A  
HETATM    9  C   UNL     1      -9.668   8.916  68.719  1.00  0.00    -0.164 A  
HETATM   10  S   UNL     1     -10.366   8.220  67.320  1.00  0.00    -0.309 SA 
ENDROOT
BRANCH   9  11
HETATM   11  C   UNL     1     -10.310  10.071  69.335  1.00  0.00    -0.227 C  
HETATM   12  O   UNL     1     -10.045  11.237  69.046  1.00  0.00    -0.198 OA 
BRANCH  11  13
HETATM   13  C   UNL     1     -11.364   9.837  70.373  1.00  0.00    -0.362 A  
HETATM   14  C   UNL     1     -11.540   8.576  70.963  1.00  0.00    -0.317 A  
HETATM   15  C   UNL     1     -12.508   8.390  71.950  1.00  0.00    -0.390 A  
HETATM   16  C   UNL     1     -13.323   9.453  72.333  1.00  0.00    -0.503 A  
HETATM   17  C   UNL     1     -13.184  10.697  71.719  1.00  0.00    -0.526 A  
HETATM   18  C   UNL     1     -12.209  10.890  70.737  1.00  0.00    -0.483 A  
ENDBRANCH  11  13
ENDBRANCH   9  11
TORSDOF 2
ENDMDL
MODEL      131
REMARK 921   NORMALIZED FREE ENERGY PREDICTED BY IDOCK:   -4.07 KCAL/MOL
REMARK 922        TOTAL FREE ENERGY PREDICTED BY IDOCK:   -4.81 KCAL/MOL
REMARK 923 INTER-LIGAND FREE ENERGY PREDICTED BY IDOCK:   -4.40 KCAL/MOL
REMARK 924 INTRA-LIGAND FREE ENERGY PREDICTED BY IDOCK:   -0.41 KCAL/MOL
REMARK 927      BINDING AFFINITY PREDICTED BY RF-SCORE:    0.00 PKD
ROOT
HETATM    1  C   UNL     1     -11.950  13.835  69.877  1.00  0.00    -0.412 C  
HETATM    2  C   UNL     1     -12.166  12.713  68.864  1.00  0.00    -0.001 C  
HETATM    3  C   UNL     1     -11.198  11.574  69.096  1.00  0.00    -0.274 A  
HETATM    4  C   UNL     1     -12.056  13.234  67.433  1.00  0.00    -0.278 C  
HETATM    5  C   UNL     1      -9.893  11.429  68.667  1.00  0.00    -0.199 A  
HETATM    6  O   UNL     1     -12.204  12.273  66.485  1.00  0.00    -0.588 OA 
HETATM    7  O   UNL     1     -11.894  14.406  67.126  1.00  0.00    -0.388 OA 
HETATM    8  C   UNL     1      -9.336  10.171  69.044  1.00  0.00    -0.192 A  
HETATM    9  C   UNL     1     -10.235   9.380  69.737  1.00  0.00    -0.220 A  
HETATM   10  S   UNL     1     -11.699  10.218  70.021  1.00  0.00    -0.235 SA 
ENDROOT
BRANCH   9  11
HETATM   11  C   UNL     1     -10.094   8.010  70.219  1.00  0.00    -0.192 C  
HETATM   12  O   UNL     1     -10.102   7.699  71.409  1.00  0.00    -0.182 OA 
BRANCH  11  13
HETATM   13  C   UNL     1      -9.944   6.909  69.215  1.00  0.00    -0.164 A  
HETATM   14  C   UNL     1      -8.956   5.923  69.355  1.00  0.00    -0.122 A  
HETATM   15  C   UNL     1      -8.856   4.890  68.423  1.00  0.00    -0.115 A  
HETATM   16  C   UNL     1      -9.723   4.851  67.333  1.00  0.00    -0.195 A  
HETATM   17  C   UNL     1     -10.678   5.852  67.164  1.00  0.00    -0.387 A  
HETATM   18  C   UNL     1     -10.788   6.884  68.099  1.00  0.00    -0.258 A  
ENDBRANCH  11  13
ENDBRANCH   9  11
TORSDOF 2
ENDMDL
MODEL      132
REMARK 921   NORMALIZED FREE ENERGY PREDICTED BY IDOCK:   -4.05 KCAL/MOL
REMARK 922        TOTAL FREE ENERGY PREDICTED BY IDOCK:   -4.79 KCAL/MOL
REMARK 923 INTER-LIGAND FREE ENERGY PREDICTED BY IDOCK:   -4.63 KCAL/MOL
REMARK 924 INTRA-LIGAND FREE ENERGY PREDICTED BY IDOCK:   -0.16 KCAL/MOL
REMARK 927      BINDING AFFINITY PREDICTED BY RF-SCORE:    0.00 PKD
ROOT
HETATM    1  C   UNL     1     -12.702  12.976  72.512  1.00  0.00     0.189 C  
HETATM    2  C   UNL     1     -13.197  13.792  71.320  1.00  0.00    -0.331 C  
HETATM    3  C   UNL     1     -12.057  14.144  70.389  1.00  0.00    -0.346 A  
HETATM    4  C   UNL     1     -13.928  15.051  71.780  1.00  0.00    -0.501 C  
HETATM    5  C   UNL     1     -11.152  15.185  70.462  1.00  0.00    -0.294 A  
HETATM    6  O   UNL     1     -14.362  15.838  70.761  1.00  0.00    -0.121 OA 
HETATM    7  O   UNL     1     -14.162  15.339  72.945  1.00  0.00    -0.318 OA 
HETATM    8  C   UNL     1     -10.263  15.208  69.346  1.00  0.00    -0.244 A  
HETATM    9  C   UNL     1     -10.522  14.195  68.442  1.00  0.00    -0.254 A  
HETATM   10  S   UNL     1     -11.761  13.162  69.013  1.00  0.00    -0.326 SA 
ENDROOT
BRANCH   9  11
HETATM   11  C   UNL     1      -9.909  13.921  67.146  1.00  0.00    -0.241 C  
HETATM   12  O   UNL     1      -9.460  14.793  66.404  1.00  0.00    -0.271 OA 
BRANCH  11  13
HETATM   13  C   UNL     1      -9.805  12.499  66.688  1.00  0.00    -0.245 A  
HETATM   14  C   UNL     1      -9.173  11.524  67.474  1.00  0.00    -0.166 A  
HETATM   15  C   UNL     1      -9.115  10.200  67.040  1.00  0.00    -0.155 A  
HETATM   16  C   UNL     1      -9.664   9.847  65.809  1.00  0.00    -0.332 A  
HETATM   17  C   UNL     1     -10.255  10.820  65.003  1.00  0.00    -0.373 A  
HETATM   18  C   UNL     1     -10.322  12.146  65.438  1.00  0.00    -0.301 A  
ENDBRANCH  11  13
ENDBRANCH   9  11
TORSDOF 2
ENDMDL
MODEL      133
REMARK 921   NORMALIZED FREE ENERGY PREDICTED BY IDOCK:   -4.03 KCAL/MOL
REMARK 922        TOTAL FREE ENERGY PREDICTED BY IDOCK:   -4.77 KCAL/MOL
REMARK 923 INTER-LIGAND FREE ENERGY PREDICTED BY IDOCK:   -4.64 KCAL/MOL
REMARK 924 INTRA-LIGAND FREE ENERGY PREDICTED BY IDOCK:   -0.13 KCAL/MOL
REMARK 927      BINDING AFFINITY PREDICTED BY RF-SCORE:    0.00 PKD
ROOT
HETATM    1  C   UNL     1      -8.243  15.893  69.029  1.00  0.00    -0.234 C  
HETATM    2  C   UNL     1      -9.641  15.285  68.937  1.00  0.00    -0.220 C  
HETATM    3  C   UNL     1      -9.797  14.462  67.677  1.00  0.00    -0.224 A  
HETATM    4  C   UNL     1     -10.717  16.365  69.014  1.00  0.00    -0.322 C  
HETATM    5  C   UNL     1     -10.114  14.868  66.395  1.00  0.00    -0.296 A  
HETATM    6  O   UNL     1     -11.984  15.888  68.902  1.00  0.00    -0.370 OA 
HETATM    7  O   UNL     1     -10.504  17.553  69.203  1.00  0.00    -0.347 OA 
HETATM    8  C   UNL     1     -10.228  13.770  65.492  1.00  0.00    -0.332 A  
HETATM    9  C   UNL     1     -10.010  12.552  66.109  1.00  0.00    -0.255 A  
HETATM   10  S   UNL     1      -9.558  12.764  67.746  1.00  0.00    -0.211 SA 
ENDROOT
BRANCH   9  11
HETATM   11  C   UNL     1     -10.115  11.200  65.570  1.00  0.00    -0.257 C  
HETATM   12  O   UNL     1     -10.490  10.947  64.426  1.00  0.00    -0.355 OA 
BRANCH  11  13
HETATM   13  C   UNL     1      -9.737  10.047  66.447  1.00  0.00    -0.266 A  
HETATM   14  C   UNL     1     -10.646   9.498  67.364  1.00  0.00    -0.337 A  
HETATM   15  C   UNL     1     -10.281   8.405  68.149  1.00  0.00    -0.253 A  
HETATM   16  C   UNL     1      -8.998   7.870  68.042  1.00  0.00    -0.127 A  
HETATM   17  C   UNL     1      -8.075   8.439  67.165  1.00  0.00    -0.104 A  
HETATM   18  C   UNL     1      -8.440   9.528  66.371  1.00  0.00    -0.131 A  
ENDBRANCH  11  13
ENDBRANCH   9  11
TORSDOF 2
ENDMDL
MODEL      134
REMARK 921   NORMALIZED FREE ENERGY PREDICTED BY IDOCK:   -4.01 KCAL/MOL
REMARK 922        TOTAL FREE ENERGY PREDICTED BY IDOCK:   -4.75 KCAL/MOL
REMARK 923 INTER-LIGAND FREE ENERGY PREDICTED BY IDOCK:   -4.56 KCAL/MOL
REMARK 924 INTRA-LIGAND FREE ENERGY PREDICTED BY IDOCK:   -0.19 KCAL/MOL
REMARK 927      BINDING AFFINITY PREDICTED BY RF-SCORE:    0.00 PKD
ROOT
HETATM    1  C   UNL     1      -9.289   8.844  66.147  1.00  0.00    -0.301 C  
HETATM    2  C   UNL     1      -8.620   9.001  67.510  1.00  0.00    -0.120 C  
HETATM    3  C   UNL     1      -9.619   9.424  68.564  1.00  0.00    -0.147 A  
HETATM    4  C   UNL     1      -7.456   9.987  67.441  1.00  0.00    -0.091 C  
HETATM    5  C   UNL     1     -10.085  10.687  68.878  1.00  0.00    -0.215 A  
HETATM    6  O   UNL     1      -6.841  10.196  68.635  1.00  0.00    -0.056 OA 
HETATM    7  O   UNL     1      -7.055  10.526  66.421  1.00  0.00    -0.113 OA 
HETATM    8  C   UNL     1     -10.981  10.672  69.987  1.00  0.00    -0.325 A  
HETATM    9  C   UNL     1     -11.166   9.402  70.503  1.00  0.00    -0.275 A  
HETATM   10  S   UNL     1     -10.342   8.232  69.565  1.00  0.00    -0.219 SA 
ENDROOT
BRANCH   9  11
HETATM   11  C   UNL     1     -11.924   8.971  71.672  1.00  0.00    -0.356 C  
HETATM   12  O   UNL     1     -12.891   9.582  72.125  1.00  0.00    -0.388 OA 
BRANCH  11  13
HETATM   13  C   UNL     1     -11.519   7.705  72.362  1.00  0.00    -0.392 A  
HETATM   14  C   UNL     1     -12.068   6.466  71.999  1.00  0.00    -0.353 A  
HETATM   15  C   UNL     1     -11.653   5.298  72.636  1.00  0.00    -0.226 A  
HETATM   16  C   UNL     1     -10.706   5.361  73.656  1.00  0.00    -0.337 A  
HETATM   17  C   UNL     1     -10.188   6.594  74.053  1.00  0.00    -0.395 A  
HETATM   18  C   UNL     1     -10.596   7.766  73.412  1.00  0.00    -0.254 A  
ENDBRANCH  11  13
ENDBRANCH   9  11
TORSDOF 2
ENDMDL
MODEL      135
REMARK 921   NORMALIZED FREE ENERGY PREDICTED BY IDOCK:   -4.00 KCAL/MOL
REMARK 922        TOTAL FREE ENERGY PREDICTED BY IDOCK:   -4.73 KCAL/MOL
REMARK 923 INTER-LIGAND FREE ENERGY PREDICTED BY IDOCK:   -4.45 KCAL/MOL
REMARK 924 INTRA-LIGAND FREE ENERGY PREDICTED BY IDOCK:   -0.28 KCAL/MOL
REMARK 927      BINDING AFFINITY PREDICTED BY RF-SCORE:    0.00 PKD
ROOT
HETATM    1  C   UNL     1      -8.506  12.774  67.925  1.00  0.00    -0.173 C  
HETATM    2  C   UNL     1      -9.869  12.170  68.256  1.00  0.00    -0.212 C  
HETATM    3  C   UNL     1      -9.919  10.702  67.894  1.00  0.00    -0.166 A  
HETATM    4  C   UNL     1     -10.993  12.937  67.564  1.00  0.00    -0.255 C  
HETATM    5  C   UNL     1     -10.181  10.105  66.676  1.00  0.00    -0.287 A  
HETATM    6  O   UNL     1     -12.230  12.424  67.792  1.00  0.00    -0.395 OA 
HETATM    7  O   UNL     1     -10.842  13.947  66.893  1.00  0.00    -0.283 OA 
HETATM    8  C   UNL     1     -10.197   8.681  66.764  1.00  0.00    -0.361 A  
HETATM    9  C   UNL     1      -9.962   8.226  68.048  1.00  0.00    -0.185 A  
HETATM   10  S   UNL     1      -9.612   9.526  69.106  1.00  0.00    -0.178 SA 
ENDROOT
BRANCH   9  11
HETATM   11  C   UNL     1      -9.979   6.866  68.575  1.00  0.00    -0.148 C  
HETATM   12  O   UNL     1      -9.588   5.884  67.946  1.00  0.00    -0.113 OA 
BRANCH  11  13
HETATM   13  C   UNL     1     -10.488   6.642  69.965  1.00  0.00    -0.250 A  
HETATM   14  C   UNL     1     -11.810   6.955  70.318  1.00  0.00    -0.311 A  
HETATM   15  C   UNL     1     -12.270   6.709  71.611  1.00  0.00    -0.401 A  
HETATM   16  C   UNL     1     -11.407   6.174  72.566  1.00  0.00    -0.328 A  
HETATM   17  C   UNL     1     -10.080   5.903  72.235  1.00  0.00    -0.210 A  
HETATM   18  C   UNL     1      -9.618   6.139  70.938  1.00  0.00    -0.193 A  
ENDBRANCH  11  13
ENDBRANCH   9  11
TORSDOF 2
ENDMDL
MODEL      136
REMARK 921   NORMALIZED FREE ENERGY PREDICTED BY IDOCK:   -3.97 KCAL/MOL
REMARK 922        TOTAL FREE ENERGY PREDICTED BY IDOCK:   -4.70 KCAL/MOL
REMARK 923 INTER-LIGAND FREE ENERGY PREDICTED BY IDOCK:   -4.90 KCAL/MOL
REMARK 924 INTRA-LIGAND FREE ENERGY PREDICTED BY IDOCK:    0.20 KCAL/MOL
REMARK 927      BINDING AFFINITY PREDICTED BY RF-SCORE:    0.00 PKD
ROOT
HETATM    1  C   UNL     1      -9.254  15.103  68.036  1.00  0.00    -0.185 C  
HETATM    2  C   UNL     1     -10.236  14.083  68.606  1.00  0.00    -0.233 C  
HETATM    3  C   UNL     1     -10.460  12.941  67.639  1.00  0.00    -0.224 A  
HETATM    4  C   UNL     1     -11.561  14.744  68.979  1.00  0.00    -0.297 C  
HETATM    5  C   UNL     1     -11.320  12.858  66.560  1.00  0.00    -0.361 A  
HETATM    6  O   UNL     1     -12.491  13.878  69.460  1.00  0.00    -0.286 OA 
HETATM    7  O   UNL     1     -11.790  15.942  68.909  1.00  0.00    -0.397 OA 
HETATM    8  C   UNL     1     -11.279  11.577  65.934  1.00  0.00    -0.239 A  
HETATM    9  C   UNL     1     -10.402  10.709  66.558  1.00  0.00    -0.241 A  
HETATM   10  S   UNL     1      -9.556  11.494  67.822  1.00  0.00    -0.179 SA 
ENDROOT
BRANCH   9  11
HETATM   11  C   UNL     1     -10.133   9.301  66.289  1.00  0.00    -0.252 C  
HETATM   12  O   UNL     1      -9.638   8.887  65.242  1.00  0.00    -0.074 OA 
BRANCH  11  13
HETATM   13  C   UNL     1     -10.463   8.293  67.346  1.00  0.00    -0.353 A  
HETATM   14  C   UNL     1     -10.689   6.946  67.026  1.00  0.00    -0.432 A  
HETATM   15  C   UNL     1     -10.964   6.020  68.032  1.00  0.00    -0.340 A  
HETATM   16  C   UNL     1     -11.043   6.438  69.359  1.00  0.00    -0.450 A  
HETATM   17  C   UNL     1     -10.863   7.783  69.679  1.00  0.00    -0.185 A  
HETATM   18  C   UNL     1     -10.578   8.712  68.676  1.00  0.00    -0.165 A  
ENDBRANCH  11  13
ENDBRANCH   9  11
TORSDOF 2
ENDMDL
MODEL      137
REMARK 921   NORMALIZED FREE ENERGY PREDICTED BY IDOCK:   -3.96 KCAL/MOL
REMARK 922        TOTAL FREE ENERGY PREDICTED BY IDOCK:   -4.69 KCAL/MOL
REMARK 923 INTER-LIGAND FREE ENERGY PREDICTED BY IDOCK:   -4.34 KCAL/MOL
REMARK 924 INTRA-LIGAND FREE ENERGY PREDICTED BY IDOCK:   -0.35 KCAL/MOL
REMARK 927      BINDING AFFINITY PREDICTED BY RF-SCORE:    0.00 PKD
ROOT
HETATM    1  C   UNL     1      -9.685  13.378  68.451  1.00  0.00    -0.201 C  
HETATM    2  C   UNL     1     -10.840  12.479  68.016  1.00  0.00    -0.252 C  
HETATM    3  C   UNL     1     -10.542  11.026  68.310  1.00  0.00    -0.187 A  
HETATM    4  C   UNL     1     -11.164  12.676  66.537  1.00  0.00    -0.296 C  
HETATM    5  C   UNL     1      -9.823  10.108  67.570  1.00  0.00    -0.211 A  
HETATM    6  O   UNL     1     -12.163  11.876  66.082  1.00  0.00    -0.459 OA 
HETATM    7  O   UNL     1     -10.629  13.497  65.806  1.00  0.00    -0.274 OA 
HETATM    8  C   UNL     1      -9.825   8.812  68.164  1.00  0.00    -0.194 A  
HETATM    9  C   UNL     1     -10.560   8.767  69.336  1.00  0.00    -0.209 A  
HETATM   10  S   UNL     1     -11.139  10.321  69.757  1.00  0.00    -0.305 SA 
ENDROOT
BRANCH   9  11
HETATM   11  C   UNL     1     -10.881   7.631  70.193  1.00  0.00    -0.248 C  
HETATM   12  O   UNL     1     -11.831   6.875  69.999  1.00  0.00    -0.260 OA 
BRANCH  11  13
HETATM   13  C   UNL     1     -10.003   7.354  71.374  1.00  0.00    -0.195 A  
HETATM   14  C   UNL     1      -8.798   6.648  71.239  1.00  0.00    -0.133 A  
HETATM   15  C   UNL     1      -7.982   6.428  72.348  1.00  0.00    -0.102 A  
HETATM   16  C   UNL     1      -8.377   6.889  73.603  1.00  0.00    -0.139 A  
HETATM   17  C   UNL     1      -9.594   7.552  73.753  1.00  0.00    -0.321 A  
HETATM   18  C   UNL     1     -10.410   7.782  72.642  1.00  0.00    -0.352 A  
ENDBRANCH  11  13
ENDBRANCH   9  11
TORSDOF 2
ENDMDL
MODEL      138
REMARK 921   NORMALIZED FREE ENERGY PREDICTED BY IDOCK:   -3.94 KCAL/MOL
REMARK 922        TOTAL FREE ENERGY PREDICTED BY IDOCK:   -4.67 KCAL/MOL
REMARK 923 INTER-LIGAND FREE ENERGY PREDICTED BY IDOCK:   -4.30 KCAL/MOL
REMARK 924 INTRA-LIGAND FREE ENERGY PREDICTED BY IDOCK:   -0.38 KCAL/MOL
REMARK 927      BINDING AFFINITY PREDICTED BY RF-SCORE:    0.00 PKD
ROOT
HETATM    1  C   UNL     1     -10.559  12.496  65.308  1.00  0.00    -0.319 C  
HETATM    2  C   UNL     1     -10.701  13.557  66.398  1.00  0.00    -0.287 C  
HETATM    3  C   UNL     1      -9.352  14.117  66.792  1.00  0.00    -0.282 A  
HETATM    4  C   UNL     1     -11.432  12.999  67.617  1.00  0.00    -0.324 C  
HETATM    5  C   UNL     1      -8.420  13.622  67.684  1.00  0.00    -0.183 A  
HETATM    6  O   UNL     1     -11.557  13.888  68.636  1.00  0.00    -0.283 OA 
HETATM    7  O   UNL     1     -11.914  11.879  67.692  1.00  0.00    -0.575 OA 
HETATM    8  C   UNL     1      -7.294  14.486  67.824  1.00  0.00    -0.189 A  
HETATM    9  C   UNL     1      -7.400  15.626  67.049  1.00  0.00    -0.168 A  
HETATM   10  S   UNL     1      -8.807  15.579  66.076  1.00  0.00     0.060 SA 
ENDROOT
BRANCH   9  11
HETATM   11  C   UNL     1      -6.519  16.786  66.970  1.00  0.00    -0.194 C  
HETATM   12  O   UNL     1      -5.883  17.094  65.964  1.00  0.00    -0.256 OA 
BRANCH  11  13
HETATM   13  C   UNL     1      -6.383  17.666  68.173  1.00  0.00    -0.172 A  
HETATM   14  C   UNL     1      -7.250  18.748  68.389  1.00  0.00    -0.304 A  
HETATM   15  C   UNL     1      -7.123  19.535  69.533  1.00  0.00    -0.262 A  
HETATM   16  C   UNL     1      -6.113  19.265  70.454  1.00  0.00    -0.150 A  
HETATM   17  C   UNL     1      -5.219  18.220  70.224  1.00  0.00    -0.245 A  
HETATM   18  C   UNL     1      -5.349  17.423  69.084  1.00  0.00    -0.164 A  
ENDBRANCH  11  13
ENDBRANCH   9  11
TORSDOF 2
ENDMDL
MODEL      139
REMARK 921   NORMALIZED FREE ENERGY PREDICTED BY IDOCK:   -3.94 KCAL/MOL
REMARK 922        TOTAL FREE ENERGY PREDICTED BY IDOCK:   -4.67 KCAL/MOL
REMARK 923 INTER-LIGAND FREE ENERGY PREDICTED BY IDOCK:   -4.31 KCAL/MOL
REMARK 924 INTRA-LIGAND FREE ENERGY PREDICTED BY IDOCK:   -0.36 KCAL/MOL
REMARK 927      BINDING AFFINITY PREDICTED BY RF-SCORE:    0.00 PKD
ROOT
HETATM    1  C   UNL     1     -10.786   7.119  67.111  1.00  0.00    -0.422 C  
HETATM    2  C   UNL     1     -10.257   8.276  67.956  1.00  0.00    -0.265 C  
HETATM    3  C   UNL     1      -9.894   9.463  67.091  1.00  0.00    -0.187 A  
HETATM    4  C   UNL     1      -9.063   7.838  68.803  1.00  0.00    -0.140 C  
HETATM    5  C   UNL     1      -8.731   9.716  66.389  1.00  0.00    -0.148 A  
HETATM    6  O   UNL     1      -8.525   8.836  69.551  1.00  0.00    -0.123 OA 
HETATM    7  O   UNL     1      -8.629   6.698  68.863  1.00  0.00    -0.125 OA 
HETATM    8  C   UNL     1      -8.757  10.987  65.742  1.00  0.00    -0.179 A  
HETATM    9  C   UNL     1      -9.930  11.679  65.978  1.00  0.00    -0.228 A  
HETATM   10  S   UNL     1     -11.030  10.732  66.885  1.00  0.00    -0.122 SA 
ENDROOT
BRANCH   9  11
HETATM   11  C   UNL     1     -10.315  13.028  65.578  1.00  0.00    -0.294 C  
HETATM   12  O   UNL     1     -10.587  13.348  64.422  1.00  0.00    -0.411 OA 
BRANCH  11  13
HETATM   13  C   UNL     1     -10.400  14.091  66.630  1.00  0.00    -0.278 A  
HETATM   14  C   UNL     1      -9.249  14.717  67.130  1.00  0.00    -0.231 A  
HETATM   15  C   UNL     1      -9.355  15.725  68.088  1.00  0.00    -0.194 A  
HETATM   16  C   UNL     1     -10.609  16.096  68.570  1.00  0.00    -0.284 A  
HETATM   17  C   UNL     1     -11.754  15.448  68.110  1.00  0.00    -0.276 A  
HETATM   18  C   UNL     1     -11.652  14.443  67.145  1.00  0.00    -0.406 A  
ENDBRANCH  11  13
ENDBRANCH   9  11
TORSDOF 2
ENDMDL
MODEL      140
REMARK 921   NORMALIZED FREE ENERGY PREDICTED BY IDOCK:   -3.85 KCAL/MOL
REMARK 922        TOTAL FREE ENERGY PREDICTED BY IDOCK:   -4.57 KCAL/MOL
REMARK 923 INTER-LIGAND FREE ENERGY PREDICTED BY IDOCK:   -4.36 KCAL/MOL
REMARK 924 INTRA-LIGAND FREE ENERGY PREDICTED BY IDOCK:   -0.21 KCAL/MOL
REMARK 927      BINDING AFFINITY PREDICTED BY RF-SCORE:    0.00 PKD
ROOT
HETATM    1  C   UNL     1      -6.567  10.367  67.104  1.00  0.00    -0.073 C  
HETATM    2  C   UNL     1      -6.939  11.187  68.337  1.00  0.00    -0.072 C  
HETATM    3  C   UNL     1      -8.412  11.055  68.657  1.00  0.00    -0.157 A  
HETATM    4  C   UNL     1      -6.554  12.654  68.160  1.00  0.00    -0.081 C  
HETATM    5  C   UNL     1      -9.491  11.739  68.131  1.00  0.00    -0.193 A  
HETATM    6  O   UNL     1      -6.893  13.442  69.213  1.00  0.00    -0.100 OA 
HETATM    7  O   UNL     1      -5.956  13.109  67.196  1.00  0.00    -0.318 OA 
HETATM    8  C   UNL     1     -10.722  11.364  68.746  1.00  0.00    -0.240 A  
HETATM    9  C   UNL     1     -10.551  10.414  69.737  1.00  0.00    -0.258 A  
HETATM   10  S   UNL     1      -8.919   9.907  69.828  1.00  0.00    -0.199 SA 
ENDROOT
BRANCH   9  11
HETATM   11  C   UNL     1     -11.528   9.835  70.653  1.00  0.00    -0.324 C  
HETATM   12  O   UNL     1     -12.540  10.420  71.033  1.00  0.00    -0.329 OA 
BRANCH  11  13
HETATM   13  C   UNL     1     -11.300   8.443  71.157  1.00  0.00    -0.310 A  
HETATM   14  C   UNL     1     -11.045   8.190  72.513  1.00  0.00    -0.446 A  
HETATM   15  C   UNL     1     -10.866   6.883  72.964  1.00  0.00    -0.328 A  
HETATM   16  C   UNL     1     -10.915   5.823  72.060  1.00  0.00    -0.317 A  
HETATM   17  C   UNL     1     -11.125   6.071  70.704  1.00  0.00    -0.371 A  
HETATM   18  C   UNL     1     -11.313   7.379  70.250  1.00  0.00    -0.244 A  
ENDBRANCH  11  13
ENDBRANCH   9  11
TORSDOF 2
ENDMDL
MODEL      141
REMARK 921   NORMALIZED FREE ENERGY PREDICTED BY IDOCK:   -3.77 KCAL/MOL
REMARK 922        TOTAL FREE ENERGY PREDICTED BY IDOCK:   -4.48 KCAL/MOL
REMARK 923 INTER-LIGAND FREE ENERGY PREDICTED BY IDOCK:   -4.50 KCAL/MOL
REMARK 924 INTRA-LIGAND FREE ENERGY PREDICTED BY IDOCK:    0.02 KCAL/MOL
REMARK 927      BINDING AFFINITY PREDICTED BY RF-SCORE:    0.00 PKD
ROOT
HETATM    1  C   UNL     1     -12.453  12.260  71.820  1.00  0.00     0.062 C  
HETATM    2  C   UNL     1     -13.008  13.412  70.985  1.00  0.00    -0.260 C  
HETATM    3  C   UNL     1     -11.892  14.214  70.351  1.00  0.00    -0.297 A  
HETATM    4  C   UNL     1     -13.913  14.312  71.822  1.00  0.00    -0.442 C  
HETATM    5  C   UNL     1     -11.134  15.238  70.883  1.00  0.00    -0.343 A  
HETATM    6  O   UNL     1     -14.410  15.378  71.141  1.00  0.00    -0.490 OA 
HETATM    7  O   UNL     1     -14.223  14.106  72.986  1.00  0.00    -0.283 OA 
HETATM    8  C   UNL     1     -10.217  15.782  69.935  1.00  0.00    -0.277 A  
HETATM    9  C   UNL     1     -10.309  15.170  68.698  1.00  0.00    -0.232 A  
HETATM   10  S   UNL     1     -11.422  13.871  68.736  1.00  0.00    -0.316 SA 
ENDROOT
BRANCH   9  11
HETATM   11  C   UNL     1      -9.621  15.481  67.450  1.00  0.00    -0.213 C  
HETATM   12  O   UNL     1     -10.030  15.142  66.341  1.00  0.00    -0.248 OA 
BRANCH  11  13
HETATM   13  C   UNL     1      -8.348  16.267  67.509  1.00  0.00    -0.174 A  
HETATM   14  C   UNL     1      -7.155  15.769  66.964  1.00  0.00    -0.169 A  
HETATM   15  C   UNL     1      -5.989  16.533  67.005  1.00  0.00    -0.157 A  
HETATM   16  C   UNL     1      -6.001  17.787  67.613  1.00  0.00    -0.156 A  
HETATM   17  C   UNL     1      -7.172  18.270  68.196  1.00  0.00    -0.255 A  
HETATM   18  C   UNL     1      -8.344  17.511  68.149  1.00  0.00    -0.249 A  
ENDBRANCH  11  13
ENDBRANCH   9  11
TORSDOF 2
ENDMDL
MODEL      142
REMARK 921   NORMALIZED FREE ENERGY PREDICTED BY IDOCK:   -3.76 KCAL/MOL
REMARK 922        TOTAL FREE ENERGY PREDICTED BY IDOCK:   -4.47 KCAL/MOL
REMARK 923 INTER-LIGAND FREE ENERGY PREDICTED BY IDOCK:   -4.21 KCAL/MOL
REMARK 924 INTRA-LIGAND FREE ENERGY PREDICTED BY IDOCK:   -0.26 KCAL/MOL
REMARK 927      BINDING AFFINITY PREDICTED BY RF-SCORE:    0.00 PKD
ROOT
HETATM    1  C   UNL     1      -9.012   2.315  66.249  1.00  0.00    -0.114 C  
HETATM    2  C   UNL     1      -8.667   3.686  65.671  1.00  0.00    -0.117 C  
HETATM    3  C   UNL     1      -9.376   4.790  66.424  1.00  0.00    -0.146 A  
HETATM    4  C   UNL     1      -8.993   3.753  64.180  1.00  0.00    -0.123 C  
HETATM    5  C   UNL     1     -10.660   5.277  66.269  1.00  0.00    -0.308 A  
HETATM    6  O   UNL     1      -8.741   4.962  63.616  1.00  0.00    -0.138 OA 
HETATM    7  O   UNL     1      -9.402   2.815  63.511  1.00  0.00    -0.095 OA 
HETATM    8  C   UNL     1     -10.931   6.375  67.138  1.00  0.00    -0.476 A  
HETATM    9  C   UNL     1      -9.843   6.710  67.924  1.00  0.00    -0.124 A  
HETATM   10  S   UNL     1      -8.549   5.617  67.680  1.00  0.00    -0.107 SA 
ENDROOT
BRANCH   9  11
HETATM   11  C   UNL     1      -9.677   7.810  68.868  1.00  0.00    -0.160 C  
HETATM   12  O   UNL     1      -8.768   8.634  68.804  1.00  0.00    -0.133 OA 
BRANCH  11  13
HETATM   13  C   UNL     1     -10.673   7.959  69.976  1.00  0.00    -0.244 A  
HETATM   14  C   UNL     1     -10.977   9.216  70.520  1.00  0.00    -0.307 A  
HETATM   15  C   UNL     1     -11.930   9.334  71.531  1.00  0.00    -0.439 A  
HETATM   16  C   UNL     1     -12.566   8.196  72.023  1.00  0.00    -0.366 A  
HETATM   17  C   UNL     1     -12.237   6.939  71.518  1.00  0.00    -0.415 A  
HETATM   18  C   UNL     1     -11.289   6.817  70.499  1.00  0.00    -0.394 A  
ENDBRANCH  11  13
ENDBRANCH   9  11
TORSDOF 2
ENDMDL
MODEL      143
REMARK 921   NORMALIZED FREE ENERGY PREDICTED BY IDOCK:   -3.70 KCAL/MOL
REMARK 922        TOTAL FREE ENERGY PREDICTED BY IDOCK:   -4.40 KCAL/MOL
REMARK 923 INTER-LIGAND FREE ENERGY PREDICTED BY IDOCK:   -4.49 KCAL/MOL
REMARK 924 INTRA-LIGAND FREE ENERGY PREDICTED BY IDOCK:    0.09 KCAL/MOL
REMARK 927      BINDING AFFINITY PREDICTED BY RF-SCORE:    0.00 PKD
ROOT
HETATM    1  C   UNL     1      -7.476  10.018  65.622  1.00  0.00    -0.137 C  
HETATM    2  C   UNL     1      -8.713  10.846  65.279  1.00  0.00    -0.147 C  
HETATM    3  C   UNL     1      -9.665  10.916  66.453  1.00  0.00    -0.201 A  
HETATM    4  C   UNL     1      -9.419  10.295  64.042  1.00  0.00    -0.300 C  
HETATM    5  C   UNL     1     -10.633  10.015  66.854  1.00  0.00    -0.261 A  
HETATM    6  O   UNL     1     -10.549  10.970  63.708  1.00  0.00    -0.369 OA 
HETATM    7  O   UNL     1      -9.014   9.364  63.362  1.00  0.00    -0.223 OA 
HETATM    8  C   UNL     1     -11.370  10.481  67.984  1.00  0.00    -0.319 A  
HETATM    9  C   UNL     1     -10.957  11.731  68.407  1.00  0.00    -0.231 A  
HETATM   10  S   UNL     1      -9.609  12.272  67.503  1.00  0.00    -0.188 SA 
ENDROOT
BRANCH   9  11
HETATM   11  C   UNL     1     -11.499  12.587  69.457  1.00  0.00    -0.230 C  
HETATM   12  O   UNL     1     -12.086  12.163  70.451  1.00  0.00    -0.354 OA 
BRANCH  11  13
HETATM   13  C   UNL     1     -11.325  14.069  69.334  1.00  0.00    -0.317 A  
HETATM   14  C   UNL     1     -10.962  14.856  70.437  1.00  0.00    -0.160 A  
HETATM   15  C   UNL     1     -10.776  16.230  70.291  1.00  0.00    -0.189 A  
HETATM   16  C   UNL     1     -10.979  16.831  69.050  1.00  0.00    -0.239 A  
HETATM   17  C   UNL     1     -11.383  16.062  67.960  1.00  0.00    -0.266 A  
HETATM   18  C   UNL     1     -11.561  14.684  68.100  1.00  0.00    -0.362 A  
ENDBRANCH  11  13
ENDBRANCH   9  11
TORSDOF 2
ENDMDL
MODEL      144
REMARK 921   NORMALIZED FREE ENERGY PREDICTED BY IDOCK:   -3.69 KCAL/MOL
REMARK 922        TOTAL FREE ENERGY PREDICTED BY IDOCK:   -4.39 KCAL/MOL
REMARK 923 INTER-LIGAND FREE ENERGY PREDICTED BY IDOCK:   -4.10 KCAL/MOL
REMARK 924 INTRA-LIGAND FREE ENERGY PREDICTED BY IDOCK:   -0.29 KCAL/MOL
REMARK 927      BINDING AFFINITY PREDICTED BY RF-SCORE:    0.00 PKD
ROOT
HETATM    1  C   UNL     1      -8.897   7.385  72.966  1.00  0.00    -0.184 C  
HETATM    2  C   UNL     1      -8.506   6.420  71.849  1.00  0.00    -0.123 C  
HETATM    3  C   UNL     1      -9.253   6.731  70.571  1.00  0.00    -0.156 A  
HETATM    4  C   UNL     1      -8.734   4.970  72.270  1.00  0.00    -0.125 C  
HETATM    5  C   UNL     1     -10.520   6.346  70.178  1.00  0.00    -0.269 A  
HETATM    6  O   UNL     1      -8.437   4.064  71.303  1.00  0.00    -0.078 OA 
HETATM    7  O   UNL     1      -9.107   4.613  73.378  1.00  0.00    -0.114 OA 
HETATM    8  C   UNL     1     -10.838   6.797  68.862  1.00  0.00    -0.288 A  
HETATM    9  C   UNL     1      -9.801   7.501  68.277  1.00  0.00    -0.163 A  
HETATM   10  S   UNL     1      -8.502   7.704  69.373  1.00  0.00    -0.132 SA 
ENDROOT
BRANCH   9  11
HETATM   11  C   UNL     1      -9.688   8.049  66.930  1.00  0.00    -0.225 C  
HETATM   12  O   UNL     1      -9.233   7.425  65.974  1.00  0.00    -0.140 OA 
BRANCH  11  13
HETATM   13  C   UNL     1     -10.161   9.448  66.684  1.00  0.00    -0.332 A  
HETATM   14  C   UNL     1      -9.958  10.081  65.449  1.00  0.00    -0.364 A  
HETATM   15  C   UNL     1     -10.435  11.374  65.233  1.00  0.00    -0.340 A  
HETATM   16  C   UNL     1     -11.092  12.052  66.258  1.00  0.00    -0.363 A  
HETATM   17  C   UNL     1     -11.258  11.446  67.502  1.00  0.00    -0.356 A  
HETATM   18  C   UNL     1     -10.790  10.148  67.720  1.00  0.00    -0.346 A  
ENDBRANCH  11  13
ENDBRANCH   9  11
TORSDOF 2
ENDMDL
MODEL      145
REMARK 921   NORMALIZED FREE ENERGY PREDICTED BY IDOCK:   -3.62 KCAL/MOL
REMARK 922        TOTAL FREE ENERGY PREDICTED BY IDOCK:   -4.31 KCAL/MOL
REMARK 923 INTER-LIGAND FREE ENERGY PREDICTED BY IDOCK:   -3.98 KCAL/MOL
REMARK 924 INTRA-LIGAND FREE ENERGY PREDICTED BY IDOCK:   -0.34 KCAL/MOL
REMARK 927      BINDING AFFINITY PREDICTED BY RF-SCORE:    0.00 PKD
ROOT
HETATM    1  C   UNL     1      -6.074   6.446  67.367  1.00  0.00    -0.024 C  
HETATM    2  C   UNL     1      -7.254   6.150  68.291  1.00  0.00    -0.084 C  
HETATM    3  C   UNL     1      -7.752   7.412  68.961  1.00  0.00    -0.118 A  
HETATM    4  C   UNL     1      -6.887   5.094  69.331  1.00  0.00    -0.053 C  
HETATM    5  C   UNL     1      -7.288   8.046  70.097  1.00  0.00    -0.061 A  
HETATM    6  O   UNL     1      -7.888   4.814  70.206  1.00  0.00    -0.057 OA 
HETATM    7  O   UNL     1      -5.820   4.500  69.379  1.00  0.00    -0.016 OA 
HETATM    8  C   UNL     1      -8.076   9.185  70.441  1.00  0.00    -0.166 A  
HETATM    9  C   UNL     1      -9.130   9.383  69.568  1.00  0.00    -0.165 A  
HETATM   10  S   UNL     1      -9.083   8.256  68.282  1.00  0.00    -0.134 SA 
ENDROOT
BRANCH   9  11
HETATM   11  C   UNL     1     -10.206  10.367  69.613  1.00  0.00    -0.209 C  
HETATM   12  O   UNL     1     -10.243  11.373  68.906  1.00  0.00    -0.207 OA 
BRANCH  11  13
HETATM   13  C   UNL     1     -11.343  10.144  70.561  1.00  0.00    -0.416 A  
HETATM   14  C   UNL     1     -12.212  11.187  70.917  1.00  0.00    -0.468 A  
HETATM   15  C   UNL     1     -13.282  10.948  71.779  1.00  0.00    -0.513 A  
HETATM   16  C   UNL     1     -13.475   9.674  72.311  1.00  0.00    -0.488 A  
HETATM   17  C   UNL     1     -12.590   8.644  71.996  1.00  0.00    -0.434 A  
HETATM   18  C   UNL     1     -11.522   8.877  71.127  1.00  0.00    -0.364 A  
ENDBRANCH  11  13
ENDBRANCH   9  11
TORSDOF 2
ENDMDL
MODEL      146
REMARK 921   NORMALIZED FREE ENERGY PREDICTED BY IDOCK:   -3.55 KCAL/MOL
REMARK 922        TOTAL FREE ENERGY PREDICTED BY IDOCK:   -4.24 KCAL/MOL
REMARK 923 INTER-LIGAND FREE ENERGY PREDICTED BY IDOCK:   -4.01 KCAL/MOL
REMARK 924 INTRA-LIGAND FREE ENERGY PREDICTED BY IDOCK:   -0.23 KCAL/MOL
REMARK 927      BINDING AFFINITY PREDICTED BY RF-SCORE:    0.00 PKD
ROOT
HETATM    1  C   UNL     1      -8.421   9.342  64.193  1.00  0.00    -0.199 C  
HETATM    2  C   UNL     1      -9.058  10.042  65.391  1.00  0.00    -0.235 C  
HETATM    3  C   UNL     1      -9.338   9.062  66.510  1.00  0.00    -0.191 A  
HETATM    4  C   UNL     1     -10.332  10.779  64.985  1.00  0.00    -0.287 C  
HETATM    5  C   UNL     1     -10.418   8.220  66.691  1.00  0.00    -0.217 A  
HETATM    6  O   UNL     1     -10.965  11.393  66.019  1.00  0.00    -0.285 OA 
HETATM    7  O   UNL     1     -10.754  10.869  63.842  1.00  0.00    -0.339 OA 
HETATM    8  C   UNL     1     -10.338   7.494  67.916  1.00  0.00    -0.266 A  
HETATM    9  C   UNL     1      -9.208   7.811  68.648  1.00  0.00    -0.138 A  
HETATM   10  S   UNL     1      -8.204   8.897  67.787  1.00  0.00    -0.110 SA 
ENDROOT
BRANCH   9  11
HETATM   11  C   UNL     1      -8.800   7.364  69.975  1.00  0.00    -0.141 C  
HETATM   12  O   UNL     1      -7.648   7.440  70.398  1.00  0.00    -0.087 OA 
BRANCH  11  13
HETATM   13  C   UNL     1      -9.838   6.790  70.889  1.00  0.00    -0.197 A  
HETATM   14  C   UNL     1     -11.005   7.500  71.206  1.00  0.00    -0.262 A  
HETATM   15  C   UNL     1     -11.972   6.932  72.035  1.00  0.00    -0.342 A  
HETATM   16  C   UNL     1     -11.766   5.663  72.573  1.00  0.00    -0.255 A  
HETATM   17  C   UNL     1     -10.589   4.969  72.298  1.00  0.00    -0.269 A  
HETATM   18  C   UNL     1      -9.622   5.532  71.461  1.00  0.00    -0.188 A  
ENDBRANCH  11  13
ENDBRANCH   9  11
TORSDOF 2
ENDMDL
MODEL      147
REMARK 921   NORMALIZED FREE ENERGY PREDICTED BY IDOCK:   -3.55 KCAL/MOL
REMARK 922        TOTAL FREE ENERGY PREDICTED BY IDOCK:   -4.23 KCAL/MOL
REMARK 923 INTER-LIGAND FREE ENERGY PREDICTED BY IDOCK:   -3.87 KCAL/MOL
REMARK 924 INTRA-LIGAND FREE ENERGY PREDICTED BY IDOCK:   -0.37 KCAL/MOL
REMARK 927      BINDING AFFINITY PREDICTED BY RF-SCORE:    0.00 PKD
ROOT
HETATM    1  C   UNL     1     -10.857  18.702  65.519  1.00  0.00     0.113 C  
HETATM    2  C   UNL     1      -9.716  18.251  66.428  1.00  0.00    -0.334 C  
HETATM    3  C   UNL     1     -10.074  16.979  67.163  1.00  0.00    -0.292 A  
HETATM    4  C   UNL     1      -9.326  19.353  67.410  1.00  0.00    -0.315 C  
HETATM    5  C   UNL     1     -10.793  16.811  68.331  1.00  0.00    -0.355 A  
HETATM    6  O   UNL     1      -8.337  18.998  68.271  1.00  0.00    -0.308 OA 
HETATM    7  O   UNL     1      -9.804  20.478  67.426  1.00  0.00    -0.448 OA 
HETATM    8  C   UNL     1     -10.858  15.444  68.735  1.00  0.00    -0.252 A  
HETATM    9  C   UNL     1     -10.173  14.604  67.875  1.00  0.00    -0.226 A  
HETATM   10  S   UNL     1      -9.560  15.468  66.531  1.00  0.00    -0.296 SA 
ENDROOT
BRANCH   9  11
HETATM   11  C   UNL     1      -9.925  13.170  67.972  1.00  0.00    -0.233 C  
HETATM   12  O   UNL     1     -10.804  12.336  68.179  1.00  0.00    -0.208 OA 
BRANCH  11  13
HETATM   13  C   UNL     1      -8.523  12.673  67.800  1.00  0.00    -0.172 A  
HETATM   14  C   UNL     1      -8.203  11.714  66.826  1.00  0.00    -0.161 A  
HETATM   15  C   UNL     1      -6.885  11.289  66.664  1.00  0.00    -0.130 A  
HETATM   16  C   UNL     1      -5.884  11.796  67.490  1.00  0.00    -0.088 A  
HETATM   17  C   UNL     1      -6.202  12.715  68.489  1.00  0.00    -0.067 A  
HETATM   18  C   UNL     1      -7.519  13.151  68.649  1.00  0.00    -0.092 A  
ENDBRANCH  11  13
ENDBRANCH   9  11
TORSDOF 2
ENDMDL
MODEL      148
REMARK 921   NORMALIZED FREE ENERGY PREDICTED BY IDOCK:   -3.53 KCAL/MOL
REMARK 922        TOTAL FREE ENERGY PREDICTED BY IDOCK:   -4.22 KCAL/MOL
REMARK 923 INTER-LIGAND FREE ENERGY PREDICTED BY IDOCK:   -3.87 KCAL/MOL
REMARK 924 INTRA-LIGAND FREE ENERGY PREDICTED BY IDOCK:   -0.34 KCAL/MOL
REMARK 927      BINDING AFFINITY PREDICTED BY RF-SCORE:    0.00 PKD
ROOT
HETATM    1  C   UNL     1      -9.769   6.502  71.620  1.00  0.00    -0.174 C  
HETATM    2  C   UNL     1      -9.205   7.915  71.754  1.00  0.00    -0.194 C  
HETATM    3  C   UNL     1      -9.516   8.746  70.529  1.00  0.00    -0.186 A  
HETATM    4  C   UNL     1      -7.701   7.884  72.019  1.00  0.00    -0.092 C  
HETATM    5  C   UNL     1      -8.848   8.817  69.322  1.00  0.00    -0.140 A  
HETATM    6  O   UNL     1      -7.134   9.115  72.113  1.00  0.00    -0.324 OA 
HETATM    7  O   UNL     1      -7.040   6.869  72.182  1.00  0.00    -0.072 OA 
HETATM    8  C   UNL     1      -9.427   9.776  68.439  1.00  0.00    -0.146 A  
HETATM    9  C   UNL     1     -10.512  10.425  68.999  1.00  0.00    -0.219 A  
HETATM   10  S   UNL     1     -10.884   9.782  70.541  1.00  0.00    -0.342 SA 
ENDROOT
BRANCH   9  11
HETATM   11  C   UNL     1     -11.320  11.519  68.471  1.00  0.00    -0.277 C  
HETATM   12  O   UNL     1     -12.531  11.441  68.271  1.00  0.00    -0.314 OA 
BRANCH  11  13
HETATM   13  C   UNL     1     -10.649  12.822  68.163  1.00  0.00    -0.242 A  
HETATM   14  C   UNL     1      -9.949  13.017  66.962  1.00  0.00    -0.242 A  
HETATM   15  C   UNL     1      -9.358  14.249  66.684  1.00  0.00    -0.302 A  
HETATM   16  C   UNL     1      -9.439  15.284  67.613  1.00  0.00    -0.205 A  
HETATM   17  C   UNL     1     -10.094  15.083  68.828  1.00  0.00    -0.231 A  
HETATM   18  C   UNL     1     -10.695  13.853  69.106  1.00  0.00    -0.175 A  
ENDBRANCH  11  13
ENDBRANCH   9  11
TORSDOF 2
ENDMDL
MODEL      149
REMARK 921   NORMALIZED FREE ENERGY PREDICTED BY IDOCK:   -3.50 KCAL/MOL
REMARK 922        TOTAL FREE ENERGY PREDICTED BY IDOCK:   -4.18 KCAL/MOL
REMARK 923 INTER-LIGAND FREE ENERGY PREDICTED BY IDOCK:   -3.78 KCAL/MOL
REMARK 924 INTRA-LIGAND FREE ENERGY PREDICTED BY IDOCK:   -0.40 KCAL/MOL
REMARK 927      BINDING AFFINITY PREDICTED BY RF-SCORE:    0.00 PKD
ROOT
HETATM    1  C   UNL     1     -11.331  13.104  66.882  1.00  0.00    -0.355 C  
HETATM    2  C   UNL     1     -11.222  11.885  65.969  1.00  0.00    -0.377 C  
HETATM    3  C   UNL     1      -9.972  11.087  66.268  1.00  0.00    -0.224 A  
HETATM    4  C   UNL     1     -11.264  12.293  64.498  1.00  0.00    -0.326 C  
HETATM    5  C   UNL     1      -8.679  11.279  65.822  1.00  0.00    -0.111 A  
HETATM    6  O   UNL     1     -11.135  11.253  63.634  1.00  0.00    -0.376 OA 
HETATM    7  O   UNL     1     -11.438  13.433  64.093  1.00  0.00    -0.382 OA 
HETATM    8  C   UNL     1      -7.791  10.264  66.286  1.00  0.00    -0.118 A  
HETATM    9  C   UNL     1      -8.430   9.314  67.062  1.00  0.00    -0.124 A  
HETATM   10  S   UNL     1     -10.071   9.728  67.312  1.00  0.00    -0.221 SA 
ENDROOT
BRANCH   9  11
HETATM   11  C   UNL     1      -7.909   8.084  67.649  1.00  0.00    -0.122 C  
HETATM   12  O   UNL     1      -6.974   8.050  68.446  1.00  0.00    -0.069 OA 
BRANCH  11  13
HETATM   13  C   UNL     1      -8.552   6.784  67.277  1.00  0.00    -0.120 A  
HETATM   14  C   UNL     1      -8.626   6.362  65.941  1.00  0.00    -0.151 A  
HETATM   15  C   UNL     1      -9.202   5.133  65.622  1.00  0.00    -0.157 A  
HETATM   16  C   UNL     1      -9.732   4.331  66.631  1.00  0.00    -0.239 A  
HETATM   17  C   UNL     1      -9.702   4.764  67.956  1.00  0.00    -0.202 A  
HETATM   18  C   UNL     1      -9.117   5.990  68.280  1.00  0.00    -0.111 A  
ENDBRANCH  11  13
ENDBRANCH   9  11
TORSDOF 2
ENDMDL
MODEL      150
REMARK 921   NORMALIZED FREE ENERGY PREDICTED BY IDOCK:   -3.49 KCAL/MOL
REMARK 922        TOTAL FREE ENERGY PREDICTED BY IDOCK:   -4.17 KCAL/MOL
REMARK 923 INTER-LIGAND FREE ENERGY PREDICTED BY IDOCK:   -4.02 KCAL/MOL
REMARK 924 INTRA-LIGAND FREE ENERGY PREDICTED BY IDOCK:   -0.16 KCAL/MOL
REMARK 927      BINDING AFFINITY PREDICTED BY RF-SCORE:    0.00 PKD
ROOT
HETATM    1  C   UNL     1      -7.082  10.263  65.941  1.00  0.00    -0.131 C  
HETATM    2  C   UNL     1      -8.582  10.535  66.045  1.00  0.00    -0.166 C  
HETATM    3  C   UNL     1      -9.246   9.570  67.003  1.00  0.00    -0.139 A  
HETATM    4  C   UNL     1      -9.248  10.479  64.673  1.00  0.00    -0.235 C  
HETATM    5  C   UNL     1      -9.704   8.286  66.781  1.00  0.00    -0.307 A  
HETATM    6  O   UNL     1     -10.591  10.678  64.705  1.00  0.00    -0.291 OA 
HETATM    7  O   UNL     1      -8.659  10.317  63.614  1.00  0.00    -0.173 OA 
HETATM    8  C   UNL     1     -10.331   7.729  67.935  1.00  0.00    -0.276 A  
HETATM    9  C   UNL     1     -10.351   8.606  69.004  1.00  0.00    -0.213 A  
HETATM   10  S   UNL     1      -9.508  10.048  68.631  1.00  0.00    -0.162 SA 
ENDROOT
BRANCH   9  11
HETATM   11  C   UNL     1     -10.965   8.461  70.319  1.00  0.00    -0.232 C  
HETATM   12  O   UNL     1     -11.582   9.359  70.888  1.00  0.00    -0.277 OA 
BRANCH  11  13
HETATM   13  C   UNL     1     -10.853   7.143  71.021  1.00  0.00    -0.262 A  
HETATM   14  C   UNL     1     -11.867   6.682  71.875  1.00  0.00    -0.375 A  
HETATM   15  C   UNL     1     -11.754   5.438  72.494  1.00  0.00    -0.176 A  
HETATM   16  C   UNL     1     -10.618   4.658  72.285  1.00  0.00    -0.203 A  
HETATM   17  C   UNL     1      -9.587   5.129  71.473  1.00  0.00    -0.208 A  
HETATM   18  C   UNL     1      -9.700   6.371  70.844  1.00  0.00    -0.193 A  
ENDBRANCH  11  13
ENDBRANCH   9  11
TORSDOF 2
ENDMDL
MODEL      151
REMARK 921   NORMALIZED FREE ENERGY PREDICTED BY IDOCK:   -3.49 KCAL/MOL
REMARK 922        TOTAL FREE ENERGY PREDICTED BY IDOCK:   -4.17 KCAL/MOL
REMARK 923 INTER-LIGAND FREE ENERGY PREDICTED BY IDOCK:   -3.86 KCAL/MOL
REMARK 924 INTRA-LIGAND FREE ENERGY PREDICTED BY IDOCK:   -0.31 KCAL/MOL
REMARK 927      BINDING AFFINITY PREDICTED BY RF-SCORE:    0.00 PKD
ROOT
HETATM    1  C   UNL     1     -10.341   4.453  72.503  1.00  0.00    -0.252 C  
HETATM    2  C   UNL     1     -10.875   5.832  72.125  1.00  0.00    -0.296 C  
HETATM    3  C   UNL     1     -10.220   6.345  70.862  1.00  0.00    -0.189 A  
HETATM    4  C   UNL     1     -10.694   6.826  73.270  1.00  0.00    -0.302 C  
HETATM    5  C   UNL     1      -9.013   6.997  70.700  1.00  0.00    -0.154 A  
HETATM    6  O   UNL     1     -11.119   8.083  72.981  1.00  0.00    -0.382 OA 
HETATM    7  O   UNL     1     -10.251   6.547  74.375  1.00  0.00    -0.351 OA 
HETATM    8  C   UNL     1      -8.780   7.376  69.344  1.00  0.00    -0.137 A  
HETATM    9  C   UNL     1      -9.822   7.018  68.507  1.00  0.00    -0.147 A  
HETATM   10  S   UNL     1     -11.013   6.128  69.355  1.00  0.00    -0.395 SA 
ENDROOT
BRANCH   9  11
HETATM   11  C   UNL     1     -10.015   7.292  67.088  1.00  0.00    -0.215 C  
HETATM   12  O   UNL     1     -10.501   8.335  66.653  1.00  0.00    -0.305 OA 
BRANCH  11  13
HETATM   13  C   UNL     1      -9.591   6.257  66.093  1.00  0.00    -0.059 A  
HETATM   14  C   UNL     1     -10.409   5.158  65.788  1.00  0.00    -0.092 A  
HETATM   15  C   UNL     1     -10.005   4.223  64.836  1.00  0.00    -0.180 A  
HETATM   16  C   UNL     1      -8.772   4.364  64.202  1.00  0.00    -0.139 A  
HETATM   17  C   UNL     1      -7.935   5.428  64.533  1.00  0.00    -0.116 A  
HETATM   18  C   UNL     1      -8.339   6.372  65.480  1.00  0.00    -0.147 A  
ENDBRANCH  11  13
ENDBRANCH   9  11
TORSDOF 2
ENDMDL
MODEL      152
REMARK 921   NORMALIZED FREE ENERGY PREDICTED BY IDOCK:   -3.49 KCAL/MOL
REMARK 922        TOTAL FREE ENERGY PREDICTED BY IDOCK:   -4.17 KCAL/MOL
REMARK 923 INTER-LIGAND FREE ENERGY PREDICTED BY IDOCK:   -3.85 KCAL/MOL
REMARK 924 INTRA-LIGAND FREE ENERGY PREDICTED BY IDOCK:   -0.32 KCAL/MOL
REMARK 927      BINDING AFFINITY PREDICTED BY RF-SCORE:    0.00 PKD
ROOT
HETATM    1  C   UNL     1      -5.768   7.420  65.305  1.00  0.00    -0.037 C  
HETATM    2  C   UNL     1      -6.678   8.626  65.528  1.00  0.00    -0.063 C  
HETATM    3  C   UNL     1      -7.912   8.240  66.313  1.00  0.00    -0.100 A  
HETATM    4  C   UNL     1      -7.062   9.279  64.203  1.00  0.00    -0.098 C  
HETATM    5  C   UNL     1      -9.099   7.688  65.870  1.00  0.00    -0.101 A  
HETATM    6  O   UNL     1      -7.901  10.339  64.335  1.00  0.00    -0.154 OA 
HETATM    7  O   UNL     1      -6.641   8.939  63.107  1.00  0.00    -0.091 OA 
HETATM    8  C   UNL     1     -10.048   7.531  66.923  1.00  0.00    -0.336 A  
HETATM    9  C   UNL     1      -9.570   7.980  68.141  1.00  0.00    -0.153 A  
HETATM   10  S   UNL     1      -7.938   8.480  68.013  1.00  0.00    -0.112 SA 
ENDROOT
BRANCH   9  11
HETATM   11  C   UNL     1     -10.244   8.077  69.430  1.00  0.00    -0.210 C  
HETATM   12  O   UNL     1     -10.273   7.167  70.257  1.00  0.00    -0.194 OA 
BRANCH  11  13
HETATM   13  C   UNL     1     -10.934   9.358  69.784  1.00  0.00    -0.234 A  
HETATM   14  C   UNL     1     -10.739  10.525  69.030  1.00  0.00    -0.259 A  
HETATM   15  C   UNL     1     -11.416  11.699  69.361  1.00  0.00    -0.372 A  
HETATM   16  C   UNL     1     -12.271  11.721  70.462  1.00  0.00    -0.438 A  
HETATM   17  C   UNL     1     -12.435  10.577  71.242  1.00  0.00    -0.524 A  
HETATM   18  C   UNL     1     -11.765   9.398  70.909  1.00  0.00    -0.378 A  
ENDBRANCH  11  13
ENDBRANCH   9  11
TORSDOF 2
ENDMDL
MODEL      153
REMARK 921   NORMALIZED FREE ENERGY PREDICTED BY IDOCK:   -3.48 KCAL/MOL
REMARK 922        TOTAL FREE ENERGY PREDICTED BY IDOCK:   -4.15 KCAL/MOL
REMARK 923 INTER-LIGAND FREE ENERGY PREDICTED BY IDOCK:   -3.83 KCAL/MOL
REMARK 924 INTRA-LIGAND FREE ENERGY PREDICTED BY IDOCK:   -0.32 KCAL/MOL
REMARK 927      BINDING AFFINITY PREDICTED BY RF-SCORE:    0.00 PKD
ROOT
HETATM    1  C   UNL     1     -12.808  10.622  71.043  1.00  0.00    -0.496 C  
HETATM    2  C   UNL     1     -11.894  10.227  69.885  1.00  0.00    -0.267 C  
HETATM    3  C   UNL     1     -10.845   9.233  70.332  1.00  0.00    -0.254 A  
HETATM    4  C   UNL     1     -11.241  11.456  69.256  1.00  0.00    -0.277 C  
HETATM    5  C   UNL     1      -9.627   9.455  70.945  1.00  0.00    -0.301 A  
HETATM    6  O   UNL     1     -10.387  11.165  68.240  1.00  0.00    -0.168 OA 
HETATM    7  O   UNL     1     -11.472  12.613  69.577  1.00  0.00    -0.266 OA 
HETATM    8  C   UNL     1      -8.896   8.247  71.148  1.00  0.00    -0.182 A  
HETATM    9  C   UNL     1      -9.565   7.135  70.672  1.00  0.00    -0.165 A  
HETATM   10  S   UNL     1     -11.119   7.556  70.089  1.00  0.00    -0.191 SA 
ENDROOT
BRANCH   9  11
HETATM   11  C   UNL     1      -9.135   5.743  70.606  1.00  0.00    -0.151 C  
HETATM   12  O   UNL     1      -8.603   5.237  69.620  1.00  0.00    -0.096 OA 
BRANCH  11  13
HETATM   13  C   UNL     1      -9.336   4.873  71.809  1.00  0.00    -0.185 A  
HETATM   14  C   UNL     1     -10.614   4.651  72.344  1.00  0.00    -0.225 A  
HETATM   15  C   UNL     1     -10.780   3.813  73.446  1.00  0.00    -0.297 A  
HETATM   16  C   UNL     1      -9.669   3.213  74.036  1.00  0.00    -0.137 A  
HETATM   17  C   UNL     1      -8.391   3.465  73.537  1.00  0.00    -0.075 A  
HETATM   18  C   UNL     1      -8.222   4.297  72.428  1.00  0.00    -0.100 A  
ENDBRANCH  11  13
ENDBRANCH   9  11
TORSDOF 2
ENDMDL
MODEL      154
REMARK 921   NORMALIZED FREE ENERGY PREDICTED BY IDOCK:   -3.47 KCAL/MOL
REMARK 922        TOTAL FREE ENERGY PREDICTED BY IDOCK:   -4.15 KCAL/MOL
REMARK 923 INTER-LIGAND FREE ENERGY PREDICTED BY IDOCK:   -4.16 KCAL/MOL
REMARK 924 INTRA-LIGAND FREE ENERGY PREDICTED BY IDOCK:    0.01 KCAL/MOL
REMARK 927      BINDING AFFINITY PREDICTED BY RF-SCORE:    0.00 PKD
ROOT
HETATM    1  C   UNL     1      -7.597   4.607  67.528  1.00  0.00    -0.078 C  
HETATM    2  C   UNL     1      -8.745   3.847  68.189  1.00  0.00    -0.124 C  
HETATM    3  C   UNL     1      -9.213   4.549  69.445  1.00  0.00    -0.129 A  
HETATM    4  C   UNL     1      -8.348   2.404  68.491  1.00  0.00    -0.057 C  
HETATM    5  C   UNL     1      -8.707   4.485  70.728  1.00  0.00    -0.124 A  
HETATM    6  O   UNL     1      -9.319   1.686  69.113  1.00  0.00    -0.113 OA 
HETATM    7  O   UNL     1      -7.283   1.891  68.181  1.00  0.00    -0.043 OA 
HETATM    8  C   UNL     1      -9.476   5.253  71.652  1.00  0.00    -0.187 A  
HETATM    9  C   UNL     1     -10.559   5.871  71.055  1.00  0.00    -0.250 A  
HETATM   10  S   UNL     1     -10.563   5.606  69.364  1.00  0.00    -0.287 SA 
ENDROOT
BRANCH   9  11
HETATM   11  C   UNL     1     -11.628   6.664  71.652  1.00  0.00    -0.304 C  
HETATM   12  O   UNL     1     -12.488   6.201  72.399  1.00  0.00    -0.180 OA 
BRANCH  11  13
HETATM   13  C   UNL     1     -11.684   8.131  71.355  1.00  0.00    -0.321 A  
HETATM   14  C   UNL     1     -12.631   8.965  71.968  1.00  0.00    -0.460 A  
HETATM   15  C   UNL     1     -12.644  10.333  71.699  1.00  0.00    -0.534 A  
HETATM   16  C   UNL     1     -11.729  10.872  70.797  1.00  0.00    -0.355 A  
HETATM   17  C   UNL     1     -10.814  10.043  70.150  1.00  0.00    -0.365 A  
HETATM   18  C   UNL     1     -10.792   8.673  70.424  1.00  0.00    -0.250 A  
ENDBRANCH  11  13
ENDBRANCH   9  11
TORSDOF 2
ENDMDL
MODEL      155
REMARK 921   NORMALIZED FREE ENERGY PREDICTED BY IDOCK:   -3.45 KCAL/MOL
REMARK 922        TOTAL FREE ENERGY PREDICTED BY IDOCK:   -4.12 KCAL/MOL
REMARK 923 INTER-LIGAND FREE ENERGY PREDICTED BY IDOCK:   -3.80 KCAL/MOL
REMARK 924 INTRA-LIGAND FREE ENERGY PREDICTED BY IDOCK:   -0.32 KCAL/MOL
REMARK 927      BINDING AFFINITY PREDICTED BY RF-SCORE:    0.00 PKD
ROOT
HETATM    1  C   UNL     1     -11.987  12.029  68.636  1.00  0.00    -0.290 C  
HETATM    2  C   UNL     1     -11.247  11.003  67.781  1.00  0.00    -0.374 C  
HETATM    3  C   UNL     1     -10.065  10.422  68.526  1.00  0.00    -0.171 A  
HETATM    4  C   UNL     1     -10.803  11.611  66.453  1.00  0.00    -0.287 C  
HETATM    5  C   UNL     1      -8.784  10.920  68.669  1.00  0.00    -0.154 A  
HETATM    6  O   UNL     1     -10.106  10.755  65.662  1.00  0.00    -0.244 OA 
HETATM    7  O   UNL     1     -11.067  12.744  66.079  1.00  0.00    -0.274 OA 
HETATM    8  C   UNL     1      -7.938  10.035  69.400  1.00  0.00    -0.145 A  
HETATM    9  C   UNL     1      -8.588   8.876  69.784  1.00  0.00    -0.134 A  
HETATM   10  S   UNL     1     -10.244   8.929  69.353  1.00  0.00    -0.213 SA 
ENDROOT
BRANCH   9  11
HETATM   11  C   UNL     1      -8.067   7.694  70.462  1.00  0.00    -0.105 C  
HETATM   12  O   UNL     1      -7.019   7.133  70.149  1.00  0.00    -0.058 OA 
BRANCH  11  13
HETATM   13  C   UNL     1      -8.839   7.131  71.615  1.00  0.00    -0.121 A  
HETATM   14  C   UNL     1      -9.327   5.816  71.594  1.00  0.00    -0.162 A  
HETATM   15  C   UNL     1     -10.017   5.303  72.692  1.00  0.00    -0.197 A  
HETATM   16  C   UNL     1     -10.247   6.109  73.806  1.00  0.00    -0.268 A  
HETATM   17  C   UNL     1      -9.803   7.431  73.816  1.00  0.00    -0.331 A  
HETATM   18  C   UNL     1      -9.104   7.945  72.721  1.00  0.00    -0.272 A  
ENDBRANCH  11  13
ENDBRANCH   9  11
TORSDOF 2
ENDMDL
MODEL      156
REMARK 921   NORMALIZED FREE ENERGY PREDICTED BY IDOCK:   -3.44 KCAL/MOL
REMARK 922        TOTAL FREE ENERGY PREDICTED BY IDOCK:   -4.11 KCAL/MOL
REMARK 923 INTER-LIGAND FREE ENERGY PREDICTED BY IDOCK:   -3.71 KCAL/MOL
REMARK 924 INTRA-LIGAND FREE ENERGY PREDICTED BY IDOCK:   -0.40 KCAL/MOL
REMARK 927      BINDING AFFINITY PREDICTED BY RF-SCORE:    0.00 PKD
ROOT
HETATM    1  C   UNL     1      -6.531   2.202  69.858  1.00  0.00    -0.029 C  
HETATM    2  C   UNL     1      -6.621   3.676  69.470  1.00  0.00    -0.034 C  
HETATM    3  C   UNL     1      -7.881   4.308  70.018  1.00  0.00    -0.052 A  
HETATM    4  C   UNL     1      -6.542   3.852  67.955  1.00  0.00    -0.042 C  
HETATM    5  C   UNL     1      -9.162   4.307  69.502  1.00  0.00    -0.207 A  
HETATM    6  O   UNL     1      -6.653   5.142  67.546  1.00  0.00    -0.050 OA 
HETATM    7  O   UNL     1      -6.354   2.949  67.154  1.00  0.00    -0.034 OA 
HETATM    8  C   UNL     1     -10.065   5.077  70.293  1.00  0.00    -0.339 A  
HETATM    9  C   UNL     1      -9.449   5.660  71.385  1.00  0.00    -0.147 A  
HETATM   10  S   UNL     1      -7.812   5.173  71.500  1.00  0.00    -0.114 SA 
ENDROOT
BRANCH   9  11
HETATM   11  C   UNL     1      -9.988   6.580  72.381  1.00  0.00    -0.170 C  
HETATM   12  O   UNL     1      -9.955   6.373  73.592  1.00  0.00    -0.177 OA 
BRANCH  11  13
HETATM   13  C   UNL     1     -10.609   7.860  71.913  1.00  0.00    -0.285 A  
HETATM   14  C   UNL     1      -9.929   8.726  71.044  1.00  0.00    -0.297 A  
HETATM   15  C   UNL     1     -10.539   9.898  70.597  1.00  0.00    -0.341 A  
HETATM   16  C   UNL     1     -11.821  10.224  71.036  1.00  0.00    -0.472 A  
HETATM   17  C   UNL     1     -12.485   9.390  71.934  1.00  0.00    -0.468 A  
HETATM   18  C   UNL     1     -11.880   8.211  72.377  1.00  0.00    -0.448 A  
ENDBRANCH  11  13
ENDBRANCH   9  11
TORSDOF 2
ENDMDL
MODEL      157
REMARK 921   NORMALIZED FREE ENERGY PREDICTED BY IDOCK:   -3.44 KCAL/MOL
REMARK 922        TOTAL FREE ENERGY PREDICTED BY IDOCK:   -4.11 KCAL/MOL
REMARK 923 INTER-LIGAND FREE ENERGY PREDICTED BY IDOCK:   -3.73 KCAL/MOL
REMARK 924 INTRA-LIGAND FREE ENERGY PREDICTED BY IDOCK:   -0.38 KCAL/MOL
REMARK 927      BINDING AFFINITY PREDICTED BY RF-SCORE:    0.00 PKD
ROOT
HETATM    1  C   UNL     1      -7.014  11.378  66.909  1.00  0.00    -0.140 C  
HETATM    2  C   UNL     1      -7.126  12.005  68.297  1.00  0.00    -0.086 C  
HETATM    3  C   UNL     1      -7.094  13.515  68.219  1.00  0.00    -0.110 A  
HETATM    4  C   UNL     1      -6.029  11.488  69.225  1.00  0.00    -0.065 C  
HETATM    5  C   UNL     1      -6.011  14.369  68.148  1.00  0.00    -0.136 A  
HETATM    6  O   UNL     1      -6.055  12.037  70.467  1.00  0.00    -0.243 OA 
HETATM    7  O   UNL     1      -5.211  10.629  68.931  1.00  0.00    -0.042 OA 
HETATM    8  C   UNL     1      -6.402  15.741  68.153  1.00  0.00    -0.133 A  
HETATM    9  C   UNL     1      -7.773  15.901  68.243  1.00  0.00    -0.137 A  
HETATM   10  S   UNL     1      -8.572  14.388  68.205  1.00  0.00    -0.174 SA 
ENDROOT
BRANCH   9  11
HETATM   11  C   UNL     1      -8.565  17.120  68.363  1.00  0.00    -0.246 C  
HETATM   12  O   UNL     1      -9.717  17.149  68.790  1.00  0.00    -0.264 OA 
BRANCH  11  13
HETATM   13  C   UNL     1      -7.944  18.421  67.955  1.00  0.00    -0.289 A  
HETATM   14  C   UNL     1      -7.952  18.847  66.618  1.00  0.00    -0.280 A  
HETATM   15  C   UNL     1      -7.395  20.076  66.268  1.00  0.00    -0.312 A  
HETATM   16  C   UNL     1      -6.802  20.874  67.244  1.00  0.00    -0.426 A  
HETATM   17  C   UNL     1      -6.751  20.437  68.567  1.00  0.00    -0.271 A  
HETATM   18  C   UNL     1      -7.316  19.211  68.924  1.00  0.00    -0.379 A  
ENDBRANCH  11  13
ENDBRANCH   9  11
TORSDOF 2
ENDMDL
MODEL      158
REMARK 921   NORMALIZED FREE ENERGY PREDICTED BY IDOCK:   -3.41 KCAL/MOL
REMARK 922        TOTAL FREE ENERGY PREDICTED BY IDOCK:   -4.08 KCAL/MOL
REMARK 923 INTER-LIGAND FREE ENERGY PREDICTED BY IDOCK:   -3.76 KCAL/MOL
REMARK 924 INTRA-LIGAND FREE ENERGY PREDICTED BY IDOCK:   -0.32 KCAL/MOL
REMARK 927      BINDING AFFINITY PREDICTED BY RF-SCORE:    0.00 PKD
ROOT
HETATM    1  C   UNL     1     -10.348  15.869  69.029  1.00  0.00    -0.231 C  
HETATM    2  C   UNL     1     -10.923  14.591  69.636  1.00  0.00    -0.225 C  
HETATM    3  C   UNL     1     -10.960  13.471  68.620  1.00  0.00    -0.263 A  
HETATM    4  C   UNL     1     -12.311  14.836  70.222  1.00  0.00    -0.345 C  
HETATM    5  C   UNL     1     -11.907  13.191  67.654  1.00  0.00    -0.405 A  
HETATM    6  O   UNL     1     -12.890  13.725  70.747  1.00  0.00    -0.298 OA 
HETATM    7  O   UNL     1     -12.868  15.923  70.273  1.00  0.00    -0.335 OA 
HETATM    8  C   UNL     1     -11.606  11.999  66.931  1.00  0.00    -0.389 A  
HETATM    9  C   UNL     1     -10.445  11.390  67.372  1.00  0.00    -0.205 A  
HETATM   10  S   UNL     1      -9.677  12.332  68.577  1.00  0.00    -0.080 SA 
ENDROOT
BRANCH   9  11
HETATM   11  C   UNL     1      -9.841  10.127  66.963  1.00  0.00    -0.191 C  
HETATM   12  O   UNL     1     -10.486   9.121  66.677  1.00  0.00    -0.243 OA 
BRANCH  11  13
HETATM   13  C   UNL     1      -8.348  10.043  66.873  1.00  0.00    -0.125 A  
HETATM   14  C   UNL     1      -7.636  10.736  65.882  1.00  0.00    -0.106 A  
HETATM   15  C   UNL     1      -6.244  10.667  65.836  1.00  0.00    -0.134 A  
HETATM   16  C   UNL     1      -5.557   9.884  66.762  1.00  0.00    -0.046 A  
HETATM   17  C   UNL     1      -6.261   9.156  67.721  1.00  0.00    -0.051 A  
HETATM   18  C   UNL     1      -7.654   9.231  67.776  1.00  0.00    -0.084 A  
ENDBRANCH  11  13
ENDBRANCH   9  11
TORSDOF 2
ENDMDL
MODEL      159
REMARK 921   NORMALIZED FREE ENERGY PREDICTED BY IDOCK:   -3.37 KCAL/MOL
REMARK 922        TOTAL FREE ENERGY PREDICTED BY IDOCK:   -4.03 KCAL/MOL
REMARK 923 INTER-LIGAND FREE ENERGY PREDICTED BY IDOCK:   -3.63 KCAL/MOL
REMARK 924 INTRA-LIGAND FREE ENERGY PREDICTED BY IDOCK:   -0.40 KCAL/MOL
REMARK 927      BINDING AFFINITY PREDICTED BY RF-SCORE:    0.00 PKD
ROOT
HETATM    1  C   UNL     1      -6.277   6.221  65.480  1.00  0.00    -0.037 C  
HETATM    2  C   UNL     1      -7.419   7.050  66.062  1.00  0.00    -0.080 C  
HETATM    3  C   UNL     1      -8.338   6.197  66.907  1.00  0.00    -0.106 A  
HETATM    4  C   UNL     1      -8.202   7.760  64.959  1.00  0.00    -0.120 C  
HETATM    5  C   UNL     1      -9.394   5.393  66.522  1.00  0.00    -0.150 A  
HETATM    6  O   UNL     1      -9.255   8.487  65.413  1.00  0.00    -0.117 OA 
HETATM    7  O   UNL     1      -7.915   7.737  63.771  1.00  0.00    -0.135 OA 
HETATM    8  C   UNL     1     -10.055   4.797  67.636  1.00  0.00    -0.142 A  
HETATM    9  C   UNL     1      -9.499   5.172  68.846  1.00  0.00    -0.134 A  
HETATM   10  S   UNL     1      -8.113   6.149  68.608  1.00  0.00    -0.108 SA 
ENDROOT
BRANCH   9  11
HETATM   11  C   UNL     1      -9.924   4.860  70.206  1.00  0.00    -0.251 C  
HETATM   12  O   UNL     1      -9.742   3.771  70.746  1.00  0.00    -0.174 OA 
BRANCH  11  13
HETATM   13  C   UNL     1     -10.613   5.924  71.003  1.00  0.00    -0.312 A  
HETATM   14  C   UNL     1     -11.772   6.557  70.529  1.00  0.00    -0.438 A  
HETATM   15  C   UNL     1     -12.413   7.524  71.303  1.00  0.00    -0.354 A  
HETATM   16  C   UNL     1     -11.886   7.883  72.542  1.00  0.00    -0.390 A  
HETATM   17  C   UNL     1     -10.710   7.291  73.000  1.00  0.00    -0.384 A  
HETATM   18  C   UNL     1     -10.070   6.316  72.231  1.00  0.00    -0.197 A  
ENDBRANCH  11  13
ENDBRANCH   9  11
TORSDOF 2
ENDMDL
MODEL      160
REMARK 921   NORMALIZED FREE ENERGY PREDICTED BY IDOCK:   -3.36 KCAL/MOL
REMARK 922        TOTAL FREE ENERGY PREDICTED BY IDOCK:   -4.02 KCAL/MOL
REMARK 923 INTER-LIGAND FREE ENERGY PREDICTED BY IDOCK:   -3.95 KCAL/MOL
REMARK 924 INTRA-LIGAND FREE ENERGY PREDICTED BY IDOCK:   -0.07 KCAL/MOL
REMARK 927      BINDING AFFINITY PREDICTED BY RF-SCORE:    0.00 PKD
ROOT
HETATM    1  C   UNL     1      -6.298   9.020  65.482  1.00  0.00    -0.067 C  
HETATM    2  C   UNL     1      -6.387   9.495  66.930  1.00  0.00    -0.066 C  
HETATM    3  C   UNL     1      -7.747   9.195  67.521  1.00  0.00    -0.092 A  
HETATM    4  C   UNL     1      -6.065  10.984  67.042  1.00  0.00    -0.082 C  
HETATM    5  C   UNL     1      -8.923   9.914  67.430  1.00  0.00    -0.144 A  
HETATM    6  O   UNL     1      -6.163  11.474  68.305  1.00  0.00    -0.046 OA 
HETATM    7  O   UNL     1      -5.707  11.694  66.114  1.00  0.00    -0.215 OA 
HETATM    8  C   UNL     1      -9.978   9.323  68.187  1.00  0.00    -0.206 A  
HETATM    9  C   UNL     1      -9.578   8.177  68.850  1.00  0.00    -0.153 A  
HETATM   10  S   UNL     1      -7.964   7.770  68.453  1.00  0.00    -0.124 SA 
ENDROOT
BRANCH   9  11
HETATM   11  C   UNL     1     -10.315   7.334  69.784  1.00  0.00    -0.220 C  
HETATM   12  O   UNL     1     -10.097   6.134  69.941  1.00  0.00    -0.165 OA 
BRANCH  11  13
HETATM   13  C   UNL     1     -11.393   7.957  70.616  1.00  0.00    -0.267 A  
HETATM   14  C   UNL     1     -11.294   9.282  71.066  1.00  0.00    -0.390 A  
HETATM   15  C   UNL     1     -12.325   9.851  71.813  1.00  0.00    -0.456 A  
HETATM   16  C   UNL     1     -13.448   9.092  72.138  1.00  0.00    -0.530 A  
HETATM   17  C   UNL     1     -13.533   7.761  71.731  1.00  0.00    -0.373 A  
HETATM   18  C   UNL     1     -12.507   7.191  70.975  1.00  0.00    -0.359 A  
ENDBRANCH  11  13
ENDBRANCH   9  11
TORSDOF 2
ENDMDL
MODEL      161
REMARK 921   NORMALIZED FREE ENERGY PREDICTED BY IDOCK:   -3.33 KCAL/MOL
REMARK 922        TOTAL FREE ENERGY PREDICTED BY IDOCK:   -3.99 KCAL/MOL
REMARK 923 INTER-LIGAND FREE ENERGY PREDICTED BY IDOCK:   -3.62 KCAL/MOL
REMARK 924 INTRA-LIGAND FREE ENERGY PREDICTED BY IDOCK:   -0.37 KCAL/MOL
REMARK 927      BINDING AFFINITY PREDICTED BY RF-SCORE:    0.00 PKD
ROOT
HETATM    1  C   UNL     1      -7.552   5.217  69.776  1.00  0.00    -0.069 C  
HETATM    2  C   UNL     1      -8.819   5.919  69.292  1.00  0.00    -0.118 C  
HETATM    3  C   UNL     1      -8.758   7.405  69.563  1.00  0.00    -0.137 A  
HETATM    4  C   UNL     1     -10.065   5.304  69.925  1.00  0.00    -0.263 C  
HETATM    5  C   UNL     1      -9.062   8.102  70.717  1.00  0.00    -0.159 A  
HETATM    6  O   UNL     1     -11.224   5.910  69.559  1.00  0.00    -0.389 OA 
HETATM    7  O   UNL     1     -10.067   4.330  70.663  1.00  0.00    -0.190 OA 
HETATM    8  C   UNL     1      -8.934   9.513  70.547  1.00  0.00    -0.265 A  
HETATM    9  C   UNL     1      -8.551   9.859  69.264  1.00  0.00    -0.167 A  
HETATM   10  S   UNL     1      -8.240   8.468  68.318  1.00  0.00    -0.124 SA 
ENDROOT
BRANCH   9  11
HETATM   11  C   UNL     1      -8.394  11.178  68.661  1.00  0.00    -0.154 C  
HETATM   12  O   UNL     1      -7.309  11.736  68.509  1.00  0.00    -0.090 OA 
BRANCH  11  13
HETATM   13  C   UNL     1      -9.617  11.899  68.184  1.00  0.00    -0.195 A  
HETATM   14  C   UNL     1     -10.818  11.215  67.938  1.00  0.00    -0.285 A  
HETATM   15  C   UNL     1     -11.952  11.912  67.524  1.00  0.00    -0.102 A  
HETATM   16  C   UNL     1     -11.888  13.291  67.327  1.00  0.00    -0.421 A  
HETATM   17  C   UNL     1     -10.687  13.969  67.527  1.00  0.00    -0.271 A  
HETATM   18  C   UNL     1      -9.550  13.276  67.950  1.00  0.00    -0.217 A  
ENDBRANCH  11  13
ENDBRANCH   9  11
TORSDOF 2
ENDMDL
MODEL      162
REMARK 921   NORMALIZED FREE ENERGY PREDICTED BY IDOCK:   -3.23 KCAL/MOL
REMARK 922        TOTAL FREE ENERGY PREDICTED BY IDOCK:   -3.87 KCAL/MOL
REMARK 923 INTER-LIGAND FREE ENERGY PREDICTED BY IDOCK:   -3.54 KCAL/MOL
REMARK 924 INTRA-LIGAND FREE ENERGY PREDICTED BY IDOCK:   -0.33 KCAL/MOL
REMARK 927      BINDING AFFINITY PREDICTED BY RF-SCORE:    0.00 PKD
ROOT
HETATM    1  C   UNL     1     -11.651  10.602  70.690  1.00  0.00    -0.432 C  
HETATM    2  C   UNL     1     -11.872  11.374  69.392  1.00  0.00    -0.419 C  
HETATM    3  C   UNL     1     -10.720  11.171  68.433  1.00  0.00    -0.198 A  
HETATM    4  C   UNL     1     -12.092  12.860  69.666  1.00  0.00    -0.226 C  
HETATM    5  C   UNL     1      -9.503  11.822  68.370  1.00  0.00    -0.188 A  
HETATM    6  O   UNL     1     -12.260  13.607  68.543  1.00  0.00    -0.342 OA 
HETATM    7  O   UNL     1     -12.162  13.364  70.777  1.00  0.00    -0.358 OA 
HETATM    8  C   UNL     1      -8.708  11.379  67.271  1.00  0.00    -0.148 A  
HETATM    9  C   UNL     1      -9.344  10.413  66.513  1.00  0.00    -0.163 A  
HETATM   10  S   UNL     1     -10.845   9.974  67.209  1.00  0.00    -0.148 SA 
ENDROOT
BRANCH   9  11
HETATM   11  C   UNL     1      -8.920   9.770  65.274  1.00  0.00    -0.193 C  
HETATM   12  O   UNL     1      -9.248  10.158  64.155  1.00  0.00    -0.228 OA 
BRANCH  11  13
HETATM   13  C   UNL     1      -8.022   8.574  65.358  1.00  0.00    -0.113 A  
HETATM   14  C   UNL     1      -8.469   7.363  65.909  1.00  0.00    -0.155 A  
HETATM   15  C   UNL     1      -7.624   6.254  65.949  1.00  0.00    -0.084 A  
HETATM   16  C   UNL     1      -6.322   6.355  65.463  1.00  0.00    -0.038 A  
HETATM   17  C   UNL     1      -5.857   7.567  64.955  1.00  0.00    -0.038 A  
HETATM   18  C   UNL     1      -6.703   8.678  64.906  1.00  0.00    -0.068 A  
ENDBRANCH  11  13
ENDBRANCH   9  11
TORSDOF 2
ENDMDL
MODEL      163
REMARK 921   NORMALIZED FREE ENERGY PREDICTED BY IDOCK:   -3.14 KCAL/MOL
REMARK 922        TOTAL FREE ENERGY PREDICTED BY IDOCK:   -3.77 KCAL/MOL
REMARK 923 INTER-LIGAND FREE ENERGY PREDICTED BY IDOCK:   -3.38 KCAL/MOL
REMARK 924 INTRA-LIGAND FREE ENERGY PREDICTED BY IDOCK:   -0.39 KCAL/MOL
REMARK 927      BINDING AFFINITY PREDICTED BY RF-SCORE:    0.00 PKD
ROOT
HETATM    1  C   UNL     1      -8.550   3.841  64.685  1.00  0.00    -0.105 C  
HETATM    2  C   UNL     1      -7.633   3.898  65.905  1.00  0.00    -0.089 C  
HETATM    3  C   UNL     1      -8.290   4.640  67.048  1.00  0.00    -0.105 A  
HETATM    4  C   UNL     1      -6.288   4.528  65.553  1.00  0.00    -0.035 C  
HETATM    5  C   UNL     1      -8.356   5.998  67.292  1.00  0.00    -0.105 A  
HETATM    6  O   UNL     1      -5.440   4.639  66.608  1.00  0.00    -0.012 OA 
HETATM    7  O   UNL     1      -5.949   4.874  64.431  1.00  0.00    -0.020 OA 
HETATM    8  C   UNL     1      -9.017   6.295  68.521  1.00  0.00    -0.123 A  
HETATM    9  C   UNL     1      -9.425   5.157  69.192  1.00  0.00    -0.134 A  
HETATM   10  S   UNL     1      -9.105   3.752  68.269  1.00  0.00    -0.157 SA 
ENDROOT
BRANCH   9  11
HETATM   11  C   UNL     1     -10.050   5.020  70.503  1.00  0.00    -0.253 C  
HETATM   12  O   UNL     1     -10.129   3.957  71.115  1.00  0.00    -0.140 OA 
BRANCH  11  13
HETATM   13  C   UNL     1     -10.621   6.241  71.156  1.00  0.00    -0.289 A  
HETATM   14  C   UNL     1      -9.922   6.925  72.162  1.00  0.00    -0.176 A  
HETATM   15  C   UNL     1     -10.460   8.077  72.734  1.00  0.00    -0.415 A  
HETATM   16  C   UNL     1     -11.710   8.537  72.325  1.00  0.00    -0.443 A  
HETATM   17  C   UNL     1     -12.430   7.837  71.358  1.00  0.00    -0.342 A  
HETATM   18  C   UNL     1     -11.891   6.688  70.776  1.00  0.00    -0.441 A  
ENDBRANCH  11  13
ENDBRANCH   9  11
TORSDOF 2
ENDMDL
MODEL      164
REMARK 921   NORMALIZED FREE ENERGY PREDICTED BY IDOCK:   -3.11 KCAL/MOL
REMARK 922        TOTAL FREE ENERGY PREDICTED BY IDOCK:   -3.74 KCAL/MOL
REMARK 923 INTER-LIGAND FREE ENERGY PREDICTED BY IDOCK:   -3.76 KCAL/MOL
REMARK 924 INTRA-LIGAND FREE ENERGY PREDICTED BY IDOCK:    0.02 KCAL/MOL
REMARK 927      BINDING AFFINITY PREDICTED BY RF-SCORE:    0.00 PKD
ROOT
HETATM    1  C   UNL     1      -8.391  19.459  65.974  1.00  0.00    -0.230 C  
HETATM    2  C   UNL     1      -9.059  18.608  67.053  1.00  0.00    -0.295 C  
HETATM    3  C   UNL     1      -8.802  17.135  66.825  1.00  0.00    -0.246 A  
HETATM    4  C   UNL     1     -10.558  18.891  67.126  1.00  0.00    -0.458 C  
HETATM    5  C   UNL     1      -9.464  16.244  66.003  1.00  0.00    -0.369 A  
HETATM    6  O   UNL     1     -11.215  18.137  68.046  1.00  0.00    -0.010 OA 
HETATM    7  O   UNL     1     -11.144  19.738  66.468  1.00  0.00    -0.310 OA 
HETATM    8  C   UNL     1      -8.951  14.918  66.119  1.00  0.00    -0.106 A  
HETATM    9  C   UNL     1      -7.921  14.826  67.037  1.00  0.00    -0.104 A  
HETATM   10  S   UNL     1      -7.513  16.367  67.660  1.00  0.00    -0.142 SA 
ENDROOT
BRANCH   9  11
HETATM   11  C   UNL     1      -7.193  13.653  67.509  1.00  0.00    -0.156 C  
HETATM   12  O   UNL     1      -5.968  13.552  67.480  1.00  0.00    -0.296 OA 
BRANCH  11  13
HETATM   13  C   UNL     1      -7.971  12.506  68.075  1.00  0.00    -0.153 A  
HETATM   14  C   UNL     1      -7.327  11.368  68.585  1.00  0.00    -0.104 A  
HETATM   15  C   UNL     1      -8.072  10.325  69.134  1.00  0.00    -0.138 A  
HETATM   16  C   UNL     1      -9.464  10.400  69.153  1.00  0.00    -0.220 A  
HETATM   17  C   UNL     1     -10.112  11.507  68.608  1.00  0.00    -0.214 A  
HETATM   18  C   UNL     1      -9.369  12.558  68.064  1.00  0.00    -0.205 A  
ENDBRANCH  11  13
ENDBRANCH   9  11
TORSDOF 2
ENDMDL
MODEL      165
REMARK 921   NORMALIZED FREE ENERGY PREDICTED BY IDOCK:   -3.10 KCAL/MOL
REMARK 922        TOTAL FREE ENERGY PREDICTED BY IDOCK:   -3.74 KCAL/MOL
REMARK 923 INTER-LIGAND FREE ENERGY PREDICTED BY IDOCK:   -3.35 KCAL/MOL
REMARK 924 INTRA-LIGAND FREE ENERGY PREDICTED BY IDOCK:   -0.39 KCAL/MOL
REMARK 927      BINDING AFFINITY PREDICTED BY RF-SCORE:    0.00 PKD
ROOT
HETATM    1  C   UNL     1      -6.126   9.132  65.500  1.00  0.00    -0.059 C  
HETATM    2  C   UNL     1      -7.539   9.250  66.067  1.00  0.00    -0.096 C  
HETATM    3  C   UNL     1      -8.123   7.887  66.367  1.00  0.00    -0.108 A  
HETATM    4  C   UNL     1      -8.448  10.032  65.122  1.00  0.00    -0.153 C  
HETATM    5  C   UNL     1      -8.760   6.998  65.523  1.00  0.00    -0.043 A  
HETATM    6  O   UNL     1      -9.730  10.141  65.556  1.00  0.00    -0.238 OA 
HETATM    7  O   UNL     1      -8.086  10.564  64.083  1.00  0.00    -0.129 OA 
HETATM    8  C   UNL     1      -9.225   5.838  66.210  1.00  0.00    -0.168 A  
HETATM    9  C   UNL     1      -8.947   5.876  67.564  1.00  0.00    -0.107 A  
HETATM   10  S   UNL     1      -8.025   7.263  67.963  1.00  0.00    -0.120 SA 
ENDROOT
BRANCH   9  11
HETATM   11  C   UNL     1      -9.322   4.944  68.621  1.00  0.00    -0.135 C  
HETATM   12  O   UNL     1      -9.145   3.729  68.556  1.00  0.00    -0.118 OA 
BRANCH  11  13
HETATM   13  C   UNL     1      -9.948   5.488  69.868  1.00  0.00    -0.282 A  
HETATM   14  C   UNL     1      -9.314   5.371  71.114  1.00  0.00    -0.186 A  
HETATM   15  C   UNL     1      -9.902   5.912  72.257  1.00  0.00    -0.182 A  
HETATM   16  C   UNL     1     -11.139   6.549  72.166  1.00  0.00    -0.296 A  
HETATM   17  C   UNL     1     -11.795   6.629  70.939  1.00  0.00    -0.434 A  
HETATM   18  C   UNL     1     -11.205   6.096  69.791  1.00  0.00    -0.494 A  
ENDBRANCH  11  13
ENDBRANCH   9  11
TORSDOF 2
ENDMDL
MODEL      166
REMARK 921   NORMALIZED FREE ENERGY PREDICTED BY IDOCK:   -3.10 KCAL/MOL
REMARK 922        TOTAL FREE ENERGY PREDICTED BY IDOCK:   -3.73 KCAL/MOL
REMARK 923 INTER-LIGAND FREE ENERGY PREDICTED BY IDOCK:   -3.62 KCAL/MOL
REMARK 924 INTRA-LIGAND FREE ENERGY PREDICTED BY IDOCK:   -0.11 KCAL/MOL
REMARK 927      BINDING AFFINITY PREDICTED BY RF-SCORE:    0.00 PKD
ROOT
HETATM    1  C   UNL     1      -9.951   7.275  72.188  1.00  0.00    -0.191 C  
HETATM    2  C   UNL     1      -8.630   7.472  71.448  1.00  0.00    -0.124 C  
HETATM    3  C   UNL     1      -8.862   7.960  70.035  1.00  0.00    -0.141 A  
HETATM    4  C   UNL     1      -7.802   6.188  71.447  1.00  0.00    -0.108 C  
HETATM    5  C   UNL     1      -9.156   7.241  68.893  1.00  0.00    -0.132 A  
HETATM    6  O   UNL     1      -6.629   6.291  70.771  1.00  0.00    -0.049 OA 
HETATM    7  O   UNL     1      -8.111   5.156  72.025  1.00  0.00    -0.109 OA 
HETATM    8  C   UNL     1      -9.240   8.071  67.737  1.00  0.00    -0.142 A  
HETATM    9  C   UNL     1      -8.992   9.402  68.021  1.00  0.00    -0.127 A  
HETATM   10  S   UNL     1      -8.776   9.642  69.702  1.00  0.00    -0.213 SA 
ENDROOT
BRANCH   9  11
HETATM   11  C   UNL     1      -8.895  10.546  67.121  1.00  0.00    -0.136 C  
HETATM   12  O   UNL     1      -7.955  10.734  66.352  1.00  0.00    -0.139 OA 
BRANCH  11  13
HETATM   13  C   UNL     1     -10.006  11.550  67.117  1.00  0.00    -0.222 A  
HETATM   14  C   UNL     1     -10.289  12.331  68.248  1.00  0.00    -0.227 A  
HETATM   15  C   UNL     1     -11.309  13.282  68.210  1.00  0.00    -0.335 A  
HETATM   16  C   UNL     1     -12.070  13.439  67.053  1.00  0.00    -0.390 A  
HETATM   17  C   UNL     1     -11.823  12.636  65.941  1.00  0.00    -0.499 A  
HETATM   18  C   UNL     1     -10.797  11.689  65.972  1.00  0.00    -0.339 A  
ENDBRANCH  11  13
ENDBRANCH   9  11
TORSDOF 2
ENDMDL
MODEL      167
REMARK 921   NORMALIZED FREE ENERGY PREDICTED BY IDOCK:   -3.09 KCAL/MOL
REMARK 922        TOTAL FREE ENERGY PREDICTED BY IDOCK:   -3.73 KCAL/MOL
REMARK 923 INTER-LIGAND FREE ENERGY PREDICTED BY IDOCK:   -3.32 KCAL/MOL
REMARK 924 INTRA-LIGAND FREE ENERGY PREDICTED BY IDOCK:   -0.41 KCAL/MOL
REMARK 927      BINDING AFFINITY PREDICTED BY RF-SCORE:    0.00 PKD
ROOT
HETATM    1  C   UNL     1      -6.476   4.575  67.221  1.00  0.00    -0.042 C  
HETATM    2  C   UNL     1      -7.309   5.160  66.083  1.00  0.00    -0.081 C  
HETATM    3  C   UNL     1      -7.826   6.537  66.437  1.00  0.00    -0.104 A  
HETATM    4  C   UNL     1      -8.460   4.230  65.708  1.00  0.00    -0.113 C  
HETATM    5  C   UNL     1      -8.945   6.896  67.164  1.00  0.00    -0.121 A  
HETATM    6  O   UNL     1      -9.260   4.715  64.723  1.00  0.00    -0.156 OA 
HETATM    7  O   UNL     1      -8.654   3.125  66.194  1.00  0.00    -0.109 OA 
HETATM    8  C   UNL     1      -9.121   8.310  67.222  1.00  0.00    -0.157 A  
HETATM    9  C   UNL     1      -8.143   8.996  66.526  1.00  0.00    -0.111 A  
HETATM   10  S   UNL     1      -6.962   7.923  65.909  1.00  0.00    -0.057 SA 
ENDROOT
BRANCH   9  11
HETATM   11  C   UNL     1      -8.009  10.425  66.268  1.00  0.00    -0.138 C  
HETATM   12  O   UNL     1      -7.042  11.097  66.624  1.00  0.00    -0.133 OA 
BRANCH  11  13
HETATM   13  C   UNL     1      -9.100  11.124  65.516  1.00  0.00    -0.211 A  
HETATM   14  C   UNL     1      -9.890  12.110  66.125  1.00  0.00    -0.254 A  
HETATM   15  C   UNL     1     -10.880  12.768  65.396  1.00  0.00    -0.313 A  
HETATM   16  C   UNL     1     -11.104  12.427  64.064  1.00  0.00    -0.452 A  
HETATM   17  C   UNL     1     -10.353  11.417  63.465  1.00  0.00    -0.476 A  
HETATM   18  C   UNL     1      -9.354  10.762  64.189  1.00  0.00    -0.286 A  
ENDBRANCH  11  13
ENDBRANCH   9  11
TORSDOF 2
ENDMDL
MODEL      168
REMARK 921   NORMALIZED FREE ENERGY PREDICTED BY IDOCK:   -3.08 KCAL/MOL
REMARK 922        TOTAL FREE ENERGY PREDICTED BY IDOCK:   -3.71 KCAL/MOL
REMARK 923 INTER-LIGAND FREE ENERGY PREDICTED BY IDOCK:   -3.92 KCAL/MOL
REMARK 924 INTRA-LIGAND FREE ENERGY PREDICTED BY IDOCK:    0.21 KCAL/MOL
REMARK 927      BINDING AFFINITY PREDICTED BY RF-SCORE:    0.00 PKD
ROOT
HETATM    1  C   UNL     1      -7.975  11.797  67.810  1.00  0.00    -0.141 C  
HETATM    2  C   UNL     1      -8.418  10.408  67.355  1.00  0.00    -0.121 C  
HETATM    3  C   UNL     1      -8.423   9.430  68.509  1.00  0.00    -0.119 A  
HETATM    4  C   UNL     1      -7.539   9.896  66.216  1.00  0.00    -0.102 C  
HETATM    5  C   UNL     1      -7.383   8.696  69.044  1.00  0.00    -0.077 A  
HETATM    6  O   UNL     1      -7.863   8.647  65.790  1.00  0.00    -0.094 OA 
HETATM    7  O   UNL     1      -6.646  10.535  65.679  1.00  0.00    -0.124 OA 
HETATM    8  C   UNL     1      -7.814   7.833  70.095  1.00  0.00    -0.095 A  
HETATM    9  C   UNL     1      -9.175   7.918  70.326  1.00  0.00    -0.152 A  
HETATM   10  S   UNL     1      -9.891   9.125  69.346  1.00  0.00    -0.179 SA 
ENDROOT
BRANCH   9  11
HETATM   11  C   UNL     1     -10.016   7.153  71.240  1.00  0.00    -0.189 C  
HETATM   12  O   UNL     1      -9.669   6.099  71.769  1.00  0.00    -0.155 OA 
BRANCH  11  13
HETATM   13  C   UNL     1     -11.379   7.679  71.569  1.00  0.00    -0.286 A  
HETATM   14  C   UNL     1     -12.521   6.872  71.452  1.00  0.00    -0.413 A  
HETATM   15  C   UNL     1     -13.776   7.374  71.794  1.00  0.00    -0.417 A  
HETATM   16  C   UNL     1     -13.902   8.693  72.228  1.00  0.00    -0.459 A  
HETATM   17  C   UNL     1     -12.778   9.514  72.304  1.00  0.00    -0.388 A  
HETATM   18  C   UNL     1     -11.518   9.012  71.971  1.00  0.00    -0.408 A  
ENDBRANCH  11  13
ENDBRANCH   9  11
TORSDOF 2
ENDMDL
MODEL      169
REMARK 921   NORMALIZED FREE ENERGY PREDICTED BY IDOCK:   -3.08 KCAL/MOL
REMARK 922        TOTAL FREE ENERGY PREDICTED BY IDOCK:   -3.71 KCAL/MOL
REMARK 923 INTER-LIGAND FREE ENERGY PREDICTED BY IDOCK:   -3.31 KCAL/MOL
REMARK 924 INTRA-LIGAND FREE ENERGY PREDICTED BY IDOCK:   -0.40 KCAL/MOL
REMARK 927      BINDING AFFINITY PREDICTED BY RF-SCORE:    0.00 PKD
ROOT
HETATM    1  C   UNL     1     -11.343  11.770  68.945  1.00  0.00    -0.326 C  
HETATM    2  C   UNL     1     -10.913  10.583  68.086  1.00  0.00    -0.330 C  
HETATM    3  C   UNL     1      -9.816   9.789  68.760  1.00  0.00    -0.169 A  
HETATM    4  C   UNL     1     -10.473  11.041  66.697  1.00  0.00    -0.256 C  
HETATM    5  C   UNL     1      -8.452  10.009  68.774  1.00  0.00    -0.126 A  
HETATM    6  O   UNL     1     -10.044  10.031  65.896  1.00  0.00    -0.264 OA 
HETATM    7  O   UNL     1     -10.528  12.191  66.289  1.00  0.00    -0.230 OA 
HETATM    8  C   UNL     1      -7.747   8.989  69.478  1.00  0.00    -0.082 A  
HETATM    9  C   UNL     1      -8.587   8.007  69.971  1.00  0.00    -0.134 A  
HETATM   10  S   UNL     1     -10.227   8.395  69.673  1.00  0.00    -0.213 SA 
ENDROOT
BRANCH   9  11
HETATM   11  C   UNL     1      -8.265   6.764  70.663  1.00  0.00    -0.120 C  
HETATM   12  O   UNL     1      -7.764   6.715  71.784  1.00  0.00    -0.095 OA 
BRANCH  11  13
HETATM   13  C   UNL     1      -8.569   5.465  69.982  1.00  0.00    -0.124 A  
HETATM   14  C   UNL     1      -8.230   5.247  68.638  1.00  0.00    -0.093 A  
HETATM   15  C   UNL     1      -8.496   4.019  68.035  1.00  0.00    -0.104 A  
HETATM   16  C   UNL     1      -9.126   3.010  68.761  1.00  0.00    -0.211 A  
HETATM   17  C   UNL     1      -9.506   3.234  70.084  1.00  0.00    -0.233 A  
HETATM   18  C   UNL     1      -9.233   4.461  70.694  1.00  0.00    -0.198 A  
ENDBRANCH  11  13
ENDBRANCH   9  11
TORSDOF 2
ENDMDL
MODEL      170
REMARK 921   NORMALIZED FREE ENERGY PREDICTED BY IDOCK:   -3.07 KCAL/MOL
REMARK 922        TOTAL FREE ENERGY PREDICTED BY IDOCK:   -3.69 KCAL/MOL
REMARK 923 INTER-LIGAND FREE ENERGY PREDICTED BY IDOCK:   -3.33 KCAL/MOL
REMARK 924 INTRA-LIGAND FREE ENERGY PREDICTED BY IDOCK:   -0.36 KCAL/MOL
REMARK 927      BINDING AFFINITY PREDICTED BY RF-SCORE:    0.00 PKD
ROOT
HETATM    1  C   UNL     1     -10.672  10.429  68.570  1.00  0.00    -0.255 C  
HETATM    2  C   UNL     1     -10.720   9.655  67.254  1.00  0.00    -0.284 C  
HETATM    3  C   UNL     1      -9.935   8.366  67.349  1.00  0.00    -0.212 A  
HETATM    4  C   UNL     1     -10.218  10.511  66.094  1.00  0.00    -0.236 C  
HETATM    5  C   UNL     1      -8.580   8.148  67.187  1.00  0.00    -0.124 A  
HETATM    6  O   UNL     1     -10.204   9.865  64.899  1.00  0.00    -0.176 OA 
HETATM    7  O   UNL     1      -9.891  11.686  66.180  1.00  0.00    -0.210 OA 
HETATM    8  C   UNL     1      -8.238   6.768  67.295  1.00  0.00    -0.121 A  
HETATM    9  C   UNL     1      -9.340   5.964  67.519  1.00  0.00    -0.110 A  
HETATM   10  S   UNL     1     -10.757   6.904  67.712  1.00  0.00    -0.252 SA 
ENDROOT
BRANCH   9  11
HETATM   11  C   UNL     1      -9.435   4.511  67.603  1.00  0.00    -0.160 C  
HETATM   12  O   UNL     1      -9.453   3.886  68.662  1.00  0.00    -0.156 OA 
BRANCH  11  13
HETATM   13  C   UNL     1      -9.528   3.724  66.332  1.00  0.00    -0.197 A  
HETATM   14  C   UNL     1     -10.203   4.228  65.209  1.00  0.00    -0.234 A  
HETATM   15  C   UNL     1     -10.250   3.490  64.027  1.00  0.00    -0.223 A  
HETATM   16  C   UNL     1      -9.648   2.235  63.966  1.00  0.00    -0.137 A  
HETATM   17  C   UNL     1      -9.014   1.709  65.091  1.00  0.00    -0.124 A  
HETATM   18  C   UNL     1      -8.957   2.449  66.275  1.00  0.00    -0.120 A  
ENDBRANCH  11  13
ENDBRANCH   9  11
TORSDOF 2
ENDMDL
MODEL      171
REMARK 921   NORMALIZED FREE ENERGY PREDICTED BY IDOCK:   -3.02 KCAL/MOL
REMARK 922        TOTAL FREE ENERGY PREDICTED BY IDOCK:   -3.64 KCAL/MOL
REMARK 923 INTER-LIGAND FREE ENERGY PREDICTED BY IDOCK:   -3.29 KCAL/MOL
REMARK 924 INTRA-LIGAND FREE ENERGY PREDICTED BY IDOCK:   -0.35 KCAL/MOL
REMARK 927      BINDING AFFINITY PREDICTED BY RF-SCORE:    0.00 PKD
ROOT
HETATM    1  C   UNL     1     -10.255   8.948  71.056  1.00  0.00    -0.322 C  
HETATM    2  C   UNL     1     -10.980   9.002  69.714  1.00  0.00    -0.177 C  
HETATM    3  C   UNL     1     -10.320   8.096  68.699  1.00  0.00    -0.200 A  
HETATM    4  C   UNL     1     -11.060  10.434  69.189  1.00  0.00    -0.246 C  
HETATM    5  C   UNL     1      -9.230   8.334  67.884  1.00  0.00    -0.140 A  
HETATM    6  O   UNL     1     -11.665  10.543  67.978  1.00  0.00    -0.450 OA 
HETATM    7  O   UNL     1     -10.668  11.423  69.791  1.00  0.00    -0.068 OA 
HETATM    8  C   UNL     1      -8.955   7.238  67.014  1.00  0.00    -0.140 A  
HETATM    9  C   UNL     1      -9.851   6.197  67.173  1.00  0.00    -0.141 A  
HETATM   10  S   UNL     1     -10.941   6.514  68.454  1.00  0.00    -0.251 SA 
ENDROOT
BRANCH   9  11
HETATM   11  C   UNL     1      -9.972   4.948  66.429  1.00  0.00    -0.234 C  
HETATM   12  O   UNL     1     -10.798   4.760  65.538  1.00  0.00    -0.239 OA 
BRANCH  11  13
HETATM   13  C   UNL     1      -9.034   3.827  66.753  1.00  0.00    -0.150 A  
HETATM   14  C   UNL     1      -7.860   3.619  66.012  1.00  0.00    -0.089 A  
HETATM   15  C   UNL     1      -6.987   2.587  66.352  1.00  0.00    -0.048 A  
HETATM   16  C   UNL     1      -7.292   1.739  67.415  1.00  0.00    -0.054 A  
HETATM   17  C   UNL     1      -8.478   1.912  68.127  1.00  0.00    -0.088 A  
HETATM   18  C   UNL     1      -9.352   2.950  67.796  1.00  0.00    -0.247 A  
ENDBRANCH  11  13
ENDBRANCH   9  11
TORSDOF 2
ENDMDL
MODEL      172
REMARK 921   NORMALIZED FREE ENERGY PREDICTED BY IDOCK:   -3.02 KCAL/MOL
REMARK 922        TOTAL FREE ENERGY PREDICTED BY IDOCK:   -3.64 KCAL/MOL
REMARK 923 INTER-LIGAND FREE ENERGY PREDICTED BY IDOCK:   -3.28 KCAL/MOL
REMARK 924 INTRA-LIGAND FREE ENERGY PREDICTED BY IDOCK:   -0.36 KCAL/MOL
REMARK 927      BINDING AFFINITY PREDICTED BY RF-SCORE:    0.00 PKD
ROOT
HETATM    1  C   UNL     1     -10.431  16.070  67.712  1.00  0.00    -0.298 C  
HETATM    2  C   UNL     1      -9.251  15.414  66.999  1.00  0.00    -0.242 C  
HETATM    3  C   UNL     1      -9.188  13.933  67.296  1.00  0.00    -0.235 A  
HETATM    4  C   UNL     1      -7.936  16.097  67.371  1.00  0.00    -0.160 C  
HETATM    5  C   UNL     1      -8.634  13.275  68.377  1.00  0.00    -0.130 A  
HETATM    6  O   UNL     1      -6.842  15.534  66.794  1.00  0.00    -0.165 OA 
HETATM    7  O   UNL     1      -7.837  17.086  68.082  1.00  0.00    -0.183 OA 
HETATM    8  C   UNL     1      -8.725  11.857  68.253  1.00  0.00    -0.170 A  
HETATM    9  C   UNL     1      -9.333  11.466  67.073  1.00  0.00    -0.174 A  
HETATM   10  S   UNL     1      -9.886  12.822  66.188  1.00  0.00    -0.252 SA 
ENDROOT
BRANCH   9  11
HETATM   11  C   UNL     1      -9.541  10.129  66.529  1.00  0.00    -0.187 C  
HETATM   12  O   UNL     1     -10.423   9.364  66.913  1.00  0.00    -0.245 OA 
BRANCH  11  13
HETATM   13  C   UNL     1      -8.641   9.655  65.429  1.00  0.00    -0.167 A  
HETATM   14  C   UNL     1      -9.013   9.770  64.081  1.00  0.00    -0.276 A  
HETATM   15  C   UNL     1      -8.145   9.349  63.074  1.00  0.00    -0.151 A  
HETATM   16  C   UNL     1      -6.914   8.787  63.406  1.00  0.00    -0.089 A  
HETATM   17  C   UNL     1      -6.557   8.628  64.745  1.00  0.00    -0.066 A  
HETATM   18  C   UNL     1      -7.420   9.057  65.757  1.00  0.00    -0.090 A  
ENDBRANCH  11  13
ENDBRANCH   9  11
TORSDOF 2
ENDMDL
MODEL      173
REMARK 921   NORMALIZED FREE ENERGY PREDICTED BY IDOCK:   -3.01 KCAL/MOL
REMARK 922        TOTAL FREE ENERGY PREDICTED BY IDOCK:   -3.63 KCAL/MOL
REMARK 923 INTER-LIGAND FREE ENERGY PREDICTED BY IDOCK:   -3.27 KCAL/MOL
REMARK 924 INTRA-LIGAND FREE ENERGY PREDICTED BY IDOCK:   -0.36 KCAL/MOL
REMARK 927      BINDING AFFINITY PREDICTED BY RF-SCORE:    0.00 PKD
ROOT
HETATM    1  C   UNL     1      -7.340   5.263  66.444  1.00  0.00    -0.082 C  
HETATM    2  C   UNL     1      -8.133   4.095  67.025  1.00  0.00    -0.100 C  
HETATM    3  C   UNL     1      -8.321   4.251  68.517  1.00  0.00    -0.084 A  
HETATM    4  C   UNL     1      -7.466   2.760  66.699  1.00  0.00    -0.071 C  
HETATM    5  C   UNL     1      -7.468   3.915  69.551  1.00  0.00    -0.053 A  
HETATM    6  O   UNL     1      -8.109   1.683  67.221  1.00  0.00    -0.064 OA 
HETATM    7  O   UNL     1      -6.472   2.626  66.002  1.00  0.00    -0.027 OA 
HETATM    8  C   UNL     1      -8.044   4.165  70.831  1.00  0.00    -0.070 A  
HETATM    9  C   UNL     1      -9.329   4.670  70.745  1.00  0.00    -0.151 A  
HETATM   10  S   UNL     1      -9.774   4.942  69.115  1.00  0.00    -0.190 SA 
ENDROOT
BRANCH   9  11
HETATM   11  C   UNL     1     -10.285   4.974  71.804  1.00  0.00    -0.207 C  
HETATM   12  O   UNL     1     -10.601   4.182  72.689  1.00  0.00    -0.177 OA 
BRANCH  11  13
HETATM   13  C   UNL     1     -10.916   6.332  71.831  1.00  0.00    -0.302 A  
HETATM   14  C   UNL     1     -10.158   7.485  72.084  1.00  0.00    -0.235 A  
HETATM   15  C   UNL     1     -10.763   8.742  72.074  1.00  0.00    -0.417 A  
HETATM   16  C   UNL     1     -12.132   8.852  71.838  1.00  0.00    -0.443 A  
HETATM   17  C   UNL     1     -12.899   7.707  71.629  1.00  0.00    -0.378 A  
HETATM   18  C   UNL     1     -12.296   6.447  71.629  1.00  0.00    -0.216 A  
ENDBRANCH  11  13
ENDBRANCH   9  11
TORSDOF 2
ENDMDL
MODEL      174
REMARK 921   NORMALIZED FREE ENERGY PREDICTED BY IDOCK:   -2.99 KCAL/MOL
REMARK 922        TOTAL FREE ENERGY PREDICTED BY IDOCK:   -3.61 KCAL/MOL
REMARK 923 INTER-LIGAND FREE ENERGY PREDICTED BY IDOCK:   -3.41 KCAL/MOL
REMARK 924 INTRA-LIGAND FREE ENERGY PREDICTED BY IDOCK:   -0.20 KCAL/MOL
REMARK 927      BINDING AFFINITY PREDICTED BY RF-SCORE:    0.00 PKD
ROOT
HETATM    1  C   UNL     1      -8.613  10.830  67.487  1.00  0.00    -0.125 C  
HETATM    2  C   UNL     1      -9.416   9.531  67.445  1.00  0.00    -0.164 C  
HETATM    3  C   UNL     1      -9.459   8.872  68.806  1.00  0.00    -0.144 A  
HETATM    4  C   UNL     1      -8.857   8.572  66.397  1.00  0.00    -0.150 C  
HETATM    5  C   UNL     1      -8.537   8.039  69.409  1.00  0.00    -0.136 A  
HETATM    6  O   UNL     1      -9.510   7.382  66.337  1.00  0.00    -0.178 OA 
HETATM    7  O   UNL     1      -7.938   8.828  65.632  1.00  0.00    -0.097 OA 
HETATM    8  C   UNL     1      -8.981   7.572  70.682  1.00  0.00    -0.154 A  
HETATM    9  C   UNL     1     -10.237   8.047  71.012  1.00  0.00    -0.190 A  
HETATM   10  S   UNL     1     -10.811   9.142  69.829  1.00  0.00    -0.178 SA 
ENDROOT
BRANCH   9  11
HETATM   11  C   UNL     1     -11.076   7.744  72.167  1.00  0.00    -0.279 C  
HETATM   12  O   UNL     1     -11.972   8.481  72.574  1.00  0.00    -0.389 OA 
BRANCH  11  13
HETATM   13  C   UNL     1     -10.850   6.457  72.899  1.00  0.00    -0.286 A  
HETATM   14  C   UNL     1      -9.693   6.246  73.664  1.00  0.00    -0.182 A  
HETATM   15  C   UNL     1      -9.518   5.051  74.362  1.00  0.00    -0.138 A  
HETATM   16  C   UNL     1     -10.485   4.051  74.278  1.00  0.00    -0.283 A  
HETATM   17  C   UNL     1     -11.615   4.236  73.484  1.00  0.00    -0.174 A  
HETATM   18  C   UNL     1     -11.798   5.435  72.791  1.00  0.00    -0.162 A  
ENDBRANCH  11  13
ENDBRANCH   9  11
TORSDOF 2
ENDMDL
MODEL      175
REMARK 921   NORMALIZED FREE ENERGY PREDICTED BY IDOCK:   -2.96 KCAL/MOL
REMARK 922        TOTAL FREE ENERGY PREDICTED BY IDOCK:   -3.57 KCAL/MOL
REMARK 923 INTER-LIGAND FREE ENERGY PREDICTED BY IDOCK:   -3.28 KCAL/MOL
REMARK 924 INTRA-LIGAND FREE ENERGY PREDICTED BY IDOCK:   -0.29 KCAL/MOL
REMARK 927      BINDING AFFINITY PREDICTED BY RF-SCORE:    0.00 PKD
ROOT
HETATM    1  C   UNL     1     -12.482   6.416  72.106  1.00  0.00    -0.173 C  
HETATM    2  C   UNL     1     -12.074   7.717  71.420  1.00  0.00    -0.335 C  
HETATM    3  C   UNL     1     -10.570   7.868  71.383  1.00  0.00    -0.211 A  
HETATM    4  C   UNL     1     -12.722   8.923  72.098  1.00  0.00    -0.405 C  
HETATM    5  C   UNL     1      -9.710   8.351  72.351  1.00  0.00    -0.376 A  
HETATM    6  O   UNL     1     -12.369  10.116  71.553  1.00  0.00    -0.372 OA 
HETATM    7  O   UNL     1     -13.523   8.861  73.019  1.00  0.00    -0.299 OA 
HETATM    8  C   UNL     1      -8.357   8.390  71.902  1.00  0.00    -0.223 A  
HETATM    9  C   UNL     1      -8.218   7.951  70.598  1.00  0.00    -0.114 A  
HETATM   10  S   UNL     1      -9.711   7.390  69.976  1.00  0.00    -0.175 SA 
ENDROOT
BRANCH   9  11
HETATM   11  C   UNL     1      -7.034   7.914  69.746  1.00  0.00    -0.050 C  
HETATM   12  O   UNL     1      -5.890   7.764  70.171  1.00  0.00    -0.023 OA 
BRANCH  11  13
HETATM   13  C   UNL     1      -7.212   8.054  68.266  1.00  0.00    -0.093 A  
HETATM   14  C   UNL     1      -7.065   6.956  67.405  1.00  0.00    -0.084 A  
HETATM   15  C   UNL     1      -7.265   7.105  66.033  1.00  0.00    -0.074 A  
HETATM   16  C   UNL     1      -7.587   8.355  65.509  1.00  0.00    -0.090 A  
HETATM   17  C   UNL     1      -7.691   9.460  66.353  1.00  0.00    -0.097 A  
HETATM   18  C   UNL     1      -7.500   9.314  67.729  1.00  0.00    -0.088 A  
ENDBRANCH  11  13
ENDBRANCH   9  11
TORSDOF 2
ENDMDL
MODEL      176
REMARK 921   NORMALIZED FREE ENERGY PREDICTED BY IDOCK:   -2.94 KCAL/MOL
REMARK 922        TOTAL FREE ENERGY PREDICTED BY IDOCK:   -3.55 KCAL/MOL
REMARK 923 INTER-LIGAND FREE ENERGY PREDICTED BY IDOCK:   -3.23 KCAL/MOL
REMARK 924 INTRA-LIGAND FREE ENERGY PREDICTED BY IDOCK:   -0.32 KCAL/MOL
REMARK 927      BINDING AFFINITY PREDICTED BY RF-SCORE:    0.00 PKD
ROOT
HETATM    1  C   UNL     1      -6.135  14.325  70.963  1.00  0.00    -0.119 C  
HETATM    2  C   UNL     1      -6.965  14.803  69.774  1.00  0.00    -0.158 C  
HETATM    3  C   UNL     1      -7.043  13.741  68.700  1.00  0.00    -0.104 A  
HETATM    4  C   UNL     1      -6.411  16.108  69.206  1.00  0.00    -0.182 C  
HETATM    5  C   UNL     1      -6.148  13.443  67.691  1.00  0.00    -0.129 A  
HETATM    6  O   UNL     1      -7.088  16.566  68.121  1.00  0.00    -0.138 OA 
HETATM    7  O   UNL     1      -5.476  16.736  69.679  1.00  0.00    -0.147 OA 
HETATM    8  C   UNL     1      -6.621  12.403  66.837  1.00  0.00     0.145 A  
HETATM    9  C   UNL     1      -7.872  11.942  67.206  1.00  0.00    -0.168 A  
HETATM   10  S   UNL     1      -8.404  12.697  68.647  1.00  0.00     0.112 SA 
ENDROOT
BRANCH   9  11
HETATM   11  C   UNL     1      -8.734  10.962  66.556  1.00  0.00    -0.163 C  
HETATM   12  O   UNL     1      -8.775   9.773  66.869  1.00  0.00    -0.133 OA 
BRANCH  11  13
HETATM   13  C   UNL     1      -9.635  11.420  65.451  1.00  0.00    -0.255 A  
HETATM   14  C   UNL     1      -9.675  10.752  64.217  1.00  0.00    -0.357 A  
HETATM   15  C   UNL     1     -10.545  11.179  63.214  1.00  0.00    -0.268 A  
HETATM   16  C   UNL     1     -11.359  12.290  63.426  1.00  0.00    -0.508 A  
HETATM   17  C   UNL     1     -11.292  12.985  64.633  1.00  0.00    -0.361 A  
HETATM   18  C   UNL     1     -10.429  12.555  65.644  1.00  0.00    -0.299 A  
ENDBRANCH  11  13
ENDBRANCH   9  11
TORSDOF 2
ENDMDL
MODEL      177
REMARK 921   NORMALIZED FREE ENERGY PREDICTED BY IDOCK:   -2.93 KCAL/MOL
REMARK 922        TOTAL FREE ENERGY PREDICTED BY IDOCK:   -3.54 KCAL/MOL
REMARK 923 INTER-LIGAND FREE ENERGY PREDICTED BY IDOCK:   -3.65 KCAL/MOL
REMARK 924 INTRA-LIGAND FREE ENERGY PREDICTED BY IDOCK:    0.11 KCAL/MOL
REMARK 927      BINDING AFFINITY PREDICTED BY RF-SCORE:    0.00 PKD
ROOT
HETATM    1  C   UNL     1      -8.919   9.615  65.183  1.00  0.00    -0.249 C  
HETATM    2  C   UNL     1      -9.561  10.168  66.453  1.00  0.00    -0.242 C  
HETATM    3  C   UNL     1      -9.006  11.532  66.797  1.00  0.00    -0.181 A  
HETATM    4  C   UNL     1      -9.387   9.202  67.623  1.00  0.00    -0.135 C  
HETATM    5  C   UNL     1      -7.854  11.865  67.483  1.00  0.00    -0.152 A  
HETATM    6  O   UNL     1      -9.908   9.656  68.793  1.00  0.00    -0.157 OA 
HETATM    7  O   UNL     1      -8.872   8.096  67.548  1.00  0.00    -0.133 OA 
HETATM    8  C   UNL     1      -7.715  13.274  67.655  1.00  0.00    -0.171 A  
HETATM    9  C   UNL     1      -8.772  13.982  67.112  1.00  0.00    -0.221 A  
HETATM   10  S   UNL     1      -9.858  12.937  66.300  1.00  0.00    -0.268 SA 
ENDROOT
BRANCH   9  11
HETATM   11  C   UNL     1      -9.055  15.412  67.148  1.00  0.00    -0.220 C  
HETATM   12  O   UNL     1     -10.173  15.883  67.344  1.00  0.00    -0.259 OA 
BRANCH  11  13
HETATM   13  C   UNL     1      -7.923  16.372  66.948  1.00  0.00    -0.269 A  
HETATM   14  C   UNL     1      -8.039  17.468  66.080  1.00  0.00    -0.162 A  
HETATM   15  C   UNL     1      -6.982  18.365  65.933  1.00  0.00    -0.306 A  
HETATM   16  C   UNL     1      -5.794  18.159  66.631  1.00  0.00    -0.183 A  
HETATM   17  C   UNL     1      -5.655  17.048  67.462  1.00  0.00    -0.161 A  
HETATM   18  C   UNL     1      -6.715  16.152  67.618  1.00  0.00    -0.177 A  
ENDBRANCH  11  13
ENDBRANCH   9  11
TORSDOF 2
ENDMDL
MODEL      178
REMARK 921   NORMALIZED FREE ENERGY PREDICTED BY IDOCK:   -2.82 KCAL/MOL
REMARK 922        TOTAL FREE ENERGY PREDICTED BY IDOCK:   -3.42 KCAL/MOL
REMARK 923 INTER-LIGAND FREE ENERGY PREDICTED BY IDOCK:   -3.36 KCAL/MOL
REMARK 924 INTRA-LIGAND FREE ENERGY PREDICTED BY IDOCK:   -0.06 KCAL/MOL
REMARK 927      BINDING AFFINITY PREDICTED BY RF-SCORE:    0.00 PKD
ROOT
HETATM    1  C   UNL     1      -9.997  11.398  66.358  1.00  0.00    -0.247 C  
HETATM    2  C   UNL     1      -8.771  11.333  67.266  1.00  0.00    -0.145 C  
HETATM    3  C   UNL     1      -8.991  10.371  68.413  1.00  0.00    -0.137 A  
HETATM    4  C   UNL     1      -8.396  12.719  67.786  1.00  0.00    -0.177 C  
HETATM    5  C   UNL     1      -9.621  10.578  69.625  1.00  0.00    -0.062 A  
HETATM    6  O   UNL     1      -7.332  12.721  68.630  1.00  0.00    -0.108 OA 
HETATM    7  O   UNL     1      -8.950  13.760  67.464  1.00  0.00    -0.181 OA 
HETATM    8  C   UNL     1      -9.564   9.429  70.467  1.00  0.00    -0.330 A  
HETATM    9  C   UNL     1      -8.879   8.378  69.885  1.00  0.00    -0.137 A  
HETATM   10  S   UNL     1      -8.415   8.760  68.283  1.00  0.00    -0.131 SA 
ENDROOT
BRANCH   9  11
HETATM   11  C   UNL     1      -8.525   7.074  70.436  1.00  0.00    -0.141 C  
HETATM   12  O   UNL     1      -7.584   6.393  70.032  1.00  0.00    -0.091 OA 
BRANCH  11  13
HETATM   13  C   UNL     1      -9.340   6.529  71.568  1.00  0.00    -0.149 A  
HETATM   14  C   UNL     1      -9.467   7.227  72.778  1.00  0.00    -0.190 A  
HETATM   15  C   UNL     1     -10.257   6.714  73.807  1.00  0.00    -0.354 A  
HETATM   16  C   UNL     1     -10.902   5.489  73.643  1.00  0.00    -0.294 A  
HETATM   17  C   UNL     1     -10.744   4.769  72.460  1.00  0.00    -0.240 A  
HETATM   18  C   UNL     1      -9.961   5.284  71.424  1.00  0.00    -0.245 A  
ENDBRANCH  11  13
ENDBRANCH   9  11
TORSDOF 2
ENDMDL
MODEL      179
REMARK 921   NORMALIZED FREE ENERGY PREDICTED BY IDOCK:   -2.80 KCAL/MOL
REMARK 922        TOTAL FREE ENERGY PREDICTED BY IDOCK:   -3.39 KCAL/MOL
REMARK 923 INTER-LIGAND FREE ENERGY PREDICTED BY IDOCK:   -3.03 KCAL/MOL
REMARK 924 INTRA-LIGAND FREE ENERGY PREDICTED BY IDOCK:   -0.36 KCAL/MOL
REMARK 927      BINDING AFFINITY PREDICTED BY RF-SCORE:    0.00 PKD
ROOT
HETATM    1  C   UNL     1     -11.086   5.389  72.726  1.00  0.00    -0.349 C  
HETATM    2  C   UNL     1     -11.028   6.031  71.341  1.00  0.00    -0.336 C  
HETATM    3  C   UNL     1      -9.728   5.702  70.641  1.00  0.00    -0.180 A  
HETATM    4  C   UNL     1     -11.229   7.543  71.427  1.00  0.00    -0.242 C  
HETATM    5  C   UNL     1      -8.493   6.312  70.748  1.00  0.00    -0.135 A  
HETATM    6  O   UNL     1     -11.152   8.176  70.228  1.00  0.00    -0.256 OA 
HETATM    7  O   UNL     1     -11.481   8.158  72.452  1.00  0.00    -0.345 OA 
HETATM    8  C   UNL     1      -7.529   5.739  69.865  1.00  0.00    -0.079 A  
HETATM    9  C   UNL     1      -8.055   4.718  69.095  1.00  0.00    -0.074 A  
HETATM   10  S   UNL     1      -9.677   4.391  69.534  1.00  0.00    -0.188 SA 
ENDROOT
BRANCH   9  11
HETATM   11  C   UNL     1      -7.438   3.942  68.026  1.00  0.00    -0.066 C  
HETATM   12  O   UNL     1      -6.407   3.287  68.163  1.00  0.00    -0.031 OA 
BRANCH  11  13
HETATM   13  C   UNL     1      -8.097   3.925  66.681  1.00  0.00    -0.097 A  
HETATM   14  C   UNL     1      -8.078   5.052  65.844  1.00  0.00    -0.108 A  
HETATM   15  C   UNL     1      -8.672   5.002  64.583  1.00  0.00    -0.141 A  
HETATM   16  C   UNL     1      -9.311   3.838  64.161  1.00  0.00    -0.146 A  
HETATM   17  C   UNL     1      -9.372   2.729  65.005  1.00  0.00    -0.126 A  
HETATM   18  C   UNL     1      -8.770   2.772  66.265  1.00  0.00    -0.131 A  
ENDBRANCH  11  13
ENDBRANCH   9  11
TORSDOF 2
ENDMDL
MODEL      180
REMARK 921   NORMALIZED FREE ENERGY PREDICTED BY IDOCK:   -2.77 KCAL/MOL
REMARK 922        TOTAL FREE ENERGY PREDICTED BY IDOCK:   -3.37 KCAL/MOL
REMARK 923 INTER-LIGAND FREE ENERGY PREDICTED BY IDOCK:   -3.24 KCAL/MOL
REMARK 924 INTRA-LIGAND FREE ENERGY PREDICTED BY IDOCK:   -0.12 KCAL/MOL
REMARK 927      BINDING AFFINITY PREDICTED BY RF-SCORE:    0.00 PKD
ROOT
HETATM    1  C   UNL     1      -9.146   7.601  69.714  1.00  0.00    -0.147 C  
HETATM    2  C   UNL     1      -9.036   8.196  68.311  1.00  0.00    -0.136 C  
HETATM    3  C   UNL     1      -9.241   9.694  68.336  1.00  0.00    -0.133 A  
HETATM    4  C   UNL     1     -10.021   7.530  67.353  1.00  0.00    -0.187 C  
HETATM    5  C   UNL     1     -10.416  10.421  68.327  1.00  0.00    -0.221 A  
HETATM    6  O   UNL     1      -9.995   8.043  66.095  1.00  0.00    -0.122 OA 
HETATM    7  O   UNL     1     -10.750   6.593  67.638  1.00  0.00    -0.230 OA 
HETATM    8  C   UNL     1     -10.181  11.828  68.293  1.00  0.00    -0.209 A  
HETATM    9  C   UNL     1      -8.835  12.140  68.260  1.00  0.00    -0.182 A  
HETATM   10  S   UNL     1      -7.873  10.730  68.388  1.00  0.00    -0.127 SA 
ENDROOT
BRANCH   9  11
HETATM   11  C   UNL     1      -8.180  13.438  68.135  1.00  0.00    -0.160 C  
HETATM   12  O   UNL     1      -7.002  13.582  67.813  1.00  0.00    -0.127 OA 
BRANCH  11  13
HETATM   13  C   UNL     1      -8.983  14.674  68.400  1.00  0.00    -0.180 A  
HETATM   14  C   UNL     1      -8.970  15.758  67.510  1.00  0.00    -0.201 A  
HETATM   15  C   UNL     1      -9.749  16.887  67.763  1.00  0.00    -0.250 A  
HETATM   16  C   UNL     1     -10.525  16.950  68.918  1.00  0.00    -0.346 A  
HETATM   17  C   UNL     1     -10.509  15.895  69.830  1.00  0.00    -0.311 A  
HETATM   18  C   UNL     1      -9.737  14.760  69.576  1.00  0.00     0.028 A  
ENDBRANCH  11  13
ENDBRANCH   9  11
TORSDOF 2
ENDMDL
MODEL      181
REMARK 921   NORMALIZED FREE ENERGY PREDICTED BY IDOCK:   -2.64 KCAL/MOL
REMARK 922        TOTAL FREE ENERGY PREDICTED BY IDOCK:   -3.22 KCAL/MOL
REMARK 923 INTER-LIGAND FREE ENERGY PREDICTED BY IDOCK:   -3.03 KCAL/MOL
REMARK 924 INTRA-LIGAND FREE ENERGY PREDICTED BY IDOCK:   -0.19 KCAL/MOL
REMARK 927      BINDING AFFINITY PREDICTED BY RF-SCORE:    0.00 PKD
ROOT
HETATM    1  C   UNL     1      -6.620  14.827  70.262  1.00  0.00    -0.109 C  
HETATM    2  C   UNL     1      -7.147  14.994  68.839  1.00  0.00    -0.119 C  
HETATM    3  C   UNL     1      -7.308  13.654  68.155  1.00  0.00    -0.121 A  
HETATM    4  C   UNL     1      -6.242  15.913  68.021  1.00  0.00    -0.131 C  
HETATM    5  C   UNL     1      -6.368  12.884  67.496  1.00  0.00    -0.161 A  
HETATM    6  O   UNL     1      -6.641  16.072  66.732  1.00  0.00    -0.270 OA 
HETATM    7  O   UNL     1      -5.266  16.504  68.459  1.00  0.00    -0.106 OA 
HETATM    8  C   UNL     1      -6.936  11.705  66.929  1.00  0.00    -0.123 A  
HETATM    9  C   UNL     1      -8.298  11.611  67.155  1.00  0.00    -0.164 A  
HETATM   10  S   UNL     1      -8.846  12.892  68.148  1.00  0.00    -0.181 SA 
ENDROOT
BRANCH   9  11
HETATM   11  C   UNL     1      -9.256  10.620  66.678  1.00  0.00    -0.164 C  
HETATM   12  O   UNL     1     -10.057  10.826  65.768  1.00  0.00    -0.240 OA 
BRANCH  11  13
HETATM   13  C   UNL     1      -9.267   9.267  67.318  1.00  0.00    -0.149 A  
HETATM   14  C   UNL     1      -8.109   8.720  67.891  1.00  0.00    -0.107 A  
HETATM   15  C   UNL     1      -8.150   7.471  68.509  1.00  0.00    -0.125 A  
HETATM   16  C   UNL     1      -9.341   6.748  68.535  1.00  0.00    -0.126 A  
HETATM   17  C   UNL     1     -10.486   7.265  67.929  1.00  0.00    -0.267 A  
HETATM   18  C   UNL     1     -10.450   8.520  67.317  1.00  0.00    -0.366 A  
ENDBRANCH  11  13
ENDBRANCH   9  11
TORSDOF 2
ENDMDL
MODEL      182
REMARK 921   NORMALIZED FREE ENERGY PREDICTED BY IDOCK:   -2.57 KCAL/MOL
REMARK 922        TOTAL FREE ENERGY PREDICTED BY IDOCK:   -3.14 KCAL/MOL
REMARK 923 INTER-LIGAND FREE ENERGY PREDICTED BY IDOCK:   -2.74 KCAL/MOL
REMARK 924 INTRA-LIGAND FREE ENERGY PREDICTED BY IDOCK:   -0.40 KCAL/MOL
REMARK 927      BINDING AFFINITY PREDICTED BY RF-SCORE:    0.00 PKD
ROOT
HETATM    1  C   UNL     1     -11.780   5.877  72.475  1.00  0.00    -0.288 C  
HETATM    2  C   UNL     1     -11.540   6.738  71.237  1.00  0.00    -0.366 C  
HETATM    3  C   UNL     1     -10.068   6.803  70.895  1.00  0.00    -0.190 A  
HETATM    4  C   UNL     1     -12.115   8.141  71.422  1.00  0.00    -0.297 C  
HETATM    5  C   UNL     1      -9.082   7.626  71.404  1.00  0.00    -0.146 A  
HETATM    6  O   UNL     1     -11.900   8.967  70.365  1.00  0.00    -0.139 OA 
HETATM    7  O   UNL     1     -12.753   8.513  72.396  1.00  0.00    -0.369 OA 
HETATM    8  C   UNL     1      -7.822   7.418  70.769  1.00  0.00    -0.096 A  
HETATM    9  C   UNL     1      -7.879   6.453  69.780  1.00  0.00    -0.114 A  
HETATM   10  S   UNL     1      -9.431   5.733  69.714  1.00  0.00    -0.152 SA 
ENDROOT
BRANCH   9  11
HETATM   11  C   UNL     1      -6.849   6.008  68.849  1.00  0.00    -0.066 C  
HETATM   12  O   UNL     1      -5.770   5.533  69.198  1.00  0.00    -0.011 OA 
BRANCH  11  13
HETATM   13  C   UNL     1      -7.115   6.121  67.379  1.00  0.00    -0.070 A  
HETATM   14  C   UNL     1      -7.312   7.367  66.766  1.00  0.00    -0.092 A  
HETATM   15  C   UNL     1      -7.527   7.449  65.391  1.00  0.00    -0.090 A  
HETATM   16  C   UNL     1      -7.574   6.286  64.624  1.00  0.00    -0.098 A  
HETATM   17  C   UNL     1      -7.423   5.041  65.234  1.00  0.00    -0.077 A  
HETATM   18  C   UNL     1      -7.198   4.956  66.610  1.00  0.00    -0.080 A  
ENDBRANCH  11  13
ENDBRANCH   9  11
TORSDOF 2
ENDMDL
MODEL      183
REMARK 921   NORMALIZED FREE ENERGY PREDICTED BY IDOCK:   -2.50 KCAL/MOL
REMARK 922        TOTAL FREE ENERGY PREDICTED BY IDOCK:   -3.07 KCAL/MOL
REMARK 923 INTER-LIGAND FREE ENERGY PREDICTED BY IDOCK:   -2.76 KCAL/MOL
REMARK 924 INTRA-LIGAND FREE ENERGY PREDICTED BY IDOCK:   -0.31 KCAL/MOL
REMARK 927      BINDING AFFINITY PREDICTED BY RF-SCORE:    0.00 PKD
ROOT
HETATM    1  C   UNL     1     -10.321   4.415  72.540  1.00  0.00    -0.252 C  
HETATM    2  C   UNL     1     -10.674   5.635  71.692  1.00  0.00    -0.313 C  
HETATM    3  C   UNL     1      -9.719   5.786  70.529  1.00  0.00    -0.177 A  
HETATM    4  C   UNL     1     -10.700   6.906  72.539  1.00  0.00    -0.232 C  
HETATM    5  C   UNL     1      -8.470   6.376  70.487  1.00  0.00    -0.138 A  
HETATM    6  O   UNL     1     -10.974   8.032  71.832  1.00  0.00    -0.238 OA 
HETATM    7  O   UNL     1     -10.538   6.943  73.750  1.00  0.00    -0.360 OA 
HETATM    8  C   UNL     1      -7.913   6.370  69.174  1.00  0.00    -0.111 A  
HETATM    9  C   UNL     1      -8.755   5.791  68.243  1.00  0.00    -0.111 A  
HETATM   10  S   UNL     1     -10.158   5.159  68.993  1.00  0.00    -0.162 SA 
ENDROOT
BRANCH   9  11
HETATM   11  C   UNL     1      -8.603   5.665  66.798  1.00  0.00    -0.111 C  
HETATM   12  O   UNL     1      -8.945   6.532  65.996  1.00  0.00    -0.157 OA 
BRANCH  11  13
HETATM   13  C   UNL     1      -7.985   4.416  66.248  1.00  0.00    -0.099 A  
HETATM   14  C   UNL     1      -8.505   3.785  65.107  1.00  0.00    -0.108 A  
HETATM   15  C   UNL     1      -7.894   2.641  64.596  1.00  0.00    -0.077 A  
HETATM   16  C   UNL     1      -6.778   2.104  65.236  1.00  0.00    -0.035 A  
HETATM   17  C   UNL     1      -6.283   2.700  66.395  1.00  0.00    -0.024 A  
HETATM   18  C   UNL     1      -6.887   3.852  66.905  1.00  0.00    -0.051 A  
ENDBRANCH  11  13
ENDBRANCH   9  11
TORSDOF 2
ENDMDL
MODEL      184
REMARK 921   NORMALIZED FREE ENERGY PREDICTED BY IDOCK:   -2.42 KCAL/MOL
REMARK 922        TOTAL FREE ENERGY PREDICTED BY IDOCK:   -2.98 KCAL/MOL
REMARK 923 INTER-LIGAND FREE ENERGY PREDICTED BY IDOCK:   -2.60 KCAL/MOL
REMARK 924 INTRA-LIGAND FREE ENERGY PREDICTED BY IDOCK:   -0.38 KCAL/MOL
REMARK 927      BINDING AFFINITY PREDICTED BY RF-SCORE:    0.00 PKD
ROOT
HETATM    1  C   UNL     1      -9.551   8.635  71.257  1.00  0.00    -0.292 C  
HETATM    2  C   UNL     1      -9.455   8.513  69.738  1.00  0.00    -0.166 C  
HETATM    3  C   UNL     1      -8.956   7.144  69.330  1.00  0.00    -0.136 A  
HETATM    4  C   UNL     1      -8.567   9.609  69.153  1.00  0.00    -0.146 C  
HETATM    5  C   UNL     1      -7.661   6.670  69.243  1.00  0.00    -0.102 A  
HETATM    6  O   UNL     1      -8.414   9.531  67.805  1.00  0.00    -0.118 OA 
HETATM    7  O   UNL     1      -8.058  10.515  69.796  1.00  0.00    -0.116 OA 
HETATM    8  C   UNL     1      -7.608   5.331  68.755  1.00  0.00    -0.082 A  
HETATM    9  C   UNL     1      -8.860   4.821  68.467  1.00  0.00    -0.100 A  
HETATM   10  S   UNL     1     -10.090   5.929  68.900  1.00  0.00    -0.199 SA 
ENDROOT
BRANCH   9  11
HETATM   11  C   UNL     1      -9.233   3.540  67.875  1.00  0.00    -0.183 C  
HETATM   12  O   UNL     1      -9.619   2.572  68.527  1.00  0.00    -0.180 OA 
BRANCH  11  13
HETATM   13  C   UNL     1      -9.158   3.389  66.387  1.00  0.00    -0.166 A  
HETATM   14  C   UNL     1      -9.322   4.489  65.532  1.00  0.00    -0.162 A  
HETATM   15  C   UNL     1      -9.217   4.329  64.151  1.00  0.00    -0.150 A  
HETATM   16  C   UNL     1      -8.975   3.066  63.614  1.00  0.00    -0.092 A  
HETATM   17  C   UNL     1      -8.856   1.961  64.455  1.00  0.00    -0.106 A  
HETATM   18  C   UNL     1      -8.951   2.118  65.840  1.00  0.00    -0.106 A  
ENDBRANCH  11  13
ENDBRANCH   9  11
TORSDOF 2
ENDMDL
MODEL      185
REMARK 921   NORMALIZED FREE ENERGY PREDICTED BY IDOCK:   -2.38 KCAL/MOL
REMARK 922        TOTAL FREE ENERGY PREDICTED BY IDOCK:   -2.93 KCAL/MOL
REMARK 923 INTER-LIGAND FREE ENERGY PREDICTED BY IDOCK:   -2.57 KCAL/MOL
REMARK 924 INTRA-LIGAND FREE ENERGY PREDICTED BY IDOCK:   -0.36 KCAL/MOL
REMARK 927      BINDING AFFINITY PREDICTED BY RF-SCORE:    0.00 PKD
ROOT
HETATM    1  C   UNL     1      -7.217   4.416  65.952  1.00  0.00    -0.075 C  
HETATM    2  C   UNL     1      -8.456   4.329  66.840  1.00  0.00    -0.104 C  
HETATM    3  C   UNL     1      -8.443   5.406  67.902  1.00  0.00    -0.098 A  
HETATM    4  C   UNL     1      -8.583   2.946  67.473  1.00  0.00    -0.101 C  
HETATM    5  C   UNL     1      -7.816   5.420  69.133  1.00  0.00    -0.090 A  
HETATM    6  O   UNL     1      -9.650   2.818  68.304  1.00  0.00    -0.187 OA 
HETATM    7  O   UNL     1      -7.841   2.001  67.247  1.00  0.00    -0.064 OA 
HETATM    8  C   UNL     1      -8.103   6.605  69.873  1.00  0.00    -0.125 A  
HETATM    9  C   UNL     1      -8.954   7.460  69.197  1.00  0.00    -0.135 A  
HETATM   10  S   UNL     1      -9.301   6.868  67.629  1.00  0.00    -0.121 SA 
ENDROOT
BRANCH   9  11
HETATM   11  C   UNL     1      -9.554   8.717  69.630  1.00  0.00    -0.170 C  
HETATM   12  O   UNL     1     -10.139   8.861  70.702  1.00  0.00    -0.188 OA 
BRANCH  11  13
HETATM   13  C   UNL     1      -9.445   9.910  68.732  1.00  0.00    -0.157 A  
HETATM   14  C   UNL     1     -10.566  10.424  68.062  1.00  0.00    -0.259 A  
HETATM   15  C   UNL     1     -10.446  11.555  67.255  1.00  0.00    -0.246 A  
HETATM   16  C   UNL     1      -9.202  12.163  67.091  1.00  0.00    -0.193 A  
HETATM   17  C   UNL     1      -8.076  11.631  67.718  1.00  0.00    -0.139 A  
HETATM   18  C   UNL     1      -8.194  10.504  68.534  1.00  0.00    -0.123 A  
ENDBRANCH  11  13
ENDBRANCH   9  11
TORSDOF 2
ENDMDL
MODEL      186
REMARK 921   NORMALIZED FREE ENERGY PREDICTED BY IDOCK:   -2.33 KCAL/MOL
REMARK 922        TOTAL FREE ENERGY PREDICTED BY IDOCK:   -2.87 KCAL/MOL
REMARK 923 INTER-LIGAND FREE ENERGY PREDICTED BY IDOCK:   -3.10 KCAL/MOL
REMARK 924 INTRA-LIGAND FREE ENERGY PREDICTED BY IDOCK:    0.22 KCAL/MOL
REMARK 927      BINDING AFFINITY PREDICTED BY RF-SCORE:    0.00 PKD
ROOT
HETATM    1  C   UNL     1      -8.810  11.136  66.835  1.00  0.00    -0.157 C  
HETATM    2  C   UNL     1      -9.312  12.226  65.891  1.00  0.00    -0.098 C  
HETATM    3  C   UNL     1      -9.657  13.489  66.649  1.00  0.00    -0.278 A  
HETATM    4  C   UNL     1     -10.508  11.741  65.076  1.00  0.00    -0.285 C  
HETATM    5  C   UNL     1     -10.818  13.823  67.319  1.00  0.00    -0.292 A  
HETATM    6  O   UNL     1     -11.023  12.681  64.241  1.00  0.00    -0.319 OA 
HETATM    7  O   UNL     1     -10.964  10.608  65.109  1.00  0.00    -0.018 OA 
HETATM    8  C   UNL     1     -10.772  15.144  67.856  1.00  0.00    -0.268 A  
HETATM    9  C   UNL     1      -9.584  15.791  67.570  1.00  0.00    -0.224 A  
HETATM   10  S   UNL     1      -8.497  14.750  66.755  1.00  0.00    -0.055 SA 
ENDROOT
BRANCH   9  11
HETATM   11  C   UNL     1      -9.175  17.162  67.857  1.00  0.00    -0.241 C  
HETATM   12  O   UNL     1      -9.756  18.154  67.422  1.00  0.00    -0.284 OA 
BRANCH  11  13
HETATM   13  C   UNL     1      -7.987  17.386  68.741  1.00  0.00    -0.244 A  
HETATM   14  C   UNL     1      -7.683  18.658  69.248  1.00  0.00    -0.003 A  
HETATM   15  C   UNL     1      -6.589  18.836  70.094  1.00  0.00     0.203 A  
HETATM   16  C   UNL     1      -5.777  17.751  70.417  1.00  0.00    -0.149 A  
HETATM   17  C   UNL     1      -6.047  16.492  69.882  1.00  0.00    -0.188 A  
HETATM   18  C   UNL     1      -7.147  16.308  69.041  1.00  0.00    -0.196 A  
ENDBRANCH  11  13
ENDBRANCH   9  11
TORSDOF 2
ENDMDL
MODEL      187
REMARK 921   NORMALIZED FREE ENERGY PREDICTED BY IDOCK:   -2.29 KCAL/MOL
REMARK 922        TOTAL FREE ENERGY PREDICTED BY IDOCK:   -2.82 KCAL/MOL
REMARK 923 INTER-LIGAND FREE ENERGY PREDICTED BY IDOCK:   -2.46 KCAL/MOL
REMARK 924 INTRA-LIGAND FREE ENERGY PREDICTED BY IDOCK:   -0.36 KCAL/MOL
REMARK 927      BINDING AFFINITY PREDICTED BY RF-SCORE:    0.00 PKD
ROOT
HETATM    1  C   UNL     1      -5.783   7.499  66.560  1.00  0.00    -0.032 C  
HETATM    2  C   UNL     1      -7.017   8.074  67.252  1.00  0.00    -0.075 C  
HETATM    3  C   UNL     1      -7.525   7.139  68.327  1.00  0.00    -0.102 A  
HETATM    4  C   UNL     1      -8.118   8.387  66.242  1.00  0.00    -0.105 C  
HETATM    5  C   UNL     1      -8.355   6.040  68.216  1.00  0.00    -0.113 A  
HETATM    6  O   UNL     1      -9.257   8.869  66.803  1.00  0.00    -0.145 OA 
HETATM    7  O   UNL     1      -8.011   8.271  65.030  1.00  0.00    -0.124 OA 
HETATM    8  C   UNL     1      -8.653   5.457  69.483  1.00  0.00    -0.103 A  
HETATM    9  C   UNL     1      -8.057   6.134  70.532  1.00  0.00    -0.113 A  
HETATM   10  S   UNL     1      -7.053   7.395  69.957  1.00  0.00    -0.066 SA 
ENDROOT
BRANCH   9  11
HETATM   11  C   UNL     1      -8.176   5.919  71.970  1.00  0.00    -0.112 C  
HETATM   12  O   UNL     1      -7.564   6.573  72.812  1.00  0.00    -0.096 OA 
BRANCH  11  13
HETATM   13  C   UNL     1      -9.105   4.852  72.460  1.00  0.00    -0.145 A  
HETATM   14  C   UNL     1      -8.720   3.503  72.484  1.00  0.00    -0.096 A  
HETATM   15  C   UNL     1      -9.592   2.531  72.974  1.00  0.00    -0.137 A  
HETATM   16  C   UNL     1     -10.861   2.896  73.418  1.00  0.00    -0.300 A  
HETATM   17  C   UNL     1     -11.267   4.228  73.356  1.00  0.00    -0.361 A  
HETATM   18  C   UNL     1     -10.394   5.206  72.874  1.00  0.00    -0.238 A  
ENDBRANCH  11  13
ENDBRANCH   9  11
TORSDOF 2
ENDMDL
MODEL      188
REMARK 921   NORMALIZED FREE ENERGY PREDICTED BY IDOCK:   -2.28 KCAL/MOL
REMARK 922        TOTAL FREE ENERGY PREDICTED BY IDOCK:   -2.81 KCAL/MOL
REMARK 923 INTER-LIGAND FREE ENERGY PREDICTED BY IDOCK:   -2.40 KCAL/MOL
REMARK 924 INTRA-LIGAND FREE ENERGY PREDICTED BY IDOCK:   -0.41 KCAL/MOL
REMARK 927      BINDING AFFINITY PREDICTED BY RF-SCORE:    0.00 PKD
ROOT
HETATM    1  C   UNL     1      -6.110   3.807  69.085  1.00  0.00    -0.028 C  
HETATM    2  C   UNL     1      -6.981   4.331  67.946  1.00  0.00    -0.056 C  
HETATM    3  C   UNL     1      -7.553   5.692  68.278  1.00  0.00    -0.081 A  
HETATM    4  C   UNL     1      -8.095   3.344  67.606  1.00  0.00    -0.080 C  
HETATM    5  C   UNL     1      -8.678   6.018  69.012  1.00  0.00    -0.122 A  
HETATM    6  O   UNL     1      -8.927   3.772  66.622  1.00  0.00    -0.122 OA 
HETATM    7  O   UNL     1      -8.235   2.243  68.118  1.00  0.00    -0.057 OA 
HETATM    8  C   UNL     1      -8.915   7.424  69.042  1.00  0.00    -0.131 A  
HETATM    9  C   UNL     1      -7.976   8.136  68.319  1.00  0.00    -0.123 A  
HETATM   10  S   UNL     1      -6.757   7.101  67.709  1.00  0.00    -0.067 SA 
ENDROOT
BRANCH   9  11
HETATM   11  C   UNL     1      -7.907   9.564  68.029  1.00  0.00    -0.087 C  
HETATM   12  O   UNL     1      -6.965  10.283  68.354  1.00  0.00    -0.068 OA 
BRANCH  11  13
HETATM   13  C   UNL     1      -9.039  10.199  67.282  1.00  0.00    -0.151 A  
HETATM   14  C   UNL     1      -9.860  11.165  67.883  1.00  0.00    -0.187 A  
HETATM   15  C   UNL     1     -10.889  11.765  67.158  1.00  0.00    -0.303 A  
HETATM   16  C   UNL     1     -11.121  11.385  65.837  1.00  0.00    -0.225 A  
HETATM   17  C   UNL     1     -10.338  10.393  65.248  1.00  0.00    -0.267 A  
HETATM   18  C   UNL     1      -9.301   9.797  65.968  1.00  0.00    -0.249 A  
ENDBRANCH  11  13
ENDBRANCH   9  11
TORSDOF 2
ENDMDL
MODEL      189
REMARK 921   NORMALIZED FREE ENERGY PREDICTED BY IDOCK:   -2.21 KCAL/MOL
REMARK 922        TOTAL FREE ENERGY PREDICTED BY IDOCK:   -2.74 KCAL/MOL
REMARK 923 INTER-LIGAND FREE ENERGY PREDICTED BY IDOCK:   -2.56 KCAL/MOL
REMARK 924 INTRA-LIGAND FREE ENERGY PREDICTED BY IDOCK:   -0.18 KCAL/MOL
REMARK 927      BINDING AFFINITY PREDICTED BY RF-SCORE:    0.00 PKD
ROOT
HETATM    1  C   UNL     1     -11.002  11.334  68.464  1.00  0.00    -0.266 C  
HETATM    2  C   UNL     1     -10.959  10.679  67.085  1.00  0.00    -0.312 C  
HETATM    3  C   UNL     1      -9.741   9.795  66.937  1.00  0.00    -0.192 A  
HETATM    4  C   UNL     1     -11.004  11.729  65.976  1.00  0.00    -0.306 C  
HETATM    5  C   UNL     1      -8.447  10.132  66.589  1.00  0.00    -0.127 A  
HETATM    6  O   UNL     1     -10.933  11.208  64.724  1.00  0.00    -0.260 OA 
HETATM    7  O   UNL     1     -11.135  12.930  66.155  1.00  0.00    -0.277 OA 
HETATM    8  C   UNL     1      -7.597   8.990  66.498  1.00  0.00    -0.089 A  
HETATM    9  C   UNL     1      -8.265   7.808  66.762  1.00  0.00    -0.120 A  
HETATM   10  S   UNL     1      -9.884   8.110  67.230  1.00  0.00    -0.221 SA 
ENDROOT
BRANCH   9  11
HETATM   11  C   UNL     1      -7.790   6.431  66.692  1.00  0.00    -0.104 C  
HETATM   12  O   UNL     1      -8.086   5.651  65.789  1.00  0.00    -0.105 OA 
BRANCH  11  13
HETATM   13  C   UNL     1      -6.879   5.931  67.770  1.00  0.00    -0.060 A  
HETATM   14  C   UNL     1      -5.956   6.780  68.398  1.00  0.00    -0.025 A  
HETATM   15  C   UNL     1      -5.139   6.299  69.420  1.00  0.00    -0.012 A  
HETATM   16  C   UNL     1      -5.220   4.962  69.803  1.00  0.00     0.000 A  
HETATM   17  C   UNL     1      -6.104   4.101  69.154  1.00  0.00    -0.027 A  
HETATM   18  C   UNL     1      -6.930   4.582  68.135  1.00  0.00    -0.056 A  
ENDBRANCH  11  13
ENDBRANCH   9  11
TORSDOF 2
ENDMDL
MODEL      190
REMARK 921   NORMALIZED FREE ENERGY PREDICTED BY IDOCK:   -2.14 KCAL/MOL
REMARK 922        TOTAL FREE ENERGY PREDICTED BY IDOCK:   -2.66 KCAL/MOL
REMARK 923 INTER-LIGAND FREE ENERGY PREDICTED BY IDOCK:   -2.50 KCAL/MOL
REMARK 924 INTRA-LIGAND FREE ENERGY PREDICTED BY IDOCK:   -0.16 KCAL/MOL
REMARK 927      BINDING AFFINITY PREDICTED BY RF-SCORE:    0.00 PKD
ROOT
HETATM    1  C   UNL     1     -10.214  11.030  69.438  1.00  0.00    -0.097 C  
HETATM    2  C   UNL     1     -10.341  10.245  68.134  1.00  0.00    -0.208 C  
HETATM    3  C   UNL     1      -9.619   8.919  68.223  1.00  0.00    -0.146 A  
HETATM    4  C   UNL     1      -9.829  11.061  66.949  1.00  0.00    -0.191 C  
HETATM    5  C   UNL     1      -8.283   8.629  68.026  1.00  0.00    -0.115 A  
HETATM    6  O   UNL     1      -9.883  10.401  65.763  1.00  0.00    -0.210 OA 
HETATM    7  O   UNL     1      -9.439  12.218  67.012  1.00  0.00    -0.194 OA 
HETATM    8  C   UNL     1      -8.009   7.234  68.141  1.00  0.00    -0.123 A  
HETATM    9  C   UNL     1      -9.144   6.491  68.408  1.00  0.00    -0.123 A  
HETATM   10  S   UNL     1     -10.505   7.505  68.628  1.00  0.00    -0.151 SA 
ENDROOT
BRANCH   9  11
HETATM   11  C   UNL     1      -9.311   5.045  68.512  1.00  0.00    -0.127 C  
HETATM   12  O   UNL     1      -9.866   4.357  67.659  1.00  0.00    -0.169 OA 
BRANCH  11  13
HETATM   13  C   UNL     1      -8.766   4.347  69.720  1.00  0.00    -0.111 A  
HETATM   14  C   UNL     1      -7.589   4.783  70.347  1.00  0.00    -0.054 A  
HETATM   15  C   UNL     1      -7.118   4.135  71.489  1.00  0.00    -0.042 A  
HETATM   16  C   UNL     1      -7.804   3.032  71.995  1.00  0.00    -0.054 A  
HETATM   17  C   UNL     1      -8.949   2.566  71.351  1.00  0.00    -0.148 A  
HETATM   18  C   UNL     1      -9.429   3.218  70.212  1.00  0.00    -0.234 A  
ENDBRANCH  11  13
ENDBRANCH   9  11
TORSDOF 2
ENDMDL
MODEL      191
REMARK 921   NORMALIZED FREE ENERGY PREDICTED BY IDOCK:   -1.93 KCAL/MOL
REMARK 922        TOTAL FREE ENERGY PREDICTED BY IDOCK:   -2.42 KCAL/MOL
REMARK 923 INTER-LIGAND FREE ENERGY PREDICTED BY IDOCK:   -2.35 KCAL/MOL
REMARK 924 INTRA-LIGAND FREE ENERGY PREDICTED BY IDOCK:   -0.07 KCAL/MOL
REMARK 927      BINDING AFFINITY PREDICTED BY RF-SCORE:    0.00 PKD
ROOT
HETATM    1  C   UNL     1      -5.860   7.484  66.603  1.00  0.00    -0.039 C  
HETATM    2  C   UNL     1      -7.179   8.189  66.912  1.00  0.00    -0.083 C  
HETATM    3  C   UNL     1      -8.111   7.288  67.690  1.00  0.00    -0.114 A  
HETATM    4  C   UNL     1      -7.850   8.686  65.633  1.00  0.00    -0.101 C  
HETATM    5  C   UNL     1      -8.978   6.314  67.234  1.00  0.00    -0.113 A  
HETATM    6  O   UNL     1      -9.048   9.293  65.841  1.00  0.00    -0.168 OA 
HETATM    7  O   UNL     1      -7.368   8.605  64.513  1.00  0.00    -0.093 OA 
HETATM    8  C   UNL     1      -9.735   5.725  68.289  1.00  0.00    -0.153 A  
HETATM    9  C   UNL     1      -9.440   6.275  69.524  1.00  0.00    -0.141 A  
HETATM   10  S   UNL     1      -8.169   7.414  69.401  1.00  0.00    -0.132 SA 
ENDROOT
BRANCH   9  11
HETATM   11  C   UNL     1     -10.044   6.020  70.827  1.00  0.00    -0.197 C  
HETATM   12  O   UNL     1     -11.026   5.301  70.998  1.00  0.00    -0.128 OA 
BRANCH  11  13
HETATM   13  C   UNL     1      -9.432   6.658  72.037  1.00  0.00    -0.148 A  
HETATM   14  C   UNL     1      -9.663   8.006  72.347  1.00  0.00    -0.305 A  
HETATM   15  C   UNL     1      -9.108   8.570  73.495  1.00  0.00     0.092 A  
HETATM   16  C   UNL     1      -8.297   7.798  74.326  1.00  0.00    -0.293 A  
HETATM   17  C   UNL     1      -8.027   6.469  74.000  1.00  0.00    -0.111 A  
HETATM   18  C   UNL     1      -8.589   5.899  72.855  1.00  0.00    -0.121 A  
ENDBRANCH  11  13
ENDBRANCH   9  11
TORSDOF 2
ENDMDL
MODEL      192
REMARK 921   NORMALIZED FREE ENERGY PREDICTED BY IDOCK:   -1.85 KCAL/MOL
REMARK 922        TOTAL FREE ENERGY PREDICTED BY IDOCK:   -2.34 KCAL/MOL
REMARK 923 INTER-LIGAND FREE ENERGY PREDICTED BY IDOCK:   -1.97 KCAL/MOL
REMARK 924 INTRA-LIGAND FREE ENERGY PREDICTED BY IDOCK:   -0.37 KCAL/MOL
REMARK 927      BINDING AFFINITY PREDICTED BY RF-SCORE:    0.00 PKD
ROOT
HETATM    1  C   UNL     1     -11.446  10.857  64.466  1.00  0.00     0.694 C  
HETATM    2  C   UNL     1     -10.431  11.420  65.458  1.00  0.00    -0.322 C  
HETATM    3  C   UNL     1      -9.694  10.310  66.174  1.00  0.00    -0.211 A  
HETATM    4  C   UNL     1     -11.102  12.358  66.459  1.00  0.00    -0.301 C  
HETATM    5  C   UNL     1     -10.068   9.582  67.287  1.00  0.00    -0.272 A  
HETATM    6  O   UNL     1     -10.254  12.864  67.392  1.00  0.00    -0.227 OA 
HETATM    7  O   UNL     1     -12.279  12.684  66.432  1.00  0.00    -0.550 OA 
HETATM    8  C   UNL     1      -9.058   8.660  67.694  1.00  0.00    -0.145 A  
HETATM    9  C   UNL     1      -7.933   8.718  66.893  1.00  0.00    -0.098 A  
HETATM   10  S   UNL     1      -8.161   9.805  65.591  1.00  0.00    -0.125 SA 
ENDROOT
BRANCH   9  11
HETATM   11  C   UNL     1      -6.661   8.015  67.018  1.00  0.00    -0.057 C  
HETATM   12  O   UNL     1      -5.574   8.580  67.124  1.00  0.00    -0.037 OA 
BRANCH  11  13
HETATM   13  C   UNL     1      -6.668   6.517  67.030  1.00  0.00    -0.060 A  
HETATM   14  C   UNL     1      -6.807   5.778  65.845  1.00  0.00    -0.060 A  
HETATM   15  C   UNL     1      -6.781   4.384  65.878  1.00  0.00    -0.053 A  
HETATM   16  C   UNL     1      -6.641   3.720  67.095  1.00  0.00    -0.046 A  
HETATM   17  C   UNL     1      -6.546   4.448  68.281  1.00  0.00    -0.046 A  
HETATM   18  C   UNL     1      -6.564   5.844  68.251  1.00  0.00    -0.052 A  
ENDBRANCH  11  13
ENDBRANCH   9  11
TORSDOF 2
ENDMDL
MODEL      193
REMARK 921   NORMALIZED FREE ENERGY PREDICTED BY IDOCK:   -0.87 KCAL/MOL
REMARK 922        TOTAL FREE ENERGY PREDICTED BY IDOCK:   -1.24 KCAL/MOL
REMARK 923 INTER-LIGAND FREE ENERGY PREDICTED BY IDOCK:   -2.38 KCAL/MOL
REMARK 924 INTRA-LIGAND FREE ENERGY PREDICTED BY IDOCK:    1.14 KCAL/MOL
REMARK 927      BINDING AFFINITY PREDICTED BY RF-SCORE:    0.00 PKD
ROOT
HETATM    1  C   UNL     1      -7.857  10.574  65.194  1.00  0.00    -0.076 C  
HETATM    2  C   UNL     1      -8.639  11.089  66.401  1.00  0.00    -0.165 C  
HETATM    3  C   UNL     1      -7.868  10.874  67.684  1.00  0.00    -0.113 A  
HETATM    4  C   UNL     1     -10.018  10.437  66.482  1.00  0.00    -0.217 C  
HETATM    5  C   UNL     1      -7.783   9.748  68.480  1.00  0.00    -0.081 A  
HETATM    6  O   UNL     1     -10.749  10.829  67.557  1.00  0.00    -0.226 OA 
HETATM    7  O   UNL     1     -10.476   9.663  65.654  1.00  0.00    -0.054 OA 
HETATM    8  C   UNL     1      -6.996   9.971  69.649  1.00  0.00    -0.096 A  
HETATM    9  C   UNL     1      -6.514  11.264  69.725  1.00  0.00    -0.140 A  
HETATM   10  S   UNL     1      -6.924  12.156  68.323  1.00  0.00    -0.089 SA 
ENDROOT
BRANCH   9  11
HETATM   11  C   UNL     1      -5.752  11.916  70.785  1.00  0.00    -0.074 C  
HETATM   12  O   UNL     1      -5.237  11.315  71.726  1.00  0.00    -0.314 OA 
BRANCH  11  13
HETATM   13  C   UNL     1      -5.572  13.402  70.729  1.00  0.00    -0.185 A  
HETATM   14  C   UNL     1      -5.366  14.157  71.893  1.00  0.00    -0.213 A  
HETATM   15  C   UNL     1      -5.170  15.536  71.812  1.00  0.00     0.026 A  
HETATM   16  C   UNL     1      -5.205  16.171  70.572  1.00  0.00    -0.183 A  
HETATM   17  C   UNL     1      -5.454  15.433  69.415  1.00  0.00    -0.098 A  
HETATM   18  C   UNL     1      -5.642  14.051  69.491  1.00  0.00    -0.088 A  
ENDBRANCH  11  13
ENDBRANCH   9  11
TORSDOF 2
ENDMDL
MODEL      194
REMARK 921   NORMALIZED FREE ENERGY PREDICTED BY IDOCK:   -0.54 KCAL/MOL
REMARK 922        TOTAL FREE ENERGY PREDICTED BY IDOCK:   -0.88 KCAL/MOL
REMARK 923 INTER-LIGAND FREE ENERGY PREDICTED BY IDOCK:   -0.71 KCAL/MOL
REMARK 924 INTRA-LIGAND FREE ENERGY PREDICTED BY IDOCK:   -0.17 KCAL/MOL
REMARK 927      BINDING AFFINITY PREDICTED BY RF-SCORE:    0.00 PKD
ROOT
HETATM    1  C   UNL     1     -12.407  13.761  65.053  1.00  0.00    -0.456 C  
HETATM    2  C   UNL     1     -11.766  13.205  66.322  1.00  0.00    -0.424 C  
HETATM    3  C   UNL     1     -10.376  13.768  66.523  1.00  0.00    -0.286 A  
HETATM    4  C   UNL     1     -11.733  11.679  66.300  1.00  0.00     0.094 C  
HETATM    5  C   UNL     1      -9.174  13.355  65.983  1.00  0.00     0.088 A  
HETATM    6  O   UNL     1     -11.140  11.125  67.389  1.00  0.00    -0.273 OA 
HETATM    7  O   UNL     1     -12.222  10.981  65.423  1.00  0.00     0.994 OA 
HETATM    8  C   UNL     1      -8.071  14.115  66.475  1.00  0.00     0.679 A  
HETATM    9  C   UNL     1      -8.456  15.077  67.390  1.00  0.00    -0.184 A  
HETATM   10  S   UNL     1     -10.159  15.124  67.553  1.00  0.00    -0.232 SA 
ENDROOT
BRANCH   9  11
HETATM   11  C   UNL     1      -7.640  15.992  68.181  1.00  0.00    -0.136 C  
HETATM   12  O   UNL     1      -7.610  17.209  68.004  1.00  0.00    -0.181 OA 
BRANCH  11  13
HETATM   13  C   UNL     1      -6.796  15.430  69.282  1.00  0.00    -0.157 A  
HETATM   14  C   UNL     1      -6.552  14.053  69.385  1.00  0.00    -0.118 A  
HETATM   15  C   UNL     1      -5.737  13.556  70.402  1.00  0.00    -0.160 A  
HETATM   16  C   UNL     1      -5.185  14.428  71.338  1.00  0.00    -0.155 A  
HETATM   17  C   UNL     1      -5.459  15.793  71.269  1.00  0.00     0.126 A  
HETATM   18  C   UNL     1      -6.267  16.296  70.246  1.00  0.00     0.074 A  
ENDBRANCH  11  13
ENDBRANCH   9  11
TORSDOF 2
ENDMDL
MODEL      195
REMARK 921   NORMALIZED FREE ENERGY PREDICTED BY IDOCK:    5.32 KCAL/MOL
REMARK 922        TOTAL FREE ENERGY PREDICTED BY IDOCK:    5.67 KCAL/MOL
REMARK 923 INTER-LIGAND FREE ENERGY PREDICTED BY IDOCK:    5.80 KCAL/MOL
REMARK 924 INTRA-LIGAND FREE ENERGY PREDICTED BY IDOCK:   -0.13 KCAL/MOL
REMARK 927      BINDING AFFINITY PREDICTED BY RF-SCORE:    0.00 PKD
ROOT
HETATM    1  C   UNL     1     -12.097  13.100  66.982  1.00  0.00    -0.366 C  
HETATM    2  C   UNL     1     -11.625  12.708  68.380  1.00  0.00    -0.370 C  
HETATM    3  C   UNL     1     -10.199  13.153  68.620  1.00  0.00    -0.170 A  
HETATM    4  C   UNL     1     -11.768  11.205  68.608  1.00  0.00    -0.320 C  
HETATM    5  C   UNL     1      -9.014  12.534  68.272  1.00  0.00    -0.178 A  
HETATM    6  O   UNL     1     -11.330  10.789  69.825  1.00  0.00    -0.254 OA 
HETATM    7  O   UNL     1     -12.265  10.420  67.814  1.00  0.00     0.634 OA 
HETATM    8  C   UNL     1      -7.872  13.251  68.738  1.00  0.00     0.008 A  
HETATM    9  C   UNL     1      -8.213  14.390  69.443  1.00  0.00     0.220 A  
HETATM   10  S   UNL     1      -9.906  14.636  69.433  1.00  0.00     0.091 SA 
ENDROOT
BRANCH   9  11
HETATM   11  C   UNL     1      -7.361  15.340  70.150  1.00  0.00     0.179 C  
HETATM   12  O   UNL     1      -7.210  16.511  69.807  1.00  0.00    -0.037 OA 
BRANCH  11  13
HETATM   13  C   UNL     1      -6.633  14.877  71.374  1.00  0.00     0.863 A  
HETATM   14  C   UNL     1      -6.118  13.575  71.469  1.00  0.00     0.503 A  
HETATM   15  C   UNL     1      -5.417  13.175  72.606  1.00  0.00     0.342 A  
HETATM   16  C   UNL     1      -5.249  14.065  73.666  1.00  0.00    -0.356 A  
HETATM   17  C   UNL     1      -5.795  15.345  73.598  1.00  0.00     1.617 A  
HETATM   18  C   UNL     1      -6.491  15.752  72.456  1.00  0.00     3.397 A  
ENDBRANCH  11  13
ENDBRANCH   9  11
TORSDOF 2
ENDMDL
MODEL      196
REMARK 921   NORMALIZED FREE ENERGY PREDICTED BY IDOCK:   54.12 KCAL/MOL
REMARK 922        TOTAL FREE ENERGY PREDICTED BY IDOCK:   60.18 KCAL/MOL
REMARK 923 INTER-LIGAND FREE ENERGY PREDICTED BY IDOCK:   60.09 KCAL/MOL
REMARK 924 INTRA-LIGAND FREE ENERGY PREDICTED BY IDOCK:    0.09 KCAL/MOL
REMARK 927      BINDING AFFINITY PREDICTED BY RF-SCORE:    0.00 PKD
ROOT
HETATM    1  C   UNL     1      -8.625  12.023  70.488  1.00  0.00     5.889 C  
HETATM    2  C   UNL     1      -9.924  12.764  70.797  1.00  0.00     6.418 C  
HETATM    3  C   UNL     1      -9.883  14.182  70.272  1.00  0.00     1.747 A  
HETATM    4  C   UNL     1     -10.221  12.751  72.295  1.00  0.00    14.476 C  
HETATM    5  C   UNL     1      -9.341  15.317  70.844  1.00  0.00     1.849 A  
HETATM    6  O   UNL     1     -11.348  13.427  72.638  1.00  0.00     3.498 OA 
HETATM    7  O   UNL     1      -9.557  12.163  73.136  1.00  0.00    20.064 OA 
HETATM    8  C   UNL     1      -9.566  16.482  70.053  1.00  0.00     0.770 A  
HETATM    9  C   UNL     1     -10.287  16.212  68.904  1.00  0.00    -0.250 A  
HETATM   10  S   UNL     1     -10.581  14.534  68.744  1.00  0.00    -0.251 SA 
ENDROOT
BRANCH   9  11
HETATM   11  C   UNL     1     -10.794  17.123  67.884  1.00  0.00    -0.294 C  
HETATM   12  O   UNL     1     -11.374  16.754  66.865  1.00  0.00     0.267 OA 
BRANCH  11  13
HETATM   13  C   UNL     1     -10.616  18.596  68.087  1.00  0.00    -0.288 A  
HETATM   14  C   UNL     1      -9.405  19.128  68.556  1.00  0.00    -0.426 A  
HETATM   15  C   UNL     1      -9.253  20.505  68.708  1.00  0.00     0.550 A  
HETATM   16  C   UNL     1     -10.316  21.358  68.417  1.00  0.00     1.306 A  
HETATM   17  C   UNL     1     -11.536  20.834  67.993  1.00  0.00     3.085 A  
HETATM   18  C   UNL     1     -11.690  19.455  67.831  1.00  0.00     1.685 A  
ENDBRANCH  11  13
ENDBRANCH   9  11
TORSDOF 2
ENDMDL
